MODEL 1
REMARK VINA RESULT:     -11.6      0.000      0.000
REMARK SMILES O=C(C[C@@H]1CN(C(=O)NCc2cccs2)CCO1)NCCCNC(=O)c1ccc(-c2c3nc(c(-c4c(F)c(F)c(F)c(F)c4F)c4ccc([nH]4)c(-c4c(F)c(F)c(F)c(F)c4F)c4nc(c(-c5c(F)c(F)c(F)c(F)c5F)c5ccc2[nH]5)C=C4)C=C3)cc1
REMARK SMILES IDX 20 1 19 2 1 3 2 4 3 6 4 7 5 8 18 9 6 10 17 11 16 12 7 13
REMARK SMILES IDX 8 14 9 15 10 17 11 18 12 19 15 20 13 21 14 22 21 23 22 24
REMARK SMILES IDX 23 25 24 26 25 28 26 29 27 30 88 31 28 32 87 33 29 34 30 35
REMARK SMILES IDX 31 36 81 37 32 38 86 39 80 40 82 41 33 42 85 43 79 44 78 45
REMARK SMILES IDX 34 47 66 48 46 49 65 50 47 51 50 52 64 53 83 54 48 55 49 56
REMARK SMILES IDX 63 58 84 59 51 60 35 61 36 62 44 63 37 64 38 65 42 66 45 67
REMARK SMILES IDX 39 68 40 69 43 70 41 71 67 72 68 73 76 74 69 75 70 76 74 77
REMARK SMILES IDX 77 78 71 79 72 80 75 81 73 82 52 83 53 84 61 85 54 86 55 87
REMARK SMILES IDX 59 88 62 89 56 90 57 91 60 92 58 93
REMARK H PARENT 19 5 9 16 23 27 82 46 50 57
REMARK Flexibility Score: inf
ROOT
ATOM      1  C   UNL A   1      31.160  30.760  25.378  1.00  0.00     0.117 C 
ENDROOT
BRANCH   1   2
ATOM      2  N   UNL A   1      31.985  29.731  25.973  1.00  0.00    -0.356 N 
ATOM      3  O   UNL A   1      33.219  29.291  24.092  1.00  0.00    -0.275 OA
ATOM      4  C   UNL A   1      32.974  29.083  25.275  1.00  0.00     0.222 C 
ATOM      5  H   UNL A   1      31.831  29.487  26.915  1.00  0.00     0.163 HD
BRANCH   4   6
ATOM      6  C   UNL A   1      33.704  28.023  26.066  1.00  0.00     0.133 C 
BRANCH   6   7
ATOM      7  C   UNL A   1      33.233  26.618  25.693  1.00  0.00     0.147 C 
ATOM      8  C   UNL A   1      32.379  26.026  26.832  1.00  0.00     0.154 C 
ATOM      9  O   UNL A   1      34.403  25.797  25.455  1.00  0.00    -0.374 OA
ATOM     10  N   UNL A   1      31.995  24.654  26.513  1.00  0.00    -0.320 N 
ATOM     11  C   UNL A   1      34.022  24.444  25.133  1.00  0.00     0.182 C 
ATOM     12  C   UNL A   1      33.179  23.821  26.253  1.00  0.00     0.150 C 
BRANCH  10  13
ATOM     13  C   UNL A   1      30.774  24.124  26.233  1.00  0.00     0.317 C 
ATOM     14  O   UNL A   1      30.009  23.767  27.136  1.00  0.00    -0.249 OA
ATOM     15  N   UNL A   1      30.294  23.933  24.998  1.00  0.00    -0.333 N 
ATOM     16  H   UNL A   1      29.445  23.434  25.027  1.00  0.00     0.165 HD
BRANCH  15  17
ATOM     17  C   UNL A   1      30.657  24.247  23.633  1.00  0.00     0.164 C 
BRANCH  17  18
ATOM     18  C   UNL A   1      30.431  25.709  23.385  1.00  0.00     0.024 A 
ATOM     19  C   UNL A   1      29.478  26.529  23.964  1.00  0.00     0.017 A 
ATOM     20  S   UNL A   1      31.401  26.589  22.278  1.00  0.00    -0.147 S 
ATOM     21  C   UNL A   1      29.531  27.866  23.474  1.00  0.00     0.012 A 
ATOM     22  C   UNL A   1      30.528  28.032  22.540  1.00  0.00     0.065 A 
ENDBRANCH  17  18
ENDBRANCH  15  17
ENDBRANCH  10  13
ENDBRANCH   6   7
ENDBRANCH   4   6
ENDBRANCH   1   2
BRANCH   1  23
ATOM     23  C   UNL A   1      31.028  31.985  26.275  1.00  0.00     0.042 C 
BRANCH  23  24
ATOM     24  C   UNL A   1      32.336  32.443  26.916  1.00  0.00     0.118 C 
BRANCH  24  25
ATOM     25  N   UNL A   1      32.294  33.822  27.375  1.00  0.00    -0.352 N 
ATOM     26  C   UNL A   1      33.029  34.474  28.331  1.00  0.00     0.251 C 
ATOM     27  H   UNL A   1      31.625  34.384  26.922  1.00  0.00     0.163 HD
ATOM     28  O   UNL A   1      32.720  35.623  28.640  1.00  0.00    -0.269 OA
BRANCH  26  29
ATOM     29  C   UNL A   1      34.176  33.825  29.007  1.00  0.00     0.039 A 
ATOM     30  C   UNL A   1      35.458  34.329  28.756  1.00  0.00     0.014 A 
ATOM     31  C   UNL A   1      34.026  32.695  29.814  1.00  0.00     0.014 A 
ATOM     32  C   UNL A   1      36.577  33.725  29.336  1.00  0.00     0.010 A 
ATOM     33  C   UNL A   1      35.136  32.134  30.449  1.00  0.00     0.010 A 
ATOM     34  C   UNL A   1      36.424  32.631  30.201  1.00  0.00    -0.014 A 
BRANCH  34  35
ATOM     35  C   UNL A   1      37.611  31.986  30.819  1.00  0.00     0.031 A 
ATOM     36  C   UNL A   1      38.051  32.369  32.206  1.00  0.00     0.074 A 
ATOM     37  C   UNL A   1      38.310  31.069  30.124  1.00  0.00     0.049 A 
ATOM     38  N   UNL A   1      39.058  31.914  32.912  1.00  0.00    -0.248 NA
ATOM     39  C   UNL A   1      37.272  33.416  32.883  1.00  0.00     0.031 C 
ATOM     40  C   UNL A   1      38.020  30.647  28.753  1.00  0.00     0.029 A 
ATOM     41  N   UNL A   1      39.410  30.325  30.475  1.00  0.00    -0.354 N 
ATOM     42  C   UNL A   1      39.039  32.630  34.102  1.00  0.00     0.074 A 
ATOM     43  C   UNL A   1      37.955  33.583  34.005  1.00  0.00     0.031 C 
ATOM     44  C   UNL A   1      38.901  29.701  28.389  1.00  0.00     0.029 A 
ATOM     45  C   UNL A   1      39.831  29.466  29.491  1.00  0.00     0.049 A 
ATOM     46  H   UNL A   1      39.855  30.403  31.350  1.00  0.00     0.167 HD
ATOM     47  C   UNL A   1      39.837  32.489  35.188  1.00  0.00     0.037 A 
ATOM     48  C   UNL A   1      40.846  28.580  29.483  1.00  0.00     0.037 A 
ATOM     49  C   UNL A   1      40.898  31.521  35.299  1.00  0.00     0.049 A 
ATOM     50  C   UNL A   1      41.693  28.418  30.715  1.00  0.00     0.074 A 
ATOM     51  C   UNL A   1      41.732  31.271  36.375  1.00  0.00     0.029 A 
ATOM     52  N   UNL A   1      41.265  30.638  34.295  1.00  0.00    -0.354 N 
ATOM     53  N   UNL A   1      41.623  29.054  31.858  1.00  0.00    -0.248 NA
ATOM     54  C   UNL A   1      42.749  27.397  30.659  1.00  0.00     0.031 C 
ATOM     55  C   UNL A   1      42.626  30.257  36.011  1.00  0.00     0.029 A 
ATOM     56  C   UNL A   1      42.318  29.845  34.724  1.00  0.00     0.049 A 
ATOM     57  H   UNL A   1      40.841  30.581  33.409  1.00  0.00     0.167 HD
ATOM     58  C   UNL A   1      42.599  28.489  32.669  1.00  0.00     0.074 A 
ATOM     59  C   UNL A   1      43.239  27.450  31.889  1.00  0.00     0.031 C 
ATOM     60  C   UNL A   1      42.933  28.803  33.945  1.00  0.00     0.037 A 
BRANCH  47  61
ATOM     61  C   UNL A   1      39.588  33.404  36.353  1.00  0.00     0.064 A 
ATOM     62  C   UNL A   1      38.753  33.027  37.416  1.00  0.00     0.173 A 
ATOM     63  C   UNL A   1      40.211  34.658  36.421  1.00  0.00     0.173 A 
ATOM     64  F   UNL A   1      38.124  31.842  37.393  1.00  0.00    -0.203 F 
ATOM     65  C   UNL A   1      38.528  33.884  38.490  1.00  0.00     0.198 A 
ATOM     66  C   UNL A   1      40.006  35.502  37.511  1.00  0.00     0.198 A 
ATOM     67  F   UNL A   1      41.022  35.066  35.434  1.00  0.00    -0.203 F 
ATOM     68  F   UNL A   1      37.688  33.523  39.469  1.00  0.00    -0.200 F 
ATOM     69  C   UNL A   1      39.160  35.117  38.540  1.00  0.00     0.200 A 
ATOM     70  F   UNL A   1      40.627  36.689  37.564  1.00  0.00    -0.200 F 
ATOM     71  F   UNL A   1      38.946  35.940  39.577  1.00  0.00    -0.200 F 
ENDBRANCH  47  61
BRANCH  48  72
ATOM     72  C   UNL A   1      41.084  27.740  28.281  1.00  0.00     0.064 A 
ATOM     73  C   UNL A   1      40.464  26.490  28.146  1.00  0.00     0.173 A 
ATOM     74  C   UNL A   1      41.936  28.163  27.252  1.00  0.00     0.173 A 
ATOM     75  F   UNL A   1      39.655  26.035  29.115  1.00  0.00    -0.203 F 
ATOM     76  C   UNL A   1      40.706  25.683  27.037  1.00  0.00     0.198 A 
ATOM     77  C   UNL A   1      42.157  27.366  26.130  1.00  0.00     0.198 A 
ATOM     78  F   UNL A   1      42.548  29.353  27.333  1.00  0.00    -0.203 F 
ATOM     79  F   UNL A   1      40.137  24.473  26.954  1.00  0.00    -0.200 F 
ATOM     80  C   UNL A   1      41.549  26.124  26.027  1.00  0.00     0.200 A 
ATOM     81  F   UNL A   1      42.963  27.800  25.152  1.00  0.00    -0.200 F 
ATOM     82  F   UNL A   1      41.781  25.348  24.959  1.00  0.00    -0.200 F 
ENDBRANCH  48  72
BRANCH  60  83
ATOM     83  C   UNL A   1      44.007  27.979  34.594  1.00  0.00     0.064 A 
ATOM     84  C   UNL A   1      45.352  28.374  34.578  1.00  0.00     0.173 A 
ATOM     85  C   UNL A   1      43.678  26.787  35.257  1.00  0.00     0.173 A 
ATOM     86  F   UNL A   1      45.719  29.499  33.946  1.00  0.00    -0.203 F 
ATOM     87  C   UNL A   1      46.335  27.587  35.174  1.00  0.00     0.198 A 
ATOM     88  C   UNL A   1      44.659  26.018  35.876  1.00  0.00     0.198 A 
ATOM     89  F   UNL A   1      42.404  26.368  35.305  1.00  0.00    -0.203 F 
ATOM     90  F   UNL A   1      47.620  27.956  35.102  1.00  0.00    -0.200 F 
ATOM     91  C   UNL A   1      45.987  26.414  35.827  1.00  0.00     0.200 A 
ATOM     92  F   UNL A   1      44.320  24.889  36.515  1.00  0.00    -0.200 F 
ATOM     93  F   UNL A   1      46.934  25.658  36.399  1.00  0.00    -0.200 F 
ENDBRANCH  60  83
ENDBRANCH  34  35
ENDBRANCH  26  29
ENDBRANCH  24  25
ENDBRANCH  23  24
ENDBRANCH   1  23
TORSDOF 14
ENDMDL
MODEL 2
REMARK VINA RESULT:     -11.6      1.319      2.626
REMARK SMILES O=C(C[C@@H]1CN(C(=O)NCc2cccs2)CCO1)NCCCNC(=O)c1ccc(-c2c3nc(c(-c4c(F)c(F)c(F)c(F)c4F)c4ccc([nH]4)c(-c4c(F)c(F)c(F)c(F)c4F)c4nc(c(-c5c(F)c(F)c(F)c(F)c5F)c5ccc2[nH]5)C=C4)C=C3)cc1
REMARK SMILES IDX 20 1 19 2 1 3 2 4 3 6 4 7 5 8 18 9 6 10 17 11 16 12 7 13
REMARK SMILES IDX 8 14 9 15 10 17 11 18 12 19 15 20 13 21 14 22 21 23 22 24
REMARK SMILES IDX 23 25 24 26 25 28 26 29 27 30 88 31 28 32 87 33 29 34 30 35
REMARK SMILES IDX 31 36 81 37 32 38 86 39 80 40 82 41 33 42 85 43 79 44 78 45
REMARK SMILES IDX 34 47 66 48 46 49 65 50 47 51 50 52 64 53 83 54 48 55 49 56
REMARK SMILES IDX 63 58 84 59 51 60 35 61 36 62 44 63 37 64 38 65 42 66 45 67
REMARK SMILES IDX 39 68 40 69 43 70 41 71 67 72 68 73 76 74 69 75 70 76 74 77
REMARK SMILES IDX 77 78 71 79 72 80 75 81 73 82 52 83 53 84 61 85 54 86 55 87
REMARK SMILES IDX 59 88 62 89 56 90 57 91 60 92 58 93
REMARK H PARENT 19 5 9 16 23 27 82 46 50 57
REMARK Flexibility Score: inf
ROOT
ATOM      1  C   UNL A   1      31.155  30.807  25.430  1.00  0.00     0.117 C 
ENDROOT
BRANCH   1   2
ATOM      2  N   UNL A   1      31.752  29.616  25.992  1.00  0.00    -0.356 N 
ATOM      3  O   UNL A   1      33.307  29.319  24.334  1.00  0.00    -0.275 OA
ATOM      4  C   UNL A   1      32.808  28.969  25.398  1.00  0.00     0.222 C 
ATOM      5  H   UNL A   1      31.388  29.255  26.833  1.00  0.00     0.163 HD
BRANCH   4   6
ATOM      6  C   UNL A   1      33.269  27.728  26.126  1.00  0.00     0.133 C 
BRANCH   6   7
ATOM      7  C   UNL A   1      32.174  26.664  26.176  1.00  0.00     0.147 C 
ATOM      8  C   UNL A   1      32.786  25.266  25.954  1.00  0.00     0.154 C 
ATOM      9  O   UNL A   1      31.204  26.965  25.143  1.00  0.00    -0.374 OA
ATOM     10  N   UNL A   1      31.732  24.255  25.921  1.00  0.00    -0.320 N 
ATOM     11  C   UNL A   1      30.160  25.969  25.116  1.00  0.00     0.182 C 
ATOM     12  C   UNL A   1      30.735  24.565  24.885  1.00  0.00     0.150 C 
BRANCH  10  13
ATOM     13  C   UNL A   1      31.447  23.251  26.794  1.00  0.00     0.317 C 
ATOM     14  O   UNL A   1      30.424  23.277  27.487  1.00  0.00    -0.249 OA
ATOM     15  N   UNL A   1      32.217  22.174  26.991  1.00  0.00    -0.333 N 
ATOM     16  H   UNL A   1      31.880  21.638  27.745  1.00  0.00     0.165 HD
BRANCH  15  17
ATOM     17  C   UNL A   1      33.399  21.568  26.419  1.00  0.00     0.164 C 
BRANCH  17  18
ATOM     18  C   UNL A   1      32.993  20.626  25.324  1.00  0.00     0.024 A 
ATOM     19  C   UNL A   1      32.930  19.245  25.376  1.00  0.00     0.017 A 
ATOM     20  S   UNL A   1      32.527  21.200  23.777  1.00  0.00    -0.147 S 
ATOM     21  C   UNL A   1      32.527  18.665  24.137  1.00  0.00     0.012 A 
ATOM     22  C   UNL A   1      32.287  19.621  23.177  1.00  0.00     0.065 A 
ENDBRANCH  17  18
ENDBRANCH  15  17
ENDBRANCH  10  13
ENDBRANCH   6   7
ENDBRANCH   4   6
ENDBRANCH   1   2
BRANCH   1  23
ATOM     23  C   UNL A   1      31.066  31.943  26.443  1.00  0.00     0.042 C 
BRANCH  23  24
ATOM     24  C   UNL A   1      32.417  32.488  26.900  1.00  0.00     0.118 C 
BRANCH  24  25
ATOM     25  N   UNL A   1      32.340  33.849  27.408  1.00  0.00    -0.352 N 
ATOM     26  C   UNL A   1      33.047  34.479  28.398  1.00  0.00     0.251 C 
ATOM     27  H   UNL A   1      31.667  34.413  26.964  1.00  0.00     0.163 HD
ATOM     28  O   UNL A   1      32.710  35.609  28.744  1.00  0.00    -0.269 OA
BRANCH  26  29
ATOM     29  C   UNL A   1      34.196  33.828  29.069  1.00  0.00     0.039 A 
ATOM     30  C   UNL A   1      35.483  34.284  28.757  1.00  0.00     0.014 A 
ATOM     31  C   UNL A   1      34.041  32.740  29.930  1.00  0.00     0.014 A 
ATOM     32  C   UNL A   1      36.602  33.674  29.330  1.00  0.00     0.010 A 
ATOM     33  C   UNL A   1      35.154  32.176  30.557  1.00  0.00     0.010 A 
ATOM     34  C   UNL A   1      36.447  32.626  30.249  1.00  0.00    -0.014 A 
BRANCH  34  35
ATOM     35  C   UNL A   1      37.635  31.975  30.859  1.00  0.00     0.031 A 
ATOM     36  C   UNL A   1      38.079  32.349  32.248  1.00  0.00     0.074 A 
ATOM     37  C   UNL A   1      38.331  31.061  30.157  1.00  0.00     0.049 A 
ATOM     38  N   UNL A   1      39.086  31.888  32.948  1.00  0.00    -0.248 NA
ATOM     39  C   UNL A   1      37.303  33.394  32.932  1.00  0.00     0.031 C 
ATOM     40  C   UNL A   1      38.036  30.647  28.785  1.00  0.00     0.029 A 
ATOM     41  N   UNL A   1      39.430  30.313  30.501  1.00  0.00    -0.354 N 
ATOM     42  C   UNL A   1      39.072  32.597  34.143  1.00  0.00     0.074 A 
ATOM     43  C   UNL A   1      37.989  33.553  34.054  1.00  0.00     0.031 C 
ATOM     44  C   UNL A   1      38.915  29.702  28.413  1.00  0.00     0.029 A 
ATOM     45  C   UNL A   1      39.847  29.459  29.511  1.00  0.00     0.049 A 
ATOM     46  H   UNL A   1      39.878  30.385  31.375  1.00  0.00     0.167 HD
ATOM     47  C   UNL A   1      39.873  32.449  35.226  1.00  0.00     0.037 A 
ATOM     48  C   UNL A   1      40.860  28.572  29.495  1.00  0.00     0.037 A 
ATOM     49  C   UNL A   1      40.932  31.479  35.328  1.00  0.00     0.049 A 
ATOM     50  C   UNL A   1      41.710  28.401  30.724  1.00  0.00     0.074 A 
ATOM     51  C   UNL A   1      41.768  31.221  36.401  1.00  0.00     0.029 A 
ATOM     52  N   UNL A   1      41.295  30.601  34.319  1.00  0.00    -0.354 N 
ATOM     53  N   UNL A   1      41.644  29.030  31.871  1.00  0.00    -0.248 NA
ATOM     54  C   UNL A   1      42.764  27.379  30.660  1.00  0.00     0.031 C 
ATOM     55  C   UNL A   1      42.660  30.207  36.029  1.00  0.00     0.029 A 
ATOM     56  C   UNL A   1      42.349  29.804  34.740  1.00  0.00     0.049 A 
ATOM     57  H   UNL A   1      40.869  30.550  33.433  1.00  0.00     0.167 HD
ATOM     58  C   UNL A   1      42.621  28.459  32.676  1.00  0.00     0.074 A 
ATOM     59  C   UNL A   1      43.258  27.424  31.889  1.00  0.00     0.031 C 
ATOM     60  C   UNL A   1      42.960  28.765  33.953  1.00  0.00     0.037 A 
BRANCH  47  61
ATOM     61  C   UNL A   1      39.628  33.357  36.396  1.00  0.00     0.064 A 
ATOM     62  C   UNL A   1      40.239  34.618  36.486  1.00  0.00     0.173 A 
ATOM     63  C   UNL A   1      38.753  32.978  37.424  1.00  0.00     0.173 A 
ATOM     64  F   UNL A   1      41.094  35.023  35.536  1.00  0.00    -0.203 F 
ATOM     65  C   UNL A   1      40.005  35.452  37.577  1.00  0.00     0.198 A 
ATOM     66  C   UNL A   1      38.499  33.826  38.499  1.00  0.00     0.198 A 
ATOM     67  F   UNL A   1      38.139  31.786  37.385  1.00  0.00    -0.203 F 
ATOM     68  F   UNL A   1      40.637  36.629  37.666  1.00  0.00    -0.200 F 
ATOM     69  C   UNL A   1      39.130  35.059  38.578  1.00  0.00     0.200 A 
ATOM     70  F   UNL A   1      37.644  33.450  39.461  1.00  0.00    -0.200 F 
ATOM     71  F   UNL A   1      38.902  35.864  39.625  1.00  0.00    -0.200 F 
ENDBRANCH  47  61
BRANCH  48  72
ATOM     72  C   UNL A   1      41.094  27.738  28.288  1.00  0.00     0.064 A 
ATOM     73  C   UNL A   1      40.472  26.489  28.148  1.00  0.00     0.173 A 
ATOM     74  C   UNL A   1      41.943  28.166  27.259  1.00  0.00     0.173 A 
ATOM     75  F   UNL A   1      39.667  26.030  29.117  1.00  0.00    -0.203 F 
ATOM     76  C   UNL A   1      40.710  25.689  27.033  1.00  0.00     0.198 A 
ATOM     77  C   UNL A   1      42.160  27.376  26.132  1.00  0.00     0.198 A 
ATOM     78  F   UNL A   1      42.557  29.355  27.345  1.00  0.00    -0.203 F 
ATOM     79  F   UNL A   1      40.140  24.480  26.946  1.00  0.00    -0.200 F 
ATOM     80  C   UNL A   1      41.551  26.135  26.024  1.00  0.00     0.200 A 
ATOM     81  F   UNL A   1      42.964  27.814  25.154  1.00  0.00    -0.200 F 
ATOM     82  F   UNL A   1      41.779  25.364  24.951  1.00  0.00    -0.200 F 
ENDBRANCH  48  72
BRANCH  60  83
ATOM     83  C   UNL A   1      44.034  27.936  34.594  1.00  0.00     0.064 A 
ATOM     84  C   UNL A   1      43.740  26.747  35.277  1.00  0.00     0.173 A 
ATOM     85  C   UNL A   1      45.378  28.331  34.507  1.00  0.00     0.173 A 
ATOM     86  F   UNL A   1      42.470  26.335  35.400  1.00  0.00    -0.203 F 
ATOM     87  C   UNL A   1      44.751  26.000  35.878  1.00  0.00     0.198 A 
ATOM     88  C   UNL A   1      46.387  27.567  35.084  1.00  0.00     0.198 A 
ATOM     89  F   UNL A   1      45.711  29.457  33.860  1.00  0.00    -0.203 F 
ATOM     90  F   UNL A   1      44.442  24.895  36.570  1.00  0.00    -0.200 F 
ATOM     91  C   UNL A   1      46.072  26.407  35.776  1.00  0.00     0.200 A 
ATOM     92  F   UNL A   1      47.666  27.956  34.977  1.00  0.00    -0.200 F 
ATOM     93  F   UNL A   1      47.043  25.687  36.356  1.00  0.00    -0.200 F 
ENDBRANCH  60  83
ENDBRANCH  34  35
ENDBRANCH  26  29
ENDBRANCH  24  25
ENDBRANCH  23  24
ENDBRANCH   1  23
TORSDOF 14
ENDMDL
MODEL 3
REMARK VINA RESULT:     -11.4      1.420      3.027
REMARK SMILES O=C(C[C@@H]1CN(C(=O)NCc2cccs2)CCO1)NCCCNC(=O)c1ccc(-c2c3nc(c(-c4c(F)c(F)c(F)c(F)c4F)c4ccc([nH]4)c(-c4c(F)c(F)c(F)c(F)c4F)c4nc(c(-c5c(F)c(F)c(F)c(F)c5F)c5ccc2[nH]5)C=C4)C=C3)cc1
REMARK SMILES IDX 20 1 19 2 1 3 2 4 3 6 4 7 5 8 18 9 6 10 17 11 16 12 7 13
REMARK SMILES IDX 8 14 9 15 10 17 11 18 12 19 15 20 13 21 14 22 21 23 22 24
REMARK SMILES IDX 23 25 24 26 25 28 26 29 27 30 88 31 28 32 87 33 29 34 30 35
REMARK SMILES IDX 31 36 81 37 32 38 86 39 80 40 82 41 33 42 85 43 79 44 78 45
REMARK SMILES IDX 34 47 66 48 46 49 65 50 47 51 50 52 64 53 83 54 48 55 49 56
REMARK SMILES IDX 63 58 84 59 51 60 35 61 36 62 44 63 37 64 38 65 42 66 45 67
REMARK SMILES IDX 39 68 40 69 43 70 41 71 67 72 68 73 76 74 69 75 70 76 74 77
REMARK SMILES IDX 77 78 71 79 72 80 75 81 73 82 52 83 53 84 61 85 54 86 55 87
REMARK SMILES IDX 59 88 62 89 56 90 57 91 60 92 58 93
REMARK H PARENT 19 5 9 16 23 27 82 46 50 57
REMARK Flexibility Score: inf
ROOT
ATOM      1  C   UNL A   1      31.375  30.796  26.837  1.00  0.00     0.117 C 
ENDROOT
BRANCH   1   2
ATOM      2  N   UNL A   1      32.210  30.042  25.928  1.00  0.00    -0.356 N 
ATOM      3  O   UNL A   1      32.819  28.430  27.441  1.00  0.00    -0.275 OA
ATOM      4  C   UNL A   1      32.859  28.892  26.306  1.00  0.00     0.222 C 
ATOM      5  H   UNL A   1      32.315  30.364  25.004  1.00  0.00     0.163 HD
BRANCH   4   6
ATOM      6  C   UNL A   1      33.704  28.267  25.220  1.00  0.00     0.133 C 
BRANCH   6   7
ATOM      7  C   UNL A   1      32.885  27.323  24.341  1.00  0.00     0.147 C 
ATOM      8  C   UNL A   1      33.336  27.442  22.872  1.00  0.00     0.154 C 
ATOM      9  O   UNL A   1      31.487  27.680  24.475  1.00  0.00    -0.374 OA
ATOM     10  N   UNL A   1      32.501  26.601  22.019  1.00  0.00    -0.320 N 
ATOM     11  C   UNL A   1      30.662  26.843  23.637  1.00  0.00     0.182 C 
ATOM     12  C   UNL A   1      31.079  26.948  22.164  1.00  0.00     0.150 C 
BRANCH  10  13
ATOM     13  C   UNL A   1      32.810  25.477  21.317  1.00  0.00     0.317 C 
ATOM     14  O   UNL A   1      33.031  25.523  20.102  1.00  0.00    -0.249 OA
ATOM     15  N   UNL A   1      32.897  24.251  21.846  1.00  0.00    -0.333 N 
ATOM     16  H   UNL A   1      33.018  23.575  21.140  1.00  0.00     0.165 HD
BRANCH  15  17
ATOM     17  C   UNL A   1      32.867  23.629  23.152  1.00  0.00     0.164 C 
BRANCH  17  18
ATOM     18  C   UNL A   1      34.259  23.582  23.710  1.00  0.00     0.024 A 
ATOM     19  C   UNL A   1      35.395  23.072  23.107  1.00  0.00     0.017 A 
ATOM     20  S   UNL A   1      34.620  24.200  25.268  1.00  0.00    -0.147 S 
ATOM     21  C   UNL A   1      36.549  23.167  23.939  1.00  0.00     0.012 A 
ATOM     22  C   UNL A   1      36.262  23.751  25.151  1.00  0.00     0.065 A 
ENDBRANCH  17  18
ENDBRANCH  15  17
ENDBRANCH  10  13
ENDBRANCH   6   7
ENDBRANCH   4   6
ENDBRANCH   1   2
BRANCH   1  23
ATOM     23  C   UNL A   1      31.398  32.291  26.538  1.00  0.00     0.042 C 
BRANCH  23  24
ATOM     24  C   UNL A   1      32.699  32.991  26.925  1.00  0.00     0.118 C 
BRANCH  24  25
ATOM     25  N   UNL A   1      32.483  34.249  27.621  1.00  0.00    -0.352 N 
ATOM     26  C   UNL A   1      33.075  34.768  28.744  1.00  0.00     0.251 C 
ATOM     27  H   UNL A   1      31.797  34.828  27.218  1.00  0.00     0.163 HD
ATOM     28  O   UNL A   1      32.629  35.806  29.227  1.00  0.00    -0.269 OA
BRANCH  26  29
ATOM     29  C   UNL A   1      34.227  34.102  29.394  1.00  0.00     0.039 A 
ATOM     30  C   UNL A   1      35.515  34.472  28.987  1.00  0.00     0.014 A 
ATOM     31  C   UNL A   1      34.069  33.078  30.330  1.00  0.00     0.014 A 
ATOM     32  C   UNL A   1      36.634  33.843  29.538  1.00  0.00     0.010 A 
ATOM     33  C   UNL A   1      35.187  32.498  30.933  1.00  0.00     0.010 A 
ATOM     34  C   UNL A   1      36.481  32.862  30.529  1.00  0.00    -0.014 A 
BRANCH  34  35
ATOM     35  C   UNL A   1      37.669  32.190  31.117  1.00  0.00     0.031 A 
ATOM     36  C   UNL A   1      38.143  32.553  32.499  1.00  0.00     0.074 A 
ATOM     37  C   UNL A   1      38.338  31.268  30.400  1.00  0.00     0.049 A 
ATOM     38  N   UNL A   1      39.154  32.075  33.180  1.00  0.00    -0.248 NA
ATOM     39  C   UNL A   1      37.395  33.608  33.200  1.00  0.00     0.031 C 
ATOM     40  C   UNL A   1      38.013  30.863  29.032  1.00  0.00     0.029 A 
ATOM     41  N   UNL A   1      39.431  30.503  30.723  1.00  0.00    -0.354 N 
ATOM     42  C   UNL A   1      39.172  32.780  34.377  1.00  0.00     0.074 A 
ATOM     43  C   UNL A   1      38.102  33.753  34.310  1.00  0.00     0.031 C 
ATOM     44  C   UNL A   1      38.871  29.906  28.643  1.00  0.00     0.029 A 
ATOM     45  C   UNL A   1      39.818  29.645  29.724  1.00  0.00     0.049 A 
ATOM     46  H   UNL A   1      39.895  30.564  31.590  1.00  0.00     0.167 HD
ATOM     47  C   UNL A   1      39.988  32.615  35.446  1.00  0.00     0.037 A 
ATOM     48  C   UNL A   1      40.816  28.742  29.687  1.00  0.00     0.037 A 
ATOM     49  C   UNL A   1      41.034  31.628  35.527  1.00  0.00     0.049 A 
ATOM     50  C   UNL A   1      41.685  28.554  30.901  1.00  0.00     0.074 A 
ATOM     51  C   UNL A   1      41.884  31.354  36.584  1.00  0.00     0.029 A 
ATOM     52  N   UNL A   1      41.366  30.748  34.509  1.00  0.00    -0.354 N 
ATOM     53  N   UNL A   1      41.648  29.181  32.051  1.00  0.00    -0.248 NA
ATOM     54  C   UNL A   1      42.721  27.516  30.816  1.00  0.00     0.031 C 
ATOM     55  C   UNL A   1      42.753  30.328  36.194  1.00  0.00     0.029 A 
ATOM     56  C   UNL A   1      42.414  29.934  34.909  1.00  0.00     0.049 A 
ATOM     57  H   UNL A   1      40.923  30.707  33.630  1.00  0.00     0.167 HD
ATOM     58  C   UNL A   1      42.630  28.592  32.837  1.00  0.00     0.074 A 
ATOM     59  C   UNL A   1      43.236  27.549  32.036  1.00  0.00     0.031 C 
ATOM     60  C   UNL A   1      42.995  28.889  34.109  1.00  0.00     0.037 A 
BRANCH  47  61
ATOM     61  C   UNL A   1      39.778  33.524  36.623  1.00  0.00     0.064 A 
ATOM     62  C   UNL A   1      40.439  34.758  36.724  1.00  0.00     0.173 A 
ATOM     63  C   UNL A   1      38.886  33.172  37.646  1.00  0.00     0.173 A 
ATOM     64  F   UNL A   1      41.312  35.136  35.779  1.00  0.00    -0.203 F 
ATOM     65  C   UNL A   1      40.236  35.592  37.821  1.00  0.00     0.198 A 
ATOM     66  C   UNL A   1      38.664  34.022  38.727  1.00  0.00     0.198 A 
ATOM     67  F   UNL A   1      38.224  32.006  37.596  1.00  0.00    -0.203 F 
ATOM     68  F   UNL A   1      40.916  36.742  37.921  1.00  0.00    -0.200 F 
ATOM     69  C   UNL A   1      39.345  35.227  38.818  1.00  0.00     0.200 A 
ATOM     70  F   UNL A   1      37.792  33.673  39.685  1.00  0.00    -0.200 F 
ATOM     71  F   UNL A   1      39.147  36.032  39.871  1.00  0.00    -0.200 F 
ENDBRANCH  47  61
BRANCH  48  72
ATOM     72  C   UNL A   1      41.016  27.909  28.474  1.00  0.00     0.064 A 
ATOM     73  C   UNL A   1      41.910  28.306  27.470  1.00  0.00     0.173 A 
ATOM     74  C   UNL A   1      40.318  26.707  28.291  1.00  0.00     0.173 A 
ATOM     75  F   UNL A   1      42.586  29.459  27.593  1.00  0.00    -0.203 F 
ATOM     76  C   UNL A   1      42.079  27.545  26.316  1.00  0.00     0.198 A 
ATOM     77  C   UNL A   1      40.507  25.933  27.148  1.00  0.00     0.198 A 
ATOM     78  F   UNL A   1      39.455  26.283  29.226  1.00  0.00    -0.203 F 
ATOM     79  F   UNL A   1      42.905  27.971  25.351  1.00  0.00    -0.200 F 
ATOM     80  C   UNL A   1      41.381  26.357  26.158  1.00  0.00     0.200 A 
ATOM     81  F   UNL A   1      39.840  24.781  27.004  1.00  0.00    -0.200 F 
ATOM     82  F   UNL A   1      41.546  25.624  25.048  1.00  0.00    -0.200 F 
ENDBRANCH  48  72
BRANCH  60  83
ATOM     83  C   UNL A   1      44.066  28.041  34.729  1.00  0.00     0.064 A 
ATOM     84  C   UNL A   1      43.767  26.848  35.404  1.00  0.00     0.173 A 
ATOM     85  C   UNL A   1      45.414  28.421  34.630  1.00  0.00     0.173 A 
ATOM     86  F   UNL A   1      42.493  26.450  35.537  1.00  0.00    -0.203 F 
ATOM     87  C   UNL A   1      44.776  26.083  35.985  1.00  0.00     0.198 A 
ATOM     88  C   UNL A   1      46.421  27.639  35.188  1.00  0.00     0.198 A 
ATOM     89  F   UNL A   1      45.753  29.550  33.990  1.00  0.00    -0.203 F 
ATOM     90  F   UNL A   1      44.462  24.976  36.670  1.00  0.00    -0.200 F 
ATOM     91  C   UNL A   1      46.101  26.476  35.872  1.00  0.00     0.200 A 
ATOM     92  F   UNL A   1      47.703  28.014  35.069  1.00  0.00    -0.200 F 
ATOM     93  F   UNL A   1      47.070  25.739  36.433  1.00  0.00    -0.200 F 
ENDBRANCH  60  83
ENDBRANCH  34  35
ENDBRANCH  26  29
ENDBRANCH  24  25
ENDBRANCH  23  24
ENDBRANCH   1  23
TORSDOF 14
ENDMDL
