MODEL 1
REMARK VINA RESULT:     -12.0      0.000      0.000
REMARK SMILES Cc1nc2nc(CNC(=O)OC(C)(C)C)nn2c(C)c1CCC(=O)NCCCNC(=O)c1ccc(-c2c3nc(c(-c4c(F)c(F)c(F)c(F)c4F)c4ccc([nH]4)c(-c4c(F)c(F)c(F)c(F)c4F)c4nc(c(-c5c(F)c(F)c(F)c(F)c5F)c5ccc2[nH]5)C=C4)C=C3)cc1
REMARK SMILES IDX 23 1 24 2 25 3 22 5 21 6 20 7 1 8 2 9 3 10 4 11 18 12 5 13
REMARK SMILES IDX 17 14 19 15 6 16 16 17 7 18 8 19 9 20 10 22 11 23 12 24
REMARK SMILES IDX 13 25 14 26 15 27 26 28 27 29 28 30 29 31 30 32 31 34 32 35
REMARK SMILES IDX 33 36 94 37 34 38 93 39 35 40 36 41 37 42 87 43 38 44 92 45
REMARK SMILES IDX 86 46 88 47 39 48 91 49 85 50 84 51 40 53 72 54 52 55 71 56
REMARK SMILES IDX 53 57 56 58 70 59 89 60 54 61 55 62 69 64 90 65 57 66 41 67
REMARK SMILES IDX 42 68 50 69 43 70 44 71 48 72 51 73 45 74 46 75 49 76 47 77
REMARK SMILES IDX 73 78 74 79 82 80 75 81 76 82 80 83 83 84 77 85 78 86 81 87
REMARK SMILES IDX 79 88 58 89 59 90 67 91 60 92 61 93 65 94 68 95 62 96 63 97
REMARK SMILES IDX 66 98 64 99
REMARK H PARENT 25 4 8 21 29 33 88 52 56 63
REMARK Flexibility Score: inf
ROOT
ATOM      1  C   UNL A   1      32.514  22.146  23.715  1.00  0.00     0.220 C 
ATOM      2  O   UNL A   1      31.777  21.345  24.297  1.00  0.00    -0.275 OA
ATOM      3  N   UNL A   1      33.858  22.089  23.962  1.00  0.00    -0.356 N 
ATOM      4  H   UNL A   1      34.102  21.335  24.547  1.00  0.00     0.163 HD
ENDROOT
BRANCH   1   5
ATOM      5  C   UNL A   1      31.902  23.180  22.787  1.00  0.00     0.105 C 
BRANCH   5   6
ATOM      6  C   UNL A   1      31.026  24.203  23.546  1.00  0.00     0.049 C 
BRANCH   6   7
ATOM      7  C   UNL A   1      31.867  24.892  24.588  1.00  0.00    -0.005 A 
ATOM      8  C   UNL A   1      30.598  23.547  26.458  1.00  0.00     0.067 C 
ATOM      9  C   UNL A   1      31.430  24.751  26.027  1.00  0.00     0.046 A 
ATOM     10  N   UNL A   1      31.714  25.632  26.934  1.00  0.00    -0.216 NA
ATOM     11  C   UNL A   1      32.350  26.751  26.492  1.00  0.00     0.252 A 
ATOM     12  C   UNL A   1      32.786  25.864  24.317  1.00  0.00     0.048 A 
ATOM     13  N   UNL A   1      32.351  27.917  27.044  1.00  0.00    -0.192 NA
ATOM     14  N   UNL A   1      32.938  26.908  25.254  1.00  0.00    -0.201 N 
ATOM     15  C   UNL A   1      33.507  26.029  23.024  1.00  0.00     0.067 C 
ATOM     16  C   UNL A   1      32.900  28.869  26.234  1.00  0.00     0.172 A 
ATOM     17  N   UNL A   1      33.374  28.258  25.107  1.00  0.00    -0.148 NA
BRANCH  16  18
ATOM     18  C   UNL A   1      32.866  30.497  26.614  1.00  0.00     0.199 C 
BRANCH  18  19
ATOM     19  N   UNL A   1      33.712  31.375  27.733  1.00  0.00    -0.314 N 
ATOM     20  C   UNL A   1      34.892  31.902  28.343  1.00  0.00     0.408 C 
ATOM     21  H   UNL A   1      32.996  31.744  28.300  1.00  0.00     0.167 HD
ATOM     22  O   UNL A   1      34.724  32.727  29.223  1.00  0.00    -0.225 OA
BRANCH  20  23
ATOM     23  O   UNL A   1      36.164  31.528  27.975  1.00  0.00    -0.444 OA
BRANCH  23  24
ATOM     24  C   UNL A   1      37.121  30.466  28.486  1.00  0.00     0.106 C 
ATOM     25  C   UNL A   1      38.362  31.041  29.175  1.00  0.00     0.056 C 
ATOM     26  C   UNL A   1      36.411  29.453  29.389  1.00  0.00     0.056 C 
ATOM     27  C   UNL A   1      37.668  29.623  27.281  1.00  0.00     0.056 C 
ENDBRANCH  23  24
ENDBRANCH  20  23
ENDBRANCH  18  19
ENDBRANCH  16  18
ENDBRANCH   6   7
ENDBRANCH   5   6
ENDBRANCH   1   5
BRANCH   3  28
ATOM     28  C   UNL A   1      35.051  22.909  23.551  1.00  0.00     0.117 C 
BRANCH  28  29
ATOM     29  C   UNL A   1      36.112  22.944  24.696  1.00  0.00     0.042 C 
BRANCH  29  30
ATOM     30  C   UNL A   1      37.356  21.878  24.917  1.00  0.00     0.118 C 
BRANCH  30  31
ATOM     31  N   UNL A   1      38.691  21.802  25.923  1.00  0.00    -0.352 N 
ATOM     32  C   UNL A   1      39.729  22.478  26.785  1.00  0.00     0.251 C 
ATOM     33  H   UNL A   1      38.905  20.842  25.981  1.00  0.00     0.163 HD
ATOM     34  O   UNL A   1      40.489  21.677  27.355  1.00  0.00    -0.269 OA
BRANCH  32  35
ATOM     35  C   UNL A   1      40.069  24.057  27.126  1.00  0.00     0.039 A 
ATOM     36  C   UNL A   1      41.283  24.569  27.605  1.00  0.00     0.014 A 
ATOM     37  C   UNL A   1      39.180  25.112  26.961  1.00  0.00     0.014 A 
ATOM     38  C   UNL A   1      41.399  25.668  28.475  1.00  0.00     0.010 A 
ATOM     39  C   UNL A   1      39.226  26.228  27.858  1.00  0.00     0.010 A 
ATOM     40  C   UNL A   1      40.278  26.412  28.768  1.00  0.00    -0.014 A 
BRANCH  40  41
ATOM     41  C   UNL A   1      40.428  27.556  29.700  1.00  0.00     0.031 A 
ATOM     42  C   UNL A   1      41.480  28.443  29.172  1.00  0.00     0.074 A 
ATOM     43  C   UNL A   1      39.814  27.952  30.845  1.00  0.00     0.049 A 
ATOM     44  N   UNL A   1      42.697  28.563  29.590  1.00  0.00    -0.248 NA
ATOM     45  C   UNL A   1      41.187  29.086  27.886  1.00  0.00     0.031 C 
ATOM     46  C   UNL A   1      38.608  27.444  31.504  1.00  0.00     0.029 A 
ATOM     47  N   UNL A   1      40.148  29.026  31.652  1.00  0.00    -0.354 N 
ATOM     48  C   UNL A   1      43.288  29.401  28.660  1.00  0.00     0.074 A 
ATOM     49  C   UNL A   1      42.407  29.462  27.523  1.00  0.00     0.031 C 
ATOM     50  C   UNL A   1      38.201  28.326  32.454  1.00  0.00     0.029 A 
ATOM     51  C   UNL A   1      39.164  29.414  32.561  1.00  0.00     0.049 A 
ATOM     52  H   UNL A   1      41.018  29.483  31.589  1.00  0.00     0.167 HD
ATOM     53  C   UNL A   1      44.312  30.232  28.975  1.00  0.00     0.037 A 
ATOM     54  C   UNL A   1      39.123  30.567  33.291  1.00  0.00     0.037 A 
ATOM     55  C   UNL A   1      44.976  29.868  30.192  1.00  0.00     0.049 A 
ATOM     56  C   UNL A   1      40.494  31.131  33.331  1.00  0.00     0.074 A 
ATOM     57  C   UNL A   1      45.604  28.726  30.651  1.00  0.00     0.029 A 
ATOM     58  N   UNL A   1      44.777  30.653  31.300  1.00  0.00    -0.354 N 
ATOM     59  N   UNL A   1      41.457  30.689  34.082  1.00  0.00    -0.248 NA
ATOM     60  C   UNL A   1      40.890  32.051  32.275  1.00  0.00     0.031 C 
ATOM     61  C   UNL A   1      45.344  28.685  32.050  1.00  0.00     0.029 A 
ATOM     62  C   UNL A   1      44.587  29.811  32.365  1.00  0.00     0.049 A 
ATOM     63  H   UNL A   1      44.771  31.637  31.325  1.00  0.00     0.167 HD
ATOM     64  C   UNL A   1      42.601  30.909  33.335  1.00  0.00     0.074 A 
ATOM     65  C   UNL A   1      42.210  31.858  32.301  1.00  0.00     0.031 C 
ATOM     66  C   UNL A   1      43.674  30.078  33.448  1.00  0.00     0.037 A 
BRANCH  53  67
ATOM     67  C   UNL A   1      44.447  31.565  28.306  1.00  0.00     0.064 A 
ATOM     68  C   UNL A   1      45.586  31.853  27.546  1.00  0.00     0.173 A 
ATOM     69  C   UNL A   1      43.579  32.653  28.562  1.00  0.00     0.173 A 
ATOM     70  F   UNL A   1      46.507  30.905  27.316  1.00  0.00    -0.203 F 
ATOM     71  C   UNL A   1      45.833  33.142  27.070  1.00  0.00     0.198 A 
ATOM     72  C   UNL A   1      43.782  33.913  28.017  1.00  0.00     0.198 A 
ATOM     73  F   UNL A   1      42.563  32.563  29.431  1.00  0.00    -0.203 F 
ATOM     74  F   UNL A   1      46.984  33.405  26.439  1.00  0.00    -0.200 F 
ATOM     75  C   UNL A   1      44.924  34.165  27.290  1.00  0.00     0.200 A 
ATOM     76  F   UNL A   1      42.899  34.890  28.265  1.00  0.00    -0.200 F 
ATOM     77  F   UNL A   1      45.174  35.406  26.853  1.00  0.00    -0.200 F 
ENDBRANCH  53  67
BRANCH  54  78
ATOM     78  C   UNL A   1      37.989  31.374  33.835  1.00  0.00     0.064 A 
ATOM     79  C   UNL A   1      38.070  31.985  35.107  1.00  0.00     0.173 A 
ATOM     80  C   UNL A   1      36.945  31.823  33.010  1.00  0.00     0.173 A 
ATOM     81  F   UNL A   1      39.047  31.651  35.963  1.00  0.00    -0.203 F 
ATOM     82  C   UNL A   1      37.200  33.010  35.500  1.00  0.00     0.198 A 
ATOM     83  C   UNL A   1      36.069  32.841  33.407  1.00  0.00     0.198 A 
ATOM     84  F   UNL A   1      36.810  31.357  31.762  1.00  0.00    -0.203 F 
ATOM     85  F   UNL A   1      37.367  33.615  36.685  1.00  0.00    -0.200 F 
ATOM     86  C   UNL A   1      36.208  33.447  34.642  1.00  0.00     0.200 A 
ATOM     87  F   UNL A   1      35.130  33.278  32.556  1.00  0.00    -0.200 F 
ATOM     88  F   UNL A   1      35.419  34.475  34.985  1.00  0.00    -0.200 F 
ENDBRANCH  54  78
BRANCH  66  89
ATOM     89  C   UNL A   1      43.747  29.171  34.643  1.00  0.00     0.064 A 
ATOM     90  C   UNL A   1      44.371  29.509  35.856  1.00  0.00     0.173 A 
ATOM     91  C   UNL A   1      43.028  27.967  34.596  1.00  0.00     0.173 A 
ATOM     92  F   UNL A   1      44.995  30.686  36.012  1.00  0.00    -0.203 F 
ATOM     93  C   UNL A   1      44.305  28.658  36.958  1.00  0.00     0.198 A 
ATOM     94  C   UNL A   1      42.929  27.141  35.711  1.00  0.00     0.198 A 
ATOM     95  F   UNL A   1      42.376  27.616  33.476  1.00  0.00    -0.203 F 
ATOM     96  F   UNL A   1      44.921  28.992  38.101  1.00  0.00    -0.200 F 
ATOM     97  C   UNL A   1      43.575  27.481  36.888  1.00  0.00     0.200 A 
ATOM     98  F   UNL A   1      42.184  26.029  35.653  1.00  0.00    -0.200 F 
ATOM     99  F   UNL A   1      43.471  26.689  37.965  1.00  0.00    -0.200 F 
ENDBRANCH  66  89
ENDBRANCH  40  41
ENDBRANCH  32  35
ENDBRANCH  30  31
ENDBRANCH  29  30
ENDBRANCH  28  29
ENDBRANCH   3  28
TORSDOF 16
ENDMDL
MODEL 2
REMARK VINA RESULT:     -11.8      2.708      8.827
REMARK SMILES Cc1nc2nc(CNC(=O)OC(C)(C)C)nn2c(C)c1CCC(=O)NCCCNC(=O)c1ccc(-c2c3nc(c(-c4c(F)c(F)c(F)c(F)c4F)c4ccc([nH]4)c(-c4c(F)c(F)c(F)c(F)c4F)c4nc(c(-c5c(F)c(F)c(F)c(F)c5F)c5ccc2[nH]5)C=C4)C=C3)cc1
REMARK SMILES IDX 23 1 24 2 25 3 22 5 21 6 20 7 1 8 2 9 3 10 4 11 18 12 5 13
REMARK SMILES IDX 17 14 19 15 6 16 16 17 7 18 8 19 9 20 10 22 11 23 12 24
REMARK SMILES IDX 13 25 14 26 15 27 26 28 27 29 28 30 29 31 30 32 31 34 32 35
REMARK SMILES IDX 33 36 94 37 34 38 93 39 35 40 36 41 37 42 87 43 38 44 92 45
REMARK SMILES IDX 86 46 88 47 39 48 91 49 85 50 84 51 40 53 72 54 52 55 71 56
REMARK SMILES IDX 53 57 56 58 70 59 89 60 54 61 55 62 69 64 90 65 57 66 41 67
REMARK SMILES IDX 42 68 50 69 43 70 44 71 48 72 51 73 45 74 46 75 49 76 47 77
REMARK SMILES IDX 73 78 74 79 82 80 75 81 76 82 80 83 83 84 77 85 78 86 81 87
REMARK SMILES IDX 79 88 58 89 59 90 67 91 60 92 61 93 65 94 68 95 62 96 63 97
REMARK SMILES IDX 66 98 64 99
REMARK H PARENT 25 4 8 21 29 33 88 52 56 63
REMARK Flexibility Score: inf
ROOT
ATOM      1  C   UNL A   1      31.907  26.137  22.934  1.00  0.00     0.220 C 
ATOM      2  O   UNL A   1      31.907  25.784  21.751  1.00  0.00    -0.275 OA
ATOM      3  N   UNL A   1      32.907  26.968  23.362  1.00  0.00    -0.356 N 
ATOM      4  H   UNL A   1      33.495  27.259  22.628  1.00  0.00     0.163 HD
ENDROOT
BRANCH   1   5
ATOM      5  C   UNL A   1      30.833  25.610  23.868  1.00  0.00     0.105 C 
BRANCH   5   6
ATOM      6  C   UNL A   1      30.527  24.115  23.624  1.00  0.00     0.049 C 
BRANCH   6   7
ATOM      7  C   UNL A   1      31.532  23.279  24.369  1.00  0.00    -0.005 A 
ATOM      8  C   UNL A   1      30.315  23.877  26.623  1.00  0.00     0.067 C 
ATOM      9  C   UNL A   1      31.563  23.418  25.874  1.00  0.00     0.046 A 
ATOM     10  N   UNL A   1      32.624  23.182  26.577  1.00  0.00    -0.216 NA
ATOM     11  C   UNL A   1      33.750  22.896  25.869  1.00  0.00     0.252 A 
ATOM     12  C   UNL A   1      32.600  22.659  23.789  1.00  0.00     0.048 A 
ATOM     13  N   UNL A   1      34.973  23.056  26.248  1.00  0.00    -0.192 NA
ATOM     14  N   UNL A   1      33.800  22.580  24.527  1.00  0.00    -0.201 N 
ATOM     15  C   UNL A   1      32.673  22.226  22.364  1.00  0.00     0.067 C 
ATOM     16  C   UNL A   1      35.858  22.879  25.224  1.00  0.00     0.172 A 
ATOM     17  N   UNL A   1      35.162  22.484  24.115  1.00  0.00    -0.148 NA
BRANCH  16  18
ATOM     18  C   UNL A   1      37.490  23.205  25.382  1.00  0.00     0.199 C 
BRANCH  18  19
ATOM     19  N   UNL A   1      38.708  22.352  26.108  1.00  0.00    -0.314 N 
ATOM     20  C   UNL A   1      39.889  22.198  26.898  1.00  0.00     0.408 C 
ATOM     21  H   UNL A   1      38.502  21.425  25.850  1.00  0.00     0.167 HD
ATOM     22  O   UNL A   1      40.216  21.055  27.164  1.00  0.00    -0.225 OA
BRANCH  20  23
ATOM     23  O   UNL A   1      40.633  23.259  27.359  1.00  0.00    -0.444 OA
BRANCH  23  24
ATOM     24  C   UNL A   1      40.293  24.705  27.672  1.00  0.00     0.106 C 
ATOM     25  C   UNL A   1      38.963  24.876  28.411  1.00  0.00     0.056 C 
ATOM     26  C   UNL A   1      41.432  25.405  28.420  1.00  0.00     0.056 C 
ATOM     27  C   UNL A   1      40.131  25.511  26.335  1.00  0.00     0.056 C 
ENDBRANCH  23  24
ENDBRANCH  20  23
ENDBRANCH  18  19
ENDBRANCH  16  18
ENDBRANCH   6   7
ENDBRANCH   5   6
ENDBRANCH   1   5
BRANCH   3  28
ATOM     28  C   UNL A   1      33.317  27.540  24.692  1.00  0.00     0.117 C 
BRANCH  28  29
ATOM     29  C   UNL A   1      32.941  29.053  24.775  1.00  0.00     0.042 C 
BRANCH  29  30
ATOM     30  C   UNL A   1      32.872  29.975  26.146  1.00  0.00     0.118 C 
BRANCH  30  31
ATOM     31  N   UNL A   1      33.831  31.166  26.827  1.00  0.00    -0.352 N 
ATOM     32  C   UNL A   1      35.081  31.590  27.559  1.00  0.00     0.251 C 
ATOM     33  H   UNL A   1      33.334  32.003  26.676  1.00  0.00     0.163 HD
ATOM     34  O   UNL A   1      35.169  32.821  27.703  1.00  0.00    -0.269 OA
BRANCH  32  35
ATOM     35  C   UNL A   1      36.353  30.762  28.209  1.00  0.00     0.039 A 
ATOM     36  C   UNL A   1      37.377  31.290  29.007  1.00  0.00     0.014 A 
ATOM     37  C   UNL A   1      36.568  29.398  28.062  1.00  0.00     0.014 A 
ATOM     38  C   UNL A   1      38.707  30.832  29.009  1.00  0.00     0.010 A 
ATOM     39  C   UNL A   1      37.907  28.891  28.003  1.00  0.00     0.010 A 
ATOM     40  C   UNL A   1      39.021  29.687  28.312  1.00  0.00    -0.014 A 
BRANCH  40  41
ATOM     41  C   UNL A   1      40.433  29.235  28.319  1.00  0.00     0.031 A 
ATOM     42  C   UNL A   1      40.846  29.041  29.721  1.00  0.00     0.074 A 
ATOM     43  C   UNL A   1      41.357  28.945  27.366  1.00  0.00     0.049 A 
ATOM     44  N   UNL A   1      41.591  29.814  30.440  1.00  0.00    -0.248 NA
ATOM     45  C   UNL A   1      40.144  27.980  30.452  1.00  0.00     0.031 C 
ATOM     46  C   UNL A   1      41.217  28.810  25.914  1.00  0.00     0.029 A 
ATOM     47  N   UNL A   1      42.688  28.615  27.555  1.00  0.00    -0.354 N 
ATOM     48  C   UNL A   1      41.533  29.253  31.704  1.00  0.00     0.074 A 
ATOM     49  C   UNL A   1      40.439  28.317  31.702  1.00  0.00     0.031 C 
ATOM     50  C   UNL A   1      42.331  28.224  25.400  1.00  0.00     0.029 A 
ATOM     51  C   UNL A   1      43.317  28.034  26.454  1.00  0.00     0.049 A 
ATOM     52  H   UNL A   1      43.156  28.778  28.406  1.00  0.00     0.167 HD
ATOM     53  C   UNL A   1      42.549  29.355  32.594  1.00  0.00     0.037 A 
ATOM     54  C   UNL A   1      44.524  27.397  26.436  1.00  0.00     0.037 A 
ATOM     55  C   UNL A   1      43.468  30.410  32.280  1.00  0.00     0.049 A 
ATOM     56  C   UNL A   1      45.280  27.813  27.641  1.00  0.00     0.074 A 
ATOM     57  C   UNL A   1      43.348  31.772  32.078  1.00  0.00     0.029 A 
ATOM     58  N   UNL A   1      44.707  30.070  31.798  1.00  0.00    -0.354 N 
ATOM     59  N   UNL A   1      45.884  28.955  27.782  1.00  0.00    -0.248 NA
ATOM     60  C   UNL A   1      45.115  27.035  28.860  1.00  0.00     0.031 C 
ATOM     61  C   UNL A   1      44.320  32.096  31.089  1.00  0.00     0.029 A 
ATOM     62  C   UNL A   1      44.984  30.917  30.757  1.00  0.00     0.049 A 
ATOM     63  H   UNL A   1      45.289  29.351  32.137  1.00  0.00     0.167 HD
ATOM     64  C   UNL A   1      45.773  29.236  29.132  1.00  0.00     0.074 A 
ATOM     65  C   UNL A   1      45.411  27.973  29.761  1.00  0.00     0.031 C 
ATOM     66  C   UNL A   1      45.699  30.524  29.569  1.00  0.00     0.037 A 
BRANCH  53  67
ATOM     67  C   UNL A   1      42.841  28.241  33.552  1.00  0.00     0.064 A 
ATOM     68  C   UNL A   1      43.422  27.055  33.089  1.00  0.00     0.173 A 
ATOM     69  C   UNL A   1      42.372  28.222  34.887  1.00  0.00     0.173 A 
ATOM     70  F   UNL A   1      43.826  26.949  31.814  1.00  0.00    -0.203 F 
ATOM     71  C   UNL A   1      43.532  25.932  33.910  1.00  0.00     0.198 A 
ATOM     72  C   UNL A   1      42.559  27.134  35.728  1.00  0.00     0.198 A 
ATOM     73  F   UNL A   1      41.626  29.215  35.393  1.00  0.00    -0.203 F 
ATOM     74  F   UNL A   1      43.995  24.783  33.403  1.00  0.00    -0.200 F 
ATOM     75  C   UNL A   1      43.117  25.978  35.233  1.00  0.00     0.200 A 
ATOM     76  F   UNL A   1      42.127  27.198  36.996  1.00  0.00    -0.200 F 
ATOM     77  F   UNL A   1      43.202  24.893  36.012  1.00  0.00    -0.200 F 
ENDBRANCH  53  67
BRANCH  54  78
ATOM     78  C   UNL A   1      45.071  26.301  25.578  1.00  0.00     0.064 A 
ATOM     79  C   UNL A   1      46.403  26.337  25.108  1.00  0.00     0.173 A 
ATOM     80  C   UNL A   1      44.417  25.063  25.463  1.00  0.00     0.173 A 
ATOM     81  F   UNL A   1      47.129  27.460  25.197  1.00  0.00    -0.203 F 
ATOM     82  C   UNL A   1      47.050  25.197  24.608  1.00  0.00     0.198 A 
ATOM     83  C   UNL A   1      45.060  23.928  24.955  1.00  0.00     0.198 A 
ATOM     84  F   UNL A   1      43.174  24.900  25.932  1.00  0.00    -0.203 F 
ATOM     85  F   UNL A   1      48.340  25.261  24.250  1.00  0.00    -0.200 F 
ATOM     86  C   UNL A   1      46.380  23.990  24.547  1.00  0.00     0.200 A 
ATOM     87  F   UNL A   1      44.412  22.755  24.927  1.00  0.00    -0.200 F 
ATOM     88  F   UNL A   1      47.015  22.882  24.137  1.00  0.00    -0.200 F 
ENDBRANCH  54  78
BRANCH  66  89
ATOM     89  C   UNL A   1      46.115  31.618  28.628  1.00  0.00     0.064 A 
ATOM     90  C   UNL A   1      45.293  32.151  27.621  1.00  0.00     0.173 A 
ATOM     91  C   UNL A   1      47.349  32.245  28.857  1.00  0.00     0.173 A 
ATOM     92  F   UNL A   1      44.059  31.671  27.405  1.00  0.00    -0.203 F 
ATOM     93  C   UNL A   1      45.710  33.239  26.855  1.00  0.00     0.198 A 
ATOM     94  C   UNL A   1      47.743  33.357  28.120  1.00  0.00     0.198 A 
ATOM     95  F   UNL A   1      48.157  31.804  29.836  1.00  0.00    -0.203 F 
ATOM     96  F   UNL A   1      44.916  33.722  25.888  1.00  0.00    -0.200 F 
ATOM     97  C   UNL A   1      46.928  33.848  27.113  1.00  0.00     0.200 A 
ATOM     98  F   UNL A   1      48.900  33.970  28.404  1.00  0.00    -0.200 F 
ATOM     99  F   UNL A   1      47.304  34.926  26.410  1.00  0.00    -0.200 F 
ENDBRANCH  66  89
ENDBRANCH  40  41
ENDBRANCH  32  35
ENDBRANCH  30  31
ENDBRANCH  29  30
ENDBRANCH  28  29
ENDBRANCH   3  28
TORSDOF 16
ENDMDL
MODEL 3
REMARK VINA RESULT:     -11.8      2.699      8.888
REMARK SMILES Cc1nc2nc(CNC(=O)OC(C)(C)C)nn2c(C)c1CCC(=O)NCCCNC(=O)c1ccc(-c2c3nc(c(-c4c(F)c(F)c(F)c(F)c4F)c4ccc([nH]4)c(-c4c(F)c(F)c(F)c(F)c4F)c4nc(c(-c5c(F)c(F)c(F)c(F)c5F)c5ccc2[nH]5)C=C4)C=C3)cc1
REMARK SMILES IDX 23 1 24 2 25 3 22 5 21 6 20 7 1 8 2 9 3 10 4 11 18 12 5 13
REMARK SMILES IDX 17 14 19 15 6 16 16 17 7 18 8 19 9 20 10 22 11 23 12 24
REMARK SMILES IDX 13 25 14 26 15 27 26 28 27 29 28 30 29 31 30 32 31 34 32 35
REMARK SMILES IDX 33 36 94 37 34 38 93 39 35 40 36 41 37 42 87 43 38 44 92 45
REMARK SMILES IDX 86 46 88 47 39 48 91 49 85 50 84 51 40 53 72 54 52 55 71 56
REMARK SMILES IDX 53 57 56 58 70 59 89 60 54 61 55 62 69 64 90 65 57 66 41 67
REMARK SMILES IDX 42 68 50 69 43 70 44 71 48 72 51 73 45 74 46 75 49 76 47 77
REMARK SMILES IDX 73 78 74 79 82 80 75 81 76 82 80 83 83 84 77 85 78 86 81 87
REMARK SMILES IDX 79 88 58 89 59 90 67 91 60 92 61 93 65 94 68 95 62 96 63 97
REMARK SMILES IDX 66 98 64 99
REMARK H PARENT 25 4 8 21 29 33 88 52 56 63
REMARK Flexibility Score: inf
ROOT
ATOM      1  C   UNL A   1      30.433  24.970  26.052  1.00  0.00     0.220 C 
ATOM      2  O   UNL A   1      30.024  24.143  26.872  1.00  0.00    -0.275 OA
ATOM      3  N   UNL A   1      30.660  26.250  26.479  1.00  0.00    -0.356 N 
ATOM      4  H   UNL A   1      30.535  26.351  27.451  1.00  0.00     0.163 HD
ENDROOT
BRANCH   1   5
ATOM      5  C   UNL A   1      30.628  24.550  24.606  1.00  0.00     0.105 C 
BRANCH   5   6
ATOM      6  C   UNL A   1      31.552  23.319  24.473  1.00  0.00     0.049 C 
BRANCH   6   7
ATOM      7  C   UNL A   1      32.986  23.773  24.531  1.00  0.00    -0.005 A 
ATOM      8  C   UNL A   1      32.785  24.627  22.052  1.00  0.00     0.067 C 
ATOM      9  C   UNL A   1      33.640  24.154  23.224  1.00  0.00     0.046 A 
ATOM     10  N   UNL A   1      34.919  24.080  23.034  1.00  0.00    -0.216 NA
ATOM     11  C   UNL A   1      35.638  23.540  24.055  1.00  0.00     0.252 A 
ATOM     12  C   UNL A   1      33.815  23.574  25.597  1.00  0.00     0.048 A 
ATOM     13  N   UNL A   1      36.787  22.958  23.978  1.00  0.00    -0.192 NA
ATOM     14  N   UNL A   1      35.178  23.318  25.336  1.00  0.00    -0.201 N 
ATOM     15  C   UNL A   1      33.372  23.409  27.011  1.00  0.00     0.067 C 
ATOM     16  C   UNL A   1      37.128  22.335  25.144  1.00  0.00     0.172 A 
ATOM     17  N   UNL A   1      36.169  22.611  26.078  1.00  0.00    -0.148 NA
BRANCH  16  18
ATOM     18  C   UNL A   1      38.472  21.349  25.274  1.00  0.00     0.199 C 
BRANCH  18  19
ATOM     19  N   UNL A   1      39.969  21.625  25.923  1.00  0.00    -0.314 N 
ATOM     20  C   UNL A   1      40.895  22.206  26.845  1.00  0.00     0.408 C 
ATOM     21  H   UNL A   1      40.554  21.079  25.350  1.00  0.00     0.167 HD
ATOM     22  O   UNL A   1      42.039  21.791  26.797  1.00  0.00    -0.225 OA
BRANCH  20  23
ATOM     23  O   UNL A   1      40.545  23.176  27.756  1.00  0.00    -0.444 OA
BRANCH  23  24
ATOM     24  C   UNL A   1      40.200  24.648  27.621  1.00  0.00     0.106 C 
ATOM     25  C   UNL A   1      40.334  25.181  26.192  1.00  0.00     0.056 C 
ATOM     26  C   UNL A   1      38.815  24.959  28.196  1.00  0.00     0.056 C 
ATOM     27  C   UNL A   1      41.197  25.505  28.478  1.00  0.00     0.056 C 
ENDBRANCH  23  24
ENDBRANCH  20  23
ENDBRANCH  18  19
ENDBRANCH  16  18
ENDBRANCH   6   7
ENDBRANCH   5   6
ENDBRANCH   1   5
BRANCH   3  28
ATOM     28  C   UNL A   1      31.056  27.540  25.813  1.00  0.00     0.117 C 
BRANCH  28  29
ATOM     29  C   UNL A   1      32.610  27.683  25.779  1.00  0.00     0.042 C 
BRANCH  29  30
ATOM     30  C   UNL A   1      33.464  29.089  25.610  1.00  0.00     0.118 C 
BRANCH  30  31
ATOM     31  N   UNL A   1      33.849  30.373  26.612  1.00  0.00    -0.352 N 
ATOM     32  C   UNL A   1      34.770  31.036  27.606  1.00  0.00     0.251 C 
ATOM     33  H   UNL A   1      33.108  31.011  26.494  1.00  0.00     0.163 HD
ATOM     34  O   UNL A   1      34.396  32.174  27.937  1.00  0.00    -0.269 OA
BRANCH  32  35
ATOM     35  C   UNL A   1      36.168  30.565  28.349  1.00  0.00     0.039 A 
ATOM     36  C   UNL A   1      37.250  31.385  28.698  1.00  0.00     0.014 A 
ATOM     37  C   UNL A   1      36.451  29.266  28.752  1.00  0.00     0.014 A 
ATOM     38  C   UNL A   1      38.596  30.977  28.696  1.00  0.00     0.010 A 
ATOM     39  C   UNL A   1      37.802  28.789  28.716  1.00  0.00     0.010 A 
ATOM     40  C   UNL A   1      38.891  29.647  28.500  1.00  0.00    -0.014 A 
BRANCH  40  41
ATOM     41  C   UNL A   1      40.319  29.247  28.489  1.00  0.00     0.031 A 
ATOM     42  C   UNL A   1      40.774  29.130  29.886  1.00  0.00     0.074 A 
ATOM     43  C   UNL A   1      41.229  28.950  27.525  1.00  0.00     0.049 A 
ATOM     44  N   UNL A   1      41.507  29.959  30.552  1.00  0.00    -0.248 NA
ATOM     45  C   UNL A   1      40.131  28.077  30.680  1.00  0.00     0.031 C 
ATOM     46  C   UNL A   1      41.058  28.748  26.085  1.00  0.00     0.029 A 
ATOM     47  N   UNL A   1      42.576  28.678  27.693  1.00  0.00    -0.354 N 
ATOM     48  C   UNL A   1      41.501  29.452  31.840  1.00  0.00     0.074 A 
ATOM     49  C   UNL A   1      40.444  28.477  31.907  1.00  0.00     0.031 C 
ATOM     50  C   UNL A   1      42.180  28.181  25.567  1.00  0.00     0.029 A 
ATOM     51  C   UNL A   1      43.199  28.072  26.601  1.00  0.00     0.049 A 
ATOM     52  H   UNL A   1      43.059  28.895  28.523  1.00  0.00     0.167 HD
ATOM     53  C   UNL A   1      42.535  29.629  32.698  1.00  0.00     0.037 A 
ATOM     54  C   UNL A   1      44.429  27.480  26.578  1.00  0.00     0.037 A 
ATOM     55  C   UNL A   1      43.406  30.702  32.315  1.00  0.00     0.049 A 
ATOM     56  C   UNL A   1      45.198  27.975  27.744  1.00  0.00     0.074 A 
ATOM     57  C   UNL A   1      43.230  32.049  32.059  1.00  0.00     0.029 A 
ATOM     58  N   UNL A   1      44.644  30.387  31.816  1.00  0.00    -0.354 N 
ATOM     59  N   UNL A   1      45.762  29.144  27.820  1.00  0.00    -0.248 NA
ATOM     60  C   UNL A   1      45.093  27.245  28.999  1.00  0.00     0.031 C 
ATOM     61  C   UNL A   1      44.164  32.365  31.032  1.00  0.00     0.029 A 
ATOM     62  C   UNL A   1      44.863  31.198  30.732  1.00  0.00     0.049 A 
ATOM     63  H   UNL A   1      45.260  29.705  32.169  1.00  0.00     0.167 HD
ATOM     64  C   UNL A   1      45.674  29.479  29.160  1.00  0.00     0.074 A 
ATOM     65  C   UNL A   1      45.376  28.231  29.851  1.00  0.00     0.031 C 
ATOM     66  C   UNL A   1      45.563  30.781  29.543  1.00  0.00     0.037 A 
BRANCH  53  67
ATOM     67  C   UNL A   1      42.892  28.569  33.694  1.00  0.00     0.064 A 
ATOM     68  C   UNL A   1      43.034  28.899  35.046  1.00  0.00     0.173 A 
ATOM     69  C   UNL A   1      43.307  27.266  33.326  1.00  0.00     0.173 A 
ATOM     70  F   UNL A   1      42.741  30.135  35.478  1.00  0.00    -0.203 F 
ATOM     71  C   UNL A   1      43.548  27.985  35.966  1.00  0.00     0.198 A 
ATOM     72  C   UNL A   1      43.737  26.331  34.256  1.00  0.00     0.198 A 
ATOM     73  F   UNL A   1      43.409  26.888  32.044  1.00  0.00    -0.203 F 
ATOM     74  F   UNL A   1      43.769  28.369  37.230  1.00  0.00    -0.200 F 
ATOM     75  C   UNL A   1      43.882  26.697  35.575  1.00  0.00     0.200 A 
ATOM     76  F   UNL A   1      44.077  25.100  33.846  1.00  0.00    -0.200 F 
ATOM     77  F   UNL A   1      44.397  25.829  36.454  1.00  0.00    -0.200 F 
ENDBRANCH  53  67
BRANCH  54  78
ATOM     78  C   UNL A   1      44.995  26.368  25.753  1.00  0.00     0.064 A 
ATOM     79  C   UNL A   1      46.200  26.532  25.034  1.00  0.00     0.173 A 
ATOM     80  C   UNL A   1      44.547  25.045  25.899  1.00  0.00     0.173 A 
ATOM     81  F   UNL A   1      46.732  27.751  24.862  1.00  0.00    -0.203 F 
ATOM     82  C   UNL A   1      46.932  25.442  24.545  1.00  0.00     0.198 A 
ATOM     83  C   UNL A   1      45.274  23.957  25.401  1.00  0.00     0.198 A 
ATOM     84  F   UNL A   1      43.449  24.768  26.613  1.00  0.00    -0.203 F 
ATOM     85  F   UNL A   1      48.112  25.642  23.940  1.00  0.00    -0.200 F 
ATOM     86  C   UNL A   1      46.474  24.153  24.742  1.00  0.00     0.200 A 
ATOM     87  F   UNL A   1      44.836  22.709  25.624  1.00  0.00    -0.200 F 
ATOM     88  F   UNL A   1      47.204  23.104  24.339  1.00  0.00    -0.200 F 
ENDBRANCH  54  78
BRANCH  66  89
ATOM     89  C   UNL A   1      45.914  31.847  28.547  1.00  0.00     0.064 A 
ATOM     90  C   UNL A   1      47.193  32.414  28.412  1.00  0.00     0.173 A 
ATOM     91  C   UNL A   1      44.944  32.201  27.596  1.00  0.00     0.173 A 
ATOM     92  F   UNL A   1      48.201  32.054  29.220  1.00  0.00    -0.203 F 
ATOM     93  C   UNL A   1      47.471  33.323  27.392  1.00  0.00     0.198 A 
ATOM     94  C   UNL A   1      45.238  33.075  26.555  1.00  0.00     0.198 A 
ATOM     95  F   UNL A   1      43.718  31.656  27.651  1.00  0.00    -0.203 F 
ATOM     96  F   UNL A   1      48.694  33.864  27.291  1.00  0.00    -0.200 F 
ATOM     97  C   UNL A   1      46.497  33.643  26.458  1.00  0.00     0.200 A 
ATOM     98  F   UNL A   1      44.308  33.345  25.628  1.00  0.00    -0.200 F 
ATOM     99  F   UNL A   1      46.782  34.478  25.448  1.00  0.00    -0.200 F 
ENDBRANCH  66  89
ENDBRANCH  40  41
ENDBRANCH  32  35
ENDBRANCH  30  31
ENDBRANCH  29  30
ENDBRANCH  28  29
ENDBRANCH   3  28
TORSDOF 16
ENDMDL
