MODEL 1
REMARK VINA RESULT:     -13.5      0.000      0.000
REMARK SMILES Cc1[nH]c2ccccc2c1/C=C1/SC(=S)N(c2cccc(C(=O)NCCCNC(=O)c3ccc(-c4c5nc(c(-c6c(F)c(F)c(F)c(F)c6F)c6ccc([nH]6)c(-c6c(F)c(F)c(F)c(F)c6F)c6nc(c(-c7c(F)c(F)c(F)c(F)c7F)c7ccc4[nH]7)C=C6)C=C5)cc3)c2)C1=O
REMARK SMILES IDX 26 1 25 2 24 3 22 4 23 5 21 7 17 8 18 9 94 10 19 11 20 12
REMARK SMILES IDX 16 13 11 14 12 15 13 16 95 17 14 18 96 19 15 20 10 21 1 22
REMARK SMILES IDX 2 23 3 24 4 25 9 27 5 28 8 29 6 30 7 31 27 32 28 33 29 34
REMARK SMILES IDX 30 36 31 37 32 38 93 39 33 40 92 41 34 42 35 43 36 44 86 45
REMARK SMILES IDX 37 46 91 47 85 48 87 49 38 50 90 51 84 52 83 53 39 55 71 56
REMARK SMILES IDX 51 57 70 58 52 59 55 60 69 61 88 62 53 63 54 64 68 66 89 67
REMARK SMILES IDX 56 68 40 69 41 70 49 71 42 72 43 73 47 74 50 75 44 76 45 77
REMARK SMILES IDX 48 78 46 79 72 80 73 81 81 82 74 83 75 84 79 85 82 86 76 87
REMARK SMILES IDX 77 88 80 89 78 90 57 91 58 92 66 93 59 94 60 95 64 96 67 97
REMARK SMILES IDX 61 98 62 99 65 100 63 101
REMARK H PARENT 24 6 3 26 28 35 87 54 55 65
REMARK Flexibility Score: inf
ROOT
ATOM      1  C   UNL A   1      43.702  38.890  27.101  1.00  0.00     0.042 C 
ENDROOT
BRANCH   1   2
ATOM      2  C   UNL A   1      43.762  40.347  26.666  1.00  0.00     0.118 C 
BRANCH   2   3
ATOM      3  N   UNL A   1      42.668  40.741  25.791  1.00  0.00    -0.352 N 
ATOM      4  C   UNL A   1      42.473  41.685  24.813  1.00  0.00     0.251 C 
ATOM      5  O   UNL A   1      41.351  41.706  24.299  1.00  0.00    -0.269 OA
ATOM      6  H   UNL A   1      41.864  40.192  25.938  1.00  0.00     0.163 HD
BRANCH   4   7
ATOM      7  C   UNL A   1      43.472  42.703  24.374  1.00  0.00     0.041 A 
ATOM      8  C   UNL A   1      44.910  43.784  22.718  1.00  0.00     0.051 A 
ATOM      9  C   UNL A   1      45.542  44.494  23.745  1.00  0.00     0.027 A 
ATOM     10  C   UNL A   1      43.825  42.958  23.049  1.00  0.00     0.040 A 
ATOM     11  C   UNL A   1      45.121  44.356  25.065  1.00  0.00     0.003 A 
ATOM     12  C   UNL A   1      44.112  43.446  25.379  1.00  0.00     0.014 A 
BRANCH   8  13
ATOM     13  N   UNL A   1      45.470  43.734  21.399  1.00  0.00    -0.261 N 
ATOM     14  C   UNL A   1      45.550  45.326  18.107  1.00  0.00     0.032 C 
ATOM     15  C   UNL A   1      45.739  44.566  19.196  1.00  0.00     0.081 C 
ATOM     16  S   UNL A   1      47.125  43.571  19.415  1.00  0.00    -0.054 SA
ATOM     17  C   UNL A   1      44.857  44.488  20.395  1.00  0.00     0.270 C 
ATOM     18  C   UNL A   1      46.663  43.114  21.054  1.00  0.00     0.152 C 
ATOM     19  O   UNL A   1      43.782  45.071  20.482  1.00  0.00    -0.268 OA
ATOM     20  S   UNL A   1      47.589  42.018  21.916  1.00  0.00    -0.051 S 
BRANCH  14  21
ATOM     21  C   UNL A   1      44.445  46.199  17.882  1.00  0.00     0.004 A 
ATOM     22  C   UNL A   1      42.907  44.683  16.389  1.00  0.00     0.065 C 
ATOM     23  C   UNL A   1      43.323  45.899  17.133  1.00  0.00     0.020 A 
ATOM     24  N   UNL A   1      42.551  47.037  17.106  1.00  0.00    -0.358 N 
ATOM     25  C   UNL A   1      43.139  48.045  17.835  1.00  0.00     0.046 A 
ATOM     26  H   UNL A   1      41.694  47.120  16.629  1.00  0.00     0.166 HD
ATOM     27  C   UNL A   1      44.327  47.537  18.357  1.00  0.00     0.007 A 
ATOM     28  C   UNL A   1      42.718  49.362  18.055  1.00  0.00     0.027 A 
ATOM     29  C   UNL A   1      45.132  48.379  19.151  1.00  0.00     0.011 A 
ATOM     30  C   UNL A   1      43.536  50.180  18.841  1.00  0.00     0.002 A 
ATOM     31  C   UNL A   1      44.724  49.697  19.385  1.00  0.00     0.001 A 
ENDBRANCH  14  21
ENDBRANCH   8  13
ENDBRANCH   4   7
ENDBRANCH   2   3
ENDBRANCH   1   2
BRANCH   1  32
ATOM     32  C   UNL A   1      44.114  38.654  28.548  1.00  0.00     0.118 C 
BRANCH  32  33
ATOM     33  N   UNL A   1      45.556  38.504  28.701  1.00  0.00    -0.352 N 
ATOM     34  C   UNL A   1      46.343  37.407  28.938  1.00  0.00     0.251 C 
ATOM     35  H   UNL A   1      46.058  39.347  28.617  1.00  0.00     0.163 HD
ATOM     36  O   UNL A   1      47.517  37.579  29.259  1.00  0.00    -0.269 OA
BRANCH  34  37
ATOM     37  C   UNL A   1      45.819  36.028  28.815  1.00  0.00     0.039 A 
ATOM     38  C   UNL A   1      46.031  35.138  29.875  1.00  0.00     0.014 A 
ATOM     39  C   UNL A   1      45.201  35.574  27.649  1.00  0.00     0.014 A 
ATOM     40  C   UNL A   1      45.586  33.818  29.780  1.00  0.00     0.010 A 
ATOM     41  C   UNL A   1      44.671  34.287  27.591  1.00  0.00     0.010 A 
ATOM     42  C   UNL A   1      44.876  33.389  28.646  1.00  0.00    -0.014 A 
BRANCH  42  43
ATOM     43  C   UNL A   1      44.365  31.997  28.552  1.00  0.00     0.031 A 
ATOM     44  C   UNL A   1      43.037  31.629  29.157  1.00  0.00     0.074 A 
ATOM     45  C   UNL A   1      45.120  31.058  27.952  1.00  0.00     0.049 A 
ATOM     46  N   UNL A   1      42.428  30.469  29.173  1.00  0.00    -0.248 NA
ATOM     47  C   UNL A   1      42.309  32.694  29.865  1.00  0.00     0.031 C 
ATOM     48  C   UNL A   1      46.455  31.277  27.392  1.00  0.00     0.029 A 
ATOM     49  N   UNL A   1      44.873  29.730  27.711  1.00  0.00    -0.354 N 
ATOM     50  C   UNL A   1      41.262  30.664  29.903  1.00  0.00     0.074 A 
ATOM     51  C   UNL A   1      41.275  32.034  30.362  1.00  0.00     0.031 C 
ATOM     52  C   UNL A   1      46.892  30.137  26.836  1.00  0.00     0.029 A 
ATOM     53  C   UNL A   1      45.881  29.100  27.024  1.00  0.00     0.049 A 
ATOM     54  H   UNL A   1      44.051  29.273  28.002  1.00  0.00     0.167 HD
ATOM     55  C   UNL A   1      40.258  29.786  30.142  1.00  0.00     0.037 A 
ATOM     56  C   UNL A   1      45.972  27.832  26.582  1.00  0.00     0.037 A 
ATOM     57  C   UNL A   1      40.234  28.433  29.652  1.00  0.00     0.049 A 
ATOM     58  C   UNL A   1      44.821  26.894  26.817  1.00  0.00     0.074 A 
ATOM     59  C   UNL A   1      39.238  27.481  29.787  1.00  0.00     0.029 A 
ATOM     60  N   UNL A   1      41.257  27.842  28.924  1.00  0.00    -0.354 N 
ATOM     61  N   UNL A   1      43.690  27.112  27.443  1.00  0.00    -0.248 NA
ATOM     62  C   UNL A   1      44.953  25.538  26.266  1.00  0.00     0.031 C 
ATOM     63  C   UNL A   1      39.674  26.302  29.170  1.00  0.00     0.029 A 
ATOM     64  C   UNL A   1      40.921  26.533  28.613  1.00  0.00     0.049 A 
ATOM     65  H   UNL A   1      42.097  28.285  28.668  1.00  0.00     0.167 HD
ATOM     66  C   UNL A   1      42.966  25.931  27.343  1.00  0.00     0.074 A 
ATOM     67  C   UNL A   1      43.778  25.011  26.573  1.00  0.00     0.031 C 
ATOM     68  C   UNL A   1      41.743  25.633  27.846  1.00  0.00     0.037 A 
BRANCH  55  69
ATOM     69  C   UNL A   1      39.095  30.270  30.960  1.00  0.00     0.064 A 
ATOM     70  C   UNL A   1      39.067  30.123  32.356  1.00  0.00     0.173 A 
ATOM     71  C   UNL A   1      38.008  30.912  30.349  1.00  0.00     0.173 A 
ATOM     72  F   UNL A   1      40.075  29.503  32.990  1.00  0.00    -0.203 F 
ATOM     73  C   UNL A   1      37.982  30.574  33.105  1.00  0.00     0.198 A 
ATOM     74  C   UNL A   1      36.938  31.390  31.104  1.00  0.00     0.198 A 
ATOM     75  F   UNL A   1      37.984  31.084  29.018  1.00  0.00    -0.203 F 
ATOM     76  F   UNL A   1      37.956  30.376  34.430  1.00  0.00    -0.200 F 
ATOM     77  C   UNL A   1      36.923  31.213  32.479  1.00  0.00     0.200 A 
ATOM     78  F   UNL A   1      35.920  32.017  30.499  1.00  0.00    -0.200 F 
ATOM     79  F   UNL A   1      35.882  31.651  33.201  1.00  0.00    -0.200 F 
ENDBRANCH  55  69
BRANCH  56  80
ATOM     80  C   UNL A   1      47.172  27.396  25.824  1.00  0.00     0.064 A 
ATOM     81  C   UNL A   1      48.243  26.770  26.476  1.00  0.00     0.173 A 
ATOM     82  C   UNL A   1      47.274  27.591  24.439  1.00  0.00     0.173 A 
ATOM     83  F   UNL A   1      48.199  26.576  27.803  1.00  0.00    -0.203 F 
ATOM     84  C   UNL A   1      49.381  26.376  25.776  1.00  0.00     0.198 A 
ATOM     85  C   UNL A   1      48.402  27.170  23.735  1.00  0.00     0.198 A 
ATOM     86  F   UNL A   1      46.273  28.175  23.767  1.00  0.00    -0.203 F 
ATOM     87  F   UNL A   1      50.410  25.820  26.431  1.00  0.00    -0.200 F 
ATOM     88  C   UNL A   1      49.457  26.571  24.405  1.00  0.00     0.200 A 
ATOM     89  F   UNL A   1      48.464  27.348  22.408  1.00  0.00    -0.200 F 
ATOM     90  F   UNL A   1      50.550  26.188  23.731  1.00  0.00    -0.200 F 
ENDBRANCH  56  80
BRANCH  68  91
ATOM     91  C   UNL A   1      41.205  24.264  27.553  1.00  0.00     0.064 A 
ATOM     92  C   UNL A   1      41.737  23.119  28.165  1.00  0.00     0.173 A 
ATOM     93  C   UNL A   1      40.141  24.096  26.654  1.00  0.00     0.173 A 
ATOM     94  F   UNL A   1      42.765  23.227  29.020  1.00  0.00    -0.203 F 
ATOM     95  C   UNL A   1      41.249  21.853  27.858  1.00  0.00     0.198 A 
ATOM     96  C   UNL A   1      39.636  22.830  26.371  1.00  0.00     0.198 A 
ATOM     97  F   UNL A   1      39.592  25.159  26.048  1.00  0.00    -0.203 F 
ATOM     98  F   UNL A   1      41.814  20.768  28.408  1.00  0.00    -0.200 F 
ATOM     99  C   UNL A   1      40.198  21.709  26.964  1.00  0.00     0.200 A 
ATOM    100  F   UNL A   1      38.612  22.693  25.518  1.00  0.00    -0.200 F 
ATOM    101  F   UNL A   1      39.732  20.488  26.666  1.00  0.00    -0.200 F 
ENDBRANCH  68  91
ENDBRANCH  42  43
ENDBRANCH  34  37
ENDBRANCH  32  33
ENDBRANCH   1  32
TORSDOF 12
ENDMDL
MODEL 2
REMARK VINA RESULT:     -13.4     10.355     15.261
REMARK SMILES Cc1[nH]c2ccccc2c1/C=C1/SC(=S)N(c2cccc(C(=O)NCCCNC(=O)c3ccc(-c4c5nc(c(-c6c(F)c(F)c(F)c(F)c6F)c6ccc([nH]6)c(-c6c(F)c(F)c(F)c(F)c6F)c6nc(c(-c7c(F)c(F)c(F)c(F)c7F)c7ccc4[nH]7)C=C6)C=C5)cc3)c2)C1=O
REMARK SMILES IDX 26 1 25 2 24 3 22 4 23 5 21 7 17 8 18 9 94 10 19 11 20 12
REMARK SMILES IDX 16 13 11 14 12 15 13 16 95 17 14 18 96 19 15 20 10 21 1 22
REMARK SMILES IDX 2 23 3 24 4 25 9 27 5 28 8 29 6 30 7 31 27 32 28 33 29 34
REMARK SMILES IDX 30 36 31 37 32 38 93 39 33 40 92 41 34 42 35 43 36 44 86 45
REMARK SMILES IDX 37 46 91 47 85 48 87 49 38 50 90 51 84 52 83 53 39 55 71 56
REMARK SMILES IDX 51 57 70 58 52 59 55 60 69 61 88 62 53 63 54 64 68 66 89 67
REMARK SMILES IDX 56 68 40 69 41 70 49 71 42 72 43 73 47 74 50 75 44 76 45 77
REMARK SMILES IDX 48 78 46 79 72 80 73 81 81 82 74 83 75 84 79 85 82 86 76 87
REMARK SMILES IDX 77 88 80 89 78 90 57 91 58 92 66 93 59 94 60 95 64 96 67 97
REMARK SMILES IDX 61 98 62 99 65 100 63 101
REMARK H PARENT 24 6 3 26 28 35 87 54 55 65
REMARK Flexibility Score: inf
ROOT
ATOM      1  C   UNL A   1      31.414  31.088  25.865  1.00  0.00     0.042 C 
ENDROOT
BRANCH   1   2
ATOM      2  C   UNL A   1      31.695  29.737  25.222  1.00  0.00     0.118 C 
BRANCH   2   3
ATOM      3  N   UNL A   1      32.928  29.703  24.452  1.00  0.00    -0.352 N 
ATOM      4  C   UNL A   1      33.519  28.835  23.566  1.00  0.00     0.251 C 
ATOM      5  O   UNL A   1      34.620  29.178  23.126  1.00  0.00    -0.269 OA
ATOM      6  H   UNL A   1      33.480  30.504  24.604  1.00  0.00     0.163 HD
BRANCH   4   7
ATOM      7  C   UNL A   1      32.972  27.511  23.149  1.00  0.00     0.041 A 
ATOM      8  C   UNL A   1      32.013  25.304  23.585  1.00  0.00     0.051 A 
ATOM      9  C   UNL A   1      32.210  24.964  22.242  1.00  0.00     0.027 A 
ATOM     10  C   UNL A   1      32.325  26.610  23.994  1.00  0.00     0.040 A 
ATOM     11  C   UNL A   1      32.733  25.892  21.346  1.00  0.00     0.003 A 
ATOM     12  C   UNL A   1      33.137  27.147  21.803  1.00  0.00     0.014 A 
BRANCH   8  13
ATOM     13  N   UNL A   1      31.696  24.306  24.564  1.00  0.00    -0.261 N 
ATOM     14  C   UNL A   1      32.911  21.343  26.334  1.00  0.00     0.032 C 
ATOM     15  C   UNL A   1      32.227  22.402  25.873  1.00  0.00     0.081 C 
ATOM     16  S   UNL A   1      30.919  23.119  26.729  1.00  0.00    -0.054 SA
ATOM     17  C   UNL A   1      32.496  23.161  24.618  1.00  0.00     0.270 C 
ATOM     18  C   UNL A   1      30.751  24.438  25.572  1.00  0.00     0.152 C 
ATOM     19  O   UNL A   1      33.351  22.837  23.802  1.00  0.00    -0.268 OA
ATOM     20  S   UNL A   1      29.527  25.565  25.751  1.00  0.00    -0.051 S 
BRANCH  14  21
ATOM     21  C   UNL A   1      34.024  20.727  25.693  1.00  0.00     0.004 A 
ATOM     22  C   UNL A   1      32.924  18.522  24.787  1.00  0.00     0.065 C 
ATOM     23  C   UNL A   1      34.004  19.510  25.039  1.00  0.00     0.020 A 
ATOM     24  N   UNL A   1      35.296  19.254  24.641  1.00  0.00    -0.358 N 
ATOM     25  C   UNL A   1      36.133  20.285  25.001  1.00  0.00     0.046 A 
ATOM     26  H   UNL A   1      35.582  18.443  24.162  1.00  0.00     0.166 HD
ATOM     27  C   UNL A   1      35.352  21.242  25.648  1.00  0.00     0.007 A 
ATOM     28  C   UNL A   1      37.512  20.431  24.819  1.00  0.00     0.027 A 
ATOM     29  C   UNL A   1      35.976  22.412  26.126  1.00  0.00     0.011 A 
ATOM     30  C   UNL A   1      38.109  21.598  25.307  1.00  0.00     0.002 A 
ATOM     31  C   UNL A   1      37.354  22.578  25.948  1.00  0.00     0.001 A 
ENDBRANCH  14  21
ENDBRANCH   8  13
ENDBRANCH   4   7
ENDBRANCH   2   3
ENDBRANCH   1   2
BRANCH   1  32
ATOM     32  C   UNL A   1      32.352  31.438  27.013  1.00  0.00     0.118 C 
BRANCH  32  33
ATOM     33  N   UNL A   1      32.505  32.876  27.190  1.00  0.00    -0.352 N 
ATOM     34  C   UNL A   1      33.350  33.619  27.974  1.00  0.00     0.251 C 
ATOM     35  H   UNL A   1      31.887  33.415  26.644  1.00  0.00     0.163 HD
ATOM     36  O   UNL A   1      33.122  34.817  28.119  1.00  0.00    -0.269 OA
BRANCH  34  37
ATOM     37  C   UNL A   1      34.526  33.017  28.643  1.00  0.00     0.039 A 
ATOM     38  C   UNL A   1      35.798  33.499  28.315  1.00  0.00     0.014 A 
ATOM     39  C   UNL A   1      34.403  31.938  29.520  1.00  0.00     0.014 A 
ATOM     40  C   UNL A   1      36.933  32.931  28.897  1.00  0.00     0.010 A 
ATOM     41  C   UNL A   1      35.526  31.435  30.174  1.00  0.00     0.010 A 
ATOM     42  C   UNL A   1      36.804  31.910  29.853  1.00  0.00    -0.014 A 
BRANCH  42  43
ATOM     43  C   UNL A   1      38.003  31.325  30.506  1.00  0.00     0.031 A 
ATOM     44  C   UNL A   1      38.386  31.730  31.904  1.00  0.00     0.074 A 
ATOM     45  C   UNL A   1      38.768  30.456  29.819  1.00  0.00     0.049 A 
ATOM     46  N   UNL A   1      39.395  31.326  32.636  1.00  0.00    -0.248 NA
ATOM     47  C   UNL A   1      37.544  32.745  32.557  1.00  0.00     0.031 C 
ATOM     48  C   UNL A   1      38.540  30.041  28.434  1.00  0.00     0.029 A 
ATOM     49  N   UNL A   1      39.891  29.761  30.193  1.00  0.00    -0.354 N 
ATOM     50  C   UNL A   1      39.316  32.048  33.821  1.00  0.00     0.074 A 
ATOM     51  C   UNL A   1      38.199  32.955  33.689  1.00  0.00     0.031 C 
ATOM     52  C   UNL A   1      39.467  29.135  28.088  1.00  0.00     0.029 A 
ATOM     53  C   UNL A   1      40.369  28.924  29.216  1.00  0.00     0.049 A 
ATOM     54  H   UNL A   1      40.313  29.854  31.078  1.00  0.00     0.167 HD
ATOM     55  C   UNL A   1      40.088  31.941  34.929  1.00  0.00     0.037 A 
ATOM     56  C   UNL A   1      41.410  28.072  29.234  1.00  0.00     0.037 A 
ATOM     57  C   UNL A   1      41.178  31.011  35.067  1.00  0.00     0.049 A 
ATOM     58  C   UNL A   1      42.220  27.936  30.494  1.00  0.00     0.074 A 
ATOM     59  C   UNL A   1      41.985  30.781  36.167  1.00  0.00     0.029 A 
ATOM     60  N   UNL A   1      41.609  30.150  34.068  1.00  0.00    -0.354 N 
ATOM     61  N   UNL A   1      42.088  28.570  31.634  1.00  0.00    -0.248 NA
ATOM     62  C   UNL A   1      43.310  26.952  30.474  1.00  0.00     0.031 C 
ATOM     63  C   UNL A   1      42.928  29.804  35.823  1.00  0.00     0.029 A 
ATOM     64  C   UNL A   1      42.678  29.394  34.523  1.00  0.00     0.049 A 
ATOM     65  H   UNL A   1      41.214  30.085  33.169  1.00  0.00     0.167 HD
ATOM     66  C   UNL A   1      43.063  28.047  32.474  1.00  0.00     0.074 A 
ATOM     67  C   UNL A   1      43.759  27.027  31.718  1.00  0.00     0.031 C 
ATOM     68  C   UNL A   1      43.358  28.383  33.754  1.00  0.00     0.037 A 
BRANCH  55  69
ATOM     69  C   UNL A   1      39.771  32.847  36.085  1.00  0.00     0.064 A 
ATOM     70  C   UNL A   1      40.435  34.071  36.262  1.00  0.00     0.173 A 
ATOM     71  C   UNL A   1      38.775  32.503  37.009  1.00  0.00     0.173 A 
ATOM     72  F   UNL A   1      41.407  34.442  35.414  1.00  0.00    -0.203 F 
ATOM     73  C   UNL A   1      40.134  34.902  37.339  1.00  0.00     0.198 A 
ATOM     74  C   UNL A   1      38.455  33.350  38.068  1.00  0.00     0.198 A 
ATOM     75  F   UNL A   1      38.106  31.347  36.886  1.00  0.00    -0.203 F 
ATOM     76  F   UNL A   1      40.818  36.041  37.516  1.00  0.00    -0.200 F 
ATOM     77  C   UNL A   1      39.139  34.544  38.236  1.00  0.00     0.200 A 
ATOM     78  F   UNL A   1      37.486  33.009  38.929  1.00  0.00    -0.200 F 
ATOM     79  F   UNL A   1      38.847  35.347  39.269  1.00  0.00    -0.200 F 
ENDBRANCH  55  69
BRANCH  56  80
ATOM     80  C   UNL A   1      41.709  27.240  28.040  1.00  0.00     0.064 A 
ATOM     81  C   UNL A   1      42.618  27.681  27.069  1.00  0.00     0.173 A 
ATOM     82  C   UNL A   1      41.098  25.993  27.846  1.00  0.00     0.173 A 
ATOM     83  F   UNL A   1      43.215  28.875  27.203  1.00  0.00    -0.203 F 
ATOM     84  C   UNL A   1      42.888  26.917  25.936  1.00  0.00     0.198 A 
ATOM     85  C   UNL A   1      41.391  25.217  26.726  1.00  0.00     0.198 A 
ATOM     86  F   UNL A   1      40.229  25.522  28.751  1.00  0.00    -0.203 F 
ATOM     87  F   UNL A   1      43.728  27.382  25.001  1.00  0.00    -0.200 F 
ATOM     88  C   UNL A   1      42.279  25.682  25.768  1.00  0.00     0.200 A 
ATOM     89  F   UNL A   1      40.811  24.018  26.575  1.00  0.00    -0.200 F 
ATOM     90  F   UNL A   1      42.542  24.945  24.681  1.00  0.00    -0.200 F 
ENDBRANCH  56  80
BRANCH  68  91
ATOM     91  C   UNL A   1      44.465  27.619  34.417  1.00  0.00     0.064 A 
ATOM     92  C   UNL A   1      45.786  28.090  34.416  1.00  0.00     0.173 A 
ATOM     93  C   UNL A   1      44.200  26.404  35.066  1.00  0.00     0.173 A 
ATOM     94  F   UNL A   1      46.092  29.240  33.796  1.00  0.00    -0.203 F 
ATOM     95  C   UNL A   1      46.808  27.353  35.008  1.00  0.00     0.198 A 
ATOM     96  C   UNL A   1      45.220  25.684  35.682  1.00  0.00     0.198 A 
ATOM     97  F   UNL A   1      42.952  25.913  35.102  1.00  0.00    -0.203 F 
ATOM     98  F   UNL A   1      48.073  27.793  34.941  1.00  0.00    -0.200 F 
ATOM     99  C   UNL A   1      46.524  26.154  35.642  1.00  0.00     0.200 A 
ATOM    100  F   UNL A   1      44.942  24.531  36.306  1.00  0.00    -0.200 F 
ATOM    101  F   UNL A   1      47.510  25.443  36.207  1.00  0.00    -0.200 F 
ENDBRANCH  68  91
ENDBRANCH  42  43
ENDBRANCH  34  37
ENDBRANCH  32  33
ENDBRANCH   1  32
TORSDOF 12
ENDMDL
MODEL 3
REMARK VINA RESULT:     -13.3     10.619     15.234
REMARK SMILES Cc1[nH]c2ccccc2c1/C=C1/SC(=S)N(c2cccc(C(=O)NCCCNC(=O)c3ccc(-c4c5nc(c(-c6c(F)c(F)c(F)c(F)c6F)c6ccc([nH]6)c(-c6c(F)c(F)c(F)c(F)c6F)c6nc(c(-c7c(F)c(F)c(F)c(F)c7F)c7ccc4[nH]7)C=C6)C=C5)cc3)c2)C1=O
REMARK SMILES IDX 26 1 25 2 24 3 22 4 23 5 21 7 17 8 18 9 94 10 19 11 20 12
REMARK SMILES IDX 16 13 11 14 12 15 13 16 95 17 14 18 96 19 15 20 10 21 1 22
REMARK SMILES IDX 2 23 3 24 4 25 9 27 5 28 8 29 6 30 7 31 27 32 28 33 29 34
REMARK SMILES IDX 30 36 31 37 32 38 93 39 33 40 92 41 34 42 35 43 36 44 86 45
REMARK SMILES IDX 37 46 91 47 85 48 87 49 38 50 90 51 84 52 83 53 39 55 71 56
REMARK SMILES IDX 51 57 70 58 52 59 55 60 69 61 88 62 53 63 54 64 68 66 89 67
REMARK SMILES IDX 56 68 40 69 41 70 49 71 42 72 43 73 47 74 50 75 44 76 45 77
REMARK SMILES IDX 48 78 46 79 72 80 73 81 81 82 74 83 75 84 79 85 82 86 76 87
REMARK SMILES IDX 77 88 80 89 78 90 57 91 58 92 66 93 59 94 60 95 64 96 67 97
REMARK SMILES IDX 61 98 62 99 65 100 63 101
REMARK H PARENT 24 6 3 26 28 35 87 54 55 65
REMARK Flexibility Score: inf
ROOT
ATOM      1  C   UNL A   1      32.421  29.194  25.795  1.00  0.00     0.042 C 
ENDROOT
BRANCH   1   2
ATOM      2  C   UNL A   1      33.840  28.699  25.553  1.00  0.00     0.118 C 
BRANCH   2   3
ATOM      3  N   UNL A   1      34.293  28.873  24.182  1.00  0.00    -0.352 N 
ATOM      4  C   UNL A   1      34.051  28.265  22.975  1.00  0.00     0.251 C 
ATOM      5  O   UNL A   1      34.670  28.719  22.008  1.00  0.00    -0.269 OA
ATOM      6  H   UNL A   1      34.937  29.614  24.098  1.00  0.00     0.163 HD
BRANCH   4   7
ATOM      7  C   UNL A   1      33.161  27.087  22.756  1.00  0.00     0.041 A 
ATOM      8  C   UNL A   1      31.917  25.117  23.500  1.00  0.00     0.051 A 
ATOM      9  C   UNL A   1      31.700  24.763  22.164  1.00  0.00     0.027 A 
ATOM     10  C   UNL A   1      32.579  26.326  23.769  1.00  0.00     0.040 A 
ATOM     11  C   UNL A   1      32.157  25.577  21.131  1.00  0.00     0.003 A 
ATOM     12  C   UNL A   1      32.907  26.716  21.426  1.00  0.00     0.014 A 
BRANCH   8  13
ATOM     13  N   UNL A   1      31.662  24.191  24.563  1.00  0.00    -0.261 N 
ATOM     14  C   UNL A   1      32.976  21.343  26.446  1.00  0.00     0.032 C 
ATOM     15  C   UNL A   1      32.269  22.374  25.961  1.00  0.00     0.081 C 
ATOM     16  S   UNL A   1      31.026  23.161  26.852  1.00  0.00    -0.054 SA
ATOM     17  C   UNL A   1      32.457  23.045  24.642  1.00  0.00     0.270 C 
ATOM     18  C   UNL A   1      30.787  24.400  25.620  1.00  0.00     0.152 C 
ATOM     19  O   UNL A   1      33.254  22.657  23.795  1.00  0.00    -0.268 OA
ATOM     20  S   UNL A   1      29.584  25.549  25.804  1.00  0.00    -0.051 S 
BRANCH  14  21
ATOM     21  C   UNL A   1      34.041  20.674  25.776  1.00  0.00     0.004 A 
ATOM     22  C   UNL A   1      32.841  18.468  25.009  1.00  0.00     0.065 C 
ATOM     23  C   UNL A   1      33.957  19.434  25.170  1.00  0.00     0.020 A 
ATOM     24  N   UNL A   1      35.221  19.129  24.721  1.00  0.00    -0.358 N 
ATOM     25  C   UNL A   1      36.100  20.149  25.000  1.00  0.00     0.046 A 
ATOM     26  H   UNL A   1      35.463  18.293  24.260  1.00  0.00     0.166 HD
ATOM     27  C   UNL A   1      35.377  21.150  25.648  1.00  0.00     0.007 A 
ATOM     28  C   UNL A   1      37.473  20.251  24.747  1.00  0.00     0.027 A 
ATOM     29  C   UNL A   1      36.054  22.319  26.050  1.00  0.00     0.011 A 
ATOM     30  C   UNL A   1      38.123  21.418  25.160  1.00  0.00     0.002 A 
ATOM     31  C   UNL A   1      37.425  22.441  25.800  1.00  0.00     0.001 A 
ENDBRANCH  14  21
ENDBRANCH   8  13
ENDBRANCH   4   7
ENDBRANCH   2   3
ENDBRANCH   1   2
BRANCH   1  32
ATOM     32  C   UNL A   1      32.255  30.010  27.071  1.00  0.00     0.118 C 
BRANCH  32  33
ATOM     33  N   UNL A   1      32.530  31.427  26.868  1.00  0.00    -0.352 N 
ATOM     34  C   UNL A   1      33.497  32.255  27.377  1.00  0.00     0.251 C 
ATOM     35  H   UNL A   1      31.906  31.872  26.249  1.00  0.00     0.163 HD
ATOM     36  O   UNL A   1      33.372  33.469  27.231  1.00  0.00    -0.269 OA
BRANCH  34  37
ATOM     37  C   UNL A   1      34.682  31.728  28.090  1.00  0.00     0.039 A 
ATOM     38  C   UNL A   1      35.785  32.571  28.263  1.00  0.00     0.014 A 
ATOM     39  C   UNL A   1      34.756  30.401  28.516  1.00  0.00     0.014 A 
ATOM     40  C   UNL A   1      36.936  32.097  28.897  1.00  0.00     0.010 A 
ATOM     41  C   UNL A   1      35.865  29.955  29.234  1.00  0.00     0.010 A 
ATOM     42  C   UNL A   1      36.974  30.791  29.413  1.00  0.00    -0.014 A 
BRANCH  42  43
ATOM     43  C   UNL A   1      38.179  30.290  30.122  1.00  0.00     0.031 A 
ATOM     44  C   UNL A   1      38.462  30.713  31.539  1.00  0.00     0.074 A 
ATOM     45  C   UNL A   1      39.037  29.481  29.473  1.00  0.00     0.049 A 
ATOM     46  N   UNL A   1      39.461  30.379  32.318  1.00  0.00    -0.248 NA
ATOM     47  C   UNL A   1      37.519  31.661  32.152  1.00  0.00     0.031 C 
ATOM     48  C   UNL A   1      38.908  29.059  28.077  1.00  0.00     0.029 A 
ATOM     49  N   UNL A   1      40.187  28.867  29.900  1.00  0.00    -0.354 N 
ATOM     50  C   UNL A   1      39.273  31.086  33.499  1.00  0.00     0.074 A 
ATOM     51  C   UNL A   1      38.101  31.912  33.315  1.00  0.00     0.031 C 
ATOM     52  C   UNL A   1      39.913  28.224  27.775  1.00  0.00     0.029 A 
ATOM     53  C   UNL A   1      40.772  28.072  28.945  1.00  0.00     0.049 A 
ATOM     54  H   UNL A   1      40.557  28.985  30.804  1.00  0.00     0.167 HD
ATOM     55  C   UNL A   1      39.996  31.029  34.644  1.00  0.00     0.037 A 
ATOM     56  C   UNL A   1      41.869  27.296  29.013  1.00  0.00     0.037 A 
ATOM     57  C   UNL A   1      41.141  30.179  34.834  1.00  0.00     0.049 A 
ATOM     58  C   UNL A   1      42.624  27.212  30.311  1.00  0.00     0.074 A 
ATOM     59  C   UNL A   1      41.908  30.001  35.972  1.00  0.00     0.029 A 
ATOM     60  N   UNL A   1      41.682  29.356  33.855  1.00  0.00    -0.354 N 
ATOM     61  N   UNL A   1      42.392  27.828  31.445  1.00  0.00    -0.248 NA
ATOM     62  C   UNL A   1      43.782  26.309  30.343  1.00  0.00     0.031 C 
ATOM     63  C   UNL A   1      42.934  29.096  35.672  1.00  0.00     0.029 A 
ATOM     64  C   UNL A   1      42.779  28.677  34.360  1.00  0.00     0.049 A 
ATOM     65  H   UNL A   1      41.336  29.268  32.937  1.00  0.00     0.167 HD
ATOM     66  C   UNL A   1      43.359  27.372  32.331  1.00  0.00     0.074 A 
ATOM     67  C   UNL A   1      44.163  26.408  31.607  1.00  0.00     0.031 C 
ATOM     68  C   UNL A   1      43.566  27.722  33.624  1.00  0.00     0.037 A 
BRANCH  55  69
ATOM     69  C   UNL A   1      39.558  31.903  35.784  1.00  0.00     0.064 A 
ATOM     70  C   UNL A   1      38.534  31.509  36.660  1.00  0.00     0.173 A 
ATOM     71  C   UNL A   1      40.186  33.133  36.024  1.00  0.00     0.173 A 
ATOM     72  F   UNL A   1      37.890  30.347  36.467  1.00  0.00    -0.203 F 
ATOM     73  C   UNL A   1      38.135  32.329  37.714  1.00  0.00     0.198 A 
ATOM     74  C   UNL A   1      39.806  33.937  37.098  1.00  0.00     0.198 A 
ATOM     75  F   UNL A   1      41.175  33.557  35.222  1.00  0.00    -0.203 F 
ATOM     76  F   UNL A   1      37.119  31.954  38.505  1.00  0.00    -0.200 F 
ATOM     77  C   UNL A   1      38.776  33.537  37.936  1.00  0.00     0.200 A 
ATOM     78  F   UNL A   1      40.434  35.100  37.318  1.00  0.00    -0.200 F 
ATOM     79  F   UNL A   1      38.395  34.322  38.953  1.00  0.00    -0.200 F 
ENDBRANCH  55  69
BRANCH  56  80
ATOM     80  C   UNL A   1      42.285  26.495  27.834  1.00  0.00     0.064 A 
ATOM     81  C   UNL A   1      41.689  25.255  27.563  1.00  0.00     0.173 A 
ATOM     82  C   UNL A   1      43.278  26.948  26.954  1.00  0.00     0.173 A 
ATOM     83  F   UNL A   1      40.746  24.772  28.386  1.00  0.00    -0.203 F 
ATOM     84  C   UNL A   1      42.087  24.488  26.471  1.00  0.00     0.198 A 
ATOM     85  C   UNL A   1      43.655  26.192  25.845  1.00  0.00     0.198 A 
ATOM     86  F   UNL A   1      43.871  28.132  27.162  1.00  0.00    -0.203 F 
ATOM     87  F   UNL A   1      41.532  23.286  26.261  1.00  0.00    -0.200 F 
ATOM     88  C   UNL A   1      43.065  24.960  25.609  1.00  0.00     0.200 A 
ATOM     89  F   UNL A   1      44.591  26.659  25.007  1.00  0.00    -0.200 F 
ATOM     90  F   UNL A   1      43.445  24.224  24.556  1.00  0.00    -0.200 F 
ENDBRANCH  56  80
BRANCH  68  91
ATOM     91  C   UNL A   1      44.691  27.035  34.339  1.00  0.00     0.064 A 
ATOM     92  C   UNL A   1      44.503  25.815  35.006  1.00  0.00     0.173 A 
ATOM     93  C   UNL A   1      45.975  27.601  34.353  1.00  0.00     0.173 A 
ATOM     94  F   UNL A   1      43.291  25.242  35.033  1.00  0.00    -0.203 F 
ATOM     95  C   UNL A   1      45.550  25.207  35.693  1.00  0.00     0.198 A 
ATOM     96  C   UNL A   1      47.027  26.975  35.016  1.00  0.00     0.198 A 
ATOM     97  F   UNL A   1      46.210  28.763  33.724  1.00  0.00    -0.203 F 
ATOM     98  F   UNL A   1      45.331  24.073  36.374  1.00  0.00    -0.200 F 
ATOM     99  C   UNL A   1      46.810  25.785  35.695  1.00  0.00     0.200 A 
ATOM    100  F   UNL A   1      48.247  27.528  35.007  1.00  0.00    -0.200 F 
ATOM    101  F   UNL A   1      47.816  25.200  36.360  1.00  0.00    -0.200 F 
ENDBRANCH  68  91
ENDBRANCH  42  43
ENDBRANCH  34  37
ENDBRANCH  32  33
ENDBRANCH   1  32
TORSDOF 12
ENDMDL
