MODEL 1
REMARK VINA RESULT:     -13.3      0.000      0.000
REMARK SMILES Cc1ccc2[nH]c3c(=O)n(CC(=O)NCCCNC(=O)c4ccc(-c5c6nc(c(-c7c(F)c(F)c(F)c(F)c7F)c7ccc([nH]7)c(-c7c(F)c(F)c(F)c(F)c7F)c7nc(c(-c8c(F)c(F)c(F)c(F)c8F)c8ccc5[nH]8)C=C7)C=C6)cc4)cnc3c2c1
REMARK SMILES IDX 16 1 15 2 14 3 12 4 13 5 11 7 10 8 1 9 2 10 3 11 88 12 4 13
REMARK SMILES IDX 87 14 5 15 86 16 6 17 7 18 85 19 8 21 84 22 9 23 17 24 18 25
REMARK SMILES IDX 19 26 20 28 21 29 22 30 83 31 23 32 82 33 24 34 25 35 26 36
REMARK SMILES IDX 76 37 27 38 81 39 75 40 77 41 28 42 80 43 74 44 73 45 29 47
REMARK SMILES IDX 61 48 41 49 60 50 42 51 45 52 59 53 78 54 43 55 44 56 58 58
REMARK SMILES IDX 79 59 46 60 30 61 31 62 39 63 32 64 33 65 37 66 40 67 34 68
REMARK SMILES IDX 35 69 38 70 36 71 62 72 63 73 71 74 64 75 65 76 69 77 72 78
REMARK SMILES IDX 66 79 67 80 70 81 68 82 47 83 48 84 56 85 49 86 50 87 54 88
REMARK SMILES IDX 57 89 51 90 52 91 55 92 53 93
REMARK H PARENT 14 6 6 20 18 27 77 46 45 57
REMARK Flexibility Score: inf
ROOT
ATOM      1  C   UNL A   1      43.842  18.866  25.856  1.00  0.00     0.042 C 
ENDROOT
BRANCH   1   2
ATOM      2  C   UNL A   1      42.330  19.024  26.026  1.00  0.00     0.117 C 
BRANCH   2   3
ATOM      3  N   UNL A   1      41.979  19.848  27.167  1.00  0.00    -0.354 N 
ATOM      4  C   UNL A   1      41.196  20.962  27.238  1.00  0.00     0.240 C 
ATOM      5  O   UNL A   1      40.857  21.347  28.359  1.00  0.00    -0.273 OA
ATOM      6  H   UNL A   1      42.367  19.557  28.024  1.00  0.00     0.163 HD
BRANCH   4   7
ATOM      7  C   UNL A   1      40.643  21.624  25.971  1.00  0.00     0.226 C 
BRANCH   7   8
ATOM      8  N   UNL A   1      39.266  21.238  25.704  1.00  0.00    -0.288 N 
ATOM      9  C   UNL A   1      32.199  18.364  24.047  1.00  0.00     0.044 C 
ATOM     10  C   UNL A   1      33.117  19.491  24.425  1.00  0.00    -0.050 A 
ATOM     11  C   UNL A   1      32.591  20.744  24.763  1.00  0.00     0.005 A 
ATOM     12  C   UNL A   1      34.505  19.270  24.499  1.00  0.00     0.016 A 
ATOM     13  C   UNL A   1      33.413  21.797  25.171  1.00  0.00     0.027 A 
ATOM     14  C   UNL A   1      35.355  20.312  24.922  1.00  0.00     0.026 A 
ATOM     15  C   UNL A   1      34.786  21.551  25.249  1.00  0.00     0.048 A 
ATOM     16  C   UNL A   1      36.743  20.455  25.147  1.00  0.00     0.103 A 
ATOM     17  N   UNL A   1      35.807  22.389  25.648  1.00  0.00    -0.349 N 
ATOM     18  C   UNL A   1      36.991  21.714  25.594  1.00  0.00     0.132 A 
ATOM     19  N   UNL A   1      37.754  19.500  25.000  1.00  0.00    -0.236 NA
ATOM     20  H   UNL A   1      35.699  23.326  25.928  1.00  0.00     0.167 HD
ATOM     21  C   UNL A   1      38.286  22.206  25.945  1.00  0.00     0.278 A 
ATOM     22  C   UNL A   1      38.933  19.954  25.303  1.00  0.00     0.203 A 
ATOM     23  O   UNL A   1      38.488  23.310  26.376  1.00  0.00    -0.267 OA
ENDBRANCH   7   8
ENDBRANCH   4   7
ENDBRANCH   2   3
ENDBRANCH   1   2
BRANCH   1  24
ATOM     24  C   UNL A   1      44.284  18.856  24.396  1.00  0.00     0.118 C 
BRANCH  24  25
ATOM     25  N   UNL A   1      45.421  19.709  24.142  1.00  0.00    -0.352 N 
ATOM     26  C   UNL A   1      45.824  20.926  24.584  1.00  0.00     0.251 C 
ATOM     27  H   UNL A   1      46.051  19.313  23.498  1.00  0.00     0.163 HD
ATOM     28  O   UNL A   1      47.006  21.203  24.366  1.00  0.00    -0.269 OA
BRANCH  26  29
ATOM     29  C   UNL A   1      44.929  21.979  25.109  1.00  0.00     0.039 A 
ATOM     30  C   UNL A   1      43.877  22.650  24.489  1.00  0.00     0.014 A 
ATOM     31  C   UNL A   1      45.285  22.382  26.393  1.00  0.00     0.014 A 
ATOM     32  C   UNL A   1      43.497  23.911  25.003  1.00  0.00     0.010 A 
ATOM     33  C   UNL A   1      44.635  23.432  26.988  1.00  0.00     0.010 A 
ATOM     34  C   UNL A   1      44.084  24.408  26.191  1.00  0.00    -0.014 A 
BRANCH  34  35
ATOM     35  C   UNL A   1      43.673  25.640  26.926  1.00  0.00     0.031 A 
ATOM     36  C   UNL A   1      44.693  26.698  26.527  1.00  0.00     0.074 A 
ATOM     37  C   UNL A   1      42.542  25.785  27.730  1.00  0.00     0.049 A 
ATOM     38  N   UNL A   1      45.689  27.060  27.269  1.00  0.00    -0.248 NA
ATOM     39  C   UNL A   1      44.911  27.140  25.119  1.00  0.00     0.031 C 
ATOM     40  C   UNL A   1      41.479  24.812  28.127  1.00  0.00     0.029 A 
ATOM     41  N   UNL A   1      42.084  26.898  28.467  1.00  0.00    -0.354 N 
ATOM     42  C   UNL A   1      46.370  28.056  26.570  1.00  0.00     0.074 A 
ATOM     43  C   UNL A   1      46.021  27.885  25.199  1.00  0.00     0.031 C 
ATOM     44  C   UNL A   1      40.423  25.424  28.751  1.00  0.00     0.029 A 
ATOM     45  C   UNL A   1      40.710  26.838  28.944  1.00  0.00     0.049 A 
ATOM     46  H   UNL A   1      42.663  27.672  28.650  1.00  0.00     0.167 HD
ATOM     47  C   UNL A   1      46.830  29.133  27.266  1.00  0.00     0.037 A 
ATOM     48  C   UNL A   1      40.014  27.772  29.714  1.00  0.00     0.037 A 
ATOM     49  C   UNL A   1      46.859  28.790  28.667  1.00  0.00     0.049 A 
ATOM     50  C   UNL A   1      41.056  28.648  30.285  1.00  0.00     0.074 A 
ATOM     51  C   UNL A   1      47.610  27.929  29.440  1.00  0.00     0.029 A 
ATOM     52  N   UNL A   1      45.617  28.866  29.240  1.00  0.00    -0.354 N 
ATOM     53  N   UNL A   1      41.888  28.224  31.190  1.00  0.00    -0.248 NA
ATOM     54  C   UNL A   1      41.496  29.723  29.413  1.00  0.00     0.031 C 
ATOM     55  C   UNL A   1      46.702  27.343  30.372  1.00  0.00     0.029 A 
ATOM     56  C   UNL A   1      45.483  28.003  30.285  1.00  0.00     0.049 A 
ATOM     57  H   UNL A   1      44.905  29.472  28.933  1.00  0.00     0.167 HD
ATOM     58  C   UNL A   1      43.114  28.608  30.686  1.00  0.00     0.074 A 
ATOM     59  C   UNL A   1      42.807  29.569  29.607  1.00  0.00     0.031 C 
ATOM     60  C   UNL A   1      44.217  27.845  30.940  1.00  0.00     0.037 A 
BRANCH  47  61
ATOM     61  C   UNL A   1      46.703  30.577  26.818  1.00  0.00     0.064 A 
ATOM     62  C   UNL A   1      47.831  31.417  26.928  1.00  0.00     0.173 A 
ATOM     63  C   UNL A   1      45.481  31.241  26.563  1.00  0.00     0.173 A 
ATOM     64  F   UNL A   1      49.033  30.903  27.224  1.00  0.00    -0.203 F 
ATOM     65  C   UNL A   1      47.741  32.808  26.803  1.00  0.00     0.198 A 
ATOM     66  C   UNL A   1      45.402  32.627  26.398  1.00  0.00     0.198 A 
ATOM     67  F   UNL A   1      44.310  30.594  26.562  1.00  0.00    -0.203 F 
ATOM     68  F   UNL A   1      48.831  33.565  26.991  1.00  0.00    -0.200 F 
ATOM     69  C   UNL A   1      46.529  33.412  26.529  1.00  0.00     0.200 A 
ATOM     70  F   UNL A   1      44.211  33.199  26.169  1.00  0.00    -0.200 F 
ATOM     71  F   UNL A   1      46.438  34.745  26.429  1.00  0.00    -0.200 F 
ENDBRANCH  47  61
BRANCH  48  72
ATOM     72  C   UNL A   1      38.609  28.380  29.674  1.00  0.00     0.064 A 
ATOM     73  C   UNL A   1      37.864  28.755  30.839  1.00  0.00     0.173 A 
ATOM     74  C   UNL A   1      38.164  28.976  28.489  1.00  0.00     0.173 A 
ATOM     75  F   UNL A   1      38.200  28.277  32.049  1.00  0.00    -0.203 F 
ATOM     76  C   UNL A   1      36.805  29.694  30.803  1.00  0.00     0.198 A 
ATOM     77  C   UNL A   1      37.125  29.927  28.459  1.00  0.00     0.198 A 
ATOM     78  F   UNL A   1      38.808  28.724  27.344  1.00  0.00    -0.203 F 
ATOM     79  F   UNL A   1      36.168  30.060  31.930  1.00  0.00    -0.200 F 
ATOM     80  C   UNL A   1      36.458  30.301  29.612  1.00  0.00     0.200 A 
ATOM     81  F   UNL A   1      36.826  30.536  27.303  1.00  0.00    -0.200 F 
ATOM     82  F   UNL A   1      35.525  31.265  29.576  1.00  0.00    -0.200 F 
ENDBRANCH  48  72
BRANCH  60  83
ATOM     83  C   UNL A   1      44.125  26.769  31.985  1.00  0.00     0.064 A 
ATOM     84  C   UNL A   1      44.111  25.381  31.758  1.00  0.00     0.173 A 
ATOM     85  C   UNL A   1      44.220  27.201  33.310  1.00  0.00     0.173 A 
ATOM     86  F   UNL A   1      44.141  24.882  30.516  1.00  0.00    -0.203 F 
ATOM     87  C   UNL A   1      44.142  24.474  32.825  1.00  0.00     0.198 A 
ATOM     88  C   UNL A   1      44.292  26.301  34.364  1.00  0.00     0.198 A 
ATOM     89  F   UNL A   1      44.321  28.513  33.573  1.00  0.00    -0.203 F 
ATOM     90  F   UNL A   1      44.127  23.152  32.593  1.00  0.00    -0.200 F 
ATOM     91  C   UNL A   1      44.233  24.939  34.127  1.00  0.00     0.200 A 
ATOM     92  F   UNL A   1      44.462  26.762  35.610  1.00  0.00    -0.200 F 
ATOM     93  F   UNL A   1      44.294  24.078  35.152  1.00  0.00    -0.200 F 
ENDBRANCH  60  83
ENDBRANCH  34  35
ENDBRANCH  26  29
ENDBRANCH  24  25
ENDBRANCH   1  24
TORSDOF 11
ENDMDL
MODEL 2
REMARK VINA RESULT:     -13.2      4.778     11.704
REMARK SMILES Cc1ccc2[nH]c3c(=O)n(CC(=O)NCCCNC(=O)c4ccc(-c5c6nc(c(-c7c(F)c(F)c(F)c(F)c7F)c7ccc([nH]7)c(-c7c(F)c(F)c(F)c(F)c7F)c7nc(c(-c8c(F)c(F)c(F)c(F)c8F)c8ccc5[nH]8)C=C7)C=C6)cc4)cnc3c2c1
REMARK SMILES IDX 16 1 15 2 14 3 12 4 13 5 11 7 10 8 1 9 2 10 3 11 88 12 4 13
REMARK SMILES IDX 87 14 5 15 86 16 6 17 7 18 85 19 8 21 84 22 9 23 17 24 18 25
REMARK SMILES IDX 19 26 20 28 21 29 22 30 83 31 23 32 82 33 24 34 25 35 26 36
REMARK SMILES IDX 76 37 27 38 81 39 75 40 77 41 28 42 80 43 74 44 73 45 29 47
REMARK SMILES IDX 61 48 41 49 60 50 42 51 45 52 59 53 78 54 43 55 44 56 58 58
REMARK SMILES IDX 79 59 46 60 30 61 31 62 39 63 32 64 33 65 37 66 40 67 34 68
REMARK SMILES IDX 35 69 38 70 36 71 62 72 63 73 71 74 64 75 65 76 69 77 72 78
REMARK SMILES IDX 66 79 67 80 70 81 68 82 47 83 48 84 56 85 49 86 50 87 54 88
REMARK SMILES IDX 57 89 51 90 52 91 55 92 53 93
REMARK H PARENT 14 6 6 20 18 27 77 46 45 57
REMARK Flexibility Score: inf
ROOT
ATOM      1  C   UNL A   1      34.484  35.280  28.963  1.00  0.00     0.042 C 
ENDROOT
BRANCH   1   2
ATOM      2  C   UNL A   1      33.018  35.602  29.260  1.00  0.00     0.117 C 
BRANCH   2   3
ATOM      3  N   UNL A   1      32.865  36.701  30.194  1.00  0.00    -0.354 N 
ATOM      4  C   UNL A   1      32.797  36.691  31.556  1.00  0.00     0.240 C 
ATOM      5  O   UNL A   1      32.904  37.775  32.136  1.00  0.00    -0.273 OA
ATOM      6  H   UNL A   1      32.798  37.592  29.780  1.00  0.00     0.163 HD
BRANCH   4   7
ATOM      7  C   UNL A   1      32.735  35.375  32.338  1.00  0.00     0.226 C 
BRANCH   7   8
ATOM      8  N   UNL A   1      34.058  34.873  32.675  1.00  0.00    -0.288 N 
ATOM      9  C   UNL A   1      41.456  33.009  34.335  1.00  0.00     0.044 C 
ATOM     10  C   UNL A   1      40.016  32.647  34.106  1.00  0.00    -0.050 A 
ATOM     11  C   UNL A   1      39.576  31.338  34.335  1.00  0.00     0.005 A 
ATOM     12  C   UNL A   1      39.096  33.639  33.720  1.00  0.00     0.016 A 
ATOM     13  C   UNL A   1      38.234  30.981  34.183  1.00  0.00     0.027 A 
ATOM     14  C   UNL A   1      37.734  33.308  33.574  1.00  0.00     0.026 A 
ATOM     15  C   UNL A   1      37.337  31.985  33.812  1.00  0.00     0.048 A 
ATOM     16  C   UNL A   1      36.553  34.012  33.247  1.00  0.00     0.103 A 
ATOM     17  N   UNL A   1      35.971  31.918  33.626  1.00  0.00    -0.349 N 
ATOM     18  C   UNL A   1      35.499  33.154  33.295  1.00  0.00     0.132 A 
ATOM     19  N   UNL A   1      36.400  35.371  32.954  1.00  0.00    -0.236 NA
ATOM     20  H   UNL A   1      35.422  31.106  33.719  1.00  0.00     0.167 HD
ATOM     21  C   UNL A   1      34.143  33.526  33.041  1.00  0.00     0.278 A 
ATOM     22  C   UNL A   1      35.168  35.703  32.706  1.00  0.00     0.203 A 
ATOM     23  O   UNL A   1      33.216  32.767  33.123  1.00  0.00    -0.267 OA
ENDBRANCH   7   8
ENDBRANCH   4   7
ENDBRANCH   2   3
ENDBRANCH   1   2
BRANCH   1  24
ATOM     24  C   UNL A   1      34.886  33.870  29.383  1.00  0.00     0.118 C 
BRANCH  24  25
ATOM     25  N   UNL A   1      34.704  32.894  28.335  1.00  0.00    -0.352 N 
ATOM     26  C   UNL A   1      35.122  31.620  28.128  1.00  0.00     0.251 C 
ATOM     27  H   UNL A   1      34.146  33.232  27.598  1.00  0.00     0.163 HD
ATOM     28  O   UNL A   1      34.518  31.001  27.248  1.00  0.00    -0.269 OA
BRANCH  26  29
ATOM     29  C   UNL A   1      36.332  31.015  28.723  1.00  0.00     0.039 A 
ATOM     30  C   UNL A   1      37.329  31.592  29.508  1.00  0.00     0.014 A 
ATOM     31  C   UNL A   1      36.496  29.684  28.348  1.00  0.00     0.014 A 
ATOM     32  C   UNL A   1      38.592  30.960  29.551  1.00  0.00     0.010 A 
ATOM     33  C   UNL A   1      37.627  29.002  28.714  1.00  0.00     0.010 A 
ATOM     34  C   UNL A   1      38.789  29.707  28.922  1.00  0.00    -0.014 A 
BRANCH  34  35
ATOM     35  C   UNL A   1      40.013  28.859  29.016  1.00  0.00     0.031 A 
ATOM     36  C   UNL A   1      40.200  28.597  30.504  1.00  0.00     0.074 A 
ATOM     37  C   UNL A   1      40.754  28.355  27.946  1.00  0.00     0.049 A 
ATOM     38  N   UNL A   1      41.054  29.223  31.247  1.00  0.00    -0.248 NA
ATOM     39  C   UNL A   1      39.185  27.909  31.353  1.00  0.00     0.031 C 
ATOM     40  C   UNL A   1      40.604  28.531  26.470  1.00  0.00     0.029 A 
ATOM     41  N   UNL A   1      41.921  27.563  27.939  1.00  0.00    -0.354 N 
ATOM     42  C   UNL A   1      40.940  28.689  32.530  1.00  0.00     0.074 A 
ATOM     43  C   UNL A   1      39.646  28.096  32.596  1.00  0.00     0.031 C 
ATOM     44  C   UNL A   1      41.413  27.680  25.762  1.00  0.00     0.029 A 
ATOM     45  C   UNL A   1      42.271  26.935  26.672  1.00  0.00     0.049 A 
ATOM     46  H   UNL A   1      42.470  27.441  28.747  1.00  0.00     0.167 HD
ATOM     47  C   UNL A   1      42.080  28.468  33.241  1.00  0.00     0.037 A 
ATOM     48  C   UNL A   1      43.374  26.134  26.372  1.00  0.00     0.037 A 
ATOM     49  C   UNL A   1      43.145  29.236  32.642  1.00  0.00     0.049 A 
ATOM     50  C   UNL A   1      44.325  26.366  27.477  1.00  0.00     0.074 A 
ATOM     51  C   UNL A   1      43.431  30.582  32.538  1.00  0.00     0.029 A 
ATOM     52  N   UNL A   1      43.648  28.630  31.522  1.00  0.00    -0.354 N 
ATOM     53  N   UNL A   1      44.939  27.503  27.626  1.00  0.00    -0.248 NA
ATOM     54  C   UNL A   1      44.090  25.565  28.665  1.00  0.00     0.031 C 
ATOM     55  C   UNL A   1      43.940  30.775  31.219  1.00  0.00     0.029 A 
ATOM     56  C   UNL A   1      44.145  29.533  30.632  1.00  0.00     0.049 A 
ATOM     57  H   UNL A   1      43.649  27.657  31.376  1.00  0.00     0.167 HD
ATOM     58  C   UNL A   1      44.719  27.802  28.954  1.00  0.00     0.074 A 
ATOM     59  C   UNL A   1      44.224  26.548  29.558  1.00  0.00     0.031 C 
ATOM     60  C   UNL A   1      44.606  29.106  29.343  1.00  0.00     0.037 A 
BRANCH  47  61
ATOM     61  C   UNL A   1      42.378  27.216  34.043  1.00  0.00     0.064 A 
ATOM     62  C   UNL A   1      41.998  27.179  35.400  1.00  0.00     0.173 A 
ATOM     63  C   UNL A   1      43.255  26.184  33.636  1.00  0.00     0.173 A 
ATOM     64  F   UNL A   1      41.215  28.139  35.912  1.00  0.00    -0.203 F 
ATOM     65  C   UNL A   1      42.466  26.196  36.281  1.00  0.00     0.198 A 
ATOM     66  C   UNL A   1      43.688  25.180  34.508  1.00  0.00     0.198 A 
ATOM     67  F   UNL A   1      43.804  26.160  32.416  1.00  0.00    -0.203 F 
ATOM     68  F   UNL A   1      42.134  26.252  37.578  1.00  0.00    -0.200 F 
ATOM     69  C   UNL A   1      43.303  25.193  35.833  1.00  0.00     0.200 A 
ATOM     70  F   UNL A   1      44.529  24.235  34.064  1.00  0.00    -0.200 F 
ATOM     71  F   UNL A   1      43.767  24.263  36.679  1.00  0.00    -0.200 F 
ENDBRANCH  47  61
BRANCH  48  72
ATOM     72  C   UNL A   1      43.589  24.831  25.596  1.00  0.00     0.064 A 
ATOM     73  C   UNL A   1      44.832  24.456  24.991  1.00  0.00     0.173 A 
ATOM     74  C   UNL A   1      42.703  23.768  25.800  1.00  0.00     0.173 A 
ATOM     75  F   UNL A   1      45.786  25.373  24.762  1.00  0.00    -0.203 F 
ATOM     76  C   UNL A   1      45.159  23.114  24.678  1.00  0.00     0.198 A 
ATOM     77  C   UNL A   1      43.039  22.432  25.510  1.00  0.00     0.198 A 
ATOM     78  F   UNL A   1      41.525  23.999  26.391  1.00  0.00    -0.203 F 
ATOM     79  F   UNL A   1      46.360  22.798  24.162  1.00  0.00    -0.200 F 
ATOM     80  C   UNL A   1      44.268  22.099  24.969  1.00  0.00     0.200 A 
ATOM     81  F   UNL A   1      42.180  21.454  25.833  1.00  0.00    -0.200 F 
ATOM     82  F   UNL A   1      44.600  20.813  24.772  1.00  0.00    -0.200 F 
ENDBRANCH  48  72
BRANCH  60  83
ATOM     83  C   UNL A   1      45.003  30.184  28.374  1.00  0.00     0.064 A 
ATOM     84  C   UNL A   1      44.143  30.906  27.526  1.00  0.00     0.173 A 
ATOM     85  C   UNL A   1      46.333  30.605  28.448  1.00  0.00     0.173 A 
ATOM     86  F   UNL A   1      42.830  30.644  27.487  1.00  0.00    -0.203 F 
ATOM     87  C   UNL A   1      44.618  31.971  26.752  1.00  0.00     0.198 A 
ATOM     88  C   UNL A   1      46.794  31.688  27.711  1.00  0.00     0.198 A 
ATOM     89  F   UNL A   1      47.172  30.003  29.303  1.00  0.00    -0.203 F 
ATOM     90  F   UNL A   1      43.786  32.650  25.947  1.00  0.00    -0.200 F 
ATOM     91  C   UNL A   1      45.945  32.359  26.848  1.00  0.00     0.200 A 
ATOM     92  F   UNL A   1      48.056  32.103  27.874  1.00  0.00    -0.200 F 
ATOM     93  F   UNL A   1      46.401  33.398  26.134  1.00  0.00    -0.200 F 
ENDBRANCH  60  83
ENDBRANCH  34  35
ENDBRANCH  26  29
ENDBRANCH  24  25
ENDBRANCH   1  24
TORSDOF 11
ENDMDL
MODEL 3
REMARK VINA RESULT:     -13.1      3.785      9.478
REMARK SMILES Cc1ccc2[nH]c3c(=O)n(CC(=O)NCCCNC(=O)c4ccc(-c5c6nc(c(-c7c(F)c(F)c(F)c(F)c7F)c7ccc([nH]7)c(-c7c(F)c(F)c(F)c(F)c7F)c7nc(c(-c8c(F)c(F)c(F)c(F)c8F)c8ccc5[nH]8)C=C7)C=C6)cc4)cnc3c2c1
REMARK SMILES IDX 16 1 15 2 14 3 12 4 13 5 11 7 10 8 1 9 2 10 3 11 88 12 4 13
REMARK SMILES IDX 87 14 5 15 86 16 6 17 7 18 85 19 8 21 84 22 9 23 17 24 18 25
REMARK SMILES IDX 19 26 20 28 21 29 22 30 83 31 23 32 82 33 24 34 25 35 26 36
REMARK SMILES IDX 76 37 27 38 81 39 75 40 77 41 28 42 80 43 74 44 73 45 29 47
REMARK SMILES IDX 61 48 41 49 60 50 42 51 45 52 59 53 78 54 43 55 44 56 58 58
REMARK SMILES IDX 79 59 46 60 30 61 31 62 39 63 32 64 33 65 37 66 40 67 34 68
REMARK SMILES IDX 35 69 38 70 36 71 62 72 63 73 71 74 64 75 65 76 69 77 72 78
REMARK SMILES IDX 66 79 67 80 70 81 68 82 47 83 48 84 56 85 49 86 50 87 54 88
REMARK SMILES IDX 57 89 51 90 52 91 55 92 53 93
REMARK H PARENT 14 6 6 20 18 27 77 46 45 57
REMARK Flexibility Score: inf
ROOT
ATOM      1  C   UNL A   1      33.259  30.077  26.226  1.00  0.00     0.042 C 
ENDROOT
BRANCH   1   2
ATOM      2  C   UNL A   1      31.762  30.080  25.908  1.00  0.00     0.117 C 
BRANCH   2   3
ATOM      3  N   UNL A   1      31.491  29.890  24.496  1.00  0.00    -0.354 N 
ATOM      4  C   UNL A   1      30.951  28.823  23.842  1.00  0.00     0.240 C 
ATOM      5  O   UNL A   1      30.603  28.992  22.671  1.00  0.00    -0.273 OA
ATOM      6  H   UNL A   1      31.736  30.650  23.920  1.00  0.00     0.163 HD
BRANCH   4   7
ATOM      7  C   UNL A   1      30.658  27.509  24.574  1.00  0.00     0.226 C 
BRANCH   7   8
ATOM      8  N   UNL A   1      31.840  26.669  24.692  1.00  0.00    -0.288 N 
ATOM      9  C   UNL A   1      38.303  22.532  26.130  1.00  0.00     0.044 C 
ATOM     10  C   UNL A   1      37.187  22.979  25.229  1.00  0.00    -0.050 A 
ATOM     11  C   UNL A   1      37.028  22.396  23.966  1.00  0.00     0.005 A 
ATOM     12  C   UNL A   1      36.265  23.942  25.679  1.00  0.00     0.016 A 
ATOM     13  C   UNL A   1      35.969  22.751  23.126  1.00  0.00     0.027 A 
ATOM     14  C   UNL A   1      35.180  24.306  24.857  1.00  0.00     0.026 A 
ATOM     15  C   UNL A   1      35.059  23.698  23.599  1.00  0.00     0.048 A 
ATOM     16  C   UNL A   1      34.072  25.175  24.973  1.00  0.00     0.103 A 
ATOM     17  N   UNL A   1      33.921  24.199  23.000  1.00  0.00    -0.349 N 
ATOM     18  C   UNL A   1      33.320  25.086  23.844  1.00  0.00     0.132 A 
ATOM     19  N   UNL A   1      33.712  25.991  26.050  1.00  0.00    -0.236 NA
ATOM     20  H   UNL A   1      33.593  23.954  22.105  1.00  0.00     0.167 HD
ATOM     21  C   UNL A   1      32.109  25.812  23.620  1.00  0.00     0.278 A 
ATOM     22  C   UNL A   1      32.620  26.663  25.838  1.00  0.00     0.203 A 
ATOM     23  O   UNL A   1      31.434  25.696  22.634  1.00  0.00    -0.267 OA
ENDBRANCH   7   8
ENDBRANCH   4   7
ENDBRANCH   2   3
ENDBRANCH   1   2
BRANCH   1  24
ATOM     24  C   UNL A   1      33.568  30.499  27.659  1.00  0.00     0.118 C 
BRANCH  24  25
ATOM     25  N   UNL A   1      34.242  31.772  27.743  1.00  0.00    -0.352 N 
ATOM     26  C   UNL A   1      35.530  32.167  27.900  1.00  0.00     0.251 C 
ATOM     27  H   UNL A   1      33.622  32.532  27.667  1.00  0.00     0.163 HD
ATOM     28  O   UNL A   1      35.759  33.348  27.626  1.00  0.00    -0.269 OA
BRANCH  26  29
ATOM     29  C   UNL A   1      36.593  31.364  28.540  1.00  0.00     0.039 A 
ATOM     30  C   UNL A   1      37.394  31.656  29.643  1.00  0.00     0.014 A 
ATOM     31  C   UNL A   1      36.848  30.181  27.852  1.00  0.00     0.014 A 
ATOM     32  C   UNL A   1      38.627  30.976  29.769  1.00  0.00     0.010 A 
ATOM     33  C   UNL A   1      37.884  29.371  28.240  1.00  0.00     0.010 A 
ATOM     34  C   UNL A   1      38.967  29.936  28.872  1.00  0.00    -0.014 A 
BRANCH  34  35
ATOM     35  C   UNL A   1      40.153  29.036  28.977  1.00  0.00     0.031 A 
ATOM     36  C   UNL A   1      40.314  28.765  30.467  1.00  0.00     0.074 A 
ATOM     37  C   UNL A   1      40.883  28.502  27.914  1.00  0.00     0.049 A 
ATOM     38  N   UNL A   1      41.186  29.355  31.219  1.00  0.00    -0.248 NA
ATOM     39  C   UNL A   1      39.262  28.120  31.304  1.00  0.00     0.031 C 
ATOM     40  C   UNL A   1      40.755  28.684  26.437  1.00  0.00     0.029 A 
ATOM     41  N   UNL A   1      42.015  27.661  27.918  1.00  0.00    -0.354 N 
ATOM     42  C   UNL A   1      41.036  28.825  32.500  1.00  0.00     0.074 A 
ATOM     43  C   UNL A   1      39.717  28.287  32.552  1.00  0.00     0.031 C 
ATOM     44  C   UNL A   1      41.535  27.801  25.736  1.00  0.00     0.029 A 
ATOM     45  C   UNL A   1      42.351  27.020  26.654  1.00  0.00     0.049 A 
ATOM     46  H   UNL A   1      42.551  27.516  28.731  1.00  0.00     0.167 HD
ATOM     47  C   UNL A   1      42.159  28.555  33.223  1.00  0.00     0.037 A 
ATOM     48  C   UNL A   1      43.422  26.173  26.365  1.00  0.00     0.037 A 
ATOM     49  C   UNL A   1      43.261  29.278  32.635  1.00  0.00     0.049 A 
ATOM     50  C   UNL A   1      44.371  26.364  27.479  1.00  0.00     0.074 A 
ATOM     51  C   UNL A   1      43.605  30.611  32.535  1.00  0.00     0.029 A 
ATOM     52  N   UNL A   1      43.749  28.652  31.519  1.00  0.00    -0.354 N 
ATOM     53  N   UNL A   1      45.031  27.473  27.635  1.00  0.00    -0.248 NA
ATOM     54  C   UNL A   1      44.090  25.572  28.664  1.00  0.00     0.031 C 
ATOM     55  C   UNL A   1      44.135  30.783  31.222  1.00  0.00     0.029 A 
ATOM     56  C   UNL A   1      44.293  29.534  30.635  1.00  0.00     0.049 A 
ATOM     57  H   UNL A   1      43.710  27.679  31.372  1.00  0.00     0.167 HD
ATOM     58  C   UNL A   1      44.810  27.780  28.961  1.00  0.00     0.074 A 
ATOM     59  C   UNL A   1      44.257  26.548  29.559  1.00  0.00     0.031 C 
ATOM     60  C   UNL A   1      44.749  29.088  29.350  1.00  0.00     0.037 A 
BRANCH  47  61
ATOM     61  C   UNL A   1      42.395  27.291  34.026  1.00  0.00     0.064 A 
ATOM     62  C   UNL A   1      41.988  27.265  35.376  1.00  0.00     0.173 A 
ATOM     63  C   UNL A   1      43.241  26.229  33.633  1.00  0.00     0.173 A 
ATOM     64  F   UNL A   1      41.230  28.252  35.875  1.00  0.00    -0.203 F 
ATOM     65  C   UNL A   1      42.402  26.264  36.262  1.00  0.00     0.198 A 
ATOM     66  C   UNL A   1      43.620  25.208  34.510  1.00  0.00     0.198 A 
ATOM     67  F   UNL A   1      43.813  26.188  32.424  1.00  0.00    -0.203 F 
ATOM     68  F   UNL A   1      42.047  26.329  37.553  1.00  0.00    -0.200 F 
ATOM     69  C   UNL A   1      43.211  25.231  35.827  1.00  0.00     0.200 A 
ATOM     70  F   UNL A   1      44.435  24.233  34.080  1.00  0.00    -0.200 F 
ATOM     71  F   UNL A   1      43.624  24.284  36.679  1.00  0.00    -0.200 F 
ENDBRANCH  47  61
BRANCH  48  72
ATOM     72  C   UNL A   1      43.590  24.863  25.589  1.00  0.00     0.064 A 
ATOM     73  C   UNL A   1      44.823  24.432  25.000  1.00  0.00     0.173 A 
ATOM     74  C   UNL A   1      42.655  23.840  25.780  1.00  0.00     0.173 A 
ATOM     75  F   UNL A   1      45.820  25.307  24.786  1.00  0.00    -0.203 F 
ATOM     76  C   UNL A   1      45.094  23.077  24.690  1.00  0.00     0.198 A 
ATOM     77  C   UNL A   1      42.934  22.490  25.492  1.00  0.00     0.198 A 
ATOM     78  F   UNL A   1      41.480  24.122  26.355  1.00  0.00    -0.203 F 
ATOM     79  F   UNL A   1      46.287  22.709  24.190  1.00  0.00    -0.200 F 
ATOM     80  C   UNL A   1      44.155  22.104  24.967  1.00  0.00     0.200 A 
ATOM     81  F   UNL A   1      42.029  21.551  25.801  1.00  0.00    -0.200 F 
ATOM     82  F   UNL A   1      44.432  20.804  24.773  1.00  0.00    -0.200 F 
ENDBRANCH  48  72
BRANCH  60  83
ATOM     83  C   UNL A   1      45.201  30.149  28.387  1.00  0.00     0.064 A 
ATOM     84  C   UNL A   1      44.380  30.909  27.534  1.00  0.00     0.173 A 
ATOM     85  C   UNL A   1      46.547  30.510  28.472  1.00  0.00     0.173 A 
ATOM     86  F   UNL A   1      43.058  30.707  27.484  1.00  0.00    -0.203 F 
ATOM     87  C   UNL A   1      44.908  31.954  26.765  1.00  0.00     0.198 A 
ATOM     88  C   UNL A   1      47.062  31.572  27.740  1.00  0.00     0.198 A 
ATOM     89  F   UNL A   1      47.352  29.870  29.332  1.00  0.00    -0.203 F 
ATOM     90  F   UNL A   1      44.114  32.670  25.955  1.00  0.00    -0.200 F 
ATOM     91  C   UNL A   1      46.251  32.282  26.873  1.00  0.00     0.200 A 
ATOM     92  F   UNL A   1      48.340  31.930  27.914  1.00  0.00    -0.200 F 
ATOM     93  F   UNL A   1      46.758  33.300  26.164  1.00  0.00    -0.200 F 
ENDBRANCH  60  83
ENDBRANCH  34  35
ENDBRANCH  26  29
ENDBRANCH  24  25
ENDBRANCH   1  24
TORSDOF 11
ENDMDL
