MODEL 1
REMARK VINA RESULT:     -12.8      0.000      0.000
REMARK SMILES O=C(NCCCNC(=O)[C@@H]1[C@H](C(=O)Nc2ccccc2OC(F)F)[C@@H]2C=C[C@H]1C2)c1ccc(-c2c3nc(c(-c4c(F)c(F)c(F)c(F)c4F)c4ccc([nH]4)c(-c4c(F)c(F)c(F)c(F)c4F)c4nc(c(-c5c(F)c(F)c(F)c(F)c5F)c5ccc2[nH]5)C=C4)C=C3)cc1
REMARK SMILES IDX 6 1 5 2 4 3 3 4 1 5 2 6 30 8 31 9 92 10 32 11 91 12 33 13
REMARK SMILES IDX 34 14 35 15 85 16 36 17 90 18 84 19 86 20 37 21 89 22 83 23
REMARK SMILES IDX 82 24 38 26 70 27 50 28 69 29 51 30 54 31 68 32 87 33 52 34
REMARK SMILES IDX 53 35 67 37 88 38 55 39 39 40 40 41 48 42 41 43 42 44 46 45
REMARK SMILES IDX 49 46 43 47 44 48 47 49 45 50 71 51 72 52 80 53 73 54 74 55
REMARK SMILES IDX 78 56 81 57 75 58 76 59 79 60 77 61 56 62 57 63 65 64 58 65
REMARK SMILES IDX 59 66 63 67 66 68 60 69 61 70 64 71 62 72 7 73 8 74 9 76
REMARK SMILES IDX 10 77 11 78 28 79 25 80 27 81 29 82 26 83 12 84 13 85 14 86
REMARK SMILES IDX 15 88 16 89 20 90 17 91 19 92 18 93 21 94 22 95 23 96 24 97
REMARK H PARENT 3 7 86 25 54 36 7 75 14 87
REMARK Flexibility Score: inf
ROOT
ATOM      1  C   UNL A   1      34.391  22.788  24.011  1.00  0.00     0.117 C 
ENDROOT
BRANCH   1   2
ATOM      2  C   UNL A   1      35.715  22.493  24.807  1.00  0.00     0.042 C 
BRANCH   2   3
ATOM      3  C   UNL A   1      37.060  22.156  24.145  1.00  0.00     0.118 C 
BRANCH   3   4
ATOM      4  N   UNL A   1      37.818  21.222  24.998  1.00  0.00    -0.352 N 
ATOM      5  O   UNL A   1      39.507  20.267  26.083  1.00  0.00    -0.269 OA
ATOM      6  C   UNL A   1      38.889  21.332  25.846  1.00  0.00     0.251 C 
ATOM      7  H   UNL A   1      37.474  20.301  24.945  1.00  0.00     0.163 HD
BRANCH   6   8
ATOM      8  C   UNL A   1      39.351  22.556  26.561  1.00  0.00     0.039 A 
ATOM      9  C   UNL A   1      40.403  22.557  27.476  1.00  0.00     0.014 A 
ATOM     10  C   UNL A   1      38.848  23.808  26.139  1.00  0.00     0.014 A 
ATOM     11  C   UNL A   1      40.921  23.771  27.967  1.00  0.00     0.010 A 
ATOM     12  C   UNL A   1      39.405  25.021  26.584  1.00  0.00     0.010 A 
ATOM     13  C   UNL A   1      40.465  25.018  27.497  1.00  0.00    -0.014 A 
BRANCH  13  14
ATOM     14  C   UNL A   1      41.209  26.268  27.857  1.00  0.00     0.031 A 
ATOM     15  C   UNL A   1      42.628  26.521  27.420  1.00  0.00     0.074 A 
ATOM     16  C   UNL A   1      40.575  27.211  28.588  1.00  0.00     0.049 A 
ATOM     17  N   UNL A   1      43.364  27.597  27.582  1.00  0.00    -0.248 NA
ATOM     18  C   UNL A   1      43.317  25.430  26.720  1.00  0.00     0.031 C 
ATOM     19  C   UNL A   1      39.226  27.072  29.140  1.00  0.00     0.029 A 
ATOM     20  N   UNL A   1      40.960  28.474  28.975  1.00  0.00    -0.354 N 
ATOM     21  C   UNL A   1      44.595  27.317  27.001  1.00  0.00     0.074 A 
ATOM     22  C   UNL A   1      44.521  25.954  26.515  1.00  0.00     0.031 C 
ATOM     23  C   UNL A   1      38.872  28.221  29.737  1.00  0.00     0.029 A 
ATOM     24  C   UNL A   1      39.982  29.163  29.653  1.00  0.00     0.049 A 
ATOM     25  H   UNL A   1      41.850  28.848  28.785  1.00  0.00     0.167 HD
ATOM     26  C   UNL A   1      45.680  28.122  26.872  1.00  0.00     0.037 A 
ATOM     27  C   UNL A   1      39.970  30.416  30.154  1.00  0.00     0.037 A 
ATOM     28  C   UNL A   1      45.764  29.478  27.361  1.00  0.00     0.049 A 
ATOM     29  C   UNL A   1      41.179  31.291  29.982  1.00  0.00     0.074 A 
ATOM     30  C   UNL A   1      46.821  30.370  27.266  1.00  0.00     0.029 A 
ATOM     31  N   UNL A   1      44.752  30.138  28.042  1.00  0.00    -0.354 N 
ATOM     32  N   UNL A   1      42.314  31.023  29.382  1.00  0.00    -0.248 NA
ATOM     33  C   UNL A   1      41.102  32.641  30.556  1.00  0.00     0.031 C 
ATOM     34  C   UNL A   1      46.461  31.555  27.917  1.00  0.00     0.029 A 
ATOM     35  C   UNL A   1      45.163  31.420  28.381  1.00  0.00     0.049 A 
ATOM     36  H   UNL A   1      43.871  29.754  28.255  1.00  0.00     0.167 HD
ATOM     37  C   UNL A   1      43.083  32.169  29.501  1.00  0.00     0.074 A 
ATOM     38  C   UNL A   1      42.284  33.152  30.196  1.00  0.00     0.031 C 
ATOM     39  C   UNL A   1      44.357  32.387  29.078  1.00  0.00     0.037 A 
BRANCH  26  40
ATOM     40  C   UNL A   1      46.882  27.565  26.160  1.00  0.00     0.064 A 
ATOM     41  C   UNL A   1      47.013  27.663  24.766  1.00  0.00     0.173 A 
ATOM     42  C   UNL A   1      47.942  26.991  26.878  1.00  0.00     0.173 A 
ATOM     43  F   UNL A   1      46.029  28.202  24.032  1.00  0.00    -0.203 F 
ATOM     44  C   UNL A   1      48.150  27.187  24.117  1.00  0.00     0.198 A 
ATOM     45  C   UNL A   1      49.087  26.538  26.229  1.00  0.00     0.198 A 
ATOM     46  F   UNL A   1      47.875  26.886  28.214  1.00  0.00    -0.203 F 
ATOM     47  F   UNL A   1      48.238  27.262  22.782  1.00  0.00    -0.200 F 
ATOM     48  C   UNL A   1      49.189  26.631  24.849  1.00  0.00     0.200 A 
ATOM     49  F   UNL A   1      50.097  26.015  26.938  1.00  0.00    -0.200 F 
ATOM     50  F   UNL A   1      50.286  26.183  24.223  1.00  0.00    -0.200 F 
ENDBRANCH  26  40
BRANCH  27  51
ATOM     51  C   UNL A   1      38.761  30.919  30.860  1.00  0.00     0.064 A 
ATOM     52  C   UNL A   1      38.647  30.834  32.254  1.00  0.00     0.173 A 
ATOM     53  C   UNL A   1      37.696  31.496  30.153  1.00  0.00     0.173 A 
ATOM     54  F   UNL A   1      39.628  30.269  32.975  1.00  0.00    -0.203 F 
ATOM     55  C   UNL A   1      37.506  31.292  32.913  1.00  0.00     0.198 A 
ATOM     56  C   UNL A   1      36.571  31.983  30.814  1.00  0.00     0.198 A 
ATOM     57  F   UNL A   1      37.757  31.603  28.818  1.00  0.00    -0.203 F 
ATOM     58  F   UNL A   1      37.404  31.158  34.242  1.00  0.00    -0.200 F 
ATOM     59  C   UNL A   1      36.474  31.874  32.193  1.00  0.00     0.200 A 
ATOM     60  F   UNL A   1      35.584  32.558  30.116  1.00  0.00    -0.200 F 
ATOM     61  F   UNL A   1      35.382  32.322  32.827  1.00  0.00    -0.200 F 
ENDBRANCH  27  51
BRANCH  39  62
ATOM     62  C   UNL A   1      44.942  33.740  29.352  1.00  0.00     0.064 A 
ATOM     63  C   UNL A   1      44.792  34.801  28.448  1.00  0.00     0.173 A 
ATOM     64  C   UNL A   1      45.655  33.981  30.536  1.00  0.00     0.173 A 
ATOM     65  F   UNL A   1      44.135  34.616  27.292  1.00  0.00    -0.203 F 
ATOM     66  C   UNL A   1      45.360  36.046  28.704  1.00  0.00     0.198 A 
ATOM     67  C   UNL A   1      46.199  35.235  30.801  1.00  0.00     0.198 A 
ATOM     68  F   UNL A   1      45.825  33.001  31.436  1.00  0.00    -0.203 F 
ATOM     69  F   UNL A   1      45.248  37.031  27.801  1.00  0.00    -0.200 F 
ATOM     70  C   UNL A   1      46.058  36.264  29.883  1.00  0.00     0.200 A 
ATOM     71  F   UNL A   1      46.867  35.446  31.944  1.00  0.00    -0.200 F 
ATOM     72  F   UNL A   1      46.607  37.461  30.126  1.00  0.00    -0.200 F 
ENDBRANCH  39  62
ENDBRANCH  13  14
ENDBRANCH   6   8
ENDBRANCH   3   4
ENDBRANCH   2   3
ENDBRANCH   1   2
BRANCH   1  73
ATOM     73  N   UNL A   1      33.970  24.092  23.378  1.00  0.00    -0.356 N 
ATOM     74  C   UNL A   1      33.741  25.431  23.428  1.00  0.00     0.224 C 
ATOM     75  H   UNL A   1      33.747  23.846  22.451  1.00  0.00     0.163 HD
ATOM     76  O   UNL A   1      33.657  25.795  22.227  1.00  0.00    -0.275 OA
BRANCH  74  77
ATOM     77  C   UNL A   1      33.699  26.655  24.511  1.00  0.00     0.098 C 
ATOM     78  C   UNL A   1      32.914  27.304  25.814  1.00  0.00     0.099 C 
ATOM     79  C   UNL A   1      33.653  27.965  23.592  1.00  0.00     0.025 C 
ATOM     80  C   UNL A   1      32.611  28.776  25.373  1.00  0.00     0.025 C 
ATOM     81  C   UNL A   1      32.211  28.225  23.196  1.00  0.00    -0.027 C 
ATOM     82  C   UNL A   1      33.846  29.121  24.571  1.00  0.00     0.017 C 
ATOM     83  C   UNL A   1      31.591  28.735  24.265  1.00  0.00    -0.027 C 
BRANCH  78  84
ATOM     84  C   UNL A   1      31.752  27.080  26.842  1.00  0.00     0.229 C 
ATOM     85  O   UNL A   1      31.802  27.687  27.923  1.00  0.00    -0.274 OA
ATOM     86  N   UNL A   1      30.615  26.367  26.632  1.00  0.00    -0.323 N 
ATOM     87  H   UNL A   1      29.856  26.560  27.229  1.00  0.00     0.170 HD
BRANCH  86  88
ATOM     88  C   UNL A   1      30.416  25.399  25.666  1.00  0.00     0.084 A 
ATOM     89  C   UNL A   1      29.907  25.774  24.417  1.00  0.00     0.030 A 
ATOM     90  C   UNL A   1      30.838  24.112  25.901  1.00  0.00     0.149 A 
ATOM     91  C   UNL A   1      30.054  24.919  23.323  1.00  0.00     0.002 A 
ATOM     92  C   UNL A   1      30.998  23.272  24.785  1.00  0.00     0.049 A 
ATOM     93  C   UNL A   1      30.653  23.682  23.498  1.00  0.00     0.004 A 
BRANCH  90  94
ATOM     94  O   UNL A   1      31.268  23.685  27.126  1.00  0.00    -0.433 OA
BRANCH  94  95
ATOM     95  C   UNL A   1      32.584  23.214  27.457  1.00  0.00     0.542 C 
ATOM     96  F   UNL A   1      32.807  22.000  26.914  1.00  0.00    -0.167 F 
ATOM     97  F   UNL A   1      33.462  24.082  26.876  1.00  0.00    -0.167 F 
ENDBRANCH  94  95
ENDBRANCH  90  94
ENDBRANCH  86  88
ENDBRANCH  78  84
ENDBRANCH  74  77
ENDBRANCH   1  73
TORSDOF 14
ENDMDL
MODEL 2
REMARK VINA RESULT:     -12.8      3.999      9.351
REMARK SMILES O=C(NCCCNC(=O)[C@@H]1[C@H](C(=O)Nc2ccccc2OC(F)F)[C@@H]2C=C[C@H]1C2)c1ccc(-c2c3nc(c(-c4c(F)c(F)c(F)c(F)c4F)c4ccc([nH]4)c(-c4c(F)c(F)c(F)c(F)c4F)c4nc(c(-c5c(F)c(F)c(F)c(F)c5F)c5ccc2[nH]5)C=C4)C=C3)cc1
REMARK SMILES IDX 6 1 5 2 4 3 3 4 1 5 2 6 30 8 31 9 92 10 32 11 91 12 33 13
REMARK SMILES IDX 34 14 35 15 85 16 36 17 90 18 84 19 86 20 37 21 89 22 83 23
REMARK SMILES IDX 82 24 38 26 70 27 50 28 69 29 51 30 54 31 68 32 87 33 52 34
REMARK SMILES IDX 53 35 67 37 88 38 55 39 39 40 40 41 48 42 41 43 42 44 46 45
REMARK SMILES IDX 49 46 43 47 44 48 47 49 45 50 71 51 72 52 80 53 73 54 74 55
REMARK SMILES IDX 78 56 81 57 75 58 76 59 79 60 77 61 56 62 57 63 65 64 58 65
REMARK SMILES IDX 59 66 63 67 66 68 60 69 61 70 64 71 62 72 7 73 8 74 9 76
REMARK SMILES IDX 10 77 11 78 28 79 25 80 27 81 29 82 26 83 12 84 13 85 14 86
REMARK SMILES IDX 15 88 16 89 20 90 17 91 19 92 18 93 21 94 22 95 23 96 24 97
REMARK H PARENT 3 7 86 25 54 36 7 75 14 87
REMARK Flexibility Score: inf
ROOT
ATOM      1  C   UNL A   1      32.045  27.492  27.175  1.00  0.00     0.117 C 
ENDROOT
BRANCH   1   2
ATOM      2  C   UNL A   1      31.689  29.020  27.068  1.00  0.00     0.042 C 
BRANCH   2   3
ATOM      3  C   UNL A   1      32.133  29.929  25.912  1.00  0.00     0.118 C 
BRANCH   3   4
ATOM      4  N   UNL A   1      32.270  31.317  26.390  1.00  0.00    -0.352 N 
ATOM      5  O   UNL A   1      32.686  33.050  27.719  1.00  0.00    -0.269 OA
ATOM      6  C   UNL A   1      33.115  31.970  27.249  1.00  0.00     0.251 C 
ATOM      7  H   UNL A   1      31.595  31.917  25.999  1.00  0.00     0.163 HD
BRANCH   6   8
ATOM      8  C   UNL A   1      34.500  31.569  27.630  1.00  0.00     0.039 A 
ATOM      9  C   UNL A   1      35.504  32.486  27.937  1.00  0.00     0.014 A 
ATOM     10  C   UNL A   1      34.753  30.206  27.900  1.00  0.00     0.014 A 
ATOM     11  C   UNL A   1      36.729  32.049  28.478  1.00  0.00     0.010 A 
ATOM     12  C   UNL A   1      35.953  29.775  28.497  1.00  0.00     0.010 A 
ATOM     13  C   UNL A   1      36.956  30.699  28.809  1.00  0.00    -0.014 A 
BRANCH  13  14
ATOM     14  C   UNL A   1      38.166  30.320  29.608  1.00  0.00     0.031 A 
ATOM     15  C   UNL A   1      38.383  30.786  31.023  1.00  0.00     0.074 A 
ATOM     16  C   UNL A   1      39.090  29.514  29.039  1.00  0.00     0.049 A 
ATOM     17  N   UNL A   1      39.339  30.463  31.864  1.00  0.00    -0.248 NA
ATOM     18  C   UNL A   1      37.412  31.745  31.567  1.00  0.00     0.031 C 
ATOM     19  C   UNL A   1      39.048  29.042  27.654  1.00  0.00     0.029 A 
ATOM     20  N   UNL A   1      40.226  28.930  29.550  1.00  0.00    -0.354 N 
ATOM     21  C   UNL A   1      39.083  31.169  33.033  1.00  0.00     0.074 A 
ATOM     22  C   UNL A   1      37.901  31.970  32.782  1.00  0.00     0.031 C 
ATOM     23  C   UNL A   1      40.068  28.196  27.444  1.00  0.00     0.029 A 
ATOM     24  C   UNL A   1      40.865  28.099  28.661  1.00  0.00     0.049 A 
ATOM     25  H   UNL A   1      40.550  29.092  30.465  1.00  0.00     0.167 HD
ATOM     26  C   UNL A   1      39.759  31.143  34.210  1.00  0.00     0.037 A 
ATOM     27  C   UNL A   1      41.970  27.336  28.801  1.00  0.00     0.037 A 
ATOM     28  C   UNL A   1      40.941  30.355  34.465  1.00  0.00     0.049 A 
ATOM     29  C   UNL A   1      42.688  27.314  30.120  1.00  0.00     0.074 A 
ATOM     30  C   UNL A   1      41.685  30.260  35.630  1.00  0.00     0.029 A 
ATOM     31  N   UNL A   1      41.556  29.526  33.537  1.00  0.00    -0.354 N 
ATOM     32  N   UNL A   1      42.398  27.949  31.230  1.00  0.00    -0.248 NA
ATOM     33  C   UNL A   1      43.887  26.468  30.203  1.00  0.00     0.031 C 
ATOM     34  C   UNL A   1      42.766  29.403  35.398  1.00  0.00     0.029 A 
ATOM     35  C   UNL A   1      42.673  28.926  34.101  1.00  0.00     0.049 A 
ATOM     36  H   UNL A   1      41.246  29.384  32.614  1.00  0.00     0.167 HD
ATOM     37  C   UNL A   1      43.371  27.577  32.143  1.00  0.00     0.074 A 
ATOM     38  C   UNL A   1      44.243  26.635  31.480  1.00  0.00     0.031 C 
ATOM     39  C   UNL A   1      43.536  27.993  33.427  1.00  0.00     0.037 A 
BRANCH  26  40
ATOM     40  C   UNL A   1      39.235  31.992  35.335  1.00  0.00     0.064 A 
ATOM     41  C   UNL A   1      38.422  31.447  36.341  1.00  0.00     0.173 A 
ATOM     42  C   UNL A   1      39.600  33.342  35.449  1.00  0.00     0.173 A 
ATOM     43  F   UNL A   1      38.042  30.162  36.280  1.00  0.00    -0.203 F 
ATOM     44  C   UNL A   1      37.978  32.228  37.406  1.00  0.00     0.198 A 
ATOM     45  C   UNL A   1      39.174  34.113  36.527  1.00  0.00     0.198 A 
ATOM     46  F   UNL A   1      40.387  33.910  34.523  1.00  0.00    -0.203 F 
ATOM     47  F   UNL A   1      37.176  31.694  38.338  1.00  0.00    -0.200 F 
ATOM     48  C   UNL A   1      38.359  33.558  37.502  1.00  0.00     0.200 A 
ATOM     49  F   UNL A   1      39.556  35.394  36.628  1.00  0.00    -0.200 F 
ATOM     50  F   UNL A   1      37.938  34.304  38.533  1.00  0.00    -0.200 F 
ENDBRANCH  26  40
BRANCH  27  51
ATOM     51  C   UNL A   1      42.456  26.521  27.656  1.00  0.00     0.064 A 
ATOM     52  C   UNL A   1      41.968  25.227  27.428  1.00  0.00     0.173 A 
ATOM     53  C   UNL A   1      43.419  27.021  26.767  1.00  0.00     0.173 A 
ATOM     54  F   UNL A   1      41.064  24.694  28.263  1.00  0.00    -0.203 F 
ATOM     55  C   UNL A   1      42.437  24.458  26.363  1.00  0.00     0.198 A 
ATOM     56  C   UNL A   1      43.863  26.264  25.685  1.00  0.00     0.198 A 
ATOM     57  F   UNL A   1      43.916  28.254  26.941  1.00  0.00    -0.203 F 
ATOM     58  F   UNL A   1      41.986  23.207  26.193  1.00  0.00    -0.200 F 
ATOM     59  C   UNL A   1      43.377  24.981  25.488  1.00  0.00     0.200 A 
ATOM     60  F   UNL A   1      44.759  26.780  24.833  1.00  0.00    -0.200 F 
ATOM     61  F   UNL A   1      43.820  24.245  24.460  1.00  0.00    -0.200 F 
ENDBRANCH  27  51
BRANCH  39  62
ATOM     62  C   UNL A   1      44.695  27.417  34.183  1.00  0.00     0.064 A 
ATOM     63  C   UNL A   1      45.947  28.048  34.199  1.00  0.00     0.173 A 
ATOM     64  C   UNL A   1      44.552  26.223  34.908  1.00  0.00     0.173 A 
ATOM     65  F   UNL A   1      46.141  29.181  33.507  1.00  0.00    -0.203 F 
ATOM     66  C   UNL A   1      47.022  27.490  34.887  1.00  0.00     0.198 A 
ATOM     67  C   UNL A   1      45.621  25.683  35.616  1.00  0.00     0.198 A 
ATOM     68  F   UNL A   1      43.374  25.582  34.927  1.00  0.00    -0.203 F 
ATOM     69  F   UNL A   1      48.223  28.084  34.845  1.00  0.00    -0.200 F 
ATOM     70  C   UNL A   1      46.857  26.311  35.599  1.00  0.00     0.200 A 
ATOM     71  F   UNL A   1      45.458  24.547  36.309  1.00  0.00    -0.200 F 
ATOM     72  F   UNL A   1      47.893  25.774  36.257  1.00  0.00    -0.200 F 
ENDBRANCH  39  62
ENDBRANCH  13  14
ENDBRANCH   6   8
ENDBRANCH   3   4
ENDBRANCH   2   3
ENDBRANCH   1   2
BRANCH   1  73
ATOM     73  N   UNL A   1      31.193  26.318  26.759  1.00  0.00    -0.356 N 
ATOM     74  C   UNL A   1      30.773  25.405  25.844  1.00  0.00     0.224 C 
ATOM     75  H   UNL A   1      30.673  26.102  27.567  1.00  0.00     0.163 HD
ATOM     76  O   UNL A   1      30.168  24.527  26.510  1.00  0.00    -0.275 OA
BRANCH  74  77
ATOM     77  C   UNL A   1      30.944  25.052  24.256  1.00  0.00     0.098 C 
ATOM     78  C   UNL A   1      31.577  24.000  23.148  1.00  0.00     0.099 C 
ATOM     79  C   UNL A   1      31.594  26.382  23.647  1.00  0.00     0.025 C 
ATOM     80  C   UNL A   1      32.407  24.922  22.190  1.00  0.00     0.025 C 
ATOM     81  C   UNL A   1      33.096  26.323  23.853  1.00  0.00    -0.027 C 
ATOM     82  C   UNL A   1      31.549  26.167  22.135  1.00  0.00     0.017 C 
ATOM     83  C   UNL A   1      33.586  25.458  22.959  1.00  0.00    -0.027 C 
BRANCH  78  84
ATOM     84  C   UNL A   1      32.353  22.650  22.972  1.00  0.00     0.229 C 
ATOM     85  O   UNL A   1      32.155  21.992  21.938  1.00  0.00    -0.274 OA
ATOM     86  N   UNL A   1      33.323  22.164  23.789  1.00  0.00    -0.323 N 
ATOM     87  H   UNL A   1      33.923  21.483  23.407  1.00  0.00     0.170 HD
BRANCH  86  88
ATOM     88  C   UNL A   1      33.553  22.529  25.102  1.00  0.00     0.084 A 
ATOM     89  C   UNL A   1      32.592  22.227  26.074  1.00  0.00     0.030 A 
ATOM     90  C   UNL A   1      34.770  23.064  25.452  1.00  0.00     0.149 A 
ATOM     91  C   UNL A   1      32.947  22.227  27.424  1.00  0.00     0.002 A 
ATOM     92  C   UNL A   1      35.118  23.039  26.814  1.00  0.00     0.049 A 
ATOM     93  C   UNL A   1      34.235  22.584  27.792  1.00  0.00     0.004 A 
BRANCH  90  94
ATOM     94  O   UNL A   1      35.705  23.445  24.530  1.00  0.00    -0.433 OA
BRANCH  94  95
ATOM     95  C   UNL A   1      36.770  22.638  24.005  1.00  0.00     0.542 C 
ATOM     96  F   UNL A   1      36.574  21.337  24.299  1.00  0.00    -0.167 F 
ATOM     97  F   UNL A   1      36.711  22.757  22.646  1.00  0.00    -0.167 F 
ENDBRANCH  94  95
ENDBRANCH  90  94
ENDBRANCH  86  88
ENDBRANCH  78  84
ENDBRANCH  74  77
ENDBRANCH   1  73
TORSDOF 14
ENDMDL
MODEL 3
REMARK VINA RESULT:     -12.8      3.987      9.307
REMARK SMILES O=C(NCCCNC(=O)[C@@H]1[C@H](C(=O)Nc2ccccc2OC(F)F)[C@@H]2C=C[C@H]1C2)c1ccc(-c2c3nc(c(-c4c(F)c(F)c(F)c(F)c4F)c4ccc([nH]4)c(-c4c(F)c(F)c(F)c(F)c4F)c4nc(c(-c5c(F)c(F)c(F)c(F)c5F)c5ccc2[nH]5)C=C4)C=C3)cc1
REMARK SMILES IDX 6 1 5 2 4 3 3 4 1 5 2 6 30 8 31 9 92 10 32 11 91 12 33 13
REMARK SMILES IDX 34 14 35 15 85 16 36 17 90 18 84 19 86 20 37 21 89 22 83 23
REMARK SMILES IDX 82 24 38 26 70 27 50 28 69 29 51 30 54 31 68 32 87 33 52 34
REMARK SMILES IDX 53 35 67 37 88 38 55 39 39 40 40 41 48 42 41 43 42 44 46 45
REMARK SMILES IDX 49 46 43 47 44 48 47 49 45 50 71 51 72 52 80 53 73 54 74 55
REMARK SMILES IDX 78 56 81 57 75 58 76 59 79 60 77 61 56 62 57 63 65 64 58 65
REMARK SMILES IDX 59 66 63 67 66 68 60 69 61 70 64 71 62 72 7 73 8 74 9 76
REMARK SMILES IDX 10 77 11 78 28 79 25 80 27 81 29 82 26 83 12 84 13 85 14 86
REMARK SMILES IDX 15 88 16 89 20 90 17 91 19 92 18 93 21 94 22 95 23 96 24 97
REMARK H PARENT 3 7 86 25 54 36 7 75 14 87
REMARK Flexibility Score: inf
ROOT
ATOM      1  C   UNL A   1      32.218  27.829  27.328  1.00  0.00     0.117 C 
ENDROOT
BRANCH   1   2
ATOM      2  C   UNL A   1      31.706  29.297  27.094  1.00  0.00     0.042 C 
BRANCH   2   3
ATOM      3  C   UNL A   1      32.227  30.224  25.986  1.00  0.00     0.118 C 
BRANCH   3   4
ATOM      4  N   UNL A   1      32.424  31.584  26.520  1.00  0.00    -0.352 N 
ATOM      5  O   UNL A   1      32.917  33.240  27.918  1.00  0.00    -0.269 OA
ATOM      6  C   UNL A   1      33.299  32.164  27.400  1.00  0.00     0.251 C 
ATOM      7  H   UNL A   1      31.772  32.227  26.159  1.00  0.00     0.163 HD
BRANCH   6   8
ATOM      8  C   UNL A   1      34.668  31.691  27.754  1.00  0.00     0.039 A 
ATOM      9  C   UNL A   1      35.747  32.551  27.954  1.00  0.00     0.014 A 
ATOM     10  C   UNL A   1      34.837  30.335  28.112  1.00  0.00     0.014 A 
ATOM     11  C   UNL A   1      36.961  32.065  28.478  1.00  0.00     0.010 A 
ATOM     12  C   UNL A   1      36.029  29.861  28.691  1.00  0.00     0.010 A 
ATOM     13  C   UNL A   1      37.107  30.727  28.897  1.00  0.00    -0.014 A 
BRANCH  13  14
ATOM     14  C   UNL A   1      38.322  30.318  29.672  1.00  0.00     0.031 A 
ATOM     15  C   UNL A   1      38.578  30.781  31.082  1.00  0.00     0.074 A 
ATOM     16  C   UNL A   1      39.213  29.486  29.088  1.00  0.00     0.049 A 
ATOM     17  N   UNL A   1      39.541  30.433  31.905  1.00  0.00    -0.248 NA
ATOM     18  C   UNL A   1      37.645  31.766  31.643  1.00  0.00     0.031 C 
ATOM     19  C   UNL A   1      39.131  29.014  27.705  1.00  0.00     0.029 A 
ATOM     20  N   UNL A   1      40.343  28.874  29.578  1.00  0.00    -0.354 N 
ATOM     21  C   UNL A   1      39.327  31.148  33.078  1.00  0.00     0.074 A 
ATOM     22  C   UNL A   1      38.163  31.979  32.847  1.00  0.00     0.031 C 
ATOM     23  C   UNL A   1      40.124  28.140  27.476  1.00  0.00     0.029 A 
ATOM     24  C   UNL A   1      40.941  28.024  28.678  1.00  0.00     0.049 A 
ATOM     25  H   UNL A   1      40.689  29.028  30.486  1.00  0.00     0.167 HD
ATOM     26  C   UNL A   1      40.025  31.106  34.241  1.00  0.00     0.037 A 
ATOM     27  C   UNL A   1      42.028  27.232  28.799  1.00  0.00     0.037 A 
ATOM     28  C   UNL A   1      41.190  30.287  34.475  1.00  0.00     0.049 A 
ATOM     29  C   UNL A   1      42.771  27.193  30.104  1.00  0.00     0.074 A 
ATOM     30  C   UNL A   1      41.954  30.175  35.626  1.00  0.00     0.029 A 
ATOM     31  N   UNL A   1      41.764  29.441  33.538  1.00  0.00    -0.354 N 
ATOM     32  N   UNL A   1      42.519  27.838  31.218  1.00  0.00    -0.248 NA
ATOM     33  C   UNL A   1      43.948  26.315  30.166  1.00  0.00     0.031 C 
ATOM     34  C   UNL A   1      43.007  29.288  35.375  1.00  0.00     0.029 A 
ATOM     35  C   UNL A   1      42.877  28.812  34.081  1.00  0.00     0.049 A 
ATOM     36  H   UNL A   1      41.433  29.305  32.621  1.00  0.00     0.167 HD
ATOM     37  C   UNL A   1      43.500  27.441  32.113  1.00  0.00     0.074 A 
ATOM     38  C   UNL A   1      44.333  26.475  31.435  1.00  0.00     0.031 C 
ATOM     39  C   UNL A   1      43.700  27.854  33.392  1.00  0.00     0.037 A 
BRANCH  26  40
ATOM     40  C   UNL A   1      39.545  31.971  35.374  1.00  0.00     0.064 A 
ATOM     41  C   UNL A   1      39.966  33.304  35.500  1.00  0.00     0.173 A 
ATOM     42  C   UNL A   1      38.608  31.490  36.301  1.00  0.00     0.173 A 
ATOM     43  F   UNL A   1      40.861  33.814  34.641  1.00  0.00    -0.203 F 
ATOM     44  C   UNL A   1      39.482  34.115  36.525  1.00  0.00     0.198 A 
ATOM     45  C   UNL A   1      38.109  32.310  37.310  1.00  0.00     0.198 A 
ATOM     46  F   UNL A   1      38.162  30.227  36.218  1.00  0.00    -0.203 F 
ATOM     47  F   UNL A   1      39.923  35.375  36.645  1.00  0.00    -0.200 F 
ATOM     48  C   UNL A   1      38.550  33.620  37.424  1.00  0.00     0.200 A 
ATOM     49  F   UNL A   1      37.197  31.836  38.169  1.00  0.00    -0.200 F 
ATOM     50  F   UNL A   1      38.079  34.405  38.403  1.00  0.00    -0.200 F 
ENDBRANCH  26  40
BRANCH  27  51
ATOM     51  C   UNL A   1      42.470  26.402  27.646  1.00  0.00     0.064 A 
ATOM     52  C   UNL A   1      43.472  26.848  26.773  1.00  0.00     0.173 A 
ATOM     53  C   UNL A   1      41.898  25.146  27.396  1.00  0.00     0.173 A 
ATOM     54  F   UNL A   1      44.033  28.053  26.955  1.00  0.00    -0.203 F 
ATOM     55  C   UNL A   1      43.874  26.076  25.684  1.00  0.00     0.198 A 
ATOM     56  C   UNL A   1      42.324  24.361  26.327  1.00  0.00     0.198 A 
ATOM     57  F   UNL A   1      40.937  24.673  28.202  1.00  0.00    -0.203 F 
ATOM     58  F   UNL A   1      44.803  26.545  24.840  1.00  0.00    -0.200 F 
ATOM     59  C   UNL A   1      43.306  24.829  25.467  1.00  0.00     0.200 A 
ATOM     60  F   UNL A   1      41.783  23.151  26.130  1.00  0.00    -0.200 F 
ATOM     61  F   UNL A   1      43.699  24.084  24.426  1.00  0.00    -0.200 F 
ENDBRANCH  27  51
BRANCH  39  62
ATOM     62  C   UNL A   1      44.858  27.249  34.127  1.00  0.00     0.064 A 
ATOM     63  C   UNL A   1      46.129  27.843  34.112  1.00  0.00     0.173 A 
ATOM     64  C   UNL A   1      44.696  26.064  34.862  1.00  0.00     0.173 A 
ATOM     65  F   UNL A   1      46.341  28.966  33.409  1.00  0.00    -0.203 F 
ATOM     66  C   UNL A   1      47.201  27.257  34.781  1.00  0.00     0.198 A 
ATOM     67  C   UNL A   1      45.764  25.497  35.551  1.00  0.00     0.198 A 
ATOM     68  F   UNL A   1      43.500  25.458  34.911  1.00  0.00    -0.203 F 
ATOM     69  F   UNL A   1      48.418  27.815  34.709  1.00  0.00    -0.200 F 
ATOM     70  C   UNL A   1      47.017  26.088  35.503  1.00  0.00     0.200 A 
ATOM     71  F   UNL A   1      45.582  24.371  36.255  1.00  0.00    -0.200 F 
ATOM     72  F   UNL A   1      48.050  25.525  36.143  1.00  0.00    -0.200 F 
ENDBRANCH  39  62
ENDBRANCH  13  14
ENDBRANCH   6   8
ENDBRANCH   3   4
ENDBRANCH   2   3
ENDBRANCH   1   2
BRANCH   1  73
ATOM     73  N   UNL A   1      31.578  26.545  26.859  1.00  0.00    -0.356 N 
ATOM     74  C   UNL A   1      31.252  25.654  25.887  1.00  0.00     0.224 C 
ATOM     75  H   UNL A   1      31.205  26.150  27.680  1.00  0.00     0.163 HD
ATOM     76  O   UNL A   1      30.912  24.609  26.499  1.00  0.00    -0.275 OA
BRANCH  74  77
ATOM     77  C   UNL A   1      31.313  25.495  24.260  1.00  0.00     0.098 C 
ATOM     78  C   UNL A   1      32.069  24.765  22.983  1.00  0.00     0.099 C 
ATOM     79  C   UNL A   1      31.482  27.001  23.745  1.00  0.00     0.025 C 
ATOM     80  C   UNL A   1      32.480  25.962  22.059  1.00  0.00     0.025 C 
ATOM     81  C   UNL A   1      32.955  27.364  23.795  1.00  0.00    -0.027 C 
ATOM     82  C   UNL A   1      31.309  26.904  22.230  1.00  0.00     0.017 C 
ATOM     83  C   UNL A   1      33.550  26.754  22.764  1.00  0.00    -0.027 C 
BRANCH  78  84
ATOM     84  C   UNL A   1      33.162  23.718  22.580  1.00  0.00     0.229 C 
ATOM     85  O   UNL A   1      33.395  23.550  21.373  1.00  0.00    -0.274 OA
ATOM     86  N   UNL A   1      33.980  23.039  23.425  1.00  0.00    -0.323 N 
ATOM     87  H   UNL A   1      34.802  22.660  23.037  1.00  0.00     0.170 HD
BRANCH  86  88
ATOM     88  C   UNL A   1      33.777  22.827  24.776  1.00  0.00     0.084 A 
ATOM     89  C   UNL A   1      32.705  22.028  25.189  1.00  0.00     0.030 A 
ATOM     90  C   UNL A   1      34.699  23.296  25.681  1.00  0.00     0.149 A 
ATOM     91  C   UNL A   1      32.697  21.488  26.476  1.00  0.00     0.002 A 
ATOM     92  C   UNL A   1      34.688  22.729  26.967  1.00  0.00     0.049 A 
ATOM     93  C   UNL A   1      33.725  21.798  27.353  1.00  0.00     0.004 A 
BRANCH  90  94
ATOM     94  O   UNL A   1      35.715  24.143  25.332  1.00  0.00    -0.433 OA
BRANCH  94  95
ATOM     95  C   UNL A   1      37.088  23.787  25.107  1.00  0.00     0.542 C 
ATOM     96  F   UNL A   1      37.794  23.852  26.254  1.00  0.00    -0.167 F 
ATOM     97  F   UNL A   1      37.088  22.481  24.707  1.00  0.00    -0.167 F 
ENDBRANCH  94  95
ENDBRANCH  90  94
ENDBRANCH  86  88
ENDBRANCH  78  84
ENDBRANCH  74  77
ENDBRANCH   1  73
TORSDOF 14
ENDMDL
