MODEL 1
REMARK VINA RESULT:     -13.0      0.000      0.000
REMARK SMILES O=C(NCCCNC(=O)[C@H]1C[C@H](O)CN1S(=O)(=O)c1ccc2c(c1)OCCO2)c1ccc(-c2c3nc(c(-c4c(F)c(F)c(F)c(F)c4F)c4ccc([nH]4)c(-c4c(F)c(F)c(F)c(F)c4F)c4nc(c(-c5c(F)c(F)c(F)c(F)c5F)c5ccc2[nH]5)C=C4)C=C3)cc1
REMARK SMILES IDX 5 1 4 2 3 3 1 4 2 5 29 7 30 8 91 9 31 10 90 11 32 12 33 13
REMARK SMILES IDX 34 14 84 15 35 16 89 17 83 18 85 19 36 20 88 21 82 22 81 23
REMARK SMILES IDX 37 25 69 26 49 27 68 28 50 29 53 30 67 31 86 32 51 33 52 34
REMARK SMILES IDX 66 36 87 37 54 38 38 39 39 40 47 41 40 42 41 43 45 44 48 45
REMARK SMILES IDX 42 46 43 47 46 48 44 49 70 50 71 51 79 52 72 53 73 54 77 55
REMARK SMILES IDX 80 56 74 57 75 58 78 59 76 60 55 61 56 62 64 63 57 64 58 65
REMARK SMILES IDX 62 66 65 67 59 68 60 69 63 70 61 71 6 72 7 73 8 74 9 76
REMARK SMILES IDX 10 77 11 78 15 79 12 80 14 81 16 82 17 83 18 84 19 85 20 86
REMARK SMILES IDX 24 87 21 88 23 89 22 90 25 91 28 92 26 93 27 94 13 95
REMARK H PARENT 3 6 85 24 53 35 7 75 13 96
REMARK Flexibility Score: inf
ROOT
ATOM      1  C   UNL A   1      33.331  28.470  23.949  1.00  0.00     0.042 C 
ENDROOT
BRANCH   1   2
ATOM      2  C   UNL A   1      33.715  28.866  25.360  1.00  0.00     0.118 C 
BRANCH   2   3
ATOM      3  N   UNL A   1      33.044  30.091  25.788  1.00  0.00    -0.352 N 
ATOM      4  O   UNL A   1      32.540  31.793  27.188  1.00  0.00    -0.269 OA
ATOM      5  C   UNL A   1      33.330  30.919  26.847  1.00  0.00     0.251 C 
ATOM      6  H   UNL A   1      32.273  30.362  25.239  1.00  0.00     0.163 HD
BRANCH   5   7
ATOM      7  C   UNL A   1      34.597  30.739  27.584  1.00  0.00     0.039 A 
ATOM      8  C   UNL A   1      34.873  29.519  28.198  1.00  0.00     0.014 A 
ATOM      9  C   UNL A   1      35.514  31.791  27.666  1.00  0.00     0.014 A 
ATOM     10  C   UNL A   1      35.960  29.409  29.047  1.00  0.00     0.010 A 
ATOM     11  C   UNL A   1      36.686  31.630  28.410  1.00  0.00     0.010 A 
ATOM     12  C   UNL A   1      36.905  30.444  29.127  1.00  0.00    -0.014 A 
BRANCH  12  13
ATOM     13  C   UNL A   1      38.154  30.183  29.884  1.00  0.00     0.031 A 
ATOM     14  C   UNL A   1      38.339  30.664  31.291  1.00  0.00     0.074 A 
ATOM     15  C   UNL A   1      39.093  29.423  29.286  1.00  0.00     0.049 A 
ATOM     16  N   UNL A   1      39.347  30.456  32.101  1.00  0.00    -0.248 NA
ATOM     17  C   UNL A   1      37.268  31.490  31.869  1.00  0.00     0.031 C 
ATOM     18  C   UNL A   1      39.016  28.923  27.909  1.00  0.00     0.029 A 
ATOM     19  N   UNL A   1      40.266  28.899  29.759  1.00  0.00    -0.354 N 
ATOM     20  C   UNL A   1      39.044  31.138  33.272  1.00  0.00     0.074 A 
ATOM     21  C   UNL A   1      37.766  31.785  33.064  1.00  0.00     0.031 C 
ATOM     22  C   UNL A   1      40.044  28.098  27.679  1.00  0.00     0.029 A 
ATOM     23  C   UNL A   1      40.900  28.079  28.857  1.00  0.00     0.049 A 
ATOM     24  H   UNL A   1      40.620  29.089  30.658  1.00  0.00     0.167 HD
ATOM     25  C   UNL A   1      39.770  31.208  34.412  1.00  0.00     0.037 A 
ATOM     26  C   UNL A   1      42.055  27.400  28.958  1.00  0.00     0.037 A 
ATOM     27  C   UNL A   1      41.036  30.544  34.609  1.00  0.00     0.049 A 
ATOM     28  C   UNL A   1      42.830  27.496  30.238  1.00  0.00     0.074 A 
ATOM     29  C   UNL A   1      41.849  30.548  35.728  1.00  0.00     0.029 A 
ATOM     30  N   UNL A   1      41.667  29.751  33.660  1.00  0.00    -0.354 N 
ATOM     31  N   UNL A   1      42.529  28.144  31.337  1.00  0.00    -0.248 NA
ATOM     32  C   UNL A   1      44.109  26.779  30.288  1.00  0.00     0.031 C 
ATOM     33  C   UNL A   1      42.989  29.787  35.445  1.00  0.00     0.029 A 
ATOM     34  C   UNL A   1      42.866  29.272  34.165  1.00  0.00     0.049 A 
ATOM     35  H   UNL A   1      41.316  29.558  32.761  1.00  0.00     0.167 HD
ATOM     36  C   UNL A   1      43.581  27.916  32.210  1.00  0.00     0.074 A 
ATOM     37  C   UNL A   1      44.507  27.035  31.526  1.00  0.00     0.031 C 
ATOM     38  C   UNL A   1      43.774  28.406  33.458  1.00  0.00     0.037 A 
BRANCH  25  39
ATOM     39  C   UNL A   1      39.230  32.039  35.539  1.00  0.00     0.064 A 
ATOM     40  C   UNL A   1      38.415  31.485  36.537  1.00  0.00     0.173 A 
ATOM     41  C   UNL A   1      39.589  33.390  35.662  1.00  0.00     0.173 A 
ATOM     42  F   UNL A   1      38.033  30.201  36.461  1.00  0.00    -0.203 F 
ATOM     43  C   UNL A   1      37.971  32.254  37.610  1.00  0.00     0.198 A 
ATOM     44  C   UNL A   1      39.163  34.151  36.749  1.00  0.00     0.198 A 
ATOM     45  F   UNL A   1      40.370  33.969  34.738  1.00  0.00    -0.203 F 
ATOM     46  F   UNL A   1      37.170  31.710  38.537  1.00  0.00    -0.200 F 
ATOM     47  C   UNL A   1      38.353  33.584  37.720  1.00  0.00     0.200 A 
ATOM     48  F   UNL A   1      39.542  35.431  36.859  1.00  0.00    -0.200 F 
ATOM     49  F   UNL A   1      37.936  34.318  38.760  1.00  0.00    -0.200 F 
ENDBRANCH  25  39
BRANCH  26  50
ATOM     50  C   UNL A   1      42.548  26.599  27.808  1.00  0.00     0.064 A 
ATOM     51  C   UNL A   1      43.400  27.156  26.847  1.00  0.00     0.173 A 
ATOM     52  C   UNL A   1      42.181  25.252  27.654  1.00  0.00     0.173 A 
ATOM     53  F   UNL A   1      43.765  28.444  26.941  1.00  0.00    -0.203 F 
ATOM     54  C   UNL A   1      43.853  26.403  25.765  1.00  0.00     0.198 A 
ATOM     55  C   UNL A   1      42.664  24.491  26.593  1.00  0.00     0.198 A 
ATOM     56  F   UNL A   1      41.374  24.668  28.551  1.00  0.00    -0.203 F 
ATOM     57  F   UNL A   1      44.630  26.973  24.835  1.00  0.00    -0.200 F 
ATOM     58  C   UNL A   1      43.491  25.070  25.644  1.00  0.00     0.200 A 
ATOM     59  F   UNL A   1      42.328  23.197  26.492  1.00  0.00    -0.200 F 
ATOM     60  F   UNL A   1      43.934  24.344  24.608  1.00  0.00    -0.200 F 
ENDBRANCH  26  50
BRANCH  38  61
ATOM     61  C   UNL A   1      45.035  27.987  34.152  1.00  0.00     0.064 A 
ATOM     62  C   UNL A   1      46.214  28.739  34.039  1.00  0.00     0.173 A 
ATOM     63  C   UNL A   1      45.067  26.821  34.929  1.00  0.00     0.173 A 
ATOM     64  F   UNL A   1      46.235  29.852  33.290  1.00  0.00    -0.203 F 
ATOM     65  C   UNL A   1      47.389  28.319  34.652  1.00  0.00     0.198 A 
ATOM     66  C   UNL A   1      46.238  26.419  35.565  1.00  0.00     0.198 A 
ATOM     67  F   UNL A   1      43.964  26.070  35.068  1.00  0.00    -0.203 F 
ATOM     68  F   UNL A   1      48.520  29.021  34.483  1.00  0.00    -0.200 F 
ATOM     69  C   UNL A   1      47.400  27.163  35.418  1.00  0.00     0.200 A 
ATOM     70  F   UNL A   1      46.245  25.306  36.310  1.00  0.00    -0.200 F 
ATOM     71  F   UNL A   1      48.534  26.756  36.003  1.00  0.00    -0.200 F 
ENDBRANCH  38  61
ENDBRANCH  12  13
ENDBRANCH   5   7
ENDBRANCH   2   3
ENDBRANCH   1   2
BRANCH   1  72
ATOM     72  C   UNL A   1      33.256  26.965  23.802  1.00  0.00     0.117 C 
BRANCH  72  73
ATOM     73  N   UNL A   1      31.918  26.521  23.470  1.00  0.00    -0.355 N 
ATOM     74  C   UNL A   1      31.096  25.623  24.075  1.00  0.00     0.238 C 
ATOM     75  H   UNL A   1      31.538  26.941  22.664  1.00  0.00     0.163 HD
ATOM     76  O   UNL A   1      30.018  25.397  23.514  1.00  0.00    -0.273 OA
BRANCH  74  77
ATOM     77  C   UNL A   1      31.459  24.891  25.363  1.00  0.00     0.165 C 
ATOM     78  C   UNL A   1      30.271  24.574  26.286  1.00  0.00     0.063 C 
ATOM     79  N   UNL A   1      32.344  23.671  25.361  1.00  0.00    -0.183 NA
ATOM     80  C   UNL A   1      30.377  23.087  26.584  1.00  0.00     0.131 C 
ATOM     81  C   UNL A   1      31.873  22.818  26.481  1.00  0.00     0.135 C 
BRANCH  79  82
ATOM     82  S   UNL A   1      32.670  22.942  23.862  1.00  0.00     0.244 S 
ATOM     83  O   UNL A   1      31.407  22.648  23.224  1.00  0.00    -0.207 OA
ATOM     84  O   UNL A   1      33.683  23.722  23.186  1.00  0.00    -0.207 OA
BRANCH  82  85
ATOM     85  C   UNL A   1      33.385  21.369  24.255  1.00  0.00     0.086 A 
ATOM     86  C   UNL A   1      34.725  21.269  24.639  1.00  0.00     0.026 A 
ATOM     87  C   UNL A   1      32.621  20.223  24.019  1.00  0.00     0.072 A 
ATOM     88  C   UNL A   1      35.291  20.003  24.814  1.00  0.00     0.052 A 
ATOM     89  C   UNL A   1      33.174  18.974  24.247  1.00  0.00     0.162 A 
ATOM     90  C   UNL A   1      34.517  18.858  24.615  1.00  0.00     0.161 A 
ATOM     91  O   UNL A   1      32.337  17.902  24.080  1.00  0.00    -0.486 OA
ATOM     92  O   UNL A   1      35.135  17.647  24.794  1.00  0.00    -0.486 OA
ATOM     93  C   UNL A   1      32.887  16.731  24.687  1.00  0.00     0.271 C 
ATOM     94  C   UNL A   1      34.342  16.569  24.278  1.00  0.00     0.271 C 
ENDBRANCH  82  85
ENDBRANCH  79  82
BRANCH  80  95
ATOM     95  O   UNL A   1      29.829  22.756  27.849  1.00  0.00    -0.392 OA
ATOM     96  H   UNL A   1      29.620  23.570  28.334  1.00  0.00     0.211 HD
ENDBRANCH  80  95
ENDBRANCH  74  77
ENDBRANCH  72  73
ENDBRANCH   1  72
TORSDOF 13
ENDMDL
MODEL 2
REMARK VINA RESULT:     -12.9      0.188      1.586
REMARK SMILES O=C(NCCCNC(=O)[C@H]1C[C@H](O)CN1S(=O)(=O)c1ccc2c(c1)OCCO2)c1ccc(-c2c3nc(c(-c4c(F)c(F)c(F)c(F)c4F)c4ccc([nH]4)c(-c4c(F)c(F)c(F)c(F)c4F)c4nc(c(-c5c(F)c(F)c(F)c(F)c5F)c5ccc2[nH]5)C=C4)C=C3)cc1
REMARK SMILES IDX 5 1 4 2 3 3 1 4 2 5 29 7 30 8 91 9 31 10 90 11 32 12 33 13
REMARK SMILES IDX 34 14 84 15 35 16 89 17 83 18 85 19 36 20 88 21 82 22 81 23
REMARK SMILES IDX 37 25 69 26 49 27 68 28 50 29 53 30 67 31 86 32 51 33 52 34
REMARK SMILES IDX 66 36 87 37 54 38 38 39 39 40 47 41 40 42 41 43 45 44 48 45
REMARK SMILES IDX 42 46 43 47 46 48 44 49 70 50 71 51 79 52 72 53 73 54 77 55
REMARK SMILES IDX 80 56 74 57 75 58 78 59 76 60 55 61 56 62 64 63 57 64 58 65
REMARK SMILES IDX 62 66 65 67 59 68 60 69 63 70 61 71 6 72 7 73 8 74 9 76
REMARK SMILES IDX 10 77 11 78 15 79 12 80 14 81 16 82 17 83 18 84 19 85 20 86
REMARK SMILES IDX 24 87 21 88 23 89 22 90 25 91 28 92 26 93 27 94 13 95
REMARK H PARENT 3 6 85 24 53 35 7 75 13 96
REMARK Flexibility Score: inf
ROOT
ATOM      1  C   UNL A   1      33.649  28.636  24.193  1.00  0.00     0.042 C 
ENDROOT
BRANCH   1   2
ATOM      2  C   UNL A   1      33.448  28.843  25.680  1.00  0.00     0.118 C 
BRANCH   2   3
ATOM      3  N   UNL A   1      32.882  30.155  25.980  1.00  0.00    -0.352 N 
ATOM      4  O   UNL A   1      32.544  32.035  27.190  1.00  0.00    -0.269 OA
ATOM      5  C   UNL A   1      33.258  31.070  26.934  1.00  0.00     0.251 C 
ATOM      6  H   UNL A   1      32.119  30.423  25.419  1.00  0.00     0.163 HD
BRANCH   5   7
ATOM      7  C   UNL A   1      34.527  30.875  27.663  1.00  0.00     0.039 A 
ATOM      8  C   UNL A   1      34.820  29.633  28.222  1.00  0.00     0.014 A 
ATOM      9  C   UNL A   1      35.428  31.935  27.793  1.00  0.00     0.014 A 
ATOM     10  C   UNL A   1      35.908  29.500  29.066  1.00  0.00     0.010 A 
ATOM     11  C   UNL A   1      36.603  31.758  28.530  1.00  0.00     0.010 A 
ATOM     12  C   UNL A   1      36.839  30.544  29.193  1.00  0.00    -0.014 A 
BRANCH  12  13
ATOM     13  C   UNL A   1      38.091  30.267  29.939  1.00  0.00     0.031 A 
ATOM     14  C   UNL A   1      38.291  30.737  31.348  1.00  0.00     0.074 A 
ATOM     15  C   UNL A   1      39.019  29.504  29.328  1.00  0.00     0.049 A 
ATOM     16  N   UNL A   1      39.303  30.514  32.149  1.00  0.00    -0.248 NA
ATOM     17  C   UNL A   1      37.232  31.568  31.940  1.00  0.00     0.031 C 
ATOM     18  C   UNL A   1      38.927  29.013  27.949  1.00  0.00     0.029 A 
ATOM     19  N   UNL A   1      40.191  28.965  29.789  1.00  0.00    -0.354 N 
ATOM     20  C   UNL A   1      39.016  31.190  33.326  1.00  0.00     0.074 A 
ATOM     21  C   UNL A   1      37.742  31.850  33.133  1.00  0.00     0.031 C 
ATOM     22  C   UNL A   1      39.946  28.181  27.705  1.00  0.00     0.029 A 
ATOM     23  C   UNL A   1      40.811  28.147  28.876  1.00  0.00     0.049 A 
ATOM     24  H   UNL A   1      40.554  29.146  30.686  1.00  0.00     0.167 HD
ATOM     25  C   UNL A   1      39.752  31.247  34.462  1.00  0.00     0.037 A 
ATOM     26  C   UNL A   1      41.961  27.457  28.963  1.00  0.00     0.037 A 
ATOM     27  C   UNL A   1      41.012  30.571  34.644  1.00  0.00     0.049 A 
ATOM     28  C   UNL A   1      42.747  27.538  30.238  1.00  0.00     0.074 A 
ATOM     29  C   UNL A   1      41.835  30.560  35.756  1.00  0.00     0.029 A 
ATOM     30  N   UNL A   1      41.630  29.779  33.684  1.00  0.00    -0.354 N 
ATOM     31  N   UNL A   1      42.459  28.180  31.343  1.00  0.00    -0.248 NA
ATOM     32  C   UNL A   1      44.019  26.809  30.272  1.00  0.00     0.031 C 
ATOM     33  C   UNL A   1      42.966  29.791  35.459  1.00  0.00     0.029 A 
ATOM     34  C   UNL A   1      42.828  29.286  34.177  1.00  0.00     0.049 A 
ATOM     35  H   UNL A   1      41.270  29.595  32.787  1.00  0.00     0.167 HD
ATOM     36  C   UNL A   1      43.516  27.938  32.207  1.00  0.00     0.074 A 
ATOM     37  C   UNL A   1      44.429  27.053  31.509  1.00  0.00     0.031 C 
ATOM     38  C   UNL A   1      43.723  28.417  33.457  1.00  0.00     0.037 A 
BRANCH  25  39
ATOM     39  C   UNL A   1      39.228  32.074  35.598  1.00  0.00     0.064 A 
ATOM     40  C   UNL A   1      38.419  31.519  36.601  1.00  0.00     0.173 A 
ATOM     41  C   UNL A   1      39.595  33.423  35.725  1.00  0.00     0.173 A 
ATOM     42  F   UNL A   1      38.029  30.238  36.522  1.00  0.00    -0.203 F 
ATOM     43  C   UNL A   1      37.990  32.285  37.683  1.00  0.00     0.198 A 
ATOM     44  C   UNL A   1      39.184  34.180  36.820  1.00  0.00     0.198 A 
ATOM     45  F   UNL A   1      40.370  34.002  34.796  1.00  0.00    -0.203 F 
ATOM     46  F   UNL A   1      37.195  31.740  38.614  1.00  0.00    -0.200 F 
ATOM     47  C   UNL A   1      38.380  33.612  37.796  1.00  0.00     0.200 A 
ATOM     48  F   UNL A   1      39.571  35.458  36.933  1.00  0.00    -0.200 F 
ATOM     49  F   UNL A   1      37.978  34.342  38.845  1.00  0.00    -0.200 F 
ENDBRANCH  25  39
BRANCH  26  50
ATOM     50  C   UNL A   1      42.437  26.660  27.804  1.00  0.00     0.064 A 
ATOM     51  C   UNL A   1      42.010  25.341  27.604  1.00  0.00     0.173 A 
ATOM     52  C   UNL A   1      43.325  27.208  26.865  1.00  0.00     0.173 A 
ATOM     53  F   UNL A   1      41.174  24.767  28.483  1.00  0.00    -0.203 F 
ATOM     54  C   UNL A   1      42.467  24.594  26.519  1.00  0.00     0.198 A 
ATOM     55  C   UNL A   1      43.752  26.473  25.762  1.00  0.00     0.198 A 
ATOM     56  F   UNL A   1      43.759  28.469  27.006  1.00  0.00    -0.203 F 
ATOM     57  F   UNL A   1      42.078  23.320  26.376  1.00  0.00    -0.200 F 
ATOM     58  C   UNL A   1      43.330  25.164  25.596  1.00  0.00     0.200 A 
ATOM     59  F   UNL A   1      44.570  27.035  24.862  1.00  0.00    -0.200 F 
ATOM     60  F   UNL A   1      43.761  24.448  24.549  1.00  0.00    -0.200 F 
ENDBRANCH  26  50
BRANCH  38  61
ATOM     61  C   UNL A   1      44.986  27.982  34.137  1.00  0.00     0.064 A 
ATOM     62  C   UNL A   1      45.033  26.812  34.909  1.00  0.00     0.173 A 
ATOM     63  C   UNL A   1      46.156  28.746  34.023  1.00  0.00     0.173 A 
ATOM     64  F   UNL A   1      43.933  26.060  35.063  1.00  0.00    -0.203 F 
ATOM     65  C   UNL A   1      46.199  26.440  35.571  1.00  0.00     0.198 A 
ATOM     66  C   UNL A   1      47.328  28.356  34.663  1.00  0.00     0.198 A 
ATOM     67  F   UNL A   1      46.160  29.872  33.294  1.00  0.00    -0.203 F 
ATOM     68  F   UNL A   1      46.206  25.350  36.352  1.00  0.00    -0.200 F 
ATOM     69  C   UNL A   1      47.346  27.210  35.444  1.00  0.00     0.200 A 
ATOM     70  F   UNL A   1      48.438  29.095  34.533  1.00  0.00    -0.200 F 
ATOM     71  F   UNL A   1      48.467  26.854  36.086  1.00  0.00    -0.200 F 
ENDBRANCH  38  61
ENDBRANCH  12  13
ENDBRANCH   5   7
ENDBRANCH   2   3
ENDBRANCH   1   2
BRANCH   1  72
ATOM     72  C   UNL A   1      33.576  27.170  23.827  1.00  0.00     0.117 C 
BRANCH  72  73
ATOM     73  N   UNL A   1      32.243  26.781  23.413  1.00  0.00    -0.355 N 
ATOM     74  C   UNL A   1      31.355  25.910  23.960  1.00  0.00     0.238 C 
ATOM     75  H   UNL A   1      31.926  27.223  22.592  1.00  0.00     0.163 HD
ATOM     76  O   UNL A   1      30.303  25.732  23.335  1.00  0.00    -0.273 OA
BRANCH  74  77
ATOM     77  C   UNL A   1      31.614  25.151  25.257  1.00  0.00     0.165 C 
ATOM     78  C   UNL A   1      30.373  24.925  26.136  1.00  0.00     0.063 C 
ATOM     79  N   UNL A   1      32.404  23.868  25.282  1.00  0.00    -0.183 NA
ATOM     80  C   UNL A   1      30.356  23.433  26.432  1.00  0.00     0.131 C 
ATOM     81  C   UNL A   1      31.830  23.052  26.382  1.00  0.00     0.135 C 
BRANCH  79  82
ATOM     82  S   UNL A   1      32.728  23.117  23.794  1.00  0.00     0.244 S 
ATOM     83  O   UNL A   1      31.464  22.850  23.144  1.00  0.00    -0.207 OA
ATOM     84  O   UNL A   1      33.768  23.865  23.123  1.00  0.00    -0.207 OA
BRANCH  82  85
ATOM     85  C   UNL A   1      33.397  21.530  24.209  1.00  0.00     0.086 A 
ATOM     86  C   UNL A   1      34.727  21.400  24.616  1.00  0.00     0.026 A 
ATOM     87  C   UNL A   1      32.609  20.402  23.965  1.00  0.00     0.072 A 
ATOM     88  C   UNL A   1      35.259  20.122  24.808  1.00  0.00     0.052 A 
ATOM     89  C   UNL A   1      33.127  19.141  24.210  1.00  0.00     0.162 A 
ATOM     90  C   UNL A   1      34.461  18.995  24.603  1.00  0.00     0.161 A 
ATOM     91  O   UNL A   1      32.268  18.089  24.035  1.00  0.00    -0.486 OA
ATOM     92  O   UNL A   1      35.047  17.770  24.799  1.00  0.00    -0.486 OA
ATOM     93  C   UNL A   1      32.779  16.908  24.658  1.00  0.00     0.271 C 
ATOM     94  C   UNL A   1      34.236  16.709  24.276  1.00  0.00     0.271 C 
ENDBRANCH  82  85
ENDBRANCH  79  82
BRANCH  80  95
ATOM     95  O   UNL A   1      29.739  23.144  27.676  1.00  0.00    -0.392 OA
ATOM     96  H   UNL A   1      29.072  23.821  27.871  1.00  0.00     0.211 HD
ENDBRANCH  80  95
ENDBRANCH  74  77
ENDBRANCH  72  73
ENDBRANCH   1  72
TORSDOF 13
ENDMDL
MODEL 3
REMARK VINA RESULT:     -12.8      2.034      3.817
REMARK SMILES O=C(NCCCNC(=O)[C@H]1C[C@H](O)CN1S(=O)(=O)c1ccc2c(c1)OCCO2)c1ccc(-c2c3nc(c(-c4c(F)c(F)c(F)c(F)c4F)c4ccc([nH]4)c(-c4c(F)c(F)c(F)c(F)c4F)c4nc(c(-c5c(F)c(F)c(F)c(F)c5F)c5ccc2[nH]5)C=C4)C=C3)cc1
REMARK SMILES IDX 5 1 4 2 3 3 1 4 2 5 29 7 30 8 91 9 31 10 90 11 32 12 33 13
REMARK SMILES IDX 34 14 84 15 35 16 89 17 83 18 85 19 36 20 88 21 82 22 81 23
REMARK SMILES IDX 37 25 69 26 49 27 68 28 50 29 53 30 67 31 86 32 51 33 52 34
REMARK SMILES IDX 66 36 87 37 54 38 38 39 39 40 47 41 40 42 41 43 45 44 48 45
REMARK SMILES IDX 42 46 43 47 46 48 44 49 70 50 71 51 79 52 72 53 73 54 77 55
REMARK SMILES IDX 80 56 74 57 75 58 78 59 76 60 55 61 56 62 64 63 57 64 58 65
REMARK SMILES IDX 62 66 65 67 59 68 60 69 63 70 61 71 6 72 7 73 8 74 9 76
REMARK SMILES IDX 10 77 11 78 15 79 12 80 14 81 16 82 17 83 18 84 19 85 20 86
REMARK SMILES IDX 24 87 21 88 23 89 22 90 25 91 28 92 26 93 27 94 13 95
REMARK H PARENT 3 6 85 24 53 35 7 75 13 96
REMARK Flexibility Score: inf
ROOT
ATOM      1  C   UNL A   1      31.268  32.155  26.498  1.00  0.00     0.042 C 
ENDROOT
BRANCH   1   2
ATOM      2  C   UNL A   1      32.531  32.721  27.113  1.00  0.00     0.118 C 
BRANCH   2   3
ATOM      3  N   UNL A   1      32.340  34.084  27.601  1.00  0.00    -0.352 N 
ATOM      4  O   UNL A   1      32.575  35.822  29.028  1.00  0.00    -0.269 OA
ATOM      5  C   UNL A   1      32.999  34.752  28.606  1.00  0.00     0.251 C 
ATOM      6  H   UNL A   1      31.636  34.600  27.146  1.00  0.00     0.163 HD
BRANCH   5   7
ATOM      7  C   UNL A   1      34.221  34.160  29.187  1.00  0.00     0.039 A 
ATOM      8  C   UNL A   1      34.115  33.181  30.173  1.00  0.00     0.014 A 
ATOM      9  C   UNL A   1      35.479  34.583  28.750  1.00  0.00     0.014 A 
ATOM     10  C   UNL A   1      35.245  32.767  30.854  1.00  0.00     0.010 A 
ATOM     11  C   UNL A   1      36.631  34.057  29.343  1.00  0.00     0.010 A 
ATOM     12  C   UNL A   1      36.520  33.162  30.417  1.00  0.00    -0.014 A 
BRANCH  12  13
ATOM     13  C   UNL A   1      37.697  32.519  31.050  1.00  0.00     0.031 A 
ATOM     14  C   UNL A   1      38.127  32.856  32.446  1.00  0.00     0.074 A 
ATOM     15  C   UNL A   1      38.327  31.554  30.349  1.00  0.00     0.049 A 
ATOM     16  N   UNL A   1      39.094  32.328  33.154  1.00  0.00    -0.248 NA
ATOM     17  C   UNL A   1      37.390  33.922  33.140  1.00  0.00     0.031 C 
ATOM     18  C   UNL A   1      37.997  31.166  28.973  1.00  0.00     0.029 A 
ATOM     19  N   UNL A   1      39.332  30.694  30.699  1.00  0.00    -0.354 N 
ATOM     20  C   UNL A   1      39.096  33.008  34.364  1.00  0.00     0.074 A 
ATOM     21  C   UNL A   1      38.047  34.002  34.291  1.00  0.00     0.031 C 
ATOM     22  C   UNL A   1      38.722  30.095  28.629  1.00  0.00     0.029 A 
ATOM     23  C   UNL A   1      39.628  29.774  29.722  1.00  0.00     0.049 A 
ATOM     24  H   UNL A   1      39.798  30.730  31.566  1.00  0.00     0.167 HD
ATOM     25  C   UNL A   1      39.902  32.811  35.435  1.00  0.00     0.037 A 
ATOM     26  C   UNL A   1      40.543  28.790  29.700  1.00  0.00     0.037 A 
ATOM     27  C   UNL A   1      40.934  31.806  35.497  1.00  0.00     0.049 A 
ATOM     28  C   UNL A   1      41.414  28.597  30.905  1.00  0.00     0.074 A 
ATOM     29  C   UNL A   1      41.802  31.521  36.536  1.00  0.00     0.029 A 
ATOM     30  N   UNL A   1      41.231  30.914  34.475  1.00  0.00    -0.354 N 
ATOM     31  N   UNL A   1      41.402  29.247  32.042  1.00  0.00    -0.248 NA
ATOM     32  C   UNL A   1      42.431  27.543  30.819  1.00  0.00     0.031 C 
ATOM     33  C   UNL A   1      42.647  30.482  36.131  1.00  0.00     0.029 A 
ATOM     34  C   UNL A   1      42.278  30.089  34.855  1.00  0.00     0.049 A 
ATOM     35  H   UNL A   1      40.767  30.874  33.607  1.00  0.00     0.167 HD
ATOM     36  C   UNL A   1      42.411  28.686  32.809  1.00  0.00     0.074 A 
ATOM     37  C   UNL A   1      42.985  27.613  32.021  1.00  0.00     0.031 C 
ATOM     38  C   UNL A   1      42.837  29.036  34.046  1.00  0.00     0.037 A 
BRANCH  25  39
ATOM     39  C   UNL A   1      39.718  33.704  36.627  1.00  0.00     0.064 A 
ATOM     40  C   UNL A   1      40.318  34.970  36.698  1.00  0.00     0.173 A 
ATOM     41  C   UNL A   1      38.875  33.318  37.680  1.00  0.00     0.173 A 
ATOM     42  F   UNL A   1      41.142  35.382  35.724  1.00  0.00    -0.203 F 
ATOM     43  C   UNL A   1      40.088  35.812  37.784  1.00  0.00     0.198 A 
ATOM     44  C   UNL A   1      38.628  34.172  38.753  1.00  0.00     0.198 A 
ATOM     45  F   UNL A   1      38.272  32.119  37.660  1.00  0.00    -0.203 F 
ATOM     46  F   UNL A   1      40.695  37.006  37.844  1.00  0.00    -0.200 F 
ATOM     47  C   UNL A   1      39.237  35.417  38.806  1.00  0.00     0.200 A 
ATOM     48  F   UNL A   1      37.797  33.793  39.733  1.00  0.00    -0.200 F 
ATOM     49  F   UNL A   1      39.006  36.234  39.841  1.00  0.00    -0.200 F 
ENDBRANCH  25  39
BRANCH  26  50
ATOM     50  C   UNL A   1      40.689  27.940  28.490  1.00  0.00     0.064 A 
ATOM     51  C   UNL A   1      40.041  26.703  28.388  1.00  0.00     0.173 A 
ATOM     52  C   UNL A   1      41.475  28.358  27.404  1.00  0.00     0.173 A 
ATOM     53  F   UNL A   1      39.292  26.253  29.406  1.00  0.00    -0.203 F 
ATOM     54  C   UNL A   1      40.188  25.906  27.254  1.00  0.00     0.198 A 
ATOM     55  C   UNL A   1      41.591  27.577  26.257  1.00  0.00     0.198 A 
ATOM     56  F   UNL A   1      42.110  29.538  27.447  1.00  0.00    -0.203 F 
ATOM     57  F   UNL A   1      39.594  24.707  27.200  1.00  0.00    -0.200 F 
ATOM     58  C   UNL A   1      40.956  26.348  26.187  1.00  0.00     0.200 A 
ATOM     59  F   UNL A   1      42.318  28.018  25.220  1.00  0.00    -0.200 F 
ATOM     60  F   UNL A   1      41.089  25.585  25.094  1.00  0.00    -0.200 F 
ENDBRANCH  26  50
BRANCH  38  61
ATOM     61  C   UNL A   1      43.976  28.241  34.610  1.00  0.00     0.064 A 
ATOM     62  C   UNL A   1      43.753  27.067  35.345  1.00  0.00     0.173 A 
ATOM     63  C   UNL A   1      45.300  28.661  34.420  1.00  0.00     0.173 A 
ATOM     64  F   UNL A   1      42.501  26.639  35.569  1.00  0.00    -0.203 F 
ATOM     65  C   UNL A   1      44.814  26.360  35.899  1.00  0.00     0.198 A 
ATOM     66  C   UNL A   1      46.362  27.935  34.952  1.00  0.00     0.198 A 
ATOM     67  F   UNL A   1      45.564  29.776  33.723  1.00  0.00    -0.203 F 
ATOM     68  F   UNL A   1      44.576  25.274  36.648  1.00  0.00    -0.200 F 
ATOM     69  C   UNL A   1      46.117  26.792  35.699  1.00  0.00     0.200 A 
ATOM     70  F   UNL A   1      47.620  28.348  34.752  1.00  0.00    -0.200 F 
ATOM     71  F   UNL A   1      47.139  26.113  36.238  1.00  0.00    -0.200 F 
ENDBRANCH  38  61
ENDBRANCH  12  13
ENDBRANCH   5   7
ENDBRANCH   2   3
ENDBRANCH   1   2
BRANCH   1  72
ATOM     72  C   UNL A   1      31.379  30.660  26.291  1.00  0.00     0.117 C 
BRANCH  72  73
ATOM     73  N   UNL A   1      32.760  30.222  26.244  1.00  0.00    -0.355 N 
ATOM     74  C   UNL A   1      33.381  29.305  25.457  1.00  0.00     0.238 C 
ATOM     75  H   UNL A   1      33.350  30.666  26.896  1.00  0.00     0.163 HD
ATOM     76  O   UNL A   1      34.576  29.093  25.697  1.00  0.00    -0.273 OA
BRANCH  74  77
ATOM     77  C   UNL A   1      32.674  28.534  24.348  1.00  0.00     0.165 C 
ATOM     78  C   UNL A   1      33.435  28.471  23.013  1.00  0.00     0.063 C 
ATOM     79  N   UNL A   1      32.090  27.164  24.580  1.00  0.00    -0.183 NA
ATOM     80  C   UNL A   1      33.481  26.996  22.646  1.00  0.00     0.131 C 
ATOM     81  C   UNL A   1      32.221  26.437  23.292  1.00  0.00     0.135 C 
BRANCH  79  82
ATOM     82  S   UNL A   1      32.516  26.363  26.015  1.00  0.00     0.244 S 
ATOM     83  O   UNL A   1      33.943  26.507  26.201  1.00  0.00    -0.207 OA
ATOM     84  O   UNL A   1      31.586  26.758  27.050  1.00  0.00    -0.207 OA
BRANCH  82  85
ATOM     85  C   UNL A   1      32.247  24.643  25.686  1.00  0.00     0.086 A 
ATOM     86  C   UNL A   1      30.959  24.103  25.717  1.00  0.00     0.026 A 
ATOM     87  C   UNL A   1      33.366  23.817  25.553  1.00  0.00     0.072 A 
ATOM     88  C   UNL A   1      30.796  22.721  25.583  1.00  0.00     0.052 A 
ATOM     89  C   UNL A   1      33.193  22.456  25.367  1.00  0.00     0.162 A 
ATOM     90  C   UNL A   1      31.912  21.900  25.411  1.00  0.00     0.161 A 
ATOM     91  O   UNL A   1      34.332  21.725  25.154  1.00  0.00    -0.486 OA
ATOM     92  O   UNL A   1      31.684  20.552  25.296  1.00  0.00    -0.486 OA
ATOM     93  C   UNL A   1      34.014  20.439  24.617  1.00  0.00     0.271 C 
ATOM     94  C   UNL A   1      32.898  19.799  25.426  1.00  0.00     0.271 C 
ENDBRANCH  82  85
ENDBRANCH  79  82
BRANCH  80  95
ATOM     95  O   UNL A   1      33.533  26.798  21.242  1.00  0.00    -0.392 OA
ATOM     96  H   UNL A   1      32.734  26.332  20.952  1.00  0.00     0.211 HD
ENDBRANCH  80  95
ENDBRANCH  74  77
ENDBRANCH  72  73
ENDBRANCH   1  72
TORSDOF 13
ENDMDL
