MODEL 1
REMARK VINA RESULT:     -13.1      0.000      0.000
REMARK SMILES O=C(NCCCNC(=O)[C@@]1([NH2+]C2CC2)CCC[C@@H](n2cncn2)C1)c1ccc(-c2c3nc(c(-c4c(F)c(F)c(F)c(F)c4F)c4ccc([nH]4)c(-c4c(F)c(F)c(F)c(F)c4F)c4nc(c(-c5c(F)c(F)c(F)c(F)c5F)c5ccc2[nH]5)C=C4)C=C3)cc1
REMARK SMILES IDX 5 1 4 2 3 3 1 4 2 5 25 7 26 8 87 9 27 10 86 11 28 12 29 13
REMARK SMILES IDX 30 14 80 15 31 16 85 17 79 18 81 19 32 20 84 21 78 22 77 23
REMARK SMILES IDX 33 25 65 26 45 27 64 28 46 29 49 30 63 31 82 32 47 33 48 34
REMARK SMILES IDX 62 36 83 37 50 38 34 39 35 40 43 41 36 42 37 43 41 44 44 45
REMARK SMILES IDX 38 46 39 47 42 48 40 49 66 50 67 51 75 52 68 53 69 54 73 55
REMARK SMILES IDX 76 56 70 57 71 58 74 59 72 60 51 61 52 62 60 63 53 64 54 65
REMARK SMILES IDX 58 66 61 67 55 68 56 69 59 70 57 71 6 72 7 73 8 74 9 76
REMARK SMILES IDX 10 77 15 78 24 79 16 80 18 81 17 82 11 83 12 86 13 87 14 88
REMARK SMILES IDX 19 89 20 90 23 91 21 92 22 93
REMARK H PARENT 3 6 81 24 49 35 7 75 11 84 11 85
REMARK Flexibility Score: inf
ROOT
ATOM      1  C   UNL A   1      32.875  30.275  27.268  1.00  0.00     0.042 C 
ENDROOT
BRANCH   1   2
ATOM      2  C   UNL A   1      33.958  31.346  27.403  1.00  0.00     0.118 C 
BRANCH   2   3
ATOM      3  N   UNL A   1      34.081  31.896  28.741  1.00  0.00    -0.352 N 
ATOM      4  O   UNL A   1      34.750  32.563  30.730  1.00  0.00    -0.269 OA
ATOM      5  C   UNL A   1      35.054  31.949  29.697  1.00  0.00     0.251 C 
ATOM      6  H   UNL A   1      33.254  32.342  29.034  1.00  0.00     0.163 HD
BRANCH   5   7
ATOM      7  C   UNL A   1      36.400  31.313  29.631  1.00  0.00     0.039 A 
ATOM      8  C   UNL A   1      37.621  31.937  29.882  1.00  0.00     0.014 A 
ATOM      9  C   UNL A   1      36.411  29.939  29.302  1.00  0.00     0.014 A 
ATOM     10  C   UNL A   1      38.817  31.219  29.759  1.00  0.00     0.010 A 
ATOM     11  C   UNL A   1      37.598  29.219  29.183  1.00  0.00     0.010 A 
ATOM     12  C   UNL A   1      38.810  29.863  29.394  1.00  0.00    -0.014 A 
BRANCH  12  13
ATOM     13  C   UNL A   1      40.067  29.108  29.458  1.00  0.00     0.031 A 
ATOM     14  C   UNL A   1      40.539  28.842  30.849  1.00  0.00     0.074 A 
ATOM     15  C   UNL A   1      40.713  28.541  28.416  1.00  0.00     0.049 A 
ATOM     16  N   UNL A   1      41.615  29.282  31.415  1.00  0.00    -0.248 NA
ATOM     17  C   UNL A   1      39.660  28.080  31.748  1.00  0.00     0.031 C 
ATOM     18  C   UNL A   1      40.257  28.411  27.033  1.00  0.00     0.029 A 
ATOM     19  N   UNL A   1      41.912  27.875  28.404  1.00  0.00    -0.354 N 
ATOM     20  C   UNL A   1      41.641  28.721  32.691  1.00  0.00     0.074 A 
ATOM     21  C   UNL A   1      40.354  28.106  32.888  1.00  0.00     0.031 C 
ATOM     22  C   UNL A   1      41.061  27.544  26.372  1.00  0.00     0.029 A 
ATOM     23  C   UNL A   1      42.166  27.162  27.236  1.00  0.00     0.049 A 
ATOM     24  H   UNL A   1      42.541  27.900  29.161  1.00  0.00     0.167 HD
ATOM     25  C   UNL A   1      42.804  28.630  33.394  1.00  0.00     0.037 A 
ATOM     26  C   UNL A   1      43.188  26.294  27.008  1.00  0.00     0.037 A 
ATOM     27  C   UNL A   1      43.802  29.524  32.862  1.00  0.00     0.049 A 
ATOM     28  C   UNL A   1      44.254  26.577  27.997  1.00  0.00     0.074 A 
ATOM     29  C   UNL A   1      43.894  30.890  32.678  1.00  0.00     0.029 A 
ATOM     30  N   UNL A   1      44.803  28.983  32.097  1.00  0.00    -0.354 N 
ATOM     31  N   UNL A   1      45.005  27.639  27.982  1.00  0.00    -0.248 NA
ATOM     32  C   UNL A   1      44.228  25.844  29.252  1.00  0.00     0.031 C 
ATOM     33  C   UNL A   1      44.602  31.051  31.450  1.00  0.00     0.029 A 
ATOM     34  C   UNL A   1      44.956  29.780  30.996  1.00  0.00     0.049 A 
ATOM     35  H   UNL A   1      45.319  28.170  32.303  1.00  0.00     0.167 HD
ATOM     36  C   UNL A   1      45.154  27.969  29.318  1.00  0.00     0.074 A 
ATOM     37  C   UNL A   1      44.757  26.772  30.053  1.00  0.00     0.031 C 
ATOM     38  C   UNL A   1      45.312  29.270  29.696  1.00  0.00     0.037 A 
BRANCH  25  39
ATOM     39  C   UNL A   1      43.180  27.472  34.295  1.00  0.00     0.064 A 
ATOM     40  C   UNL A   1      43.362  27.714  35.674  1.00  0.00     0.173 A 
ATOM     41  C   UNL A   1      43.688  26.242  33.827  1.00  0.00     0.173 A 
ATOM     42  F   UNL A   1      42.923  28.852  36.234  1.00  0.00    -0.203 F 
ATOM     43  C   UNL A   1      44.099  26.850  36.489  1.00  0.00     0.198 A 
ATOM     44  C   UNL A   1      44.377  25.356  34.656  1.00  0.00     0.198 A 
ATOM     45  F   UNL A   1      43.646  25.894  32.537  1.00  0.00    -0.203 F 
ATOM     46  F   UNL A   1      44.374  27.200  37.752  1.00  0.00    -0.200 F 
ATOM     47  C   UNL A   1      44.617  25.677  35.975  1.00  0.00     0.200 A 
ATOM     48  F   UNL A   1      44.885  24.229  34.136  1.00  0.00    -0.200 F 
ATOM     49  F   UNL A   1      45.387  24.884  36.730  1.00  0.00    -0.200 F 
ENDBRANCH  25  39
BRANCH  26  50
ATOM     50  C   UNL A   1      43.242  25.071  26.168  1.00  0.00     0.064 A 
ATOM     51  C   UNL A   1      44.279  24.871  25.236  1.00  0.00     0.173 A 
ATOM     52  C   UNL A   1      42.468  23.942  26.488  1.00  0.00     0.173 A 
ATOM     53  F   UNL A   1      45.094  25.883  24.903  1.00  0.00    -0.203 F 
ATOM     54  C   UNL A   1      44.548  23.610  24.691  1.00  0.00     0.198 A 
ATOM     55  C   UNL A   1      42.735  22.684  25.940  1.00  0.00     0.198 A 
ATOM     56  F   UNL A   1      41.506  24.014  27.418  1.00  0.00    -0.203 F 
ATOM     57  F   UNL A   1      45.591  23.446  23.864  1.00  0.00    -0.200 F 
ATOM     58  C   UNL A   1      43.784  22.516  25.055  1.00  0.00     0.200 A 
ATOM     59  F   UNL A   1      42.012  21.625  26.330  1.00  0.00    -0.200 F 
ATOM     60  F   UNL A   1      44.085  21.294  24.592  1.00  0.00    -0.200 F 
ENDBRANCH  26  50
BRANCH  38  61
ATOM     61  C   UNL A   1      45.668  30.272  28.637  1.00  0.00     0.064 A 
ATOM     62  C   UNL A   1      44.743  30.903  27.786  1.00  0.00     0.173 A 
ATOM     63  C   UNL A   1      47.006  30.684  28.554  1.00  0.00     0.173 A 
ATOM     64  F   UNL A   1      43.431  30.646  27.874  1.00  0.00    -0.203 F 
ATOM     65  C   UNL A   1      45.155  31.859  26.859  1.00  0.00     0.198 A 
ATOM     66  C   UNL A   1      47.406  31.670  27.658  1.00  0.00     0.198 A 
ATOM     67  F   UNL A   1      47.925  30.155  29.378  1.00  0.00    -0.203 F 
ATOM     68  F   UNL A   1      44.259  32.429  26.039  1.00  0.00    -0.200 F 
ATOM     69  C   UNL A   1      46.483  32.245  26.800  1.00  0.00     0.200 A 
ATOM     70  F   UNL A   1      48.681  32.077  27.643  1.00  0.00    -0.200 F 
ATOM     71  F   UNL A   1      46.872  33.192  25.934  1.00  0.00    -0.200 F 
ENDBRANCH  38  61
ENDBRANCH  12  13
ENDBRANCH   5   7
ENDBRANCH   2   3
ENDBRANCH   1   2
BRANCH   1  72
ATOM     72  C   UNL A   1      32.216  30.230  25.888  1.00  0.00     0.118 C 
BRANCH  72  73
ATOM     73  N   UNL A   1      33.053  29.661  24.845  1.00  0.00    -0.351 N 
ATOM     74  C   UNL A   1      32.834  29.077  23.636  1.00  0.00     0.281 C 
ATOM     75  H   UNL A   1      34.012  29.710  25.067  1.00  0.00     0.163 HD
ATOM     76  O   UNL A   1      33.861  28.950  22.949  1.00  0.00    -0.268 OA
BRANCH  74  77
ATOM     77  C   UNL A   1      31.443  28.601  23.067  1.00  0.00     0.177 C 
ATOM     78  C   UNL A   1      30.465  27.901  24.020  1.00  0.00     0.079 C 
ATOM     79  C   UNL A   1      30.743  29.908  22.568  1.00  0.00     0.106 C 
ATOM     80  C   UNL A   1      29.126  27.561  23.366  1.00  0.00     0.009 C 
ATOM     81  C   UNL A   1      29.321  29.716  21.997  1.00  0.00     0.116 C 
ATOM     82  C   UNL A   1      28.437  28.841  22.909  1.00  0.00     0.028 C 
BRANCH  77  83
ATOM     83  N   UNL A   1      31.689  27.758  21.864  1.00  0.00    -0.331 N 
ATOM     84  H   UNL A   1      32.523  28.143  21.418  1.00  0.00     0.347 HD
ATOM     85  H   UNL A   1      30.786  27.810  21.393  1.00  0.00     0.347 HD
BRANCH  83  86
ATOM     86  C   UNL A   1      31.900  26.311  21.927  1.00  0.00     0.183 C 
ATOM     87  C   UNL A   1      32.530  25.444  20.882  1.00  0.00     0.071 C 
ATOM     88  C   UNL A   1      33.284  25.752  22.141  1.00  0.00     0.071 C 
ENDBRANCH  83  86
ENDBRANCH  77  83
BRANCH  81  89
ATOM     89  N   UNL A   1      28.695  31.005  21.697  1.00  0.00    -0.250 N 
ATOM     90  C   UNL A   1      28.684  32.125  22.475  1.00  0.00     0.220 A 
ATOM     91  N   UNL A   1      28.071  31.240  20.525  1.00  0.00    -0.160 NA
ATOM     92  N   UNL A   1      28.073  33.099  21.840  1.00  0.00    -0.224 NA
ATOM     93  C   UNL A   1      27.721  32.521  20.657  1.00  0.00     0.246 A 
ENDBRANCH  81  89
ENDBRANCH  74  77
ENDBRANCH  72  73
ENDBRANCH   1  72
TORSDOF 13
ENDMDL
MODEL 2
REMARK VINA RESULT:     -13.0      4.721      9.812
REMARK SMILES O=C(NCCCNC(=O)[C@@]1([NH2+]C2CC2)CCC[C@@H](n2cncn2)C1)c1ccc(-c2c3nc(c(-c4c(F)c(F)c(F)c(F)c4F)c4ccc([nH]4)c(-c4c(F)c(F)c(F)c(F)c4F)c4nc(c(-c5c(F)c(F)c(F)c(F)c5F)c5ccc2[nH]5)C=C4)C=C3)cc1
REMARK SMILES IDX 5 1 4 2 3 3 1 4 2 5 25 7 26 8 87 9 27 10 86 11 28 12 29 13
REMARK SMILES IDX 30 14 80 15 31 16 85 17 79 18 81 19 32 20 84 21 78 22 77 23
REMARK SMILES IDX 33 25 65 26 45 27 64 28 46 29 49 30 63 31 82 32 47 33 48 34
REMARK SMILES IDX 62 36 83 37 50 38 34 39 35 40 43 41 36 42 37 43 41 44 44 45
REMARK SMILES IDX 38 46 39 47 42 48 40 49 66 50 67 51 75 52 68 53 69 54 73 55
REMARK SMILES IDX 76 56 70 57 71 58 74 59 72 60 51 61 52 62 60 63 53 64 54 65
REMARK SMILES IDX 58 66 61 67 55 68 56 69 59 70 57 71 6 72 7 73 8 74 9 76
REMARK SMILES IDX 10 77 15 78 24 79 16 80 18 81 17 82 11 83 12 86 13 87 14 88
REMARK SMILES IDX 19 89 20 90 23 91 21 92 22 93
REMARK H PARENT 3 6 81 24 49 35 7 75 11 84 11 85
REMARK Flexibility Score: inf
ROOT
ATOM      1  C   UNL A   1      38.155  22.181  25.386  1.00  0.00     0.042 C 
ENDROOT
BRANCH   1   2
ATOM      2  C   UNL A   1      39.241  21.420  26.147  1.00  0.00     0.118 C 
BRANCH   2   3
ATOM      3  N   UNL A   1      40.576  21.597  25.605  1.00  0.00    -0.352 N 
ATOM      4  O   UNL A   1      42.618  22.257  25.110  1.00  0.00    -0.269 OA
ATOM      5  C   UNL A   1      41.592  22.495  25.765  1.00  0.00     0.251 C 
ATOM      6  H   UNL A   1      40.807  20.892  24.958  1.00  0.00     0.163 HD
BRANCH   5   7
ATOM      7  C   UNL A   1      41.564  23.728  26.600  1.00  0.00     0.039 A 
ATOM      8  C   UNL A   1      42.303  23.956  27.760  1.00  0.00     0.014 A 
ATOM      9  C   UNL A   1      40.717  24.760  26.139  1.00  0.00     0.014 A 
ATOM     10  C   UNL A   1      42.159  25.160  28.462  1.00  0.00     0.010 A 
ATOM     11  C   UNL A   1      40.573  25.961  26.830  1.00  0.00     0.010 A 
ATOM     12  C   UNL A   1      41.282  26.159  28.007  1.00  0.00    -0.014 A 
BRANCH  12  13
ATOM     13  C   UNL A   1      41.303  27.469  28.667  1.00  0.00     0.031 A 
ATOM     14  C   UNL A   1      42.445  28.335  28.251  1.00  0.00     0.074 A 
ATOM     15  C   UNL A   1      40.339  27.978  29.466  1.00  0.00     0.049 A 
ATOM     16  N   UNL A   1      43.424  28.758  28.983  1.00  0.00    -0.248 NA
ATOM     17  C   UNL A   1      42.567  28.690  26.829  1.00  0.00     0.031 C 
ATOM     18  C   UNL A   1      39.011  27.431  29.738  1.00  0.00     0.029 A 
ATOM     19  N   UNL A   1      40.325  29.165  30.152  1.00  0.00    -0.354 N 
ATOM     20  C   UNL A   1      44.202  29.570  28.161  1.00  0.00     0.074 A 
ATOM     21  C   UNL A   1      43.708  29.382  26.822  1.00  0.00     0.031 C 
ATOM     22  C   UNL A   1      38.254  28.368  30.358  1.00  0.00     0.029 A 
ATOM     23  C   UNL A   1      39.078  29.531  30.650  1.00  0.00     0.049 A 
ATOM     24  H   UNL A   1      41.133  29.713  30.282  1.00  0.00     0.167 HD
ATOM     25  C   UNL A   1      45.054  30.493  28.689  1.00  0.00     0.037 A 
ATOM     26  C   UNL A   1      38.738  30.715  31.227  1.00  0.00     0.037 A 
ATOM     27  C   UNL A   1      45.332  30.207  30.075  1.00  0.00     0.049 A 
ATOM     28  C   UNL A   1      39.984  31.373  31.682  1.00  0.00     0.074 A 
ATOM     29  C   UNL A   1      45.885  29.145  30.762  1.00  0.00     0.029 A 
ATOM     30  N   UNL A   1      44.706  30.973  31.024  1.00  0.00    -0.354 N 
ATOM     31  N   UNL A   1      40.704  30.964  32.686  1.00  0.00    -0.248 NA
ATOM     32  C   UNL A   1      40.646  32.284  30.764  1.00  0.00     0.031 C 
ATOM     33  C   UNL A   1      45.147  29.069  31.981  1.00  0.00     0.029 A 
ATOM     34  C   UNL A   1      44.237  30.126  31.991  1.00  0.00     0.049 A 
ATOM     35  H   UNL A   1      44.613  31.953  31.013  1.00  0.00     0.167 HD
ATOM     36  C   UNL A   1      42.009  31.170  32.273  1.00  0.00     0.074 A 
ATOM     37  C   UNL A   1      41.911  32.087  31.141  1.00  0.00     0.031 C 
ATOM     38  C   UNL A   1      43.010  30.354  32.711  1.00  0.00     0.037 A 
BRANCH  25  39
ATOM     39  C   UNL A   1      45.323  31.860  28.094  1.00  0.00     0.064 A 
ATOM     40  C   UNL A   1      44.231  32.719  27.843  1.00  0.00     0.173 A 
ATOM     41  C   UNL A   1      46.532  32.220  27.462  1.00  0.00     0.173 A 
ATOM     42  F   UNL A   1      43.029  32.477  28.387  1.00  0.00    -0.203 F 
ATOM     43  C   UNL A   1      44.315  33.781  26.937  1.00  0.00     0.198 A 
ATOM     44  C   UNL A   1      46.625  33.313  26.600  1.00  0.00     0.198 A 
ATOM     45  F   UNL A   1      47.638  31.475  27.555  1.00  0.00    -0.203 F 
ATOM     46  F   UNL A   1      43.213  34.471  26.617  1.00  0.00    -0.200 F 
ATOM     47  C   UNL A   1      45.511  34.068  26.307  1.00  0.00     0.200 A 
ATOM     48  F   UNL A   1      47.790  33.568  25.987  1.00  0.00    -0.200 F 
ATOM     49  F   UNL A   1      45.578  35.035  25.382  1.00  0.00    -0.200 F 
ENDBRANCH  25  39
BRANCH  26  50
ATOM     50  C   UNL A   1      37.452  31.458  31.211  1.00  0.00     0.064 A 
ATOM     51  C   UNL A   1      36.701  31.641  32.387  1.00  0.00     0.173 A 
ATOM     52  C   UNL A   1      37.102  32.269  30.118  1.00  0.00     0.173 A 
ATOM     53  F   UNL A   1      36.993  30.940  33.493  1.00  0.00    -0.203 F 
ATOM     54  C   UNL A   1      35.690  32.606  32.475  1.00  0.00     0.198 A 
ATOM     55  C   UNL A   1      36.090  33.228  30.203  1.00  0.00     0.198 A 
ATOM     56  F   UNL A   1      37.805  32.221  28.977  1.00  0.00    -0.203 F 
ATOM     57  F   UNL A   1      35.048  32.801  33.635  1.00  0.00    -0.200 F 
ATOM     58  C   UNL A   1      35.396  33.408  31.386  1.00  0.00     0.200 A 
ATOM     59  F   UNL A   1      35.840  34.025  29.155  1.00  0.00    -0.200 F 
ATOM     60  F   UNL A   1      34.480  34.381  31.489  1.00  0.00    -0.200 F 
ENDBRANCH  26  50
BRANCH  38  61
ATOM     61  C   UNL A   1      42.733  29.475  33.896  1.00  0.00     0.064 A 
ATOM     62  C   UNL A   1      42.026  28.260  33.845  1.00  0.00     0.173 A 
ATOM     63  C   UNL A   1      43.305  29.838  35.124  1.00  0.00     0.173 A 
ATOM     64  F   UNL A   1      41.540  27.787  32.689  1.00  0.00    -0.203 F 
ATOM     65  C   UNL A   1      41.854  27.480  34.987  1.00  0.00     0.198 A 
ATOM     66  C   UNL A   1      43.168  29.035  36.251  1.00  0.00     0.198 A 
ATOM     67  F   UNL A   1      44.035  30.960  35.221  1.00  0.00    -0.203 F 
ATOM     68  F   UNL A   1      41.153  26.338  34.921  1.00  0.00    -0.200 F 
ATOM     69  C   UNL A   1      42.429  27.865  36.186  1.00  0.00     0.200 A 
ATOM     70  F   UNL A   1      43.771  29.385  37.394  1.00  0.00    -0.200 F 
ATOM     71  F   UNL A   1      42.295  27.095  37.276  1.00  0.00    -0.200 F 
ENDBRANCH  38  61
ENDBRANCH  12  13
ENDBRANCH   5   7
ENDBRANCH   2   3
ENDBRANCH   1   2
BRANCH   1  72
ATOM     72  C   UNL A   1      36.777  21.519  25.444  1.00  0.00     0.118 C 
BRANCH  72  73
ATOM     73  N   UNL A   1      35.906  22.040  26.485  1.00  0.00    -0.351 N 
ATOM     74  C   UNL A   1      34.573  21.994  26.747  1.00  0.00     0.281 C 
ATOM     75  H   UNL A   1      36.403  22.550  27.166  1.00  0.00     0.163 HD
ATOM     76  O   UNL A   1      34.275  22.375  27.891  1.00  0.00    -0.268 OA
BRANCH  74  77
ATOM     77  C   UNL A   1      33.445  21.497  25.764  1.00  0.00     0.177 C 
ATOM     78  C   UNL A   1      33.493  21.958  24.302  1.00  0.00     0.079 C 
ATOM     79  C   UNL A   1      33.573  19.938  25.760  1.00  0.00     0.106 C 
ATOM     80  C   UNL A   1      32.392  21.344  23.439  1.00  0.00     0.009 C 
ATOM     81  C   UNL A   1      32.591  19.200  24.823  1.00  0.00     0.116 C 
ATOM     82  C   UNL A   1      32.541  19.828  23.416  1.00  0.00     0.028 C 
BRANCH  77  83
ATOM     83  N   UNL A   1      32.121  21.818  26.366  1.00  0.00    -0.331 N 
ATOM     84  H   UNL A   1      32.143  21.437  27.312  1.00  0.00     0.347 HD
ATOM     85  H   UNL A   1      31.483  21.429  25.671  1.00  0.00     0.347 HD
BRANCH  83  86
ATOM     86  C   UNL A   1      31.608  23.184  26.496  1.00  0.00     0.183 C 
ATOM     87  C   UNL A   1      30.687  23.895  25.555  1.00  0.00     0.071 C 
ATOM     88  C   UNL A   1      30.170  23.423  26.882  1.00  0.00     0.071 C 
ENDBRANCH  83  86
ENDBRANCH  77  83
BRANCH  81  89
ATOM     89  N   UNL A   1      32.886  17.766  24.775  1.00  0.00    -0.250 N 
ATOM     90  C   UNL A   1      33.582  17.092  23.816  1.00  0.00     0.220 A 
ATOM     91  N   UNL A   1      32.518  16.928  25.766  1.00  0.00    -0.160 NA
ATOM     92  N   UNL A   1      33.689  15.827  24.152  1.00  0.00    -0.224 NA
ATOM     93  C   UNL A   1      33.033  15.771  25.346  1.00  0.00     0.246 A 
ENDBRANCH  81  89
ENDBRANCH  74  77
ENDBRANCH  72  73
ENDBRANCH   1  72
TORSDOF 13
ENDMDL
MODEL 3
REMARK VINA RESULT:     -12.8      4.783      9.953
REMARK SMILES O=C(NCCCNC(=O)[C@@]1([NH2+]C2CC2)CCC[C@@H](n2cncn2)C1)c1ccc(-c2c3nc(c(-c4c(F)c(F)c(F)c(F)c4F)c4ccc([nH]4)c(-c4c(F)c(F)c(F)c(F)c4F)c4nc(c(-c5c(F)c(F)c(F)c(F)c5F)c5ccc2[nH]5)C=C4)C=C3)cc1
REMARK SMILES IDX 5 1 4 2 3 3 1 4 2 5 25 7 26 8 87 9 27 10 86 11 28 12 29 13
REMARK SMILES IDX 30 14 80 15 31 16 85 17 79 18 81 19 32 20 84 21 78 22 77 23
REMARK SMILES IDX 33 25 65 26 45 27 64 28 46 29 49 30 63 31 82 32 47 33 48 34
REMARK SMILES IDX 62 36 83 37 50 38 34 39 35 40 43 41 36 42 37 43 41 44 44 45
REMARK SMILES IDX 38 46 39 47 42 48 40 49 66 50 67 51 75 52 68 53 69 54 73 55
REMARK SMILES IDX 76 56 70 57 71 58 74 59 72 60 51 61 52 62 60 63 53 64 54 65
REMARK SMILES IDX 58 66 61 67 55 68 56 69 59 70 57 71 6 72 7 73 8 74 9 76
REMARK SMILES IDX 10 77 15 78 24 79 16 80 18 81 17 82 11 83 12 86 13 87 14 88
REMARK SMILES IDX 19 89 20 90 23 91 21 92 22 93
REMARK H PARENT 3 6 81 24 49 35 7 75 11 84 11 85
REMARK Flexibility Score: inf
ROOT
ATOM      1  C   UNL A   1      37.835  21.383  25.001  1.00  0.00     0.042 C 
ENDROOT
BRANCH   1   2
ATOM      2  C   UNL A   1      38.773  21.803  26.133  1.00  0.00     0.118 C 
BRANCH   2   3
ATOM      3  N   UNL A   1      40.174  21.843  25.755  1.00  0.00    -0.352 N 
ATOM      4  O   UNL A   1      42.309  22.312  25.487  1.00  0.00    -0.269 OA
ATOM      5  C   UNL A   1      41.235  22.668  25.993  1.00  0.00     0.251 C 
ATOM      6  H   UNL A   1      40.422  21.082  25.181  1.00  0.00     0.163 HD
BRANCH   5   7
ATOM      7  C   UNL A   1      41.208  23.952  26.750  1.00  0.00     0.039 A 
ATOM      8  C   UNL A   1      42.121  24.353  27.724  1.00  0.00     0.014 A 
ATOM      9  C   UNL A   1      40.162  24.838  26.414  1.00  0.00     0.014 A 
ATOM     10  C   UNL A   1      41.960  25.583  28.375  1.00  0.00     0.010 A 
ATOM     11  C   UNL A   1      40.000  26.065  27.054  1.00  0.00     0.010 A 
ATOM     12  C   UNL A   1      40.890  26.436  28.053  1.00  0.00    -0.014 A 
BRANCH  12  13
ATOM     13  C   UNL A   1      40.868  27.787  28.625  1.00  0.00     0.031 A 
ATOM     14  C   UNL A   1      41.926  28.688  28.081  1.00  0.00     0.074 A 
ATOM     15  C   UNL A   1      39.923  28.291  29.448  1.00  0.00     0.049 A 
ATOM     16  N   UNL A   1      42.918  29.217  28.721  1.00  0.00    -0.248 NA
ATOM     17  C   UNL A   1      41.941  28.951  26.635  1.00  0.00     0.031 C 
ATOM     18  C   UNL A   1      38.651  27.686  29.840  1.00  0.00     0.029 A 
ATOM     19  N   UNL A   1      39.876  29.520  30.056  1.00  0.00    -0.354 N 
ATOM     20  C   UNL A   1      43.594  30.015  27.800  1.00  0.00     0.074 A 
ATOM     21  C   UNL A   1      43.033  29.707  26.510  1.00  0.00     0.031 C 
ATOM     22  C   UNL A   1      37.875  28.618  30.445  1.00  0.00     0.029 A 
ATOM     23  C   UNL A   1      38.639  29.845  30.608  1.00  0.00     0.049 A 
ATOM     24  H   UNL A   1      40.653  30.121  30.099  1.00  0.00     0.167 HD
ATOM     25  C   UNL A   1      44.415  31.020  28.213  1.00  0.00     0.037 A 
ATOM     26  C   UNL A   1      38.260  31.043  31.128  1.00  0.00     0.037 A 
ATOM     27  C   UNL A   1      44.793  30.847  29.593  1.00  0.00     0.049 A 
ATOM     28  C   UNL A   1      39.487  31.803  31.460  1.00  0.00     0.074 A 
ATOM     29  C   UNL A   1      45.452  29.868  30.311  1.00  0.00     0.029 A 
ATOM     30  N   UNL A   1      44.178  31.637  30.529  1.00  0.00    -0.354 N 
ATOM     31  N   UNL A   1      40.291  31.506  32.439  1.00  0.00    -0.248 NA
ATOM     32  C   UNL A   1      40.035  32.686  30.444  1.00  0.00     0.031 C 
ATOM     33  C   UNL A   1      44.795  29.832  31.576  1.00  0.00     0.029 A 
ATOM     34  C   UNL A   1      43.822  30.832  31.576  1.00  0.00     0.049 A 
ATOM     35  H   UNL A   1      44.023  32.607  30.461  1.00  0.00     0.167 HD
ATOM     36  C   UNL A   1      41.553  31.760  31.932  1.00  0.00     0.074 A 
ATOM     37  C   UNL A   1      41.330  32.590  30.752  1.00  0.00     0.031 C 
ATOM     38  C   UNL A   1      42.628  31.037  32.357  1.00  0.00     0.037 A 
BRANCH  25  39
ATOM     39  C   UNL A   1      44.562  32.357  27.515  1.00  0.00     0.064 A 
ATOM     40  C   UNL A   1      45.735  32.612  26.772  1.00  0.00     0.173 A 
ATOM     41  C   UNL A   1      43.781  33.493  27.816  1.00  0.00     0.173 A 
ATOM     42  F   UNL A   1      46.560  31.610  26.429  1.00  0.00    -0.203 F 
ATOM     43  C   UNL A   1      46.151  33.910  26.462  1.00  0.00     0.198 A 
ATOM     44  C   UNL A   1      44.172  34.783  27.457  1.00  0.00     0.198 A 
ATOM     45  F   UNL A   1      42.674  33.423  28.561  1.00  0.00    -0.203 F 
ATOM     46  F   UNL A   1      47.347  34.107  25.892  1.00  0.00    -0.200 F 
ATOM     47  C   UNL A   1      45.374  34.995  26.817  1.00  0.00     0.200 A 
ATOM     48  F   UNL A   1      43.412  35.825  27.823  1.00  0.00    -0.200 F 
ATOM     49  F   UNL A   1      45.803  36.244  26.591  1.00  0.00    -0.200 F 
ENDBRANCH  25  39
BRANCH  26  50
ATOM     50  C   UNL A   1      36.932  31.706  31.146  1.00  0.00     0.064 A 
ATOM     51  C   UNL A   1      36.240  31.921  32.353  1.00  0.00     0.173 A 
ATOM     52  C   UNL A   1      36.468  32.421  30.028  1.00  0.00     0.173 A 
ATOM     53  F   UNL A   1      36.640  31.312  33.480  1.00  0.00    -0.203 F 
ATOM     54  C   UNL A   1      35.178  32.828  32.444  1.00  0.00     0.198 A 
ATOM     55  C   UNL A   1      35.405  33.323  30.118  1.00  0.00     0.198 A 
ATOM     56  F   UNL A   1      37.106  32.340  28.852  1.00  0.00    -0.203 F 
ATOM     57  F   UNL A   1      34.594  33.061  33.628  1.00  0.00    -0.200 F 
ATOM     58  C   UNL A   1      34.771  33.538  31.328  1.00  0.00     0.200 A 
ATOM     59  F   UNL A   1      35.045  34.034  29.039  1.00  0.00    -0.200 F 
ATOM     60  F   UNL A   1      33.803  34.460  31.427  1.00  0.00    -0.200 F 
ENDBRANCH  26  50
BRANCH  38  61
ATOM     61  C   UNL A   1      42.478  30.225  33.611  1.00  0.00     0.064 A 
ATOM     62  C   UNL A   1      42.677  30.716  34.913  1.00  0.00     0.173 A 
ATOM     63  C   UNL A   1      42.008  28.909  33.482  1.00  0.00     0.173 A 
ATOM     64  F   UNL A   1      43.022  31.993  35.129  1.00  0.00    -0.203 F 
ATOM     65  C   UNL A   1      42.471  29.905  36.027  1.00  0.00     0.198 A 
ATOM     66  C   UNL A   1      41.761  28.117  34.598  1.00  0.00     0.198 A 
ATOM     67  F   UNL A   1      41.750  28.403  32.266  1.00  0.00    -0.203 F 
ATOM     68  F   UNL A   1      42.692  30.386  37.260  1.00  0.00    -0.200 F 
ATOM     69  C   UNL A   1      42.007  28.609  35.869  1.00  0.00     0.200 A 
ATOM     70  F   UNL A   1      41.263  26.884  34.441  1.00  0.00    -0.200 F 
ATOM     71  F   UNL A   1      41.772  27.842  36.943  1.00  0.00    -0.200 F 
ENDBRANCH  38  61
ENDBRANCH  12  13
ENDBRANCH   5   7
ENDBRANCH   2   3
ENDBRANCH   1   2
BRANCH   1  72
ATOM     72  C   UNL A   1      36.576  22.244  24.886  1.00  0.00     0.118 C 
BRANCH  72  73
ATOM     73  N   UNL A   1      35.833  22.386  26.128  1.00  0.00    -0.351 N 
ATOM     74  C   UNL A   1      34.598  22.022  26.566  1.00  0.00     0.281 C 
ATOM     75  H   UNL A   1      36.350  22.859  26.820  1.00  0.00     0.163 HD
ATOM     76  O   UNL A   1      34.453  22.128  27.795  1.00  0.00    -0.268 OA
BRANCH  74  77
ATOM     77  C   UNL A   1      33.413  21.485  25.676  1.00  0.00     0.177 C 
ATOM     78  C   UNL A   1      33.313  21.966  24.222  1.00  0.00     0.079 C 
ATOM     79  C   UNL A   1      33.612  19.934  25.635  1.00  0.00     0.106 C 
ATOM     80  C   UNL A   1      32.170  21.311  23.448  1.00  0.00     0.009 C 
ATOM     81  C   UNL A   1      32.587  19.162  24.774  1.00  0.00     0.116 C 
ATOM     82  C   UNL A   1      32.385  19.805  23.387  1.00  0.00     0.028 C 
BRANCH  77  83
ATOM     83  N   UNL A   1      32.133  21.736  26.395  1.00  0.00    -0.331 N 
ATOM     84  H   UNL A   1      32.219  21.263  27.295  1.00  0.00     0.347 HD
ATOM     85  H   UNL A   1      31.449  21.414  25.709  1.00  0.00     0.347 HD
BRANCH  83  86
ATOM     86  C   UNL A   1      31.630  23.079  26.695  1.00  0.00     0.183 C 
ATOM     87  C   UNL A   1      30.978  24.031  25.742  1.00  0.00     0.071 C 
ATOM     88  C   UNL A   1      30.147  23.335  26.778  1.00  0.00     0.071 C 
ENDBRANCH  83  86
ENDBRANCH  77  83
BRANCH  81  89
ATOM     89  N   UNL A   1      32.942  17.744  24.678  1.00  0.00    -0.250 N 
ATOM     90  C   UNL A   1      33.396  17.074  23.581  1.00  0.00     0.220 A 
ATOM     91  N   UNL A   1      32.899  16.924  25.747  1.00  0.00    -0.160 NA
ATOM     92  N   UNL A   1      33.662  15.828  23.901  1.00  0.00    -0.224 NA
ATOM     93  C   UNL A   1      33.352  15.780  25.228  1.00  0.00     0.246 A 
ENDBRANCH  81  89
ENDBRANCH  74  77
ENDBRANCH  72  73
ENDBRANCH   1  72
TORSDOF 13
ENDMDL
