MODEL 1
REMARK VINA RESULT:     -13.0      0.000      0.000
REMARK SMILES Cc1cc(-n2nc(C)c(C(=O)NCCCNC(=O)c3ccc(-c4c5nc(c(-c6c(F)c(F)c(F)c(F)c6F)c6ccc([nH]6)c(-c6c(F)c(F)c(F)c(F)c6F)c6nc(c(-c7c(F)c(F)c(F)c(F)c7F)c7ccc4[nH]7)C=C6)C=C5)cc3)c2Cl)nc(C)n1
REMARK SMILES IDX 14 1 13 2 12 3 10 4 11 5 9 7 5 8 6 9 82 10 7 11 83 12 8 13
REMARK SMILES IDX 4 14 1 15 2 16 3 17 87 18 85 19 84 20 86 21 15 22 16 23
REMARK SMILES IDX 17 24 18 26 19 27 20 28 81 29 21 30 80 31 22 32 23 33 24 34
REMARK SMILES IDX 74 35 25 36 79 37 73 38 75 39 26 40 78 41 72 42 71 43 27 45
REMARK SMILES IDX 59 46 39 47 58 48 40 49 43 50 57 51 76 52 41 53 42 54 56 56
REMARK SMILES IDX 77 57 44 58 28 59 29 60 37 61 30 62 31 63 35 64 38 65 32 66
REMARK SMILES IDX 33 67 36 68 34 69 60 70 61 71 69 72 62 73 63 74 67 75 70 76
REMARK SMILES IDX 64 77 65 78 68 79 66 80 45 81 46 82 54 83 47 84 48 85 52 86
REMARK SMILES IDX 55 87 49 88 50 89 53 90 51 91
REMARK H PARENT 12 6 16 25 75 44 43 55
REMARK Flexibility Score: inf
ROOT
ATOM      1  C   UNL A   1      37.602  19.733  24.965  1.00  0.00     0.042 C 
ENDROOT
BRANCH   1   2
ATOM      2  C   UNL A   1      36.401  20.685  25.072  1.00  0.00     0.118 C 
BRANCH   2   3
ATOM      3  N   UNL A   1      35.148  19.957  25.065  1.00  0.00    -0.352 N 
ATOM      4  C   UNL A   1      33.836  20.350  25.085  1.00  0.00     0.256 C 
ATOM      5  O   UNL A   1      33.029  19.417  25.055  1.00  0.00    -0.269 OA
ATOM      6  H   UNL A   1      35.263  18.979  25.039  1.00  0.00     0.163 HD
BRANCH   4   7
ATOM      7  C   UNL A   1      33.378  21.738  25.099  1.00  0.00     0.100 A 
ATOM      8  N   UNL A   1      32.588  23.799  24.697  1.00  0.00    -0.203 N 
ATOM      9  N   UNL A   1      33.013  23.869  25.975  1.00  0.00    -0.170 NA
ATOM     10  C   UNL A   1      32.974  22.613  24.113  1.00  0.00     0.147 A 
ATOM     11  C   UNL A   1      33.392  22.608  26.256  1.00  0.00     0.074 A 
ATOM     12  Cl  UNL A   1      33.070  22.656  22.409  1.00  0.00    -0.061 Cl
ATOM     13  C   UNL A   1      33.816  22.314  27.654  1.00  0.00     0.070 C 
BRANCH   8  14
ATOM     14  C   UNL A   1      32.065  24.911  23.975  1.00  0.00     0.159 A 
ATOM     15  C   UNL A   1      28.723  26.556  23.882  1.00  0.00     0.067 C 
ATOM     16  C   UNL A   1      30.191  26.280  23.752  1.00  0.00     0.043 A 
ATOM     17  C   UNL A   1      30.689  25.000  23.901  1.00  0.00     0.072 A 
ATOM     18  N   UNL A   1      30.987  27.367  23.627  1.00  0.00    -0.238 NA
ATOM     19  C   UNL A   1      32.315  27.172  23.656  1.00  0.00     0.128 A 
ATOM     20  N   UNL A   1      32.895  25.978  23.836  1.00  0.00    -0.214 NA
ATOM     21  C   UNL A   1      33.209  28.373  23.678  1.00  0.00     0.090 C 
ENDBRANCH   8  14
ENDBRANCH   4   7
ENDBRANCH   2   3
ENDBRANCH   1   2
BRANCH   1  22
ATOM     22  C   UNL A   1      38.842  20.274  25.604  1.00  0.00     0.118 C 
BRANCH  22  23
ATOM     23  N   UNL A   1      39.873  19.230  25.714  1.00  0.00    -0.352 N 
ATOM     24  C   UNL A   1      41.220  19.393  25.945  1.00  0.00     0.251 C 
ATOM     25  H   UNL A   1      39.561  18.302  25.610  1.00  0.00     0.163 HD
ATOM     26  O   UNL A   1      42.030  18.495  25.707  1.00  0.00    -0.269 OA
BRANCH  24  27
ATOM     27  C   UNL A   1      41.656  20.678  26.490  1.00  0.00     0.039 A 
ATOM     28  C   UNL A   1      42.203  21.698  25.716  1.00  0.00     0.014 A 
ATOM     29  C   UNL A   1      41.376  20.872  27.836  1.00  0.00     0.014 A 
ATOM     30  C   UNL A   1      42.442  22.914  26.342  1.00  0.00     0.010 A 
ATOM     31  C   UNL A   1      41.215  22.137  28.289  1.00  0.00     0.010 A 
ATOM     32  C   UNL A   1      41.944  23.104  27.642  1.00  0.00    -0.014 A 
BRANCH  32  33
ATOM     33  C   UNL A   1      42.198  24.285  28.430  1.00  0.00     0.031 A 
ATOM     34  C   UNL A   1      41.200  25.350  28.261  1.00  0.00     0.074 A 
ATOM     35  C   UNL A   1      43.184  24.342  29.350  1.00  0.00     0.049 A 
ATOM     36  N   UNL A   1      41.345  26.426  27.570  1.00  0.00    -0.248 NA
ATOM     37  C   UNL A   1      39.842  25.129  28.771  1.00  0.00     0.031 C 
ATOM     38  C   UNL A   1      44.084  23.294  29.859  1.00  0.00     0.029 A 
ATOM     39  N   UNL A   1      43.566  25.426  30.067  1.00  0.00    -0.354 N 
ATOM     40  C   UNL A   1      40.154  27.121  27.696  1.00  0.00     0.074 A 
ATOM     41  C   UNL A   1      39.214  26.208  28.298  1.00  0.00     0.031 C 
ATOM     42  C   UNL A   1      44.774  23.758  30.925  1.00  0.00     0.029 A 
ATOM     43  C   UNL A   1      44.502  25.176  31.057  1.00  0.00     0.049 A 
ATOM     44  H   UNL A   1      43.202  26.326  29.898  1.00  0.00     0.167 HD
ATOM     45  C   UNL A   1      40.118  28.464  27.487  1.00  0.00     0.037 A 
ATOM     46  C   UNL A   1      45.022  26.095  31.905  1.00  0.00     0.037 A 
ATOM     47  C   UNL A   1      41.310  28.917  26.808  1.00  0.00     0.049 A 
ATOM     48  C   UNL A   1      44.851  27.418  31.247  1.00  0.00     0.074 A 
ATOM     49  C   UNL A   1      41.863  28.661  25.566  1.00  0.00     0.029 A 
ATOM     50  N   UNL A   1      42.340  29.412  27.572  1.00  0.00    -0.354 N 
ATOM     51  N   UNL A   1      45.476  27.760  30.152  1.00  0.00    -0.248 NA
ATOM     52  C   UNL A   1      43.622  28.151  31.519  1.00  0.00     0.031 C 
ATOM     53  C   UNL A   1      43.266  28.542  25.802  1.00  0.00     0.029 A 
ATOM     54  C   UNL A   1      43.499  28.801  27.153  1.00  0.00     0.049 A 
ATOM     55  H   UNL A   1      42.263  30.083  28.289  1.00  0.00     0.167 HD
ATOM     56  C   UNL A   1      44.530  28.438  29.396  1.00  0.00     0.074 A 
ATOM     57  C   UNL A   1      43.427  28.704  30.317  1.00  0.00     0.031 C 
ATOM     58  C   UNL A   1      44.601  28.473  28.032  1.00  0.00     0.037 A 
BRANCH  45  59
ATOM     59  C   UNL A   1      39.179  29.401  28.187  1.00  0.00     0.064 A 
ATOM     60  C   UNL A   1      39.273  29.553  29.583  1.00  0.00     0.173 A 
ATOM     61  C   UNL A   1      38.021  29.942  27.588  1.00  0.00     0.173 A 
ATOM     62  F   UNL A   1      40.323  29.059  30.255  1.00  0.00    -0.203 F 
ATOM     63  C   UNL A   1      38.248  30.142  30.327  1.00  0.00     0.198 A 
ATOM     64  C   UNL A   1      37.028  30.577  28.326  1.00  0.00     0.198 A 
ATOM     65  F   UNL A   1      37.750  29.777  26.287  1.00  0.00    -0.203 F 
ATOM     66  F   UNL A   1      38.325  30.159  31.665  1.00  0.00    -0.200 F 
ATOM     67  C   UNL A   1      37.125  30.649  29.699  1.00  0.00     0.200 A 
ATOM     68  F   UNL A   1      35.938  31.043  27.701  1.00  0.00    -0.200 F 
ATOM     69  F   UNL A   1      36.117  31.161  30.416  1.00  0.00    -0.200 F 
ENDBRANCH  45  59
BRANCH  46  70
ATOM     70  C   UNL A   1      45.228  25.945  33.365  1.00  0.00     0.064 A 
ATOM     71  C   UNL A   1      44.138  25.732  34.224  1.00  0.00     0.173 A 
ATOM     72  C   UNL A   1      46.508  25.702  33.901  1.00  0.00     0.173 A 
ATOM     73  F   UNL A   1      42.886  25.906  33.777  1.00  0.00    -0.203 F 
ATOM     74  C   UNL A   1      44.316  25.263  35.531  1.00  0.00     0.198 A 
ATOM     75  C   UNL A   1      46.684  25.234  35.206  1.00  0.00     0.198 A 
ATOM     76  F   UNL A   1      47.605  25.817  33.140  1.00  0.00    -0.203 F 
ATOM     77  F   UNL A   1      43.248  25.006  36.299  1.00  0.00    -0.200 F 
ATOM     78  C   UNL A   1      45.587  24.999  36.014  1.00  0.00     0.200 A 
ATOM     79  F   UNL A   1      47.915  24.947  35.648  1.00  0.00    -0.200 F 
ATOM     80  F   UNL A   1      45.753  24.479  37.238  1.00  0.00    -0.200 F 
ENDBRANCH  46  70
BRANCH  58  81
ATOM     81  C   UNL A   1      45.846  27.920  27.386  1.00  0.00     0.064 A 
ATOM     82  C   UNL A   1      47.052  28.635  27.263  1.00  0.00     0.173 A 
ATOM     83  C   UNL A   1      45.865  26.572  27.010  1.00  0.00     0.173 A 
ATOM     84  F   UNL A   1      47.148  29.899  27.687  1.00  0.00    -0.203 F 
ATOM     85  C   UNL A   1      48.206  28.038  26.754  1.00  0.00     0.198 A 
ATOM     86  C   UNL A   1      47.027  25.967  26.532  1.00  0.00     0.198 A 
ATOM     87  F   UNL A   1      44.762  25.821  27.154  1.00  0.00    -0.203 F 
ATOM     88  F   UNL A   1      49.339  28.749  26.644  1.00  0.00    -0.200 F 
ATOM     89  C   UNL A   1      48.193  26.703  26.395  1.00  0.00     0.200 A 
ATOM     90  F   UNL A   1      47.022  24.662  26.229  1.00  0.00    -0.200 F 
ATOM     91  F   UNL A   1      49.311  26.116  25.943  1.00  0.00    -0.200 F 
ENDBRANCH  58  81
ENDBRANCH  32  33
ENDBRANCH  24  27
ENDBRANCH  22  23
ENDBRANCH   1  22
TORSDOF 11
ENDMDL
MODEL 2
REMARK VINA RESULT:     -12.9      3.211      7.847
REMARK SMILES Cc1cc(-n2nc(C)c(C(=O)NCCCNC(=O)c3ccc(-c4c5nc(c(-c6c(F)c(F)c(F)c(F)c6F)c6ccc([nH]6)c(-c6c(F)c(F)c(F)c(F)c6F)c6nc(c(-c7c(F)c(F)c(F)c(F)c7F)c7ccc4[nH]7)C=C6)C=C5)cc3)c2Cl)nc(C)n1
REMARK SMILES IDX 14 1 13 2 12 3 10 4 11 5 9 7 5 8 6 9 82 10 7 11 83 12 8 13
REMARK SMILES IDX 4 14 1 15 2 16 3 17 87 18 85 19 84 20 86 21 15 22 16 23
REMARK SMILES IDX 17 24 18 26 19 27 20 28 81 29 21 30 80 31 22 32 23 33 24 34
REMARK SMILES IDX 74 35 25 36 79 37 73 38 75 39 26 40 78 41 72 42 71 43 27 45
REMARK SMILES IDX 59 46 39 47 58 48 40 49 43 50 57 51 76 52 41 53 42 54 56 56
REMARK SMILES IDX 77 57 44 58 28 59 29 60 37 61 30 62 31 63 35 64 38 65 32 66
REMARK SMILES IDX 33 67 36 68 34 69 60 70 61 71 69 72 62 73 63 74 67 75 70 76
REMARK SMILES IDX 64 77 65 78 68 79 66 80 45 81 46 82 54 83 47 84 48 85 52 86
REMARK SMILES IDX 55 87 49 88 50 89 53 90 51 91
REMARK H PARENT 12 6 16 25 75 44 43 55
REMARK Flexibility Score: inf
ROOT
ATOM      1  C   UNL A   1      37.085  23.325  25.946  1.00  0.00     0.042 C 
ENDROOT
BRANCH   1   2
ATOM      2  C   UNL A   1      36.696  21.864  25.676  1.00  0.00     0.118 C 
BRANCH   2   3
ATOM      3  N   UNL A   1      35.577  21.453  26.501  1.00  0.00    -0.352 N 
ATOM      4  C   UNL A   1      34.220  21.583  26.371  1.00  0.00     0.256 C 
ATOM      5  O   UNL A   1      33.575  21.081  27.295  1.00  0.00    -0.269 OA
ATOM      6  H   UNL A   1      35.849  20.985  27.323  1.00  0.00     0.163 HD
BRANCH   4   7
ATOM      7  C   UNL A   1      33.544  22.213  25.238  1.00  0.00     0.100 A 
ATOM      8  N   UNL A   1      32.633  23.553  23.688  1.00  0.00    -0.203 N 
ATOM      9  N   UNL A   1      32.239  22.321  23.308  1.00  0.00    -0.170 NA
ATOM     10  C   UNL A   1      33.235  23.520  24.925  1.00  0.00     0.147 A 
ATOM     11  C   UNL A   1      32.868  21.504  24.172  1.00  0.00     0.074 A 
ATOM     12  Cl  UNL A   1      33.199  24.999  25.776  1.00  0.00    -0.061 Cl
ATOM     13  C   UNL A   1      32.732  20.035  23.952  1.00  0.00     0.070 C 
BRANCH   8  14
ATOM     14  C   UNL A   1      32.226  24.751  23.031  1.00  0.00     0.159 A 
ATOM     15  C   UNL A   1      29.353  27.078  23.504  1.00  0.00     0.067 C 
ATOM     16  C   UNL A   1      30.676  26.492  23.111  1.00  0.00     0.043 A 
ATOM     17  C   UNL A   1      30.912  25.135  23.216  1.00  0.00     0.072 A 
ATOM     18  N   UNL A   1      31.644  27.382  22.790  1.00  0.00    -0.238 NA
ATOM     19  C   UNL A   1      32.881  26.905  22.575  1.00  0.00     0.128 A 
ATOM     20  N   UNL A   1      33.219  25.615  22.693  1.00  0.00    -0.214 NA
ATOM     21  C   UNL A   1      33.995  27.886  22.376  1.00  0.00     0.090 C 
ENDBRANCH   8  14
ENDBRANCH   4   7
ENDBRANCH   2   3
ENDBRANCH   1   2
BRANCH   1  22
ATOM     22  C   UNL A   1      38.561  23.562  25.897  1.00  0.00     0.118 C 
BRANCH  22  23
ATOM     23  N   UNL A   1      39.277  22.582  26.730  1.00  0.00    -0.352 N 
ATOM     24  C   UNL A   1      40.333  22.808  27.582  1.00  0.00     0.251 C 
ATOM     25  H   UNL A   1      38.961  21.651  26.669  1.00  0.00     0.163 HD
ATOM     26  O   UNL A   1      41.051  21.887  27.981  1.00  0.00    -0.269 OA
BRANCH  24  27
ATOM     27  C   UNL A   1      40.573  24.188  28.003  1.00  0.00     0.039 A 
ATOM     28  C   UNL A   1      41.838  24.766  28.066  1.00  0.00     0.014 A 
ATOM     29  C   UNL A   1      39.429  24.942  28.224  1.00  0.00     0.014 A 
ATOM     30  C   UNL A   1      41.904  26.124  28.346  1.00  0.00     0.010 A 
ATOM     31  C   UNL A   1      39.496  26.284  28.066  1.00  0.00     0.010 A 
ATOM     32  C   UNL A   1      40.709  26.862  28.352  1.00  0.00    -0.014 A 
BRANCH  32  33
ATOM     33  C   UNL A   1      40.633  28.257  28.711  1.00  0.00     0.031 A 
ATOM     34  C   UNL A   1      41.698  29.089  28.134  1.00  0.00     0.074 A 
ATOM     35  C   UNL A   1      39.589  28.772  29.395  1.00  0.00     0.049 A 
ATOM     36  N   UNL A   1      42.736  29.534  28.753  1.00  0.00    -0.248 NA
ATOM     37  C   UNL A   1      41.705  29.316  26.685  1.00  0.00     0.031 C 
ATOM     38  C   UNL A   1      38.311  28.161  29.797  1.00  0.00     0.029 A 
ATOM     39  N   UNL A   1      39.468  30.037  29.864  1.00  0.00    -0.354 N 
ATOM     40  C   UNL A   1      43.454  30.257  27.816  1.00  0.00     0.074 A 
ATOM     41  C   UNL A   1      42.870  29.951  26.533  1.00  0.00     0.031 C 
ATOM     42  C   UNL A   1      37.481  29.112  30.285  1.00  0.00     0.029 A 
ATOM     43  C   UNL A   1      38.228  30.349  30.399  1.00  0.00     0.049 A 
ATOM     44  H   UNL A   1      40.207  30.687  29.827  1.00  0.00     0.167 HD
ATOM     45  C   UNL A   1      44.333  31.214  28.216  1.00  0.00     0.037 A 
ATOM     46  C   UNL A   1      37.868  31.549  30.914  1.00  0.00     0.037 A 
ATOM     47  C   UNL A   1      44.639  31.085  29.622  1.00  0.00     0.049 A 
ATOM     48  C   UNL A   1      39.130  32.235  31.301  1.00  0.00     0.074 A 
ATOM     49  C   UNL A   1      45.242  30.104  30.386  1.00  0.00     0.029 A 
ATOM     50  N   UNL A   1      43.927  31.856  30.511  1.00  0.00    -0.354 N 
ATOM     51  N   UNL A   1      39.909  31.815  32.262  1.00  0.00    -0.248 NA
ATOM     52  C   UNL A   1      39.771  33.079  30.302  1.00  0.00     0.031 C 
ATOM     53  C   UNL A   1      44.471  30.040  31.586  1.00  0.00     0.029 A 
ATOM     54  C   UNL A   1      43.489  31.029  31.518  1.00  0.00     0.049 A 
ATOM     55  H   UNL A   1      43.763  32.824  30.440  1.00  0.00     0.167 HD
ATOM     56  C   UNL A   1      41.199  31.984  31.778  1.00  0.00     0.074 A 
ATOM     57  C   UNL A   1      41.052  32.827  30.593  1.00  0.00     0.031 C 
ATOM     58  C   UNL A   1      42.230  31.200  32.212  1.00  0.00     0.037 A 
BRANCH  45  59
ATOM     59  C   UNL A   1      44.646  32.453  27.429  1.00  0.00     0.064 A 
ATOM     60  C   UNL A   1      45.877  32.546  26.753  1.00  0.00     0.173 A 
ATOM     61  C   UNL A   1      43.912  33.654  27.535  1.00  0.00     0.173 A 
ATOM     62  F   UNL A   1      46.661  31.467  26.613  1.00  0.00    -0.203 F 
ATOM     63  C   UNL A   1      46.364  33.766  26.282  1.00  0.00     0.198 A 
ATOM     64  C   UNL A   1      44.376  34.858  27.016  1.00  0.00     0.198 A 
ATOM     65  F   UNL A   1      42.778  33.735  28.242  1.00  0.00    -0.203 F 
ATOM     66  F   UNL A   1      47.593  33.830  25.751  1.00  0.00    -0.200 F 
ATOM     67  C   UNL A   1      45.616  34.922  26.417  1.00  0.00     0.200 A 
ATOM     68  F   UNL A   1      43.645  35.970  27.175  1.00  0.00    -0.200 F 
ATOM     69  F   UNL A   1      46.107  36.102  26.018  1.00  0.00    -0.200 F 
ENDBRANCH  45  59
BRANCH  46  70
ATOM     70  C   UNL A   1      36.598  32.276  30.678  1.00  0.00     0.064 A 
ATOM     71  C   UNL A   1      35.765  32.630  31.750  1.00  0.00     0.173 A 
ATOM     72  C   UNL A   1      36.334  32.900  29.443  1.00  0.00     0.173 A 
ATOM     73  F   UNL A   1      35.975  32.106  32.967  1.00  0.00    -0.203 F 
ATOM     74  C   UNL A   1      34.752  33.584  31.606  1.00  0.00     0.198 A 
ATOM     75  C   UNL A   1      35.322  33.853  29.301  1.00  0.00     0.198 A 
ATOM     76  F   UNL A   1      37.115  32.674  28.377  1.00  0.00    -0.203 F 
ATOM     77  F   UNL A   1      34.020  33.948  32.669  1.00  0.00    -0.200 F 
ATOM     78  C   UNL A   1      34.542  34.206  30.387  1.00  0.00     0.200 A 
ATOM     79  F   UNL A   1      35.155  34.474  28.125  1.00  0.00    -0.200 F 
ATOM     80  F   UNL A   1      33.622  35.174  30.267  1.00  0.00    -0.200 F 
ENDBRANCH  46  70
BRANCH  58  81
ATOM     81  C   UNL A   1      41.963  30.280  33.376  1.00  0.00     0.064 A 
ATOM     82  C   UNL A   1      41.616  28.923  33.242  1.00  0.00     0.173 A 
ATOM     83  C   UNL A   1      42.208  30.749  34.672  1.00  0.00     0.173 A 
ATOM     84  F   UNL A   1      41.456  28.370  32.036  1.00  0.00    -0.203 F 
ATOM     85  C   UNL A   1      41.485  28.090  34.354  1.00  0.00     0.198 A 
ATOM     86  C   UNL A   1      42.109  29.908  35.780  1.00  0.00     0.198 A 
ATOM     87  F   UNL A   1      42.597  32.019  34.863  1.00  0.00    -0.203 F 
ATOM     88  F   UNL A   1      41.147  26.801  34.193  1.00  0.00    -0.200 F 
ATOM     89  C   UNL A   1      41.738  28.582  35.621  1.00  0.00     0.200 A 
ATOM     90  F   UNL A   1      42.401  30.377  37.000  1.00  0.00    -0.200 F 
ATOM     91  F   UNL A   1      41.652  27.774  36.688  1.00  0.00    -0.200 F 
ENDBRANCH  58  81
ENDBRANCH  32  33
ENDBRANCH  24  27
ENDBRANCH  22  23
ENDBRANCH   1  22
TORSDOF 11
ENDMDL
MODEL 3
REMARK VINA RESULT:     -12.9      4.698      9.862
REMARK SMILES Cc1cc(-n2nc(C)c(C(=O)NCCCNC(=O)c3ccc(-c4c5nc(c(-c6c(F)c(F)c(F)c(F)c6F)c6ccc([nH]6)c(-c6c(F)c(F)c(F)c(F)c6F)c6nc(c(-c7c(F)c(F)c(F)c(F)c7F)c7ccc4[nH]7)C=C6)C=C5)cc3)c2Cl)nc(C)n1
REMARK SMILES IDX 14 1 13 2 12 3 10 4 11 5 9 7 5 8 6 9 82 10 7 11 83 12 8 13
REMARK SMILES IDX 4 14 1 15 2 16 3 17 87 18 85 19 84 20 86 21 15 22 16 23
REMARK SMILES IDX 17 24 18 26 19 27 20 28 81 29 21 30 80 31 22 32 23 33 24 34
REMARK SMILES IDX 74 35 25 36 79 37 73 38 75 39 26 40 78 41 72 42 71 43 27 45
REMARK SMILES IDX 59 46 39 47 58 48 40 49 43 50 57 51 76 52 41 53 42 54 56 56
REMARK SMILES IDX 77 57 44 58 28 59 29 60 37 61 30 62 31 63 35 64 38 65 32 66
REMARK SMILES IDX 33 67 36 68 34 69 60 70 61 71 69 72 62 73 63 74 67 75 70 76
REMARK SMILES IDX 64 77 65 78 68 79 66 80 45 81 46 82 54 83 47 84 48 85 52 86
REMARK SMILES IDX 55 87 49 88 50 89 53 90 51 91
REMARK H PARENT 12 6 16 25 75 44 43 55
REMARK Flexibility Score: inf
ROOT
ATOM      1  C   UNL A   1      31.357  31.571  26.374  1.00  0.00     0.042 C 
ENDROOT
BRANCH   1   2
ATOM      2  C   UNL A   1      31.720  30.224  25.731  1.00  0.00     0.118 C 
BRANCH   2   3
ATOM      3  N   UNL A   1      31.061  30.055  24.452  1.00  0.00    -0.352 N 
ATOM      4  C   UNL A   1      31.059  29.046  23.525  1.00  0.00     0.256 C 
ATOM      5  O   UNL A   1      30.347  29.266  22.542  1.00  0.00    -0.269 OA
ATOM      6  H   UNL A   1      30.498  30.822  24.197  1.00  0.00     0.163 HD
BRANCH   4   7
ATOM      7  C   UNL A   1      31.785  27.785  23.659  1.00  0.00     0.100 A 
ATOM      8  N   UNL A   1      32.528  25.703  24.041  1.00  0.00    -0.203 N 
ATOM      9  N   UNL A   1      33.619  26.345  23.577  1.00  0.00    -0.170 NA
ATOM     10  C   UNL A   1      31.498  26.586  24.276  1.00  0.00     0.147 A 
ATOM     11  C   UNL A   1      33.156  27.565  23.247  1.00  0.00     0.074 A 
ATOM     12  Cl  UNL A   1      30.343  26.047  25.412  1.00  0.00    -0.061 Cl
ATOM     13  C   UNL A   1      34.106  28.504  22.585  1.00  0.00     0.070 C 
BRANCH   8  14
ATOM     14  C   UNL A   1      32.537  24.350  24.491  1.00  0.00     0.159 A 
ATOM     15  C   UNL A   1      32.154  21.076  22.753  1.00  0.00     0.067 C 
ATOM     16  C   UNL A   1      32.491  22.137  23.757  1.00  0.00     0.043 A 
ATOM     17  C   UNL A   1      31.986  23.417  23.635  1.00  0.00     0.072 A 
ATOM     18  N   UNL A   1      33.415  21.799  24.686  1.00  0.00    -0.238 NA
ATOM     19  C   UNL A   1      33.851  22.766  25.510  1.00  0.00     0.128 A 
ATOM     20  N   UNL A   1      33.454  24.043  25.445  1.00  0.00    -0.214 NA
ATOM     21  C   UNL A   1      34.985  22.451  26.436  1.00  0.00     0.090 C 
ENDBRANCH   8  14
ENDBRANCH   4   7
ENDBRANCH   2   3
ENDBRANCH   1   2
BRANCH   1  22
ATOM     22  C   UNL A   1      32.447  32.127  27.236  1.00  0.00     0.118 C 
BRANCH  22  23
ATOM     23  N   UNL A   1      32.239  33.561  27.485  1.00  0.00    -0.352 N 
ATOM     24  C   UNL A   1      32.929  34.379  28.351  1.00  0.00     0.251 C 
ATOM     25  H   UNL A   1      31.518  33.989  26.969  1.00  0.00     0.163 HD
ATOM     26  O   UNL A   1      32.477  35.468  28.711  1.00  0.00    -0.269 OA
BRANCH  24  27
ATOM     27  C   UNL A   1      34.229  33.905  28.828  1.00  0.00     0.039 A 
ATOM     28  C   UNL A   1      34.408  33.229  30.031  1.00  0.00     0.014 A 
ATOM     29  C   UNL A   1      35.277  34.067  27.933  1.00  0.00     0.014 A 
ATOM     30  C   UNL A   1      35.671  32.715  30.290  1.00  0.00     0.010 A 
ATOM     31  C   UNL A   1      36.329  33.218  28.006  1.00  0.00     0.010 A 
ATOM     32  C   UNL A   1      36.623  32.733  29.257  1.00  0.00    -0.014 A 
BRANCH  32  33
ATOM     33  C   UNL A   1      37.992  32.309  29.424  1.00  0.00     0.031 A 
ATOM     34  C   UNL A   1      38.224  30.887  29.136  1.00  0.00     0.074 A 
ATOM     35  C   UNL A   1      38.992  33.180  29.679  1.00  0.00     0.049 A 
ATOM     36  N   UNL A   1      38.386  29.952  30.005  1.00  0.00    -0.248 NA
ATOM     37  C   UNL A   1      38.100  30.421  27.751  1.00  0.00     0.031 C 
ATOM     38  C   UNL A   1      38.998  34.652  29.710  1.00  0.00     0.029 A 
ATOM     39  N   UNL A   1      40.285  32.877  29.948  1.00  0.00    -0.354 N 
ATOM     40  C   UNL A   1      38.566  28.787  29.279  1.00  0.00     0.074 A 
ATOM     41  C   UNL A   1      38.214  29.101  27.916  1.00  0.00     0.031 C 
ATOM     42  C   UNL A   1      40.270  35.104  29.803  1.00  0.00     0.029 A 
ATOM     43  C   UNL A   1      41.140  33.965  30.020  1.00  0.00     0.049 A 
ATOM     44  H   UNL A   1      40.593  31.952  30.082  1.00  0.00     0.167 HD
ATOM     45  C   UNL A   1      39.200  27.721  29.837  1.00  0.00     0.037 A 
ATOM     46  C   UNL A   1      42.471  33.910  30.263  1.00  0.00     0.037 A 
ATOM     47  C   UNL A   1      39.289  27.862  31.272  1.00  0.00     0.049 A 
ATOM     48  C   UNL A   1      42.717  32.620  30.961  1.00  0.00     0.074 A 
ATOM     49  C   UNL A   1      38.354  27.936  32.288  1.00  0.00     0.029 A 
ATOM     50  N   UNL A   1      40.445  28.387  31.799  1.00  0.00    -0.354 N 
ATOM     51  N   UNL A   1      42.270  32.356  32.159  1.00  0.00    -0.248 NA
ATOM     52  C   UNL A   1      43.020  31.456  30.138  1.00  0.00     0.031 C 
ATOM     53  C   UNL A   1      38.849  28.939  33.176  1.00  0.00     0.029 A 
ATOM     54  C   UNL A   1      40.086  29.368  32.693  1.00  0.00     0.049 A 
ATOM     55  H   UNL A   1      41.363  28.110  31.577  1.00  0.00     0.167 HD
ATOM     56  C   UNL A   1      41.843  31.037  32.101  1.00  0.00     0.074 A 
ATOM     57  C   UNL A   1      42.391  30.516  30.850  1.00  0.00     0.031 C 
ATOM     58  C   UNL A   1      40.856  30.571  32.923  1.00  0.00     0.037 A 
BRANCH  45  59
ATOM     59  C   UNL A   1      40.027  26.734  29.067  1.00  0.00     0.064 A 
ATOM     60  C   UNL A   1      41.214  27.167  28.447  1.00  0.00     0.173 A 
ATOM     61  C   UNL A   1      39.564  25.457  28.683  1.00  0.00     0.173 A 
ATOM     62  F   UNL A   1      41.729  28.373  28.725  1.00  0.00    -0.203 F 
ATOM     63  C   UNL A   1      41.849  26.403  27.466  1.00  0.00     0.198 A 
ATOM     64  C   UNL A   1      40.231  24.675  27.746  1.00  0.00     0.198 A 
ATOM     65  F   UNL A   1      38.395  24.965  29.112  1.00  0.00    -0.203 F 
ATOM     66  F   UNL A   1      42.909  26.905  26.816  1.00  0.00    -0.200 F 
ATOM     67  C   UNL A   1      41.355  25.160  27.113  1.00  0.00     0.200 A 
ATOM     68  F   UNL A   1      39.725  23.482  27.403  1.00  0.00    -0.200 F 
ATOM     69  F   UNL A   1      41.929  24.452  26.132  1.00  0.00    -0.200 F 
ENDBRANCH  45  59
BRANCH  46  70
ATOM     70  C   UNL A   1      43.538  34.657  29.556  1.00  0.00     0.064 A 
ATOM     71  C   UNL A   1      43.878  34.340  28.231  1.00  0.00     0.173 A 
ATOM     72  C   UNL A   1      44.024  35.882  30.054  1.00  0.00     0.173 A 
ATOM     73  F   UNL A   1      43.423  33.209  27.673  1.00  0.00    -0.203 F 
ATOM     74  C   UNL A   1      44.626  35.217  27.437  1.00  0.00     0.198 A 
ATOM     75  C   UNL A   1      44.771  36.756  29.260  1.00  0.00     0.198 A 
ATOM     76  F   UNL A   1      43.701  36.301  31.286  1.00  0.00    -0.203 F 
ATOM     77  F   UNL A   1      44.873  34.911  26.155  1.00  0.00    -0.200 F 
ATOM     78  C   UNL A   1      45.057  36.430  27.947  1.00  0.00     0.200 A 
ATOM     79  F   UNL A   1      45.149  37.943  29.753  1.00  0.00    -0.200 F 
ATOM     80  F   UNL A   1      45.709  37.302  27.164  1.00  0.00    -0.200 F 
ENDBRANCH  46  70
BRANCH  58  81
ATOM     81  C   UNL A   1      40.385  31.481  34.029  1.00  0.00     0.064 A 
ATOM     82  C   UNL A   1      39.266  32.327  33.928  1.00  0.00     0.173 A 
ATOM     83  C   UNL A   1      41.000  31.386  35.284  1.00  0.00     0.173 A 
ATOM     84  F   UNL A   1      38.563  32.405  32.795  1.00  0.00    -0.203 F 
ATOM     85  C   UNL A   1      38.810  33.069  35.019  1.00  0.00     0.198 A 
ATOM     86  C   UNL A   1      40.525  32.102  36.381  1.00  0.00     0.198 A 
ATOM     87  F   UNL A   1      42.038  30.554  35.460  1.00  0.00    -0.203 F 
ATOM     88  F   UNL A   1      37.743  33.871  34.889  1.00  0.00    -0.200 F 
ATOM     89  C   UNL A   1      39.437  32.950  36.247  1.00  0.00     0.200 A 
ATOM     90  F   UNL A   1      41.105  31.948  37.579  1.00  0.00    -0.200 F 
ATOM     91  F   UNL A   1      38.977  33.630  37.307  1.00  0.00    -0.200 F 
ENDBRANCH  58  81
ENDBRANCH  32  33
ENDBRANCH  24  27
ENDBRANCH  22  23
ENDBRANCH   1  22
TORSDOF 11
ENDMDL
