MODEL 1
REMARK VINA RESULT:     -12.8      0.000      0.000
REMARK SMILES COc1ccc([C@H]2CC(c3ccc(S(C)(=O)=O)cc3)=NN2c2ccc(C(=O)NCCCNC(=O)c3ccc(-c4c5nc(c(-c6c(F)c(F)c(F)c(F)c6F)c6ccc([nH]6)c(-c6c(F)c(F)c(F)c(F)c6F)c6nc(c(-c7c(F)c(F)c(F)c(F)c7F)c7ccc4[nH]7)C=C6)C=C5)cc3)cc2)cc1OC
REMARK SMILES IDX 29 1 28 2 26 3 27 4 25 6 22 7 23 8 99 9 24 10 98 11 21 12
REMARK SMILES IDX 7 13 8 14 9 15 20 16 6 17 3 18 4 19 101 20 5 21 100 22 2 23
REMARK SMILES IDX 1 24 102 25 103 26 10 27 11 28 19 29 12 30 18 31 13 32 14 33
REMARK SMILES IDX 15 34 16 35 17 36 30 37 31 38 32 39 33 40 34 42 35 43 36 44
REMARK SMILES IDX 97 45 37 46 96 47 38 48 39 49 40 50 90 51 41 52 95 53 89 54
REMARK SMILES IDX 91 55 42 56 94 57 88 58 87 59 43 61 75 62 55 63 74 64 56 65
REMARK SMILES IDX 59 66 73 67 92 68 57 69 58 70 72 72 93 73 60 74 44 75 45 76
REMARK SMILES IDX 53 77 46 78 47 79 51 80 54 81 48 82 49 83 52 84 50 85 76 86
REMARK SMILES IDX 77 87 85 88 78 89 79 90 83 91 86 92 80 93 81 94 84 95 82 96
REMARK SMILES IDX 61 97 62 98 70 99 63 100 64 101 68 102 71 103 65 104 66 105
REMARK SMILES IDX 69 106 67 107
REMARK H PARENT 28 5 32 41 91 60 59 71
REMARK Flexibility Score: inf
ROOT
ATOM      1  C   UNL A   1      39.116  20.456  25.374  1.00  0.00     0.118 C 
ENDROOT
BRANCH   1   2
ATOM      2  N   UNL A   1      39.450  21.687  26.062  1.00  0.00    -0.352 N 
ATOM      3  C   UNL A   1      38.823  22.904  26.127  1.00  0.00     0.251 C 
ATOM      4  O   UNL A   1      39.337  23.766  26.840  1.00  0.00    -0.269 OA
ATOM      5  H   UNL A   1      40.285  21.640  26.583  1.00  0.00     0.163 HD
BRANCH   3   6
ATOM      6  C   UNL A   1      37.546  23.205  25.423  1.00  0.00     0.039 A 
ATOM      7  C   UNL A   1      35.042  23.813  24.257  1.00  0.00     0.060 A 
ATOM      8  C   UNL A   1      35.322  24.166  25.581  1.00  0.00     0.029 A 
ATOM      9  C   UNL A   1      36.046  23.194  23.512  1.00  0.00     0.029 A 
ATOM     10  C   UNL A   1      36.551  23.851  26.165  1.00  0.00     0.016 A 
ATOM     11  C   UNL A   1      37.298  22.928  24.076  1.00  0.00     0.016 A 
BRANCH   7  12
ATOM     12  N   UNL A   1      33.810  24.101  23.705  1.00  0.00    -0.257 N 
ATOM     13  C   UNL A   1      33.118  23.277  22.715  1.00  0.00     0.144 C 
ATOM     14  C   UNL A   1      31.884  24.127  22.380  1.00  0.00     0.091 C 
ATOM     15  C   UNL A   1      32.150  25.331  23.242  1.00  0.00     0.071 C 
ATOM     16  N   UNL A   1      33.225  25.294  23.962  1.00  0.00    -0.176 NA
BRANCH  13  17
ATOM     17  C   UNL A   1      32.765  21.910  23.280  1.00  0.00    -0.019 A 
ATOM     18  C   UNL A   1      32.252  19.338  24.321  1.00  0.00     0.160 A 
ATOM     19  C   UNL A   1      31.992  19.627  22.974  1.00  0.00     0.051 A 
ATOM     20  C   UNL A   1      32.768  20.329  25.161  1.00  0.00     0.161 A 
ATOM     21  C   UNL A   1      32.239  20.905  22.459  1.00  0.00     0.010 A 
ATOM     22  C   UNL A   1      33.017  21.602  24.628  1.00  0.00     0.056 A 
BRANCH  18  23
ATOM     23  O   UNL A   1      32.119  18.046  24.755  1.00  0.00    -0.493 OA
ATOM     24  C   UNL A   1      33.094  17.175  24.189  1.00  0.00     0.278 C 
ENDBRANCH  18  23
BRANCH  20  25
ATOM     25  O   UNL A   1      33.113  20.231  26.482  1.00  0.00    -0.493 OA
ATOM     26  C   UNL A   1      33.661  21.377  27.114  1.00  0.00     0.278 C 
ENDBRANCH  20  25
ENDBRANCH  13  17
BRANCH  15  27
ATOM     27  C   UNL A   1      31.267  26.499  23.221  1.00  0.00    -0.002 A 
ATOM     28  C   UNL A   1      29.911  26.312  23.509  1.00  0.00     0.011 A 
ATOM     29  C   UNL A   1      31.765  27.756  22.877  1.00  0.00     0.011 A 
ATOM     30  C   UNL A   1      29.041  27.400  23.472  1.00  0.00     0.021 A 
ATOM     31  C   UNL A   1      30.890  28.844  22.813  1.00  0.00     0.021 A 
ATOM     32  C   UNL A   1      29.535  28.658  23.109  1.00  0.00     0.067 A 
BRANCH  32  33
ATOM     33  S   UNL A   1      28.416  30.038  23.045  1.00  0.00     0.175 S 
ATOM     34  C   UNL A   1      28.365  30.479  21.327  1.00  0.00     0.163 C 
ATOM     35  O   UNL A   1      27.109  29.530  23.428  1.00  0.00    -0.224 OA
ATOM     36  O   UNL A   1      29.029  31.135  23.763  1.00  0.00    -0.224 OA
ENDBRANCH  32  33
ENDBRANCH  15  27
ENDBRANCH   7  12
ENDBRANCH   3   6
ENDBRANCH   1   2
BRANCH   1  37
ATOM     37  C   UNL A   1      40.018  19.311  25.835  1.00  0.00     0.042 C 
BRANCH  37  38
ATOM     38  C   UNL A   1      41.373  19.782  26.356  1.00  0.00     0.118 C 
BRANCH  38  39
ATOM     39  N   UNL A   1      42.469  19.276  25.543  1.00  0.00    -0.352 N 
ATOM     40  C   UNL A   1      43.522  19.935  24.964  1.00  0.00     0.251 C 
ATOM     41  H   UNL A   1      42.452  18.305  25.384  1.00  0.00     0.163 HD
ATOM     42  O   UNL A   1      44.207  19.350  24.130  1.00  0.00    -0.269 OA
BRANCH  40  43
ATOM     43  C   UNL A   1      43.844  21.335  25.321  1.00  0.00     0.039 A 
ATOM     44  C   UNL A   1      44.213  21.613  26.641  1.00  0.00     0.014 A 
ATOM     45  C   UNL A   1      43.709  22.381  24.403  1.00  0.00     0.014 A 
ATOM     46  C   UNL A   1      44.470  22.928  27.033  1.00  0.00     0.010 A 
ATOM     47  C   UNL A   1      44.031  23.686  24.777  1.00  0.00     0.010 A 
ATOM     48  C   UNL A   1      44.396  23.974  26.100  1.00  0.00    -0.014 A 
BRANCH  48  49
ATOM     49  C   UNL A   1      44.679  25.372  26.510  1.00  0.00     0.031 A 
ATOM     50  C   UNL A   1      46.073  25.928  26.411  1.00  0.00     0.074 A 
ATOM     51  C   UNL A   1      43.685  26.129  27.009  1.00  0.00     0.049 A 
ATOM     52  N   UNL A   1      46.515  27.117  26.735  1.00  0.00    -0.248 NA
ATOM     53  C   UNL A   1      47.113  25.018  25.907  1.00  0.00     0.031 C 
ATOM     54  C   UNL A   1      42.305  25.685  27.208  1.00  0.00     0.029 A 
ATOM     55  N   UNL A   1      43.683  27.430  27.447  1.00  0.00    -0.354 N 
ATOM     56  C   UNL A   1      47.882  27.093  26.488  1.00  0.00     0.074 A 
ATOM     57  C   UNL A   1      48.205  25.757  26.037  1.00  0.00     0.031 C 
ATOM     58  C   UNL A   1      41.586  26.699  27.714  1.00  0.00     0.029 A 
ATOM     59  C   UNL A   1      42.458  27.856  27.897  1.00  0.00     0.049 A 
ATOM     60  H   UNL A   1      44.484  28.002  27.440  1.00  0.00     0.167 HD
ATOM     61  C   UNL A   1      48.781  28.099  26.607  1.00  0.00     0.037 A 
ATOM     62  C   UNL A   1      42.081  29.046  28.401  1.00  0.00     0.037 A 
ATOM     63  C   UNL A   1      48.450  29.434  27.033  1.00  0.00     0.049 A 
ATOM     64  C   UNL A   1      43.088  30.157  28.492  1.00  0.00     0.074 A 
ATOM     65  C   UNL A   1      49.274  30.542  27.123  1.00  0.00     0.029 A 
ATOM     66  N   UNL A   1      47.189  29.840  27.443  1.00  0.00    -0.354 N 
ATOM     67  N   UNL A   1      44.362  30.147  28.179  1.00  0.00    -0.248 NA
ATOM     68  C   UNL A   1      42.603  31.451  28.989  1.00  0.00     0.031 C 
ATOM     69  C   UNL A   1      48.521  31.609  27.627  1.00  0.00     0.029 A 
ATOM     70  C   UNL A   1      47.216  31.179  27.805  1.00  0.00     0.049 A 
ATOM     71  H   UNL A   1      46.391  29.263  27.472  1.00  0.00     0.167 HD
ATOM     72  C   UNL A   1      44.825  31.433  28.420  1.00  0.00     0.074 A 
ATOM     73  C   UNL A   1      43.691  32.203  28.887  1.00  0.00     0.031 C 
ATOM     74  C   UNL A   1      46.077  31.930  28.268  1.00  0.00     0.037 A 
BRANCH  61  75
ATOM     75  C   UNL A   1      50.212  27.792  26.269  1.00  0.00     0.064 A 
ATOM     76  C   UNL A   1      51.159  27.503  27.264  1.00  0.00     0.173 A 
ATOM     77  C   UNL A   1      50.637  27.763  24.931  1.00  0.00     0.173 A 
ATOM     78  F   UNL A   1      50.807  27.526  28.557  1.00  0.00    -0.203 F 
ATOM     79  C   UNL A   1      52.485  27.232  26.935  1.00  0.00     0.198 A 
ATOM     80  C   UNL A   1      51.957  27.462  24.605  1.00  0.00     0.198 A 
ATOM     81  F   UNL A   1      49.772  28.025  23.941  1.00  0.00    -0.203 F 
ATOM     82  F   UNL A   1      53.382  27.012  27.905  1.00  0.00    -0.200 F 
ATOM     83  C   UNL A   1      52.882  27.206  25.606  1.00  0.00     0.200 A 
ATOM     84  F   UNL A   1      52.337  27.424  23.320  1.00  0.00    -0.200 F 
ATOM     85  F   UNL A   1      54.157  26.943  25.292  1.00  0.00    -0.200 F 
ENDBRANCH  61  75
BRANCH  62  86
ATOM     86  C   UNL A   1      40.672  29.249  28.824  1.00  0.00     0.064 A 
ATOM     87  C   UNL A   1      40.321  29.264  30.181  1.00  0.00     0.173 A 
ATOM     88  C   UNL A   1      39.652  29.453  27.883  1.00  0.00     0.173 A 
ATOM     89  F   UNL A   1      41.259  29.057  31.116  1.00  0.00    -0.203 F 
ATOM     90  C   UNL A   1      39.001  29.459  30.580  1.00  0.00     0.198 A 
ATOM     91  C   UNL A   1      38.337  29.674  28.284  1.00  0.00     0.198 A 
ATOM     92  F   UNL A   1      39.939  29.455  26.573  1.00  0.00    -0.203 F 
ATOM     93  F   UNL A   1      38.686  29.432  31.883  1.00  0.00    -0.200 F 
ATOM     94  C   UNL A   1      38.011  29.671  29.632  1.00  0.00     0.200 A 
ATOM     95  F   UNL A   1      37.387  29.894  27.366  1.00  0.00    -0.200 F 
ATOM     96  F   UNL A   1      36.743  29.868  30.018  1.00  0.00    -0.200 F 
ENDBRANCH  62  86
BRANCH  74  97
ATOM     97  C   UNL A   1      46.278  33.383  28.585  1.00  0.00     0.064 A 
ATOM     98  C   UNL A   1      46.658  33.810  29.866  1.00  0.00     0.173 A 
ATOM     99  C   UNL A   1      46.117  34.356  27.588  1.00  0.00     0.173 A 
ATOM    100  F   UNL A   1      46.810  32.919  30.857  1.00  0.00    -0.203 F 
ATOM    101  C   UNL A   1      46.840  35.163  30.143  1.00  0.00     0.198 A 
ATOM    102  C   UNL A   1      46.327  35.705  27.862  1.00  0.00     0.198 A 
ATOM    103  F   UNL A   1      45.759  33.999  26.345  1.00  0.00    -0.203 F 
ATOM    104  F   UNL A   1      47.154  35.552  31.387  1.00  0.00    -0.200 F 
ATOM    105  C   UNL A   1      46.680  36.107  29.141  1.00  0.00     0.200 A 
ATOM    106  F   UNL A   1      46.184  36.616  26.889  1.00  0.00    -0.200 F 
ATOM    107  F   UNL A   1      46.859  37.407  29.410  1.00  0.00    -0.200 F 
ENDBRANCH  74  97
ENDBRANCH  48  49
ENDBRANCH  40  43
ENDBRANCH  38  39
ENDBRANCH  37  38
ENDBRANCH   1  37
TORSDOF 16
ENDMDL
MODEL 2
REMARK VINA RESULT:     -12.8      0.508      6.886
REMARK SMILES COc1ccc([C@H]2CC(c3ccc(S(C)(=O)=O)cc3)=NN2c2ccc(C(=O)NCCCNC(=O)c3ccc(-c4c5nc(c(-c6c(F)c(F)c(F)c(F)c6F)c6ccc([nH]6)c(-c6c(F)c(F)c(F)c(F)c6F)c6nc(c(-c7c(F)c(F)c(F)c(F)c7F)c7ccc4[nH]7)C=C6)C=C5)cc3)cc2)cc1OC
REMARK SMILES IDX 29 1 28 2 26 3 27 4 25 6 22 7 23 8 99 9 24 10 98 11 21 12
REMARK SMILES IDX 7 13 8 14 9 15 20 16 6 17 3 18 4 19 101 20 5 21 100 22 2 23
REMARK SMILES IDX 1 24 102 25 103 26 10 27 11 28 19 29 12 30 18 31 13 32 14 33
REMARK SMILES IDX 15 34 16 35 17 36 30 37 31 38 32 39 33 40 34 42 35 43 36 44
REMARK SMILES IDX 97 45 37 46 96 47 38 48 39 49 40 50 90 51 41 52 95 53 89 54
REMARK SMILES IDX 91 55 42 56 94 57 88 58 87 59 43 61 75 62 55 63 74 64 56 65
REMARK SMILES IDX 59 66 73 67 92 68 57 69 58 70 72 72 93 73 60 74 44 75 45 76
REMARK SMILES IDX 53 77 46 78 47 79 51 80 54 81 48 82 49 83 52 84 50 85 76 86
REMARK SMILES IDX 77 87 85 88 78 89 79 90 83 91 86 92 80 93 81 94 84 95 82 96
REMARK SMILES IDX 61 97 62 98 70 99 63 100 64 101 68 102 71 103 65 104 66 105
REMARK SMILES IDX 69 106 67 107
REMARK H PARENT 28 5 32 41 91 60 59 71
REMARK Flexibility Score: inf
ROOT
ATOM      1  C   UNL A   1      38.813  20.490  25.369  1.00  0.00     0.118 C 
ENDROOT
BRANCH   1   2
ATOM      2  N   UNL A   1      39.157  21.712  26.069  1.00  0.00    -0.352 N 
ATOM      3  C   UNL A   1      38.560  22.945  26.117  1.00  0.00     0.251 C 
ATOM      4  O   UNL A   1      39.074  23.793  26.847  1.00  0.00    -0.269 OA
ATOM      5  H   UNL A   1      39.975  21.643  26.614  1.00  0.00     0.163 HD
BRANCH   3   6
ATOM      6  C   UNL A   1      37.312  23.279  25.376  1.00  0.00     0.039 A 
ATOM      7  C   UNL A   1      34.859  23.946  24.137  1.00  0.00     0.060 A 
ATOM      8  C   UNL A   1      35.097  24.268  25.477  1.00  0.00     0.029 A 
ATOM      9  C   UNL A   1      35.879  23.328  23.414  1.00  0.00     0.029 A 
ATOM     10  C   UNL A   1      36.300  23.924  26.097  1.00  0.00     0.016 A 
ATOM     11  C   UNL A   1      37.108  23.033  24.016  1.00  0.00     0.016 A 
BRANCH   7  12
ATOM     12  N   UNL A   1      33.650  24.263  23.550  1.00  0.00    -0.257 N 
ATOM     13  C   UNL A   1      33.020  23.512  22.465  1.00  0.00     0.144 C 
ATOM     14  C   UNL A   1      31.791  24.373  22.137  1.00  0.00     0.091 C 
ATOM     15  C   UNL A   1      31.997  25.507  23.103  1.00  0.00     0.071 C 
ATOM     16  N   UNL A   1      33.036  25.426  23.870  1.00  0.00    -0.176 NA
BRANCH  13  17
ATOM     17  C   UNL A   1      32.660  22.101  22.904  1.00  0.00    -0.019 A 
ATOM     18  C   UNL A   1      32.134  19.450  23.712  1.00  0.00     0.160 A 
ATOM     19  C   UNL A   1      31.922  19.846  22.385  1.00  0.00     0.051 A 
ATOM     20  C   UNL A   1      32.610  20.372  24.649  1.00  0.00     0.161 A 
ATOM     21  C   UNL A   1      32.174  21.163  21.985  1.00  0.00     0.010 A 
ATOM     22  C   UNL A   1      32.866  21.686  24.231  1.00  0.00     0.056 A 
BRANCH  18  23
ATOM     23  O   UNL A   1      31.999  18.125  24.035  1.00  0.00    -0.493 OA
ATOM     24  C   UNL A   1      33.003  17.311  23.436  1.00  0.00     0.278 C 
ENDBRANCH  18  23
BRANCH  20  25
ATOM     25  O   UNL A   1      32.907  20.169  25.969  1.00  0.00    -0.493 OA
ATOM     26  C   UNL A   1      33.716  21.132  26.626  1.00  0.00     0.278 C 
ENDBRANCH  20  25
ENDBRANCH  13  17
BRANCH  15  27
ATOM     27  C   UNL A   1      31.099  26.664  23.129  1.00  0.00    -0.002 A 
ATOM     28  C   UNL A   1      29.763  26.460  23.492  1.00  0.00     0.011 A 
ATOM     29  C   UNL A   1      31.561  27.927  22.757  1.00  0.00     0.011 A 
ATOM     30  C   UNL A   1      28.879  27.537  23.502  1.00  0.00     0.021 A 
ATOM     31  C   UNL A   1      30.670  29.003  22.741  1.00  0.00     0.021 A 
ATOM     32  C   UNL A   1      29.335  28.800  23.112  1.00  0.00     0.067 A 
BRANCH  32  33
ATOM     33  S   UNL A   1      28.196  30.165  23.108  1.00  0.00     0.175 S 
ATOM     34  C   UNL A   1      28.110  30.657  21.405  1.00  0.00     0.163 C 
ATOM     35  O   UNL A   1      26.903  29.627  23.497  1.00  0.00    -0.224 OA
ATOM     36  O   UNL A   1      28.806  31.249  23.848  1.00  0.00    -0.224 OA
ENDBRANCH  32  33
ENDBRANCH  15  27
ENDBRANCH   7  12
ENDBRANCH   3   6
ENDBRANCH   1   2
BRANCH   1  37
ATOM     37  C   UNL A   1      39.613  19.306  25.912  1.00  0.00     0.042 C 
BRANCH  37  38
ATOM     38  C   UNL A   1      40.932  19.716  26.561  1.00  0.00     0.118 C 
BRANCH  38  39
ATOM     39  N   UNL A   1      42.073  19.101  25.900  1.00  0.00    -0.352 N 
ATOM     40  C   UNL A   1      43.208  19.667  25.380  1.00  0.00     0.251 C 
ATOM     41  H   UNL A   1      42.021  18.123  25.811  1.00  0.00     0.163 HD
ATOM     42  O   UNL A   1      43.939  18.989  24.663  1.00  0.00    -0.269 OA
BRANCH  40  43
ATOM     43  C   UNL A   1      43.566  21.075  25.664  1.00  0.00     0.039 A 
ATOM     44  C   UNL A   1      43.824  21.437  26.990  1.00  0.00     0.014 A 
ATOM     45  C   UNL A   1      43.571  22.051  24.664  1.00  0.00     0.014 A 
ATOM     46  C   UNL A   1      44.110  22.766  27.309  1.00  0.00     0.010 A 
ATOM     47  C   UNL A   1      43.922  23.366  24.972  1.00  0.00     0.010 A 
ATOM     48  C   UNL A   1      44.176  23.739  26.300  1.00  0.00    -0.014 A 
BRANCH  48  49
ATOM     49  C   UNL A   1      44.490  25.151  26.632  1.00  0.00     0.031 A 
ATOM     50  C   UNL A   1      43.424  26.060  27.178  1.00  0.00     0.074 A 
ATOM     51  C   UNL A   1      45.728  25.625  26.402  1.00  0.00     0.049 A 
ATOM     52  N   UNL A   1      43.504  27.325  27.510  1.00  0.00    -0.248 NA
ATOM     53  C   UNL A   1      42.083  25.480  27.346  1.00  0.00     0.031 C 
ATOM     54  C   UNL A   1      46.831  24.858  25.823  1.00  0.00     0.029 A 
ATOM     55  N   UNL A   1      46.267  26.868  26.622  1.00  0.00    -0.354 N 
ATOM     56  C   UNL A   1      42.227  27.693  27.912  1.00  0.00     0.074 A 
ATOM     57  C   UNL A   1      41.379  26.533  27.734  1.00  0.00     0.031 C 
ATOM     58  C   UNL A   1      47.919  25.640  25.747  1.00  0.00     0.029 A 
ATOM     59  C   UNL A   1      47.584  26.969  26.249  1.00  0.00     0.049 A 
ATOM     60  H   UNL A   1      45.757  27.615  27.010  1.00  0.00     0.167 HD
ATOM     61  C   UNL A   1      41.805  28.882  28.406  1.00  0.00     0.037 A 
ATOM     62  C   UNL A   1      48.427  28.018  26.306  1.00  0.00     0.037 A 
ATOM     63  C   UNL A   1      42.658  30.024  28.605  1.00  0.00     0.049 A 
ATOM     64  C   UNL A   1      47.945  29.316  26.888  1.00  0.00     0.074 A 
ATOM     65  C   UNL A   1      42.343  31.252  29.160  1.00  0.00     0.029 A 
ATOM     66  N   UNL A   1      43.999  30.077  28.252  1.00  0.00    -0.354 N 
ATOM     67  N   UNL A   1      46.754  29.629  27.341  1.00  0.00    -0.248 NA
ATOM     68  C   UNL A   1      48.928  30.404  26.984  1.00  0.00     0.031 C 
ATOM     69  C   UNL A   1      43.483  32.063  29.105  1.00  0.00     0.029 A 
ATOM     70  C   UNL A   1      44.521  31.324  28.560  1.00  0.00     0.049 A 
ATOM     71  H   UNL A   1      44.505  29.338  27.843  1.00  0.00     0.167 HD
ATOM     72  C   UNL A   1      46.850  30.937  27.795  1.00  0.00     0.074 A 
ATOM     73  C   UNL A   1      48.220  31.354  27.579  1.00  0.00     0.031 C 
ATOM     74  C   UNL A   1      45.888  31.722  28.339  1.00  0.00     0.037 A 
BRANCH  61  75
ATOM     75  C   UNL A   1      40.352  29.004  28.766  1.00  0.00     0.064 A 
ATOM     76  C   UNL A   1      39.906  28.862  30.090  1.00  0.00     0.173 A 
ATOM     77  C   UNL A   1      39.395  29.290  27.780  1.00  0.00     0.173 A 
ATOM     78  F   UNL A   1      40.778  28.579  31.069  1.00  0.00    -0.203 F 
ATOM     79  C   UNL A   1      38.554  28.966  30.406  1.00  0.00     0.198 A 
ATOM     80  C   UNL A   1      38.047  29.422  28.106  1.00  0.00     0.198 A 
ATOM     81  F   UNL A   1      39.766  29.442  26.501  1.00  0.00    -0.203 F 
ATOM     82  F   UNL A   1      38.147  28.772  31.668  1.00  0.00    -0.200 F 
ATOM     83  C   UNL A   1      37.627  29.251  29.415  1.00  0.00     0.200 A 
ATOM     84  F   UNL A   1      37.153  29.711  27.149  1.00  0.00    -0.200 F 
ATOM     85  F   UNL A   1      36.326  29.353  29.723  1.00  0.00    -0.200 F 
ENDBRANCH  61  75
BRANCH  62  86
ATOM     86  C   UNL A   1      49.824  27.862  25.827  1.00  0.00     0.064 A 
ATOM     87  C   UNL A   1      50.118  27.836  24.456  1.00  0.00     0.173 A 
ATOM     88  C   UNL A   1      50.894  27.754  26.727  1.00  0.00     0.173 A 
ATOM     89  F   UNL A   1      49.126  27.919  23.558  1.00  0.00    -0.203 F 
ATOM     90  C   UNL A   1      51.428  27.695  24.005  1.00  0.00     0.198 A 
ATOM     91  C   UNL A   1      52.206  27.639  26.274  1.00  0.00     0.198 A 
ATOM     92  F   UNL A   1      50.665  27.781  28.048  1.00  0.00    -0.203 F 
ATOM     93  F   UNL A   1      51.678  27.637  22.689  1.00  0.00    -0.200 F 
ATOM     94  C   UNL A   1      52.471  27.603  24.913  1.00  0.00     0.200 A 
ATOM     95  F   UNL A   1      53.213  27.567  27.155  1.00  0.00    -0.200 F 
ATOM     96  F   UNL A   1      53.733  27.476  24.477  1.00  0.00    -0.200 F 
ENDBRANCH  62  86
BRANCH  74  97
ATOM     97  C   UNL A   1      46.293  33.103  28.765  1.00  0.00     0.064 A 
ATOM     98  C   UNL A   1      46.192  34.200  27.896  1.00  0.00     0.173 A 
ATOM     99  C   UNL A   1      46.760  33.336  30.068  1.00  0.00     0.173 A 
ATOM    100  F   UNL A   1      45.766  34.025  26.637  1.00  0.00    -0.203 F 
ATOM    101  C   UNL A   1      46.573  35.475  28.308  1.00  0.00     0.198 A 
ATOM    102  C   UNL A   1      47.113  34.616  30.483  1.00  0.00     0.198 A 
ATOM    103  F   UNL A   1      46.870  32.321  30.939  1.00  0.00    -0.203 F 
ATOM    104  F   UNL A   1      46.516  36.499  27.445  1.00  0.00    -0.200 F 
ATOM    105  C   UNL A   1      47.027  35.682  29.601  1.00  0.00     0.200 A 
ATOM    106  F   UNL A   1      47.541  34.818  31.738  1.00  0.00    -0.200 F 
ATOM    107  F   UNL A   1      47.390  36.911  29.995  1.00  0.00    -0.200 F 
ENDBRANCH  74  97
ENDBRANCH  48  49
ENDBRANCH  40  43
ENDBRANCH  38  39
ENDBRANCH  37  38
ENDBRANCH   1  37
TORSDOF 16
ENDMDL
MODEL 3
REMARK VINA RESULT:     -12.6      5.784     12.469
REMARK SMILES COc1ccc([C@H]2CC(c3ccc(S(C)(=O)=O)cc3)=NN2c2ccc(C(=O)NCCCNC(=O)c3ccc(-c4c5nc(c(-c6c(F)c(F)c(F)c(F)c6F)c6ccc([nH]6)c(-c6c(F)c(F)c(F)c(F)c6F)c6nc(c(-c7c(F)c(F)c(F)c(F)c7F)c7ccc4[nH]7)C=C6)C=C5)cc3)cc2)cc1OC
REMARK SMILES IDX 29 1 28 2 26 3 27 4 25 6 22 7 23 8 99 9 24 10 98 11 21 12
REMARK SMILES IDX 7 13 8 14 9 15 20 16 6 17 3 18 4 19 101 20 5 21 100 22 2 23
REMARK SMILES IDX 1 24 102 25 103 26 10 27 11 28 19 29 12 30 18 31 13 32 14 33
REMARK SMILES IDX 15 34 16 35 17 36 30 37 31 38 32 39 33 40 34 42 35 43 36 44
REMARK SMILES IDX 97 45 37 46 96 47 38 48 39 49 40 50 90 51 41 52 95 53 89 54
REMARK SMILES IDX 91 55 42 56 94 57 88 58 87 59 43 61 75 62 55 63 74 64 56 65
REMARK SMILES IDX 59 66 73 67 92 68 57 69 58 70 72 72 93 73 60 74 44 75 45 76
REMARK SMILES IDX 53 77 46 78 47 79 51 80 54 81 48 82 49 83 52 84 50 85 76 86
REMARK SMILES IDX 77 87 85 88 78 89 79 90 83 91 86 92 80 93 81 94 84 95 82 96
REMARK SMILES IDX 61 97 62 98 70 99 63 100 64 101 68 102 71 103 65 104 66 105
REMARK SMILES IDX 69 106 67 107
REMARK H PARENT 28 5 32 41 91 60 59 71
REMARK Flexibility Score: inf
ROOT
ATOM      1  C   UNL A   1      34.544  34.705  29.556  1.00  0.00     0.118 C 
ENDROOT
BRANCH   1   2
ATOM      2  N   UNL A   1      33.694  34.666  30.730  1.00  0.00    -0.352 N 
ATOM      3  C   UNL A   1      33.937  34.308  32.031  1.00  0.00     0.251 C 
ATOM      4  O   UNL A   1      33.006  34.418  32.829  1.00  0.00    -0.269 OA
ATOM      5  H   UNL A   1      32.766  34.951  30.561  1.00  0.00     0.163 HD
BRANCH   3   6
ATOM      6  C   UNL A   1      35.266  33.846  32.517  1.00  0.00     0.039 A 
ATOM      7  C   UNL A   1      37.712  32.799  33.478  1.00  0.00     0.060 A 
ATOM      8  C   UNL A   1      36.645  31.953  33.159  1.00  0.00     0.029 A 
ATOM      9  C   UNL A   1      37.555  34.169  33.267  1.00  0.00     0.029 A 
ATOM     10  C   UNL A   1      35.430  32.468  32.702  1.00  0.00     0.016 A 
ATOM     11  C   UNL A   1      36.359  34.684  32.755  1.00  0.00     0.016 A 
BRANCH   7  12
ATOM     12  N   UNL A   1      38.894  32.276  33.962  1.00  0.00    -0.257 N 
ATOM     13  C   UNL A   1      39.761  32.925  34.945  1.00  0.00     0.144 C 
ATOM     14  C   UNL A   1      40.962  31.970  35.008  1.00  0.00     0.091 C 
ATOM     15  C   UNL A   1      40.548  30.955  33.979  1.00  0.00     0.071 C 
ATOM     16  N   UNL A   1      39.402  31.150  33.410  1.00  0.00    -0.176 NA
BRANCH  13  17
ATOM     17  C   UNL A   1      39.057  33.087  36.283  1.00  0.00    -0.019 A 
ATOM     18  C   UNL A   1      37.876  33.360  38.831  1.00  0.00     0.160 A 
ATOM     19  C   UNL A   1      37.700  32.186  38.085  1.00  0.00     0.051 A 
ATOM     20  C   UNL A   1      38.641  34.408  38.312  1.00  0.00     0.161 A 
ATOM     21  C   UNL A   1      38.278  32.053  36.817  1.00  0.00     0.010 A 
ATOM     22  C   UNL A   1      39.221  34.257  37.045  1.00  0.00     0.056 A 
BRANCH  18  23
ATOM     23  O   UNL A   1      37.403  33.401  40.116  1.00  0.00    -0.493 OA
ATOM     24  C   UNL A   1      36.229  32.614  40.293  1.00  0.00     0.278 C 
ENDBRANCH  18  23
BRANCH  20  25
ATOM     25  O   UNL A   1      38.951  35.606  38.897  1.00  0.00    -0.493 OA
ATOM     26  C   UNL A   1      39.875  36.453  38.232  1.00  0.00     0.278 C 
ENDBRANCH  20  25
ENDBRANCH  13  17
BRANCH  15  27
ATOM     27  C   UNL A   1      41.423  29.842  33.605  1.00  0.00    -0.002 A 
ATOM     28  C   UNL A   1      42.764  29.889  34.002  1.00  0.00     0.011 A 
ATOM     29  C   UNL A   1      40.936  28.786  32.833  1.00  0.00     0.011 A 
ATOM     30  C   UNL A   1      43.628  28.857  33.640  1.00  0.00     0.021 A 
ATOM     31  C   UNL A   1      41.806  27.764  32.447  1.00  0.00     0.021 A 
ATOM     32  C   UNL A   1      43.146  27.807  32.851  1.00  0.00     0.067 A 
BRANCH  32  33
ATOM     33  S   UNL A   1      44.258  26.504  32.376  1.00  0.00     0.175 S 
ATOM     34  C   UNL A   1      44.154  25.334  33.707  1.00  0.00     0.163 C 
ATOM     35  O   UNL A   1      43.696  25.894  31.182  1.00  0.00    -0.224 OA
ATOM     36  O   UNL A   1      45.599  27.049  32.374  1.00  0.00    -0.224 OA
ENDBRANCH  32  33
ENDBRANCH  15  27
ENDBRANCH   7  12
ENDBRANCH   3   6
ENDBRANCH   1   2
BRANCH   1  37
ATOM     37  C   UNL A   1      34.329  33.467  28.686  1.00  0.00     0.042 C 
BRANCH  37  38
ATOM     38  C   UNL A   1      35.172  32.270  29.119  1.00  0.00     0.118 C 
BRANCH  38  39
ATOM     39  N   UNL A   1      34.556  31.010  28.736  1.00  0.00    -0.352 N 
ATOM     40  C   UNL A   1      35.126  29.824  28.352  1.00  0.00     0.251 C 
ATOM     41  H   UNL A   1      33.572  31.007  28.756  1.00  0.00     0.163 HD
ATOM     42  O   UNL A   1      34.417  28.954  27.853  1.00  0.00    -0.269 OA
BRANCH  40  43
ATOM     43  C   UNL A   1      36.575  29.574  28.525  1.00  0.00     0.039 A 
ATOM     44  C   UNL A   1      37.411  29.739  27.416  1.00  0.00     0.014 A 
ATOM     45  C   UNL A   1      37.105  29.105  29.730  1.00  0.00     0.014 A 
ATOM     46  C   UNL A   1      38.775  29.460  27.521  1.00  0.00     0.010 A 
ATOM     47  C   UNL A   1      38.478  28.890  29.853  1.00  0.00     0.010 A 
ATOM     48  C   UNL A   1      39.322  29.047  28.745  1.00  0.00    -0.014 A 
BRANCH  48  49
ATOM     49  C   UNL A   1      40.773  28.759  28.864  1.00  0.00     0.031 A 
ATOM     50  C   UNL A   1      41.707  29.781  29.451  1.00  0.00     0.074 A 
ATOM     51  C   UNL A   1      41.255  27.589  28.407  1.00  0.00     0.049 A 
ATOM     52  N   UNL A   1      43.004  29.717  29.621  1.00  0.00    -0.248 NA
ATOM     53  C   UNL A   1      41.109  31.056  29.876  1.00  0.00     0.031 C 
ATOM     54  C   UNL A   1      40.459  26.542  27.766  1.00  0.00     0.029 A 
ATOM     55  N   UNL A   1      42.532  27.086  28.403  1.00  0.00    -0.354 N 
ATOM     56  C   UNL A   1      43.377  30.942  30.159  1.00  0.00     0.074 A 
ATOM     57  C   UNL A   1      42.178  31.750  30.238  1.00  0.00     0.031 C 
ATOM     58  C   UNL A   1      41.261  25.515  27.445  1.00  0.00     0.029 A 
ATOM     59  C   UNL A   1      42.630  25.840  27.835  1.00  0.00     0.049 A 
ATOM     60  H   UNL A   1      43.304  27.573  28.772  1.00  0.00     0.167 HD
ATOM     61  C   UNL A   1      44.603  31.349  30.568  1.00  0.00     0.037 A 
ATOM     62  C   UNL A   1      43.704  25.050  27.650  1.00  0.00     0.037 A 
ATOM     63  C   UNL A   1      45.787  30.533  30.510  1.00  0.00     0.049 A 
ATOM     64  C   UNL A   1      45.047  25.508  28.143  1.00  0.00     0.074 A 
ATOM     65  C   UNL A   1      47.062  30.827  30.961  1.00  0.00     0.029 A 
ATOM     66  N   UNL A   1      45.840  29.259  29.964  1.00  0.00    -0.354 N 
ATOM     67  N   UNL A   1      45.374  26.638  28.724  1.00  0.00    -0.248 NA
ATOM     68  C   UNL A   1      46.169  24.576  27.971  1.00  0.00     0.031 C 
ATOM     69  C   UNL A   1      47.897  29.747  30.650  1.00  0.00     0.029 A 
ATOM     70  C   UNL A   1      47.131  28.760  30.049  1.00  0.00     0.049 A 
ATOM     71  H   UNL A   1      45.074  28.779  29.574  1.00  0.00     0.167 HD
ATOM     72  C   UNL A   1      46.729  26.544  29.006  1.00  0.00     0.074 A 
ATOM     73  C   UNL A   1      47.160  25.239  28.550  1.00  0.00     0.031 C 
ATOM     74  C   UNL A   1      47.543  27.458  29.590  1.00  0.00     0.037 A 
BRANCH  61  75
ATOM     75  C   UNL A   1      44.721  32.742  31.118  1.00  0.00     0.064 A 
ATOM     76  C   UNL A   1      44.768  33.864  30.277  1.00  0.00     0.173 A 
ATOM     77  C   UNL A   1      44.765  32.960  32.504  1.00  0.00     0.173 A 
ATOM     78  F   UNL A   1      44.738  33.712  28.945  1.00  0.00    -0.203 F 
ATOM     79  C   UNL A   1      44.890  35.149  30.801  1.00  0.00     0.198 A 
ATOM     80  C   UNL A   1      44.857  34.248  33.025  1.00  0.00     0.198 A 
ATOM     81  F   UNL A   1      44.717  31.923  33.353  1.00  0.00    -0.203 F 
ATOM     82  F   UNL A   1      44.988  36.201  29.976  1.00  0.00    -0.200 F 
ATOM     83  C   UNL A   1      44.929  35.340  32.174  1.00  0.00     0.200 A 
ATOM     84  F   UNL A   1      44.882  34.433  34.353  1.00  0.00    -0.200 F 
ATOM     85  F   UNL A   1      45.045  36.577  32.676  1.00  0.00    -0.200 F 
ENDBRANCH  61  75
BRANCH  62  86
ATOM     86  C   UNL A   1      43.536  23.727  26.996  1.00  0.00     0.064 A 
ATOM     87  C   UNL A   1      42.961  22.650  27.684  1.00  0.00     0.173 A 
ATOM     88  C   UNL A   1      43.928  23.518  25.666  1.00  0.00     0.173 A 
ATOM     89  F   UNL A   1      42.586  22.797  28.963  1.00  0.00    -0.203 F 
ATOM     90  C   UNL A   1      42.798  21.410  27.071  1.00  0.00     0.198 A 
ATOM     91  C   UNL A   1      43.741  22.285  25.046  1.00  0.00     0.198 A 
ATOM     92  F   UNL A   1      44.476  24.520  24.963  1.00  0.00    -0.203 F 
ATOM     93  F   UNL A   1      42.278  20.386  27.764  1.00  0.00    -0.200 F 
ATOM     94  C   UNL A   1      43.181  21.230  25.751  1.00  0.00     0.200 A 
ATOM     95  F   UNL A   1      44.099  22.120  23.765  1.00  0.00    -0.200 F 
ATOM     96  F   UNL A   1      43.016  20.039  25.159  1.00  0.00    -0.200 F 
ENDBRANCH  62  86
BRANCH  74  97
ATOM     97  C   UNL A   1      48.977  27.065  29.792  1.00  0.00     0.064 A 
ATOM     98  C   UNL A   1      49.385  26.317  30.906  1.00  0.00     0.173 A 
ATOM     99  C   UNL A   1      49.950  27.418  28.845  1.00  0.00     0.173 A 
ATOM    100  F   UNL A   1      48.495  25.969  31.848  1.00  0.00    -0.203 F 
ATOM    101  C   UNL A   1      50.721  25.962  31.079  1.00  0.00     0.198 A 
ATOM    102  C   UNL A   1      51.279  27.037  29.007  1.00  0.00     0.198 A 
ATOM    103  F   UNL A   1      49.611  28.129  27.759  1.00  0.00    -0.203 F 
ATOM    104  F   UNL A   1      51.096  25.290  32.176  1.00  0.00    -0.200 F 
ATOM    105  C   UNL A   1      51.664  26.317  30.127  1.00  0.00     0.200 A 
ATOM    106  F   UNL A   1      52.188  27.371  28.080  1.00  0.00    -0.200 F 
ATOM    107  F   UNL A   1      52.948  25.971  30.294  1.00  0.00    -0.200 F 
ENDBRANCH  74  97
ENDBRANCH  48  49
ENDBRANCH  40  43
ENDBRANCH  38  39
ENDBRANCH  37  38
ENDBRANCH   1  37
TORSDOF 16
ENDMDL
