MODEL 1
REMARK VINA RESULT:     -12.7      0.000      0.000
REMARK SMILES N#Cc1ccc(Sc2csc(C(=O)NCCCNC(=O)c3ccc(-c4c5nc(c(-c6c(F)c(F)c(F)c(F)c6F)c6ccc([nH]6)c(-c6c(F)c(F)c(F)c(F)c6F)c6nc(c(-c7c(F)c(F)c(F)c(F)c7F)c7ccc4[nH]7)C=C6)C=C5)cc3)c2)c(F)c1
REMARK SMILES IDX 15 1 14 2 12 3 13 4 11 6 8 7 9 8 84 9 10 10 7 11 6 12 3 13
REMARK SMILES IDX 4 14 87 15 5 16 85 17 86 18 2 19 1 20 16 21 17 22 18 23
REMARK SMILES IDX 19 24 20 26 21 27 22 28 83 29 23 30 82 31 24 32 25 33 26 34
REMARK SMILES IDX 76 35 27 36 81 37 75 38 77 39 28 40 80 41 74 42 73 43 29 45
REMARK SMILES IDX 61 46 41 47 60 48 42 49 45 50 59 51 78 52 43 53 44 54 58 56
REMARK SMILES IDX 79 57 46 58 30 59 31 60 39 61 32 62 33 63 37 64 40 65 34 66
REMARK SMILES IDX 35 67 38 68 36 69 62 70 63 71 71 72 64 73 65 74 69 75 72 76
REMARK SMILES IDX 66 77 67 78 70 79 68 80 47 81 48 82 56 83 49 84 50 85 54 86
REMARK SMILES IDX 57 87 51 88 52 89 55 90 53 91
REMARK H PARENT 14 5 18 25 77 44 45 55
REMARK Flexibility Score: inf
ROOT
ATOM      1  C   UNL A   1      31.606  30.982  26.186  1.00  0.00     0.118 C 
ENDROOT
BRANCH   1   2
ATOM      2  N   UNL A   1      32.672  30.282  26.874  1.00  0.00    -0.351 N 
ATOM      3  C   UNL A   1      33.074  28.968  26.875  1.00  0.00     0.261 C 
ATOM      4  O   UNL A   1      34.060  28.732  27.579  1.00  0.00    -0.268 OA
ATOM      5  H   UNL A   1      33.214  30.861  27.456  1.00  0.00     0.163 HD
BRANCH   3   6
ATOM      6  C   UNL A   1      32.400  27.955  26.073  1.00  0.00     0.093 A 
ATOM      7  C   UNL A   1      30.943  26.750  24.699  1.00  0.00     0.024 A 
ATOM      8  C   UNL A   1      32.060  25.956  24.633  1.00  0.00     0.081 A 
ATOM      9  C   UNL A   1      31.109  27.848  25.587  1.00  0.00     0.041 A 
ATOM     10  S   UNL A   1      33.320  26.566  25.609  1.00  0.00    -0.137 S 
BRANCH   7  11
ATOM     11  S   UNL A   1      29.487  26.526  23.758  1.00  0.00    -0.086 SA
BRANCH  11  12
ATOM     12  C   UNL A   1      29.123  28.109  23.025  1.00  0.00     0.048 A 
ATOM     13  C   UNL A   1      28.424  30.664  22.057  1.00  0.00     0.055 A 
ATOM     14  C   UNL A   1      29.712  30.159  21.856  1.00  0.00     0.021 A 
ATOM     15  C   UNL A   1      27.472  29.882  22.709  1.00  0.00     0.060 A 
ATOM     16  C   UNL A   1      30.057  28.888  22.333  1.00  0.00     0.020 A 
ATOM     17  C   UNL A   1      27.827  28.621  23.183  1.00  0.00     0.138 A 
ATOM     18  F   UNL A   1      26.883  27.904  23.814  1.00  0.00    -0.206 F 
BRANCH  13  19
ATOM     19  C   UNL A   1      28.093  31.988  21.621  1.00  0.00     0.099 C 
ATOM     20  N   UNL A   1      27.809  33.058  21.274  1.00  0.00    -0.192 NA
ENDBRANCH  13  19
ENDBRANCH  11  12
ENDBRANCH   7  11
ENDBRANCH   3   6
ENDBRANCH   1   2
BRANCH   1  21
ATOM     21  C   UNL A   1      31.413  32.381  26.762  1.00  0.00     0.042 C 
BRANCH  21  22
ATOM     22  C   UNL A   1      32.724  33.006  27.240  1.00  0.00     0.118 C 
BRANCH  22  23
ATOM     23  N   UNL A   1      32.534  34.376  27.704  1.00  0.00    -0.352 N 
ATOM     24  C   UNL A   1      33.081  35.038  28.772  1.00  0.00     0.251 C 
ATOM     25  H   UNL A   1      31.911  34.912  27.162  1.00  0.00     0.163 HD
ATOM     26  O   UNL A   1      32.593  36.102  29.141  1.00  0.00    -0.269 OA
BRANCH  24  27
ATOM     27  C   UNL A   1      34.251  34.481  29.479  1.00  0.00     0.039 A 
ATOM     28  C   UNL A   1      34.055  33.840  30.706  1.00  0.00     0.014 A 
ATOM     29  C   UNL A   1      35.540  34.622  28.960  1.00  0.00     0.014 A 
ATOM     30  C   UNL A   1      35.146  33.292  31.381  1.00  0.00     0.010 A 
ATOM     31  C   UNL A   1      36.613  33.999  29.589  1.00  0.00     0.010 A 
ATOM     32  C   UNL A   1      36.428  33.333  30.809  1.00  0.00    -0.014 A 
BRANCH  32  33
ATOM     33  C   UNL A   1      37.584  32.677  31.472  1.00  0.00     0.031 A 
ATOM     34  C   UNL A   1      38.274  31.513  30.817  1.00  0.00     0.074 A 
ATOM     35  C   UNL A   1      37.967  33.094  32.694  1.00  0.00     0.049 A 
ATOM     36  N   UNL A   1      39.254  30.772  31.269  1.00  0.00    -0.248 NA
ATOM     37  C   UNL A   1      37.783  31.106  29.490  1.00  0.00     0.031 C 
ATOM     38  C   UNL A   1      37.343  34.182  33.451  1.00  0.00     0.029 A 
ATOM     39  N   UNL A   1      38.965  32.647  33.525  1.00  0.00    -0.354 N 
ATOM     40  C   UNL A   1      39.481  29.808  30.296  1.00  0.00     0.074 A 
ATOM     41  C   UNL A   1      38.508  30.025  29.249  1.00  0.00     0.031 C 
ATOM     42  C   UNL A   1      37.984  34.332  34.620  1.00  0.00     0.029 A 
ATOM     43  C   UNL A   1      39.029  33.318  34.722  1.00  0.00     0.049 A 
ATOM     44  H   UNL A   1      39.579  31.916  33.284  1.00  0.00     0.167 HD
ATOM     45  C   UNL A   1      40.429  28.841  30.275  1.00  0.00     0.037 A 
ATOM     46  C   UNL A   1      39.823  33.124  35.792  1.00  0.00     0.037 A 
ATOM     47  C   UNL A   1      41.410  28.651  31.310  1.00  0.00     0.049 A 
ATOM     48  C   UNL A   1      40.859  32.029  35.740  1.00  0.00     0.074 A 
ATOM     49  C   UNL A   1      42.462  27.752  31.342  1.00  0.00     0.029 A 
ATOM     50  N   UNL A   1      41.453  29.358  32.501  1.00  0.00    -0.354 N 
ATOM     51  N   UNL A   1      41.123  31.183  34.774  1.00  0.00    -0.248 NA
ATOM     52  C   UNL A   1      41.711  31.868  36.926  1.00  0.00     0.031 C 
ATOM     53  C   UNL A   1      43.090  27.858  32.586  1.00  0.00     0.029 A 
ATOM     54  C   UNL A   1      42.485  28.884  33.295  1.00  0.00     0.049 A 
ATOM     55  H   UNL A   1      40.840  30.089  32.748  1.00  0.00     0.167 HD
ATOM     56  C   UNL A   1      42.191  30.416  35.221  1.00  0.00     0.074 A 
ATOM     57  C   UNL A   1      42.538  30.911  36.535  1.00  0.00     0.031 C 
ATOM     58  C   UNL A   1      42.827  29.393  34.598  1.00  0.00     0.037 A 
BRANCH  45  59
ATOM     59  C   UNL A   1      40.452  27.897  29.106  1.00  0.00     0.064 A 
ATOM     60  C   UNL A   1      39.662  26.739  29.067  1.00  0.00     0.173 A 
ATOM     61  C   UNL A   1      41.222  28.202  27.971  1.00  0.00     0.173 A 
ATOM     62  F   UNL A   1      38.915  26.395  30.127  1.00  0.00    -0.203 F 
ATOM     63  C   UNL A   1      39.655  25.913  27.945  1.00  0.00     0.198 A 
ATOM     64  C   UNL A   1      41.186  27.393  26.840  1.00  0.00     0.198 A 
ATOM     65  F   UNL A   1      41.993  29.301  27.951  1.00  0.00    -0.203 F 
ATOM     66  F   UNL A   1      38.924  24.790  27.948  1.00  0.00    -0.200 F 
ATOM     67  C   UNL A   1      40.408  26.247  26.829  1.00  0.00     0.200 A 
ATOM     68  F   UNL A   1      41.899  27.728  25.755  1.00  0.00    -0.200 F 
ATOM     69  F   UNL A   1      40.383  25.461  25.744  1.00  0.00    -0.200 F 
ENDBRANCH  45  59
BRANCH  46  70
ATOM     70  C   UNL A   1      39.668  33.966  37.010  1.00  0.00     0.064 A 
ATOM     71  C   UNL A   1      38.881  33.545  38.091  1.00  0.00     0.173 A 
ATOM     72  C   UNL A   1      40.271  35.230  37.100  1.00  0.00     0.173 A 
ATOM     73  F   UNL A   1      38.270  32.351  38.050  1.00  0.00    -0.203 F 
ATOM     74  C   UNL A   1      38.666  34.371  39.192  1.00  0.00     0.198 A 
ATOM     75  C   UNL A   1      40.088  36.039  38.220  1.00  0.00     0.198 A 
ATOM     76  F   UNL A   1      41.043  35.681  36.100  1.00  0.00    -0.203 F 
ATOM     77  F   UNL A   1      37.847  33.973  40.175  1.00  0.00    -0.200 F 
ATOM     78  C   UNL A   1      39.271  35.616  39.257  1.00  0.00     0.200 A 
ATOM     79  F   UNL A   1      40.695  37.231  38.288  1.00  0.00    -0.200 F 
ATOM     80  F   UNL A   1      39.060  36.413  40.313  1.00  0.00    -0.200 F 
ENDBRANCH  46  70
BRANCH  58  81
ATOM     81  C   UNL A   1      43.997  28.770  35.307  1.00  0.00     0.064 A 
ATOM     82  C   UNL A   1      43.839  27.720  36.223  1.00  0.00     0.173 A 
ATOM     83  C   UNL A   1      45.303  29.208  35.031  1.00  0.00     0.173 A 
ATOM     84  F   UNL A   1      42.613  27.272  36.532  1.00  0.00    -0.203 F 
ATOM     85  C   UNL A   1      44.941  27.156  36.862  1.00  0.00     0.198 A 
ATOM     86  C   UNL A   1      46.403  28.613  35.639  1.00  0.00     0.198 A 
ATOM     87  F   UNL A   1      45.513  30.203  34.156  1.00  0.00    -0.203 F 
ATOM     88  F   UNL A   1      44.760  26.195  37.779  1.00  0.00    -0.200 F 
ATOM     89  C   UNL A   1      46.221  27.596  36.563  1.00  0.00     0.200 A 
ATOM     90  F   UNL A   1      47.641  29.026  35.332  1.00  0.00    -0.200 F 
ATOM     91  F   UNL A   1      47.280  27.042  37.170  1.00  0.00    -0.200 F 
ENDBRANCH  58  81
ENDBRANCH  32  33
ENDBRANCH  24  27
ENDBRANCH  22  23
ENDBRANCH  21  22
ENDBRANCH   1  21
TORSDOF 13
ENDMDL
MODEL 2
REMARK VINA RESULT:     -12.4      6.803     12.038
REMARK SMILES N#Cc1ccc(Sc2csc(C(=O)NCCCNC(=O)c3ccc(-c4c5nc(c(-c6c(F)c(F)c(F)c(F)c6F)c6ccc([nH]6)c(-c6c(F)c(F)c(F)c(F)c6F)c6nc(c(-c7c(F)c(F)c(F)c(F)c7F)c7ccc4[nH]7)C=C6)C=C5)cc3)c2)c(F)c1
REMARK SMILES IDX 15 1 14 2 12 3 13 4 11 6 8 7 9 8 84 9 10 10 7 11 6 12 3 13
REMARK SMILES IDX 4 14 87 15 5 16 85 17 86 18 2 19 1 20 16 21 17 22 18 23
REMARK SMILES IDX 19 24 20 26 21 27 22 28 83 29 23 30 82 31 24 32 25 33 26 34
REMARK SMILES IDX 76 35 27 36 81 37 75 38 77 39 28 40 80 41 74 42 73 43 29 45
REMARK SMILES IDX 61 46 41 47 60 48 42 49 45 50 59 51 78 52 43 53 44 54 58 56
REMARK SMILES IDX 79 57 46 58 30 59 31 60 39 61 32 62 33 63 37 64 40 65 34 66
REMARK SMILES IDX 35 67 38 68 36 69 62 70 63 71 71 72 64 73 65 74 69 75 72 76
REMARK SMILES IDX 66 77 67 78 70 79 68 80 47 81 48 82 56 83 49 84 50 85 54 86
REMARK SMILES IDX 57 87 51 88 52 89 55 90 53 91
REMARK H PARENT 14 5 18 25 77 44 45 55
REMARK Flexibility Score: inf
ROOT
ATOM      1  C   UNL A   1      37.125  20.344  24.999  1.00  0.00     0.118 C 
ENDROOT
BRANCH   1   2
ATOM      2  N   UNL A   1      37.442  21.704  25.386  1.00  0.00    -0.351 N 
ATOM      3  C   UNL A   1      36.739  22.882  25.309  1.00  0.00     0.261 C 
ATOM      4  O   UNL A   1      37.329  23.864  25.768  1.00  0.00    -0.268 OA
ATOM      5  H   UNL A   1      38.338  21.803  25.781  1.00  0.00     0.163 HD
BRANCH   3   6
ATOM      6  C   UNL A   1      35.392  22.940  24.757  1.00  0.00     0.093 A 
ATOM      7  C   UNL A   1      33.314  22.477  23.793  1.00  0.00     0.024 A 
ATOM      8  C   UNL A   1      33.052  23.692  24.374  1.00  0.00     0.081 A 
ATOM      9  C   UNL A   1      34.673  22.085  23.942  1.00  0.00     0.041 A 
ATOM     10  S   UNL A   1      34.438  24.333  25.134  1.00  0.00    -0.137 S 
BRANCH   7  11
ATOM     11  S   UNL A   1      32.129  21.451  23.019  1.00  0.00    -0.086 SA
BRANCH  11  12
ATOM     12  C   UNL A   1      32.387  19.814  23.675  1.00  0.00     0.048 A 
ATOM     13  C   UNL A   1      32.945  17.187  24.538  1.00  0.00     0.055 A 
ATOM     14  C   UNL A   1      32.807  18.223  25.467  1.00  0.00     0.021 A 
ATOM     15  C   UNL A   1      32.768  17.452  23.181  1.00  0.00     0.060 A 
ATOM     16  C   UNL A   1      32.526  19.527  25.038  1.00  0.00     0.020 A 
ATOM     17  C   UNL A   1      32.492  18.753  22.765  1.00  0.00     0.138 A 
ATOM     18  F   UNL A   1      32.341  18.967  21.448  1.00  0.00    -0.206 F 
BRANCH  13  19
ATOM     19  C   UNL A   1      33.291  15.868  24.976  1.00  0.00     0.099 C 
ATOM     20  N   UNL A   1      33.558  14.798  25.338  1.00  0.00    -0.192 NA
ENDBRANCH  13  19
ENDBRANCH  11  12
ENDBRANCH   7  11
ENDBRANCH   3   6
ENDBRANCH   1   2
BRANCH   1  21
ATOM     21  C   UNL A   1      38.386  19.488  24.931  1.00  0.00     0.042 C 
BRANCH  21  22
ATOM     22  C   UNL A   1      39.445  19.920  25.945  1.00  0.00     0.118 C 
BRANCH  22  23
ATOM     23  N   UNL A   1      40.556  18.977  26.005  1.00  0.00    -0.352 N 
ATOM     24  C   UNL A   1      41.907  19.195  26.057  1.00  0.00     0.251 C 
ATOM     25  H   UNL A   1      40.291  18.028  26.009  1.00  0.00     0.163 HD
ATOM     26  O   UNL A   1      42.681  18.267  25.838  1.00  0.00    -0.269 OA
BRANCH  24  27
ATOM     27  C   UNL A   1      42.439  20.535  26.371  1.00  0.00     0.039 A 
ATOM     28  C   UNL A   1      42.881  21.348  25.324  1.00  0.00     0.014 A 
ATOM     29  C   UNL A   1      42.540  20.977  27.693  1.00  0.00     0.014 A 
ATOM     30  C   UNL A   1      43.370  22.626  25.601  1.00  0.00     0.010 A 
ATOM     31  C   UNL A   1      42.944  22.281  27.959  1.00  0.00     0.010 A 
ATOM     32  C   UNL A   1      43.369  23.117  26.917  1.00  0.00    -0.014 A 
BRANCH  32  33
ATOM     33  C   UNL A   1      43.803  24.505  27.216  1.00  0.00     0.031 A 
ATOM     34  C   UNL A   1      42.808  25.523  27.700  1.00  0.00     0.074 A 
ATOM     35  C   UNL A   1      45.083  24.859  26.991  1.00  0.00     0.049 A 
ATOM     36  N   UNL A   1      42.984  26.796  27.951  1.00  0.00    -0.248 NA
ATOM     37  C   UNL A   1      41.425  25.062  27.903  1.00  0.00     0.031 C 
ATOM     38  C   UNL A   1      46.129  23.971  26.477  1.00  0.00     0.029 A 
ATOM     39  N   UNL A   1      45.724  26.063  27.151  1.00  0.00    -0.354 N 
ATOM     40  C   UNL A   1      41.738  27.285  28.321  1.00  0.00     0.074 A 
ATOM     41  C   UNL A   1      40.803  26.188  28.218  1.00  0.00     0.031 C 
ATOM     42  C   UNL A   1      47.281  24.652  26.385  1.00  0.00     0.029 A 
ATOM     43  C   UNL A   1      47.047  26.037  26.781  1.00  0.00     0.049 A 
ATOM     44  H   UNL A   1      45.278  26.869  27.500  1.00  0.00     0.167 HD
ATOM     45  C   UNL A   1      41.412  28.536  28.725  1.00  0.00     0.037 A 
ATOM     46  C   UNL A   1      47.964  27.023  26.742  1.00  0.00     0.037 A 
ATOM     47  C   UNL A   1      42.355  29.616  28.850  1.00  0.00     0.049 A 
ATOM     48  C   UNL A   1      47.563  28.407  27.187  1.00  0.00     0.074 A 
ATOM     49  C   UNL A   1      42.138  30.896  29.329  1.00  0.00     0.029 A 
ATOM     50  N   UNL A   1      43.690  29.549  28.480  1.00  0.00    -0.354 N 
ATOM     51  N   UNL A   1      46.403  28.834  27.622  1.00  0.00    -0.248 NA
ATOM     52  C   UNL A   1      48.603  29.444  27.141  1.00  0.00     0.031 C 
ATOM     53  C   UNL A   1      43.318  31.627  29.171  1.00  0.00     0.029 A 
ATOM     54  C   UNL A   1      44.296  30.779  28.677  1.00  0.00     0.049 A 
ATOM     55  H   UNL A   1      44.139  28.746  28.128  1.00  0.00     0.167 HD
ATOM     56  C   UNL A   1      46.582  30.176  27.934  1.00  0.00     0.074 A 
ATOM     57  C   UNL A   1      47.968  30.485  27.657  1.00  0.00     0.031 C 
ATOM     58  C   UNL A   1      45.680  31.071  28.407  1.00  0.00     0.037 A 
BRANCH  45  59
ATOM     59  C   UNL A   1      39.973  28.822  29.052  1.00  0.00     0.064 A 
ATOM     60  C   UNL A   1      39.062  29.261  28.081  1.00  0.00     0.173 A 
ATOM     61  C   UNL A   1      39.484  28.575  30.346  1.00  0.00     0.173 A 
ATOM     62  F   UNL A   1      39.477  29.522  26.833  1.00  0.00    -0.203 F 
ATOM     63  C   UNL A   1      37.719  29.461  28.397  1.00  0.00     0.198 A 
ATOM     64  C   UNL A   1      38.136  28.742  30.647  1.00  0.00     0.198 A 
ATOM     65  F   UNL A   1      40.311  28.148  31.313  1.00  0.00    -0.203 F 
ATOM     66  F   UNL A   1      36.875  29.920  27.463  1.00  0.00    -0.200 F 
ATOM     67  C   UNL A   1      37.255  29.189  29.676  1.00  0.00     0.200 A 
ATOM     68  F   UNL A   1      37.687  28.460  31.879  1.00  0.00    -0.200 F 
ATOM     69  F   UNL A   1      35.960  29.361  29.970  1.00  0.00    -0.200 F 
ENDBRANCH  45  59
BRANCH  46  70
ATOM     70  C   UNL A   1      49.343  26.752  26.253  1.00  0.00     0.064 A 
ATOM     71  C   UNL A   1      49.699  26.979  24.916  1.00  0.00     0.173 A 
ATOM     72  C   UNL A   1      50.324  26.221  27.104  1.00  0.00     0.173 A 
ATOM     73  F   UNL A   1      48.794  27.472  24.056  1.00  0.00    -0.203 F 
ATOM     74  C   UNL A   1      50.964  26.642  24.438  1.00  0.00     0.198 A 
ATOM     75  C   UNL A   1      51.602  25.923  26.635  1.00  0.00     0.198 A 
ATOM     76  F   UNL A   1      50.044  25.993  28.395  1.00  0.00    -0.203 F 
ATOM     77  F   UNL A   1      51.250  26.797  23.139  1.00  0.00    -0.200 F 
ATOM     78  C   UNL A   1      51.916  26.117  25.298  1.00  0.00     0.200 A 
ATOM     79  F   UNL A   1      52.526  25.439  27.477  1.00  0.00    -0.200 F 
ATOM     80  F   UNL A   1      53.130  25.789  24.839  1.00  0.00    -0.200 F 
ENDBRANCH  46  70
BRANCH  58  81
ATOM     81  C   UNL A   1      46.173  32.459  28.705  1.00  0.00     0.064 A 
ATOM     82  C   UNL A   1      46.122  33.487  27.751  1.00  0.00     0.173 A 
ATOM     83  C   UNL A   1      46.667  32.774  29.981  1.00  0.00     0.173 A 
ATOM     84  F   UNL A   1      45.671  33.238  26.512  1.00  0.00    -0.203 F 
ATOM     85  C   UNL A   1      46.578  34.768  28.054  1.00  0.00     0.198 A 
ATOM     86  C   UNL A   1      47.082  34.064  30.292  1.00  0.00     0.198 A 
ATOM     87  F   UNL A   1      46.729  31.832  30.934  1.00  0.00    -0.203 F 
ATOM     88  F   UNL A   1      46.577  35.717  27.108  1.00  0.00    -0.200 F 
ATOM     89  C   UNL A   1      47.049  35.057  29.326  1.00  0.00     0.200 A 
ATOM     90  F   UNL A   1      47.516  34.347  31.529  1.00  0.00    -0.200 F 
ATOM     91  F   UNL A   1      47.476  36.294  29.618  1.00  0.00    -0.200 F 
ENDBRANCH  58  81
ENDBRANCH  32  33
ENDBRANCH  24  27
ENDBRANCH  22  23
ENDBRANCH  21  22
ENDBRANCH   1  21
TORSDOF 13
ENDMDL
MODEL 3
REMARK VINA RESULT:     -12.4      2.054      3.824
REMARK SMILES N#Cc1ccc(Sc2csc(C(=O)NCCCNC(=O)c3ccc(-c4c5nc(c(-c6c(F)c(F)c(F)c(F)c6F)c6ccc([nH]6)c(-c6c(F)c(F)c(F)c(F)c6F)c6nc(c(-c7c(F)c(F)c(F)c(F)c7F)c7ccc4[nH]7)C=C6)C=C5)cc3)c2)c(F)c1
REMARK SMILES IDX 15 1 14 2 12 3 13 4 11 6 8 7 9 8 84 9 10 10 7 11 6 12 3 13
REMARK SMILES IDX 4 14 87 15 5 16 85 17 86 18 2 19 1 20 16 21 17 22 18 23
REMARK SMILES IDX 19 24 20 26 21 27 22 28 83 29 23 30 82 31 24 32 25 33 26 34
REMARK SMILES IDX 76 35 27 36 81 37 75 38 77 39 28 40 80 41 74 42 73 43 29 45
REMARK SMILES IDX 61 46 41 47 60 48 42 49 45 50 59 51 78 52 43 53 44 54 58 56
REMARK SMILES IDX 79 57 46 58 30 59 31 60 39 61 32 62 33 63 37 64 40 65 34 66
REMARK SMILES IDX 35 67 38 68 36 69 62 70 63 71 71 72 64 73 65 74 69 75 72 76
REMARK SMILES IDX 66 77 67 78 70 79 68 80 47 81 48 82 56 83 49 84 50 85 54 86
REMARK SMILES IDX 57 87 51 88 52 89 55 90 53 91
REMARK H PARENT 14 5 18 25 77 44 45 55
REMARK Flexibility Score: inf
ROOT
ATOM      1  C   UNL A   1      31.487  30.580  25.817  1.00  0.00     0.118 C 
ENDROOT
BRANCH   1   2
ATOM      2  N   UNL A   1      30.669  30.463  24.626  1.00  0.00    -0.351 N 
ATOM      3  C   UNL A   1      30.603  29.518  23.631  1.00  0.00     0.261 C 
ATOM      4  O   UNL A   1      29.750  29.738  22.767  1.00  0.00    -0.268 OA
ATOM      5  H   UNL A   1      30.036  31.207  24.507  1.00  0.00     0.163 HD
BRANCH   3   6
ATOM      6  C   UNL A   1      31.457  28.337  23.632  1.00  0.00     0.093 A 
ATOM      7  C   UNL A   1      32.331  26.170  23.697  1.00  0.00     0.024 A 
ATOM      8  C   UNL A   1      33.392  26.849  23.151  1.00  0.00     0.081 A 
ATOM      9  C   UNL A   1      31.257  27.034  24.048  1.00  0.00     0.041 A 
ATOM     10  S   UNL A   1      33.066  28.519  23.023  1.00  0.00    -0.137 S 
BRANCH   7  11
ATOM     11  S   UNL A   1      32.231  24.435  23.886  1.00  0.00    -0.086 SA
BRANCH  11  12
ATOM     12  C   UNL A   1      33.883  23.882  24.262  1.00  0.00     0.048 A 
ATOM     13  C   UNL A   1      36.407  22.896  25.043  1.00  0.00     0.055 A 
ATOM     14  C   UNL A   1      36.045  22.925  23.693  1.00  0.00     0.021 A 
ATOM     15  C   UNL A   1      35.526  23.393  26.003  1.00  0.00     0.060 A 
ATOM     16  C   UNL A   1      34.793  23.418  23.305  1.00  0.00     0.020 A 
ATOM     17  C   UNL A   1      34.281  23.878  25.607  1.00  0.00     0.138 A 
ATOM     18  F   UNL A   1      33.458  24.337  26.563  1.00  0.00    -0.206 F 
BRANCH  13  19
ATOM     19  C   UNL A   1      37.664  22.335  25.441  1.00  0.00     0.099 C 
ATOM     20  N   UNL A   1      38.689  21.890  25.752  1.00  0.00    -0.192 NA
ENDBRANCH  13  19
ENDBRANCH  11  12
ENDBRANCH   7  11
ENDBRANCH   3   6
ENDBRANCH   1   2
BRANCH   1  21
ATOM     21  C   UNL A   1      31.273  31.929  26.495  1.00  0.00     0.042 C 
BRANCH  21  22
ATOM     22  C   UNL A   1      32.539  32.455  27.171  1.00  0.00     0.118 C 
BRANCH  22  23
ATOM     23  N   UNL A   1      32.430  33.872  27.499  1.00  0.00    -0.352 N 
ATOM     24  C   UNL A   1      33.047  34.609  28.475  1.00  0.00     0.251 C 
ATOM     25  H   UNL A   1      31.813  34.382  26.925  1.00  0.00     0.163 HD
ATOM     26  O   UNL A   1      32.622  35.728  28.750  1.00  0.00    -0.269 OA
BRANCH  24  27
ATOM     27  C   UNL A   1      34.215  34.069  29.198  1.00  0.00     0.039 A 
ATOM     28  C   UNL A   1      34.001  33.235  30.298  1.00  0.00     0.014 A 
ATOM     29  C   UNL A   1      35.516  34.412  28.820  1.00  0.00     0.014 A 
ATOM     30  C   UNL A   1      35.093  32.700  30.983  1.00  0.00     0.010 A 
ATOM     31  C   UNL A   1      36.601  33.809  29.447  1.00  0.00     0.010 A 
ATOM     32  C   UNL A   1      36.401  32.951  30.539  1.00  0.00    -0.014 A 
BRANCH  32  33
ATOM     33  C   UNL A   1      37.570  32.319  31.202  1.00  0.00     0.031 A 
ATOM     34  C   UNL A   1      38.270  31.156  30.556  1.00  0.00     0.074 A 
ATOM     35  C   UNL A   1      37.956  32.757  32.416  1.00  0.00     0.049 A 
ATOM     36  N   UNL A   1      39.264  30.434  31.011  1.00  0.00    -0.248 NA
ATOM     37  C   UNL A   1      37.776  30.726  29.238  1.00  0.00     0.031 C 
ATOM     38  C   UNL A   1      37.323  33.846  33.163  1.00  0.00     0.029 A 
ATOM     39  N   UNL A   1      38.966  32.333  33.245  1.00  0.00    -0.354 N 
ATOM     40  C   UNL A   1      39.497  29.461  30.048  1.00  0.00     0.074 A 
ATOM     41  C   UNL A   1      38.514  29.651  29.005  1.00  0.00     0.031 C 
ATOM     42  C   UNL A   1      37.970  34.018  34.326  1.00  0.00     0.029 A 
ATOM     43  C   UNL A   1      39.029  33.019  34.433  1.00  0.00     0.049 A 
ATOM     44  H   UNL A   1      39.587  31.606  33.009  1.00  0.00     0.167 HD
ATOM     45  C   UNL A   1      40.457  28.505  30.032  1.00  0.00     0.037 A 
ATOM     46  C   UNL A   1      39.833  32.849  35.500  1.00  0.00     0.037 A 
ATOM     47  C   UNL A   1      41.447  28.341  31.063  1.00  0.00     0.049 A 
ATOM     48  C   UNL A   1      40.882  31.767  35.454  1.00  0.00     0.074 A 
ATOM     49  C   UNL A   1      42.511  27.457  31.099  1.00  0.00     0.029 A 
ATOM     50  N   UNL A   1      41.489  29.064  32.245  1.00  0.00    -0.354 N 
ATOM     51  N   UNL A   1      41.151  30.913  34.497  1.00  0.00    -0.248 NA
ATOM     52  C   UNL A   1      41.744  31.632  36.636  1.00  0.00     0.031 C 
ATOM     53  C   UNL A   1      43.146  27.587  32.337  1.00  0.00     0.029 A 
ATOM     54  C   UNL A   1      42.533  28.613  33.037  1.00  0.00     0.049 A 
ATOM     55  H   UNL A   1      40.869  29.789  32.486  1.00  0.00     0.167 HD
ATOM     56  C   UNL A   1      42.232  30.165  34.946  1.00  0.00     0.074 A 
ATOM     57  C   UNL A   1      42.582  30.681  36.252  1.00  0.00     0.031 C 
ATOM     58  C   UNL A   1      42.877  29.142  34.331  1.00  0.00     0.037 A 
BRANCH  45  59
ATOM     59  C   UNL A   1      40.484  27.548  28.875  1.00  0.00     0.064 A 
ATOM     60  C   UNL A   1      39.674  26.403  28.836  1.00  0.00     0.173 A 
ATOM     61  C   UNL A   1      41.279  27.826  27.751  1.00  0.00     0.173 A 
ATOM     62  F   UNL A   1      38.902  26.085  29.885  1.00  0.00    -0.203 F 
ATOM     63  C   UNL A   1      39.674  25.564  27.723  1.00  0.00     0.198 A 
ATOM     64  C   UNL A   1      41.249  27.003  26.629  1.00  0.00     0.198 A 
ATOM     65  F   UNL A   1      42.070  28.910  27.732  1.00  0.00    -0.203 F 
ATOM     66  F   UNL A   1      38.922  24.454  27.726  1.00  0.00    -0.200 F 
ATOM     67  C   UNL A   1      40.451  25.871  26.617  1.00  0.00     0.200 A 
ATOM     68  F   UNL A   1      41.988  27.313  25.553  1.00  0.00    -0.200 F 
ATOM     69  F   UNL A   1      40.432  25.073  25.541  1.00  0.00    -0.200 F 
ENDBRANCH  45  59
BRANCH  46  70
ATOM     70  C   UNL A   1      39.675  33.704  36.708  1.00  0.00     0.064 A 
ATOM     71  C   UNL A   1      38.841  33.321  37.767  1.00  0.00     0.173 A 
ATOM     72  C   UNL A   1      40.324  34.944  36.810  1.00  0.00     0.173 A 
ATOM     73  F   UNL A   1      38.185  32.151  37.714  1.00  0.00    -0.203 F 
ATOM     74  C   UNL A   1      38.625  34.162  38.858  1.00  0.00     0.198 A 
ATOM     75  C   UNL A   1      40.140  35.766  37.919  1.00  0.00     0.198 A 
ATOM     76  F   UNL A   1      41.143  35.358  35.831  1.00  0.00    -0.203 F 
ATOM     77  F   UNL A   1      37.763  33.803  39.817  1.00  0.00    -0.200 F 
ATOM     78  C   UNL A   1      39.277  35.383  38.934  1.00  0.00     0.200 A 
ATOM     79  F   UNL A   1      40.792  36.935  37.999  1.00  0.00    -0.200 F 
ATOM     80  F   UNL A   1      39.067  36.194  39.979  1.00  0.00    -0.200 F 
ENDBRANCH  46  70
BRANCH  58  81
ATOM     81  C   UNL A   1      44.060  28.544  35.040  1.00  0.00     0.064 A 
ATOM     82  C   UNL A   1      45.357  29.057  34.885  1.00  0.00     0.173 A 
ATOM     83  C   UNL A   1      43.883  27.464  35.919  1.00  0.00     0.173 A 
ATOM     84  F   UNL A   1      45.584  30.080  34.047  1.00  0.00    -0.203 F 
ATOM     85  C   UNL A   1      46.436  28.489  35.557  1.00  0.00     0.198 A 
ATOM     86  C   UNL A   1      44.958  26.926  36.621  1.00  0.00     0.198 A 
ATOM     87  F   UNL A   1      42.664  26.940  36.113  1.00  0.00    -0.203 F 
ATOM     88  F   UNL A   1      47.674  28.957  35.346  1.00  0.00    -0.200 F 
ATOM     89  C   UNL A   1      46.234  27.431  36.431  1.00  0.00     0.200 A 
ATOM     90  F   UNL A   1      44.757  25.919  37.482  1.00  0.00    -0.200 F 
ATOM     91  F   UNL A   1      47.273  26.894  37.087  1.00  0.00    -0.200 F 
ENDBRANCH  58  81
ENDBRANCH  32  33
ENDBRANCH  24  27
ENDBRANCH  22  23
ENDBRANCH  21  22
ENDBRANCH   1  21
TORSDOF 13
ENDMDL
