MODEL 1
REMARK VINA RESULT:     -12.4      0.000      0.000
REMARK SMILES O=C(COc1ccc(/C=N/NC(=O)c2cc3cc([N+](=O)[O-])ccc3o2)cc1)NCCCNC(=O)c1ccc(-c2c3nc(c(-c4c(F)c(F)c(F)c(F)c4F)c4ccc([nH]4)c(-c4c(F)c(F)c(F)c(F)c4F)c4nc(c(-c5c(F)c(F)c(F)c(F)c5F)c5ccc2[nH]5)C=C4)C=C3)cc1
REMARK SMILES IDX 1 1 2 2 28 3 3 5 4 6 5 7 6 8 27 9 7 10 26 11 8 12 9 13 10 14
REMARK SMILES IDX 11 15 12 16 13 18 14 19 15 20 25 21 16 22 24 23 17 24 23 25
REMARK SMILES IDX 18 26 22 27 19 28 20 29 21 30 29 31 30 32 31 33 32 34 33 35
REMARK SMILES IDX 34 37 35 38 36 39 97 40 37 41 96 42 38 43 39 44 40 45 90 46
REMARK SMILES IDX 41 47 95 48 89 49 91 50 42 51 94 52 88 53 87 54 43 56 75 57
REMARK SMILES IDX 55 58 74 59 56 60 59 61 73 62 92 63 57 64 58 65 72 67 93 68
REMARK SMILES IDX 60 69 44 70 45 71 53 72 46 73 47 74 51 75 54 76 48 77 49 78
REMARK SMILES IDX 52 79 50 80 76 81 77 82 85 83 78 84 79 85 83 86 86 87 80 88
REMARK SMILES IDX 81 89 84 90 82 91 61 92 62 93 70 94 63 95 64 96 68 97 71 98
REMARK SMILES IDX 65 99 66 100 69 101 67 102
REMARK H PARENT 28 4 11 17 32 36 91 55 59 66
REMARK Flexibility Score: inf
ROOT
ATOM      1  O   UNL A   1      41.255  21.900  28.190  1.00  0.00    -0.271 OA
ATOM      2  C   UNL A   1      40.763  21.298  27.241  1.00  0.00     0.257 C 
ATOM      3  N   UNL A   1      40.927  19.943  27.031  1.00  0.00    -0.353 N 
ATOM      4  H   UNL A   1      40.347  19.488  26.379  1.00  0.00     0.163 HD
ENDROOT
BRANCH   2   5
ATOM      5  C   UNL A   1      39.950  22.002  26.150  1.00  0.00     0.329 C 
BRANCH   5   6
ATOM      6  O   UNL A   1      38.732  21.365  25.772  1.00  0.00    -0.484 OA
BRANCH   6   7
ATOM      7  C   UNL A   1      37.751  22.190  25.284  1.00  0.00     0.120 A 
ATOM      8  C   UNL A   1      37.387  23.257  26.105  1.00  0.00     0.047 A 
ATOM      9  C   UNL A   1      37.031  21.950  24.111  1.00  0.00     0.047 A 
ATOM     10  C   UNL A   1      36.310  24.077  25.755  1.00  0.00     0.013 A 
ATOM     11  C   UNL A   1      35.934  22.745  23.772  1.00  0.00     0.013 A 
ATOM     12  C   UNL A   1      35.573  23.805  24.596  1.00  0.00    -0.005 A 
BRANCH  12  13
ATOM     13  C   UNL A   1      34.334  24.551  24.286  1.00  0.00     0.141 C 
ATOM     14  N   UNL A   1      34.132  25.701  24.824  1.00  0.00    -0.180 NA
BRANCH  14  15
ATOM     15  N   UNL A   1      32.940  26.334  24.743  1.00  0.00    -0.240 N 
ATOM     16  C   UNL A   1      31.740  26.247  25.408  1.00  0.00     0.307 C 
ATOM     17  H   UNL A   1      32.927  27.022  24.039  1.00  0.00     0.194 HD
ATOM     18  O   UNL A   1      31.048  27.270  25.420  1.00  0.00    -0.264 OA
BRANCH  16  19
ATOM     19  C   UNL A   1      31.210  25.017  25.964  1.00  0.00     0.194 A 
ATOM     20  C   UNL A   1      30.706  23.911  25.287  1.00  0.00     0.065 A 
ATOM     21  O   UNL A   1      31.858  24.577  27.096  1.00  0.00    -0.451 OA
ATOM     22  C   UNL A   1      31.467  22.803  25.768  1.00  0.00     0.028 A 
ATOM     23  C   UNL A   1      32.157  23.270  26.879  1.00  0.00     0.135 A 
ATOM     24  C   UNL A   1      31.761  21.515  25.281  1.00  0.00     0.097 A 
ATOM     25  C   UNL A   1      33.129  22.550  27.571  1.00  0.00     0.055 A 
ATOM     26  C   UNL A   1      32.831  20.820  25.883  1.00  0.00     0.270 A 
ATOM     27  C   UNL A   1      33.496  21.321  27.015  1.00  0.00     0.089 A 
BRANCH  26  28
ATOM     28  N   UNL A   1      33.332  19.595  25.241  1.00  0.00     0.062 N 
ATOM     29  O   UNL A   1      34.406  19.667  24.626  1.00  0.00    -0.258 OA
ATOM     30  O   UNL A   1      32.661  18.561  25.367  1.00  0.00    -0.258 OA
ENDBRANCH  26  28
ENDBRANCH  16  19
ENDBRANCH  14  15
ENDBRANCH  12  13
ENDBRANCH   6   7
ENDBRANCH   5   6
ENDBRANCH   2   5
BRANCH   3  31
ATOM     31  C   UNL A   1      41.927  19.173  27.737  1.00  0.00     0.117 C 
BRANCH  31  32
ATOM     32  C   UNL A   1      42.816  18.355  26.817  1.00  0.00     0.042 C 
BRANCH  32  33
ATOM     33  C   UNL A   1      42.824  18.841  25.373  1.00  0.00     0.118 C 
BRANCH  33  34
ATOM     34  N   UNL A   1      44.092  18.606  24.692  1.00  0.00    -0.352 N 
ATOM     35  C   UNL A   1      45.090  19.483  24.346  1.00  0.00     0.251 C 
ATOM     36  H   UNL A   1      44.259  17.670  24.437  1.00  0.00     0.163 HD
ATOM     37  O   UNL A   1      46.025  19.094  23.649  1.00  0.00    -0.269 OA
BRANCH  35  38
ATOM     38  C   UNL A   1      45.037  20.898  24.775  1.00  0.00     0.039 A 
ATOM     39  C   UNL A   1      45.257  21.201  26.122  1.00  0.00     0.014 A 
ATOM     40  C   UNL A   1      44.768  21.925  23.867  1.00  0.00     0.014 A 
ATOM     41  C   UNL A   1      45.294  22.533  26.538  1.00  0.00     0.010 A 
ATOM     42  C   UNL A   1      44.886  23.255  24.266  1.00  0.00     0.010 A 
ATOM     43  C   UNL A   1      45.159  23.573  25.605  1.00  0.00    -0.014 A 
BRANCH  43  44
ATOM     44  C   UNL A   1      45.335  24.995  26.003  1.00  0.00     0.031 A 
ATOM     45  C   UNL A   1      46.689  25.645  25.942  1.00  0.00     0.074 A 
ATOM     46  C   UNL A   1      44.282  25.679  26.490  1.00  0.00     0.049 A 
ATOM     47  N   UNL A   1      47.047  26.848  26.316  1.00  0.00    -0.248 NA
ATOM     48  C   UNL A   1      47.791  24.828  25.411  1.00  0.00     0.031 C 
ATOM     49  C   UNL A   1      42.926  25.149  26.645  1.00  0.00     0.029 A 
ATOM     50  N   UNL A   1      44.187  26.967  26.958  1.00  0.00    -0.354 N 
ATOM     51  C   UNL A   1      48.413  26.927  26.076  1.00  0.00     0.074 A 
ATOM     52  C   UNL A   1      48.829  25.635  25.576  1.00  0.00     0.031 C 
ATOM     53  C   UNL A   1      42.132  26.106  27.149  1.00  0.00     0.029 A 
ATOM     54  C   UNL A   1      42.929  27.303  27.396  1.00  0.00     0.049 A 
ATOM     55  H   UNL A   1      44.948  27.591  26.977  1.00  0.00     0.167 HD
ATOM     56  C   UNL A   1      49.239  27.990  26.239  1.00  0.00     0.037 A 
ATOM     57  C   UNL A   1      42.471  28.442  27.951  1.00  0.00     0.037 A 
ATOM     58  C   UNL A   1      48.818  29.278  26.726  1.00  0.00     0.049 A 
ATOM     59  C   UNL A   1      43.416  29.596  28.146  1.00  0.00     0.074 A 
ATOM     60  C   UNL A   1      49.568  30.432  26.870  1.00  0.00     0.029 A 
ATOM     61  N   UNL A   1      47.534  29.582  27.156  1.00  0.00    -0.354 N 
ATOM     62  N   UNL A   1      44.689  29.683  27.848  1.00  0.00    -0.248 NA
ATOM     63  C   UNL A   1      42.858  30.814  28.751  1.00  0.00     0.031 C 
ATOM     64  C   UNL A   1      48.755  31.415  27.443  1.00  0.00     0.029 A 
ATOM     65  C   UNL A   1      47.480  30.896  27.596  1.00  0.00     0.049 A 
ATOM     66  H   UNL A   1      46.773  28.956  27.150  1.00  0.00     0.167 HD
ATOM     67  C   UNL A   1      45.078  30.969  28.201  1.00  0.00     0.074 A 
ATOM     68  C   UNL A   1      43.899  31.633  28.718  1.00  0.00     0.031 C 
ATOM     69  C   UNL A   1      46.300  31.547  28.107  1.00  0.00     0.037 A 
BRANCH  56  70
ATOM     70  C   UNL A   1      50.689  27.803  25.892  1.00  0.00     0.064 A 
ATOM     71  C   UNL A   1      51.646  27.481  26.867  1.00  0.00     0.173 A 
ATOM     72  C   UNL A   1      51.121  27.903  24.560  1.00  0.00     0.173 A 
ATOM     73  F   UNL A   1      51.290  27.382  28.156  1.00  0.00    -0.203 F 
ATOM     74  C   UNL A   1      52.983  27.296  26.526  1.00  0.00     0.198 A 
ATOM     75  C   UNL A   1      52.453  27.684  24.218  1.00  0.00     0.198 A 
ATOM     76  F   UNL A   1      50.248  28.202  23.586  1.00  0.00    -0.203 F 
ATOM     77  F   UNL A   1      53.887  27.040  27.482  1.00  0.00    -0.200 F 
ATOM     78  C   UNL A   1      53.384  27.389  25.202  1.00  0.00     0.200 A 
ATOM     79  F   UNL A   1      52.835  27.760  22.936  1.00  0.00    -0.200 F 
ATOM     80  F   UNL A   1      54.670  27.202  24.874  1.00  0.00    -0.200 F 
ENDBRANCH  56  70
BRANCH  57  81
ATOM     81  C   UNL A   1      41.043  28.552  28.351  1.00  0.00     0.064 A 
ATOM     82  C   UNL A   1      40.071  28.991  27.441  1.00  0.00     0.173 A 
ATOM     83  C   UNL A   1      40.621  28.232  29.651  1.00  0.00     0.173 A 
ATOM     84  F   UNL A   1      40.427  29.330  26.194  1.00  0.00    -0.203 F 
ATOM     85  C   UNL A   1      38.738  29.128  27.822  1.00  0.00     0.198 A 
ATOM     86  C   UNL A   1      39.283  28.338  30.020  1.00  0.00     0.198 A 
ATOM     87  F   UNL A   1      41.510  27.803  30.559  1.00  0.00    -0.203 F 
ATOM     88  F   UNL A   1      37.839  29.599  26.946  1.00  0.00    -0.200 F 
ATOM     89  C   UNL A   1      38.343  28.795  29.109  1.00  0.00     0.200 A 
ATOM     90  F   UNL A   1      38.903  28.000  31.261  1.00  0.00    -0.200 F 
ATOM     91  F   UNL A   1      37.060  28.924  29.473  1.00  0.00    -0.200 F 
ENDBRANCH  57  81
BRANCH  69  92
ATOM     92  C   UNL A   1      46.420  32.980  28.540  1.00  0.00     0.064 A 
ATOM     93  C   UNL A   1      46.774  33.330  29.852  1.00  0.00     0.173 A 
ATOM     94  C   UNL A   1      46.211  34.020  27.619  1.00  0.00     0.173 A 
ATOM     95  F   UNL A   1      46.969  32.375  30.774  1.00  0.00    -0.203 F 
ATOM     96  C   UNL A   1      46.884  34.664  30.233  1.00  0.00     0.198 A 
ATOM     97  C   UNL A   1      46.357  35.352  27.996  1.00  0.00     0.198 A 
ATOM     98  F   UNL A   1      45.878  33.743  26.350  1.00  0.00    -0.203 F 
ATOM     99  F   UNL A   1      47.170  34.974  31.506  1.00  0.00    -0.200 F 
ATOM    100  C   UNL A   1      46.684  35.674  29.304  1.00  0.00     0.200 A 
ATOM    101  F   UNL A   1      46.178  36.326  27.092  1.00  0.00    -0.200 F 
ATOM    102  F   UNL A   1      46.798  36.957  29.672  1.00  0.00    -0.200 F 
ENDBRANCH  69  92
ENDBRANCH  43  44
ENDBRANCH  35  38
ENDBRANCH  33  34
ENDBRANCH  32  33
ENDBRANCH  31  32
ENDBRANCH   3  31
TORSDOF 16
ENDMDL
MODEL 2
REMARK VINA RESULT:     -12.3      5.998     11.004
REMARK SMILES O=C(COc1ccc(/C=N/NC(=O)c2cc3cc([N+](=O)[O-])ccc3o2)cc1)NCCCNC(=O)c1ccc(-c2c3nc(c(-c4c(F)c(F)c(F)c(F)c4F)c4ccc([nH]4)c(-c4c(F)c(F)c(F)c(F)c4F)c4nc(c(-c5c(F)c(F)c(F)c(F)c5F)c5ccc2[nH]5)C=C4)C=C3)cc1
REMARK SMILES IDX 1 1 2 2 28 3 3 5 4 6 5 7 6 8 27 9 7 10 26 11 8 12 9 13 10 14
REMARK SMILES IDX 11 15 12 16 13 18 14 19 15 20 25 21 16 22 24 23 17 24 23 25
REMARK SMILES IDX 18 26 22 27 19 28 20 29 21 30 29 31 30 32 31 33 32 34 33 35
REMARK SMILES IDX 34 37 35 38 36 39 97 40 37 41 96 42 38 43 39 44 40 45 90 46
REMARK SMILES IDX 41 47 95 48 89 49 91 50 42 51 94 52 88 53 87 54 43 56 75 57
REMARK SMILES IDX 55 58 74 59 56 60 59 61 73 62 92 63 57 64 58 65 72 67 93 68
REMARK SMILES IDX 60 69 44 70 45 71 53 72 46 73 47 74 51 75 54 76 48 77 49 78
REMARK SMILES IDX 52 79 50 80 76 81 77 82 85 83 78 84 79 85 83 86 86 87 80 88
REMARK SMILES IDX 81 89 84 90 82 91 61 92 62 93 70 94 63 95 64 96 68 97 71 98
REMARK SMILES IDX 65 99 66 100 69 101 67 102
REMARK H PARENT 28 4 11 17 32 36 91 55 59 66
REMARK Flexibility Score: inf
ROOT
ATOM      1  O   UNL A   1      29.143  30.653  23.581  1.00  0.00    -0.271 OA
ATOM      2  C   UNL A   1      30.206  30.109  23.862  1.00  0.00     0.257 C 
ATOM      3  N   UNL A   1      31.012  30.509  24.909  1.00  0.00    -0.353 N 
ATOM      4  H   UNL A   1      31.736  29.912  25.209  1.00  0.00     0.163 HD
ENDROOT
BRANCH   2   5
ATOM      5  C   UNL A   1      30.781  28.950  23.043  1.00  0.00     0.329 C 
BRANCH   5   6
ATOM      6  O   UNL A   1      30.675  27.656  23.632  1.00  0.00    -0.484 OA
BRANCH   6   7
ATOM      7  C   UNL A   1      31.858  27.060  23.986  1.00  0.00     0.120 A 
ATOM      8  C   UNL A   1      32.237  25.955  23.225  1.00  0.00     0.047 A 
ATOM      9  C   UNL A   1      32.609  27.407  25.112  1.00  0.00     0.047 A 
ATOM     10  C   UNL A   1      33.360  25.204  23.587  1.00  0.00     0.013 A 
ATOM     11  C   UNL A   1      33.712  26.642  25.498  1.00  0.00     0.013 A 
ATOM     12  C   UNL A   1      34.083  25.540  24.737  1.00  0.00    -0.005 A 
BRANCH  12  13
ATOM     13  C   UNL A   1      35.171  24.671  25.236  1.00  0.00     0.141 C 
ATOM     14  N   UNL A   1      35.937  24.066  24.398  1.00  0.00    -0.180 NA
BRANCH  14  15
ATOM     15  N   UNL A   1      36.810  23.108  24.785  1.00  0.00    -0.240 N 
ATOM     16  C   UNL A   1      36.719  21.773  25.099  1.00  0.00     0.307 C 
ATOM     17  H   UNL A   1      37.731  23.448  24.859  1.00  0.00     0.194 HD
ATOM     18  O   UNL A   1      37.744  21.103  24.932  1.00  0.00    -0.264 OA
BRANCH  16  19
ATOM     19  C   UNL A   1      35.558  21.163  25.716  1.00  0.00     0.194 A 
ATOM     20  C   UNL A   1      34.938  21.507  26.914  1.00  0.00     0.065 A 
ATOM     21  O   UNL A   1      34.591  20.749  24.828  1.00  0.00    -0.451 OA
ATOM     22  C   UNL A   1      33.573  21.746  26.569  1.00  0.00     0.028 A 
ATOM     23  C   UNL A   1      33.417  21.263  25.278  1.00  0.00     0.135 A 
ATOM     24  C   UNL A   1      32.513  22.463  27.157  1.00  0.00     0.097 A 
ATOM     25  C   UNL A   1      32.270  21.424  24.502  1.00  0.00     0.055 A 
ATOM     26  C   UNL A   1      31.395  22.752  26.346  1.00  0.00     0.270 A 
ATOM     27  C   UNL A   1      31.268  22.233  25.046  1.00  0.00     0.089 A 
BRANCH  26  28
ATOM     28  N   UNL A   1      30.392  23.710  26.836  1.00  0.00     0.062 N 
ATOM     29  O   UNL A   1      30.543  24.904  26.537  1.00  0.00    -0.258 OA
ATOM     30  O   UNL A   1      29.447  23.266  27.503  1.00  0.00    -0.258 OA
ENDBRANCH  26  28
ENDBRANCH  16  19
ENDBRANCH  14  15
ENDBRANCH  12  13
ENDBRANCH   6   7
ENDBRANCH   5   6
ENDBRANCH   2   5
BRANCH   3  31
ATOM     31  C   UNL A   1      30.828  31.777  25.580  1.00  0.00     0.117 C 
BRANCH  31  32
ATOM     32  C   UNL A   1      31.415  31.808  26.979  1.00  0.00     0.042 C 
BRANCH  32  33
ATOM     33  C   UNL A   1      32.661  32.675  27.108  1.00  0.00     0.118 C 
BRANCH  33  34
ATOM     34  N   UNL A   1      32.369  34.053  27.485  1.00  0.00    -0.352 N 
ATOM     35  C   UNL A   1      32.944  34.854  28.440  1.00  0.00     0.251 C 
ATOM     36  H   UNL A   1      31.643  34.478  26.973  1.00  0.00     0.163 HD
ATOM     37  O   UNL A   1      32.452  35.953  28.688  1.00  0.00    -0.269 OA
BRANCH  35  38
ATOM     38  C   UNL A   1      34.128  34.395  29.200  1.00  0.00     0.039 A 
ATOM     39  C   UNL A   1      33.930  33.705  30.399  1.00  0.00     0.014 A 
ATOM     40  C   UNL A   1      35.426  34.642  28.746  1.00  0.00     0.014 A 
ATOM     41  C   UNL A   1      35.027  33.188  31.093  1.00  0.00     0.010 A 
ATOM     42  C   UNL A   1      36.513  34.058  29.394  1.00  0.00     0.010 A 
ATOM     43  C   UNL A   1      36.323  33.317  30.570  1.00  0.00    -0.014 A 
BRANCH  43  44
ATOM     44  C   UNL A   1      37.486  32.655  31.219  1.00  0.00     0.031 A 
ATOM     45  C   UNL A   1      38.192  31.513  30.545  1.00  0.00     0.074 A 
ATOM     46  C   UNL A   1      37.861  33.042  32.455  1.00  0.00     0.049 A 
ATOM     47  N   UNL A   1      39.174  30.769  30.988  1.00  0.00    -0.248 NA
ATOM     48  C   UNL A   1      37.715  31.141  29.204  1.00  0.00     0.031 C 
ATOM     49  C   UNL A   1      37.228  34.106  33.236  1.00  0.00     0.029 A 
ATOM     50  N   UNL A   1      38.856  32.576  33.278  1.00  0.00    -0.354 N 
ATOM     51  C   UNL A   1      39.425  29.838  29.988  1.00  0.00     0.074 A 
ATOM     52  C   UNL A   1      38.458  30.076  28.938  1.00  0.00     0.031 C 
ATOM     53  C   UNL A   1      37.863  34.226  34.412  1.00  0.00     0.029 A 
ATOM     54  C   UNL A   1      38.917  33.219  34.490  1.00  0.00     0.049 A 
ATOM     55  H   UNL A   1      39.470  31.849  33.023  1.00  0.00     0.167 HD
ATOM     56  C   UNL A   1      40.389  28.886  29.942  1.00  0.00     0.037 A 
ATOM     57  C   UNL A   1      39.719  33.013  35.552  1.00  0.00     0.037 A 
ATOM     58  C   UNL A   1      41.358  28.661  30.984  1.00  0.00     0.049 A 
ATOM     59  C   UNL A   1      40.763  31.931  35.484  1.00  0.00     0.074 A 
ATOM     60  C   UNL A   1      42.409  27.761  31.003  1.00  0.00     0.029 A 
ATOM     61  N   UNL A   1      41.390  29.337  32.195  1.00  0.00    -0.354 N 
ATOM     62  N   UNL A   1      41.038  31.106  34.504  1.00  0.00    -0.248 NA
ATOM     63  C   UNL A   1      41.612  31.755  36.671  1.00  0.00     0.031 C 
ATOM     64  C   UNL A   1      43.039  27.850  32.248  1.00  0.00     0.029 A 
ATOM     65  C   UNL A   1      42.423  28.850  32.982  1.00  0.00     0.049 A 
ATOM     66  H   UNL A   1      40.770  30.057  32.458  1.00  0.00     0.167 HD
ATOM     67  C   UNL A   1      42.106  30.334  34.942  1.00  0.00     0.074 A 
ATOM     68  C   UNL A   1      42.442  30.803  36.270  1.00  0.00     0.031 C 
ATOM     69  C   UNL A   1      42.750  29.327  34.302  1.00  0.00     0.037 A 
BRANCH  56  70
ATOM     70  C   UNL A   1      40.443  28.009  28.723  1.00  0.00     0.064 A 
ATOM     71  C   UNL A   1      41.206  28.357  27.597  1.00  0.00     0.173 A 
ATOM     72  C   UNL A   1      39.760  26.783  28.697  1.00  0.00     0.173 A 
ATOM     73  F   UNL A   1      41.871  29.521  27.566  1.00  0.00    -0.203 F 
ATOM     74  C   UNL A   1      41.258  27.525  26.482  1.00  0.00     0.198 A 
ATOM     75  C   UNL A   1      39.842  25.939  27.593  1.00  0.00     0.198 A 
ATOM     76  F   UNL A   1      39.022  26.397  29.748  1.00  0.00    -0.203 F 
ATOM     77  F   UNL A   1      41.952  27.903  25.399  1.00  0.00    -0.200 F 
ATOM     78  C   UNL A   1      40.584  26.314  26.483  1.00  0.00     0.200 A 
ATOM     79  F   UNL A   1      39.202  24.761  27.603  1.00  0.00    -0.200 F 
ATOM     80  F   UNL A   1      40.643  25.511  25.412  1.00  0.00    -0.200 F 
ENDBRANCH  56  70
BRANCH  57  81
ATOM     81  C   UNL A   1      39.576  33.857  36.767  1.00  0.00     0.064 A 
ATOM     82  C   UNL A   1      38.785  33.439  37.847  1.00  0.00     0.173 A 
ATOM     83  C   UNL A   1      40.216  35.102  36.872  1.00  0.00     0.173 A 
ATOM     84  F   UNL A   1      38.135  32.268  37.786  1.00  0.00    -0.203 F 
ATOM     85  C   UNL A   1      38.621  34.242  38.973  1.00  0.00     0.198 A 
ATOM     86  C   UNL A   1      40.078  35.889  38.013  1.00  0.00     0.198 A 
ATOM     87  F   UNL A   1      40.987  35.546  35.870  1.00  0.00    -0.203 F 
ATOM     88  F   UNL A   1      37.818  33.841  39.968  1.00  0.00    -0.200 F 
ATOM     89  C   UNL A   1      39.272  35.463  39.059  1.00  0.00     0.200 A 
ATOM     90  F   UNL A   1      40.722  37.061  38.097  1.00  0.00    -0.200 F 
ATOM     91  F   UNL A   1      39.117  36.234  40.144  1.00  0.00    -0.200 F 
ENDBRANCH  57  81
BRANCH  69  92
ATOM     92  C   UNL A   1      43.906  28.686  35.015  1.00  0.00     0.064 A 
ATOM     93  C   UNL A   1      43.731  27.589  35.872  1.00  0.00     0.173 A 
ATOM     94  C   UNL A   1      45.214  29.155  34.811  1.00  0.00     0.173 A 
ATOM     95  F   UNL A   1      42.500  27.112  36.113  1.00  0.00    -0.203 F 
ATOM     96  C   UNL A   1      44.816  27.005  36.520  1.00  0.00     0.198 A 
ATOM     97  C   UNL A   1      46.300  28.546  35.434  1.00  0.00     0.198 A 
ATOM     98  F   UNL A   1      45.440  30.196  33.997  1.00  0.00    -0.203 F 
ATOM     99  F   UNL A   1      44.617  25.993  37.377  1.00  0.00    -0.200 F 
ATOM    100  C   UNL A   1      46.100  27.479  36.295  1.00  0.00     0.200 A 
ATOM    101  F   UNL A   1      47.542  28.996  35.203  1.00  0.00    -0.200 F 
ATOM    102  F   UNL A   1      47.143  26.911  36.915  1.00  0.00    -0.200 F 
ENDBRANCH  69  92
ENDBRANCH  43  44
ENDBRANCH  35  38
ENDBRANCH  33  34
ENDBRANCH  32  33
ENDBRANCH  31  32
ENDBRANCH   3  31
TORSDOF 16
ENDMDL
MODEL 3
REMARK VINA RESULT:     -12.2      6.783     12.518
REMARK SMILES O=C(COc1ccc(/C=N/NC(=O)c2cc3cc([N+](=O)[O-])ccc3o2)cc1)NCCCNC(=O)c1ccc(-c2c3nc(c(-c4c(F)c(F)c(F)c(F)c4F)c4ccc([nH]4)c(-c4c(F)c(F)c(F)c(F)c4F)c4nc(c(-c5c(F)c(F)c(F)c(F)c5F)c5ccc2[nH]5)C=C4)C=C3)cc1
REMARK SMILES IDX 1 1 2 2 28 3 3 5 4 6 5 7 6 8 27 9 7 10 26 11 8 12 9 13 10 14
REMARK SMILES IDX 11 15 12 16 13 18 14 19 15 20 25 21 16 22 24 23 17 24 23 25
REMARK SMILES IDX 18 26 22 27 19 28 20 29 21 30 29 31 30 32 31 33 32 34 33 35
REMARK SMILES IDX 34 37 35 38 36 39 97 40 37 41 96 42 38 43 39 44 40 45 90 46
REMARK SMILES IDX 41 47 95 48 89 49 91 50 42 51 94 52 88 53 87 54 43 56 75 57
REMARK SMILES IDX 55 58 74 59 56 60 59 61 73 62 92 63 57 64 58 65 72 67 93 68
REMARK SMILES IDX 60 69 44 70 45 71 53 72 46 73 47 74 51 75 54 76 48 77 49 78
REMARK SMILES IDX 52 79 50 80 76 81 77 82 85 83 78 84 79 85 83 86 86 87 80 88
REMARK SMILES IDX 81 89 84 90 82 91 61 92 62 93 70 94 63 95 64 96 68 97 71 98
REMARK SMILES IDX 65 99 66 100 69 101 67 102
REMARK H PARENT 28 4 11 17 32 36 91 55 59 66
REMARK Flexibility Score: inf
ROOT
ATOM      1  O   UNL A   1      36.608  32.916  28.267  1.00  0.00    -0.271 OA
ATOM      2  C   UNL A   1      35.416  32.637  28.192  1.00  0.00     0.257 C 
ATOM      3  N   UNL A   1      34.421  33.580  28.030  1.00  0.00    -0.353 N 
ATOM      4  H   UNL A   1      33.518  33.283  27.772  1.00  0.00     0.163 HD
ENDROOT
BRANCH   2   5
ATOM      5  C   UNL A   1      34.895  31.201  28.321  1.00  0.00     0.329 C 
BRANCH   5   6
ATOM      6  O   UNL A   1      33.577  30.969  27.830  1.00  0.00    -0.484 OA
BRANCH   6   7
ATOM      7  C   UNL A   1      33.366  29.752  27.234  1.00  0.00     0.120 A 
ATOM      8  C   UNL A   1      32.070  29.244  27.326  1.00  0.00     0.047 A 
ATOM      9  C   UNL A   1      34.374  28.962  26.677  1.00  0.00     0.047 A 
ATOM     10  C   UNL A   1      31.787  27.955  26.863  1.00  0.00     0.013 A 
ATOM     11  C   UNL A   1      34.106  27.662  26.243  1.00  0.00     0.013 A 
ATOM     12  C   UNL A   1      32.813  27.160  26.339  1.00  0.00    -0.005 A 
BRANCH  12  13
ATOM     13  C   UNL A   1      32.579  25.741  25.996  1.00  0.00     0.141 C 
ATOM     14  N   UNL A   1      33.554  24.904  26.052  1.00  0.00    -0.180 NA
BRANCH  14  15
ATOM     15  N   UNL A   1      33.453  23.648  25.559  1.00  0.00    -0.240 N 
ATOM     16  C   UNL A   1      33.510  23.083  24.307  1.00  0.00     0.307 C 
ATOM     17  H   UNL A   1      33.301  22.979  26.264  1.00  0.00     0.194 HD
ATOM     18  O   UNL A   1      33.866  21.900  24.259  1.00  0.00    -0.264 OA
BRANCH  16  19
ATOM     19  C   UNL A   1      33.066  23.746  23.097  1.00  0.00     0.194 A 
ATOM     20  C   UNL A   1      31.772  24.112  22.740  1.00  0.00     0.065 A 
ATOM     21  O   UNL A   1      33.937  24.698  22.616  1.00  0.00    -0.451 OA
ATOM     22  C   UNL A   1      31.844  25.512  22.468  1.00  0.00     0.028 A 
ATOM     23  C   UNL A   1      33.197  25.817  22.404  1.00  0.00     0.135 A 
ATOM     24  C   UNL A   1      30.910  26.565  22.432  1.00  0.00     0.097 A 
ATOM     25  C   UNL A   1      33.717  27.106  22.295  1.00  0.00     0.055 A 
ATOM     26  C   UNL A   1      31.414  27.883  22.456  1.00  0.00     0.270 A 
ATOM     27  C   UNL A   1      32.792  28.151  22.377  1.00  0.00     0.089 A 
BRANCH  26  28
ATOM     28  N   UNL A   1      30.479  28.995  22.680  1.00  0.00     0.062 N 
ATOM     29  O   UNL A   1      29.847  29.422  21.702  1.00  0.00    -0.258 OA
ATOM     30  O   UNL A   1      30.363  29.429  23.835  1.00  0.00    -0.258 OA
ENDBRANCH  26  28
ENDBRANCH  16  19
ENDBRANCH  14  15
ENDBRANCH  12  13
ENDBRANCH   6   7
ENDBRANCH   5   6
ENDBRANCH   2   5
BRANCH   3  31
ATOM     31  C   UNL A   1      34.662  34.992  28.231  1.00  0.00     0.117 C 
BRANCH  31  32
ATOM     32  C   UNL A   1      33.421  35.761  28.648  1.00  0.00     0.042 C 
BRANCH  32  33
ATOM     33  C   UNL A   1      33.581  36.533  29.951  1.00  0.00     0.118 C 
BRANCH  33  34
ATOM     34  N   UNL A   1      32.492  36.308  30.894  1.00  0.00    -0.352 N 
ATOM     35  C   UNL A   1      32.457  35.573  32.053  1.00  0.00     0.251 C 
ATOM     36  H   UNL A   1      31.645  36.754  30.662  1.00  0.00     0.163 HD
ATOM     37  O   UNL A   1      31.386  35.405  32.633  1.00  0.00    -0.269 OA
BRANCH  35  38
ATOM     38  C   UNL A   1      33.687  34.953  32.593  1.00  0.00     0.039 A 
ATOM     39  C   UNL A   1      33.598  33.688  33.181  1.00  0.00     0.014 A 
ATOM     40  C   UNL A   1      34.920  35.606  32.530  1.00  0.00     0.014 A 
ATOM     41  C   UNL A   1      34.756  33.044  33.624  1.00  0.00     0.010 A 
ATOM     42  C   UNL A   1      36.083  34.932  32.896  1.00  0.00     0.010 A 
ATOM     43  C   UNL A   1      36.014  33.640  33.439  1.00  0.00    -0.014 A 
BRANCH  43  44
ATOM     44  C   UNL A   1      37.267  32.913  33.774  1.00  0.00     0.031 A 
ATOM     45  C   UNL A   1      38.017  33.222  35.040  1.00  0.00     0.074 A 
ATOM     46  C   UNL A   1      37.767  32.020  32.898  1.00  0.00     0.049 A 
ATOM     47  N   UNL A   1      39.161  32.744  35.462  1.00  0.00    -0.248 NA
ATOM     48  C   UNL A   1      37.413  34.218  35.939  1.00  0.00     0.031 C 
ATOM     49  C   UNL A   1      37.161  31.664  31.614  1.00  0.00     0.029 A 
ATOM     50  N   UNL A   1      38.908  31.257  32.946  1.00  0.00    -0.354 N 
ATOM     51  C   UNL A   1      39.417  33.387  36.667  1.00  0.00     0.074 A 
ATOM     52  C   UNL A   1      38.338  34.327  36.881  1.00  0.00     0.031 C 
ATOM     53  C   UNL A   1      37.921  30.739  31.008  1.00  0.00     0.029 A 
ATOM     54  C   UNL A   1      39.092  30.469  31.836  1.00  0.00     0.049 A 
ATOM     55  H   UNL A   1      39.536  31.273  33.705  1.00  0.00     0.167 HD
ATOM     56  C   UNL A   1      40.449  33.193  37.525  1.00  0.00     0.037 A 
ATOM     57  C   UNL A   1      40.099  29.634  31.512  1.00  0.00     0.037 A 
ATOM     58  C   UNL A   1      41.514  32.247  37.313  1.00  0.00     0.049 A 
ATOM     59  C   UNL A   1      41.245  29.459  32.470  1.00  0.00     0.074 A 
ATOM     60  C   UNL A   1      42.570  31.938  38.152  1.00  0.00     0.029 A 
ATOM     61  N   UNL A   1      41.663  31.463  36.178  1.00  0.00    -0.354 N 
ATOM     62  N   UNL A   1      41.440  30.018  33.640  1.00  0.00    -0.248 NA
ATOM     63  C   UNL A   1      42.311  28.532  32.066  1.00  0.00     0.031 C 
ATOM     64  C   UNL A   1      43.391  31.012  37.499  1.00  0.00     0.029 A 
ATOM     65  C   UNL A   1      42.813  30.694  36.282  1.00  0.00     0.049 A 
ATOM     66  H   UNL A   1      41.044  31.454  35.412  1.00  0.00     0.167 HD
ATOM     67  C   UNL A   1      42.631  29.491  34.122  1.00  0.00     0.074 A 
ATOM     68  C   UNL A   1      43.104  28.553  33.127  1.00  0.00     0.031 C 
ATOM     69  C   UNL A   1      43.274  29.761  35.284  1.00  0.00     0.037 A 
BRANCH  56  70
ATOM     70  C   UNL A   1      40.479  34.026  38.775  1.00  0.00     0.064 A 
ATOM     71  C   UNL A   1      41.147  35.260  38.824  1.00  0.00     0.173 A 
ATOM     72  C   UNL A   1      39.794  33.608  39.926  1.00  0.00     0.173 A 
ATOM     73  F   UNL A   1      41.825  35.703  37.755  1.00  0.00    -0.203 F 
ATOM     74  C   UNL A   1      41.152  36.027  39.985  1.00  0.00     0.198 A 
ATOM     75  C   UNL A   1      39.773  34.394  41.075  1.00  0.00     0.198 A 
ATOM     76  F   UNL A   1      39.133  32.441  39.934  1.00  0.00    -0.203 F 
ATOM     77  F   UNL A   1      41.840  37.177  40.024  1.00  0.00    -0.200 F 
ATOM     78  C   UNL A   1      40.460  35.598  41.107  1.00  0.00     0.200 A 
ATOM     79  F   UNL A   1      39.090  33.984  42.154  1.00  0.00    -0.200 F 
ATOM     80  F   UNL A   1      40.458  36.343  42.221  1.00  0.00    -0.200 F 
ENDBRANCH  56  70
BRANCH  57  81
ATOM     81  C   UNL A   1      40.062  28.889  30.225  1.00  0.00     0.064 A 
ATOM     82  C   UNL A   1      40.636  29.426  29.065  1.00  0.00     0.173 A 
ATOM     83  C   UNL A   1      39.445  27.632  30.126  1.00  0.00     0.173 A 
ATOM     84  F   UNL A   1      41.217  30.634  29.103  1.00  0.00    -0.203 F 
ATOM     85  C   UNL A   1      40.573  28.747  27.850  1.00  0.00     0.198 A 
ATOM     86  C   UNL A   1      39.413  26.940  28.918  1.00  0.00     0.198 A 
ATOM     87  F   UNL A   1      38.885  27.072  31.208  1.00  0.00    -0.203 F 
ATOM     88  F   UNL A   1      41.085  29.307  26.745  1.00  0.00    -0.200 F 
ATOM     89  C   UNL A   1      39.968  27.501  27.778  1.00  0.00     0.200 A 
ATOM     90  F   UNL A   1      38.840  25.729  28.858  1.00  0.00    -0.200 F 
ATOM     91  F   UNL A   1      39.911  26.847  26.611  1.00  0.00    -0.200 F 
ENDBRANCH  57  81
BRANCH  69  92
ATOM     92  C   UNL A   1      44.543  29.008  35.561  1.00  0.00     0.064 A 
ATOM     93  C   UNL A   1      45.794  29.486  35.141  1.00  0.00     0.173 A 
ATOM     94  C   UNL A   1      44.512  27.805  36.285  1.00  0.00     0.173 A 
ATOM     95  F   UNL A   1      45.878  30.622  34.432  1.00  0.00    -0.203 F 
ATOM     96  C   UNL A   1      46.960  28.775  35.410  1.00  0.00     0.198 A 
ATOM     97  C   UNL A   1      45.684  27.115  36.582  1.00  0.00     0.198 A 
ATOM     98  F   UNL A   1      43.345  27.305  36.716  1.00  0.00    -0.203 F 
ATOM     99  F   UNL A   1      48.137  29.225  34.952  1.00  0.00    -0.200 F 
ATOM    100  C   UNL A   1      46.906  27.595  36.137  1.00  0.00     0.200 A 
ATOM    101  F   UNL A   1      45.631  25.983  37.299  1.00  0.00    -0.200 F 
ATOM    102  F   UNL A   1      48.031  26.917  36.401  1.00  0.00    -0.200 F 
ENDBRANCH  69  92
ENDBRANCH  43  44
ENDBRANCH  35  38
ENDBRANCH  33  34
ENDBRANCH  32  33
ENDBRANCH  31  32
ENDBRANCH   3  31
TORSDOF 16
ENDMDL
