MODEL 1
REMARK VINA RESULT:     -12.3      0.000      0.000
REMARK SMILES Cc1ccc2nc(CC3(CC(=O)NCCCNC(=O)c4ccc(-c5c6nc(c(-c7c(F)c(F)c(F)c(F)c7F)c7ccc([nH]7)c(-c7c(F)c(F)c(F)c(F)c7F)c7nc(c(-c8c(F)c(F)c(F)c(F)c8F)c8ccc5[nH]8)C=C7)C=C6)cc4)CCCCC3)sc2c1
REMARK SMILES IDX 14 1 13 2 11 3 12 4 10 6 9 7 83 8 87 9 84 10 86 11 85 12
REMARK SMILES IDX 8 13 7 14 1 15 2 16 3 17 90 18 4 19 89 20 5 21 88 22 6 23
REMARK SMILES IDX 15 24 16 25 17 26 18 27 19 29 20 30 21 31 82 32 22 33 81 34
REMARK SMILES IDX 23 35 24 36 25 37 75 38 26 39 80 40 74 41 76 42 27 43 79 44
REMARK SMILES IDX 73 45 72 46 28 48 60 49 40 50 59 51 41 52 44 53 58 54 77 55
REMARK SMILES IDX 42 56 43 57 57 59 78 60 45 61 29 62 30 63 38 64 31 65 32 66
REMARK SMILES IDX 36 67 39 68 33 69 34 70 37 71 35 72 61 73 62 74 70 75 63 76
REMARK SMILES IDX 64 77 68 78 71 79 65 80 66 81 69 82 67 83 46 84 47 85 55 86
REMARK SMILES IDX 48 87 49 88 53 89 56 90 50 91 51 92 54 93 52 94
REMARK H PARENT 13 5 17 28 76 47 44 58
REMARK Flexibility Score: inf
ROOT
ATOM      1  C   UNL A   1      31.587  30.663  26.477  1.00  0.00     0.117 C 
ENDROOT
BRANCH   1   2
ATOM      2  N   UNL A   1      32.877  30.190  26.943  1.00  0.00    -0.356 N 
ATOM      3  C   UNL A   1      33.753  29.319  26.377  1.00  0.00     0.220 C 
ATOM      4  O   UNL A   1      34.780  29.049  27.005  1.00  0.00    -0.275 OA
ATOM      5  H   UNL A   1      33.163  30.559  27.809  1.00  0.00     0.163 HD
BRANCH   3   6
ATOM      6  C   UNL A   1      33.499  28.687  25.012  1.00  0.00     0.107 C 
BRANCH   6   7
ATOM      7  C   UNL A   1      32.837  27.263  24.973  1.00  0.00    -0.015 C 
ATOM      8  C   UNL A   1      33.171  26.603  23.597  1.00  0.00     0.008 C 
ATOM      9  C   UNL A   1      31.287  27.335  25.034  1.00  0.00     0.008 C 
ATOM     10  C   UNL A   1      32.529  27.320  22.403  1.00  0.00     0.001 C 
ATOM     11  C   UNL A   1      30.630  28.085  23.879  1.00  0.00     0.001 C 
ATOM     12  C   UNL A   1      31.016  27.455  22.549  1.00  0.00     0.000 C 
BRANCH   7  13
ATOM     13  C   UNL A   1      33.442  26.384  26.126  1.00  0.00     0.075 C 
BRANCH  13  14
ATOM     14  C   UNL A   1      33.458  24.904  25.865  1.00  0.00     0.094 A 
ATOM     15  C   UNL A   1      33.964  18.935  24.351  1.00  0.00     0.044 C 
ATOM     16  C   UNL A   1      33.509  20.303  24.768  1.00  0.00    -0.050 A 
ATOM     17  C   UNL A   1      32.155  20.560  24.997  1.00  0.00     0.006 A 
ATOM     18  C   UNL A   1      34.459  21.327  24.934  1.00  0.00     0.024 A 
ATOM     19  C   UNL A   1      31.726  21.830  25.391  1.00  0.00     0.030 A 
ATOM     20  C   UNL A   1      34.012  22.606  25.306  1.00  0.00     0.055 A 
ATOM     21  C   UNL A   1      32.663  22.868  25.546  1.00  0.00     0.082 A 
ATOM     22  S   UNL A   1      34.912  24.061  25.529  1.00  0.00    -0.119 S 
ATOM     23  N   UNL A   1      32.370  24.166  25.912  1.00  0.00    -0.241 NA
ENDBRANCH  13  14
ENDBRANCH   7  13
ENDBRANCH   6   7
ENDBRANCH   3   6
ENDBRANCH   1   2
BRANCH   1  24
ATOM     24  C   UNL A   1      31.403  32.151  26.766  1.00  0.00     0.042 C 
BRANCH  24  25
ATOM     25  C   UNL A   1      32.697  32.918  26.967  1.00  0.00     0.118 C 
BRANCH  25  26
ATOM     26  N   UNL A   1      32.490  34.203  27.618  1.00  0.00    -0.352 N 
ATOM     27  C   UNL A   1      33.051  34.742  28.750  1.00  0.00     0.251 C 
ATOM     28  H   UNL A   1      31.835  34.786  27.170  1.00  0.00     0.163 HD
ATOM     29  O   UNL A   1      32.574  35.777  29.211  1.00  0.00    -0.269 OA
BRANCH  27  30
ATOM     30  C   UNL A   1      34.200  34.104  29.441  1.00  0.00     0.039 A 
ATOM     31  C   UNL A   1      35.496  34.486  29.074  1.00  0.00     0.014 A 
ATOM     32  C   UNL A   1      34.031  33.093  30.391  1.00  0.00     0.014 A 
ATOM     33  C   UNL A   1      36.606  33.898  29.688  1.00  0.00     0.010 A 
ATOM     34  C   UNL A   1      35.132  32.580  31.074  1.00  0.00     0.010 A 
ATOM     35  C   UNL A   1      36.433  32.958  30.716  1.00  0.00    -0.014 A 
BRANCH  35  36
ATOM     36  C   UNL A   1      37.596  32.330  31.399  1.00  0.00     0.031 A 
ATOM     37  C   UNL A   1      38.328  31.187  30.748  1.00  0.00     0.074 A 
ATOM     38  C   UNL A   1      37.951  32.734  32.633  1.00  0.00     0.049 A 
ATOM     39  N   UNL A   1      39.310  30.455  31.213  1.00  0.00    -0.248 NA
ATOM     40  C   UNL A   1      37.872  30.791  29.406  1.00  0.00     0.031 C 
ATOM     41  C   UNL A   1      37.289  33.789  33.400  1.00  0.00     0.029 A 
ATOM     42  N   UNL A   1      38.950  32.296  33.466  1.00  0.00    -0.354 N 
ATOM     43  C   UNL A   1      39.562  29.497  30.239  1.00  0.00     0.074 A 
ATOM     44  C   UNL A   1      38.599  29.708  29.180  1.00  0.00     0.031 C 
ATOM     45  C   UNL A   1      37.909  33.930  34.581  1.00  0.00     0.029 A 
ATOM     46  C   UNL A   1      38.992  32.953  34.670  1.00  0.00     0.049 A 
ATOM     47  H   UNL A   1      39.578  31.577  33.223  1.00  0.00     0.167 HD
ATOM     48  C   UNL A   1      40.523  28.543  30.217  1.00  0.00     0.037 A 
ATOM     49  C   UNL A   1      39.807  32.787  35.729  1.00  0.00     0.037 A 
ATOM     50  C   UNL A   1      41.510  28.364  31.249  1.00  0.00     0.049 A 
ATOM     51  C   UNL A   1      40.893  31.748  35.668  1.00  0.00     0.074 A 
ATOM     52  C   UNL A   1      42.581  27.488  31.279  1.00  0.00     0.029 A 
ATOM     53  N   UNL A   1      41.544  29.079  32.437  1.00  0.00    -0.354 N 
ATOM     54  N   UNL A   1      41.172  30.899  34.708  1.00  0.00    -0.248 NA
ATOM     55  C   UNL A   1      41.784  31.651  36.832  1.00  0.00     0.031 C 
ATOM     56  C   UNL A   1      43.239  27.644  32.505  1.00  0.00     0.029 A 
ATOM     57  C   UNL A   1      42.605  28.648  33.219  1.00  0.00     0.049 A 
ATOM     58  H   UNL A   1      40.908  29.788  32.689  1.00  0.00     0.167 HD
ATOM     59  C   UNL A   1      42.277  30.181  35.142  1.00  0.00     0.074 A 
ATOM     60  C   UNL A   1      42.629  30.704  36.446  1.00  0.00     0.031 C 
ATOM     61  C   UNL A   1      42.940  29.177  34.517  1.00  0.00     0.037 A 
BRANCH  48  62
ATOM     62  C   UNL A   1      40.551  27.617  29.034  1.00  0.00     0.064 A 
ATOM     63  C   UNL A   1      41.395  27.845  27.936  1.00  0.00     0.173 A 
ATOM     64  C   UNL A   1      39.725  26.483  28.999  1.00  0.00     0.173 A 
ATOM     65  F   UNL A   1      42.197  28.921  27.914  1.00  0.00    -0.203 F 
ATOM     66  C   UNL A   1      41.383  26.997  26.832  1.00  0.00     0.198 A 
ATOM     67  C   UNL A   1      39.738  25.619  27.907  1.00  0.00     0.198 A 
ATOM     68  F   UNL A   1      38.904  26.212  30.025  1.00  0.00    -0.203 F 
ATOM     69  F   UNL A   1      42.153  27.270  25.769  1.00  0.00    -0.200 F 
ATOM     70  C   UNL A   1      40.558  25.882  26.820  1.00  0.00     0.200 A 
ATOM     71  F   UNL A   1      38.950  24.535  27.902  1.00  0.00    -0.200 F 
ATOM     72  F   UNL A   1      40.545  25.068  25.756  1.00  0.00    -0.200 F 
ENDBRANCH  48  62
BRANCH  49  73
ATOM     73  C   UNL A   1      39.642  33.656  36.921  1.00  0.00     0.064 A 
ATOM     74  C   UNL A   1      40.289  34.897  37.000  1.00  0.00     0.173 A 
ATOM     75  C   UNL A   1      38.810  33.283  37.986  1.00  0.00     0.173 A 
ATOM     76  F   UNL A   1      41.109  35.287  36.013  1.00  0.00    -0.203 F 
ATOM     77  C   UNL A   1      40.117  35.729  38.105  1.00  0.00     0.198 A 
ATOM     78  C   UNL A   1      38.619  34.126  39.079  1.00  0.00     0.198 A 
ATOM     79  F   UNL A   1      38.161  32.109  37.954  1.00  0.00    -0.203 F 
ATOM     80  F   UNL A   1      40.769  36.897  38.168  1.00  0.00    -0.200 F 
ATOM     81  C   UNL A   1      39.276  35.347  39.139  1.00  0.00     0.200 A 
ATOM     82  F   UNL A   1      37.794  33.760  40.070  1.00  0.00    -0.200 F 
ATOM     83  F   UNL A   1      39.099  36.153  40.194  1.00  0.00    -0.200 F 
ENDBRANCH  49  73
BRANCH  61  84
ATOM     84  C   UNL A   1      44.125  28.590  35.223  1.00  0.00     0.064 A 
ATOM     85  C   UNL A   1      43.991  27.503  36.100  1.00  0.00     0.173 A 
ATOM     86  C   UNL A   1      45.415  29.091  34.987  1.00  0.00     0.173 A 
ATOM     87  F   UNL A   1      42.778  27.000  36.370  1.00  0.00    -0.203 F 
ATOM     88  C   UNL A   1      45.103  26.952  36.731  1.00  0.00     0.198 A 
ATOM     89  C   UNL A   1      46.528  28.520  35.599  1.00  0.00     0.198 A 
ATOM     90  F   UNL A   1      45.596  30.125  34.153  1.00  0.00    -0.203 F 
ATOM     91  F   UNL A   1      44.948  25.941  37.596  1.00  0.00    -0.200 F 
ATOM     92  C   UNL A   1      46.370  27.455  36.474  1.00  0.00     0.200 A 
ATOM     93  F   UNL A   1      47.752  28.999  35.341  1.00  0.00    -0.200 F 
ATOM     94  F   UNL A   1      47.441  26.918  37.076  1.00  0.00    -0.200 F 
ENDBRANCH  61  84
ENDBRANCH  35  36
ENDBRANCH  27  30
ENDBRANCH  25  26
ENDBRANCH  24  25
ENDBRANCH   1  24
TORSDOF 13
ENDMDL
MODEL 2
REMARK VINA RESULT:     -12.3      0.859      1.599
REMARK SMILES Cc1ccc2nc(CC3(CC(=O)NCCCNC(=O)c4ccc(-c5c6nc(c(-c7c(F)c(F)c(F)c(F)c7F)c7ccc([nH]7)c(-c7c(F)c(F)c(F)c(F)c7F)c7nc(c(-c8c(F)c(F)c(F)c(F)c8F)c8ccc5[nH]8)C=C7)C=C6)cc4)CCCCC3)sc2c1
REMARK SMILES IDX 14 1 13 2 11 3 12 4 10 6 9 7 83 8 87 9 84 10 86 11 85 12
REMARK SMILES IDX 8 13 7 14 1 15 2 16 3 17 90 18 4 19 89 20 5 21 88 22 6 23
REMARK SMILES IDX 15 24 16 25 17 26 18 27 19 29 20 30 21 31 82 32 22 33 81 34
REMARK SMILES IDX 23 35 24 36 25 37 75 38 26 39 80 40 74 41 76 42 27 43 79 44
REMARK SMILES IDX 73 45 72 46 28 48 60 49 40 50 59 51 41 52 44 53 58 54 77 55
REMARK SMILES IDX 42 56 43 57 57 59 78 60 45 61 29 62 30 63 38 64 31 65 32 66
REMARK SMILES IDX 36 67 39 68 33 69 34 70 37 71 35 72 61 73 62 74 70 75 63 76
REMARK SMILES IDX 64 77 68 78 71 79 65 80 66 81 69 82 67 83 46 84 47 85 55 86
REMARK SMILES IDX 48 87 49 88 53 89 56 90 50 91 51 92 54 93 52 94
REMARK H PARENT 13 5 17 28 76 47 44 58
REMARK Flexibility Score: inf
ROOT
ATOM      1  C   UNL A   1      31.210  31.180  25.973  1.00  0.00     0.117 C 
ENDROOT
BRANCH   1   2
ATOM      2  N   UNL A   1      32.276  30.419  26.598  1.00  0.00    -0.356 N 
ATOM      3  C   UNL A   1      32.460  29.076  26.693  1.00  0.00     0.220 C 
ATOM      4  O   UNL A   1      33.445  28.676  27.321  1.00  0.00    -0.275 OA
ATOM      5  H   UNL A   1      32.978  30.964  27.021  1.00  0.00     0.163 HD
BRANCH   3   6
ATOM      6  C   UNL A   1      31.500  28.080  26.053  1.00  0.00     0.107 C 
BRANCH   6   7
ATOM      7  C   UNL A   1      31.819  27.581  24.599  1.00  0.00    -0.015 C 
ATOM      8  C   UNL A   1      31.411  28.703  23.592  1.00  0.00     0.008 C 
ATOM      9  C   UNL A   1      30.970  26.341  24.205  1.00  0.00     0.008 C 
ATOM     10  C   UNL A   1      29.901  28.966  23.548  1.00  0.00     0.001 C 
ATOM     11  C   UNL A   1      29.461  26.568  24.200  1.00  0.00     0.001 C 
ATOM     12  C   UNL A   1      29.097  27.702  23.254  1.00  0.00     0.000 C 
BRANCH   7  13
ATOM     13  C   UNL A   1      33.362  27.313  24.475  1.00  0.00     0.075 C 
BRANCH  13  14
ATOM     14  C   UNL A   1      33.784  25.882  24.661  1.00  0.00     0.094 A 
ATOM     15  C   UNL A   1      35.149  19.862  24.923  1.00  0.00     0.044 C 
ATOM     16  C   UNL A   1      34.841  21.304  25.203  1.00  0.00    -0.050 A 
ATOM     17  C   UNL A   1      34.702  21.756  26.518  1.00  0.00     0.006 A 
ATOM     18  C   UNL A   1      34.698  22.202  24.130  1.00  0.00     0.024 A 
ATOM     19  C   UNL A   1      34.421  23.098  26.786  1.00  0.00     0.030 A 
ATOM     20  C   UNL A   1      34.390  23.543  24.412  1.00  0.00     0.055 A 
ATOM     21  C   UNL A   1      34.260  24.005  25.722  1.00  0.00     0.082 A 
ATOM     22  S   UNL A   1      34.102  24.854  23.327  1.00  0.00    -0.119 S 
ATOM     23  N   UNL A   1      33.965  25.346  25.848  1.00  0.00    -0.241 NA
ENDBRANCH  13  14
ENDBRANCH   7  13
ENDBRANCH   6   7
ENDBRANCH   3   6
ENDBRANCH   1   2
BRANCH   1  24
ATOM     24  C   UNL A   1      31.212  32.632  26.445  1.00  0.00     0.042 C 
BRANCH  24  25
ATOM     25  C   UNL A   1      32.449  33.038  27.227  1.00  0.00     0.118 C 
BRANCH  25  26
ATOM     26  N   UNL A   1      32.370  34.402  27.727  1.00  0.00    -0.352 N 
ATOM     27  C   UNL A   1      33.062  35.036  28.731  1.00  0.00     0.251 C 
ATOM     28  H   UNL A   1      31.708  34.968  27.268  1.00  0.00     0.163 HD
ATOM     29  O   UNL A   1      32.685  36.147  29.098  1.00  0.00    -0.269 OA
BRANCH  27  30
ATOM     30  C   UNL A   1      34.235  34.414  29.395  1.00  0.00     0.039 A 
ATOM     31  C   UNL A   1      34.033  33.709  30.588  1.00  0.00     0.014 A 
ATOM     32  C   UNL A   1      35.535  34.565  28.906  1.00  0.00     0.014 A 
ATOM     33  C   UNL A   1      35.113  33.121  31.254  1.00  0.00     0.010 A 
ATOM     34  C   UNL A   1      36.597  33.895  29.513  1.00  0.00     0.010 A 
ATOM     35  C   UNL A   1      36.403  33.185  30.706  1.00  0.00    -0.014 A 
BRANCH  35  36
ATOM     36  C   UNL A   1      37.567  32.554  31.383  1.00  0.00     0.031 A 
ATOM     37  C   UNL A   1      38.299  31.415  30.724  1.00  0.00     0.074 A 
ATOM     38  C   UNL A   1      37.924  32.952  32.619  1.00  0.00     0.049 A 
ATOM     39  N   UNL A   1      39.282  30.681  31.184  1.00  0.00    -0.248 NA
ATOM     40  C   UNL A   1      37.840  31.026  29.382  1.00  0.00     0.031 C 
ATOM     41  C   UNL A   1      37.263  34.002  33.393  1.00  0.00     0.029 A 
ATOM     42  N   UNL A   1      38.926  32.509  33.448  1.00  0.00    -0.354 N 
ATOM     43  C   UNL A   1      39.533  29.728  30.204  1.00  0.00     0.074 A 
ATOM     44  C   UNL A   1      38.568  29.945  29.148  1.00  0.00     0.031 C 
ATOM     45  C   UNL A   1      37.886  34.136  34.574  1.00  0.00     0.029 A 
ATOM     46  C   UNL A   1      38.969  33.160  34.656  1.00  0.00     0.049 A 
ATOM     47  H   UNL A   1      39.553  31.792  33.200  1.00  0.00     0.167 HD
ATOM     48  C   UNL A   1      40.494  28.775  30.175  1.00  0.00     0.037 A 
ATOM     49  C   UNL A   1      39.786  32.987  35.712  1.00  0.00     0.037 A 
ATOM     50  C   UNL A   1      41.482  28.591  31.205  1.00  0.00     0.049 A 
ATOM     51  C   UNL A   1      40.872  31.950  35.643  1.00  0.00     0.074 A 
ATOM     52  C   UNL A   1      42.554  27.716  31.227  1.00  0.00     0.029 A 
ATOM     53  N   UNL A   1      41.518  29.299  32.396  1.00  0.00    -0.354 N 
ATOM     54  N   UNL A   1      41.150  31.107  34.679  1.00  0.00    -0.248 NA
ATOM     55  C   UNL A   1      41.765  31.847  36.805  1.00  0.00     0.031 C 
ATOM     56  C   UNL A   1      43.214  27.864  32.453  1.00  0.00     0.029 A 
ATOM     57  C   UNL A   1      42.581  28.864  33.174  1.00  0.00     0.049 A 
ATOM     58  H   UNL A   1      40.883  30.006  32.653  1.00  0.00     0.167 HD
ATOM     59  C   UNL A   1      42.256  30.386  35.106  1.00  0.00     0.074 A 
ATOM     60  C   UNL A   1      42.610  30.903  36.412  1.00  0.00     0.031 C 
ATOM     61  C   UNL A   1      42.919  29.387  34.474  1.00  0.00     0.037 A 
BRANCH  48  62
ATOM     62  C   UNL A   1      40.520  27.856  28.987  1.00  0.00     0.064 A 
ATOM     63  C   UNL A   1      41.312  28.126  27.860  1.00  0.00     0.173 A 
ATOM     64  C   UNL A   1      39.747  26.685  28.977  1.00  0.00     0.173 A 
ATOM     65  F   UNL A   1      42.062  29.238  27.814  1.00  0.00    -0.203 F 
ATOM     66  C   UNL A   1      41.297  27.283  26.752  1.00  0.00     0.198 A 
ATOM     67  C   UNL A   1      39.759  25.827  27.880  1.00  0.00     0.198 A 
ATOM     68  F   UNL A   1      38.977  26.373  30.031  1.00  0.00    -0.203 F 
ATOM     69  F   UNL A   1      42.013  27.595  25.663  1.00  0.00    -0.200 F 
ATOM     70  C   UNL A   1      40.524  26.132  26.764  1.00  0.00     0.200 A 
ATOM     71  F   UNL A   1      39.021  24.707  27.899  1.00  0.00    -0.200 F 
ATOM     72  F   UNL A   1      40.509  25.321  25.698  1.00  0.00    -0.200 F 
ENDBRANCH  48  62
BRANCH  49  73
ATOM     73  C   UNL A   1      39.623  33.850  36.909  1.00  0.00     0.064 A 
ATOM     74  C   UNL A   1      40.227  35.113  36.972  1.00  0.00     0.173 A 
ATOM     75  C   UNL A   1      38.834  33.447  37.997  1.00  0.00     0.173 A 
ATOM     76  F   UNL A   1      41.005  35.533  35.964  1.00  0.00    -0.203 F 
ATOM     77  C   UNL A   1      40.055  35.938  38.082  1.00  0.00     0.198 A 
ATOM     78  C   UNL A   1      38.643  34.283  39.095  1.00  0.00     0.198 A 
ATOM     79  F   UNL A   1      38.228  32.251  37.981  1.00  0.00    -0.203 F 
ATOM     80  F   UNL A   1      40.667  37.130  38.129  1.00  0.00    -0.200 F 
ATOM     81  C   UNL A   1      39.258  35.526  39.139  1.00  0.00     0.200 A 
ATOM     82  F   UNL A   1      37.860  33.887  40.108  1.00  0.00    -0.200 F 
ATOM     83  F   UNL A   1      39.081  36.326  40.199  1.00  0.00    -0.200 F 
ENDBRANCH  49  73
BRANCH  61  84
ATOM     84  C   UNL A   1      44.105  28.796  35.175  1.00  0.00     0.064 A 
ATOM     85  C   UNL A   1      45.392  29.331  35.015  1.00  0.00     0.173 A 
ATOM     86  C   UNL A   1      43.947  27.712  36.052  1.00  0.00     0.173 A 
ATOM     87  F   UNL A   1      45.597  30.357  34.175  1.00  0.00    -0.203 F 
ATOM     88  C   UNL A   1      46.481  28.789  35.692  1.00  0.00     0.198 A 
ATOM     89  C   UNL A   1      45.034  27.190  36.748  1.00  0.00     0.198 A 
ATOM     90  F   UNL A   1      42.736  27.170  36.244  1.00  0.00    -0.203 F 
ATOM     91  F   UNL A   1      47.709  29.288  35.492  1.00  0.00    -0.200 F 
ATOM     92  C   UNL A   1      46.300  27.724  36.562  1.00  0.00     0.200 A 
ATOM     93  F   UNL A   1      44.856  26.169  37.598  1.00  0.00    -0.200 F 
ATOM     94  F   UNL A   1      47.349  27.208  37.219  1.00  0.00    -0.200 F 
ENDBRANCH  61  84
ENDBRANCH  35  36
ENDBRANCH  27  30
ENDBRANCH  25  26
ENDBRANCH  24  25
ENDBRANCH   1  24
TORSDOF 13
ENDMDL
MODEL 3
REMARK VINA RESULT:     -12.2      5.420     10.874
REMARK SMILES Cc1ccc2nc(CC3(CC(=O)NCCCNC(=O)c4ccc(-c5c6nc(c(-c7c(F)c(F)c(F)c(F)c7F)c7ccc([nH]7)c(-c7c(F)c(F)c(F)c(F)c7F)c7nc(c(-c8c(F)c(F)c(F)c(F)c8F)c8ccc5[nH]8)C=C7)C=C6)cc4)CCCCC3)sc2c1
REMARK SMILES IDX 14 1 13 2 11 3 12 4 10 6 9 7 83 8 87 9 84 10 86 11 85 12
REMARK SMILES IDX 8 13 7 14 1 15 2 16 3 17 90 18 4 19 89 20 5 21 88 22 6 23
REMARK SMILES IDX 15 24 16 25 17 26 18 27 19 29 20 30 21 31 82 32 22 33 81 34
REMARK SMILES IDX 23 35 24 36 25 37 75 38 26 39 80 40 74 41 76 42 27 43 79 44
REMARK SMILES IDX 73 45 72 46 28 48 60 49 40 50 59 51 41 52 44 53 58 54 77 55
REMARK SMILES IDX 42 56 43 57 57 59 78 60 45 61 29 62 30 63 38 64 31 65 32 66
REMARK SMILES IDX 36 67 39 68 33 69 34 70 37 71 35 72 61 73 62 74 70 75 63 76
REMARK SMILES IDX 64 77 68 78 71 79 65 80 66 81 69 82 67 83 46 84 47 85 55 86
REMARK SMILES IDX 48 87 49 88 53 89 56 90 50 91 51 92 54 93 52 94
REMARK H PARENT 13 5 17 28 76 47 44 58
REMARK Flexibility Score: inf
ROOT
ATOM      1  C   UNL A   1      36.957  20.612  24.934  1.00  0.00     0.117 C 
ENDROOT
BRANCH   1   2
ATOM      2  N   UNL A   1      37.079  21.605  23.884  1.00  0.00    -0.356 N 
ATOM      3  C   UNL A   1      36.385  22.755  23.673  1.00  0.00     0.220 C 
ATOM      4  O   UNL A   1      36.661  23.414  22.668  1.00  0.00    -0.275 OA
ATOM      5  H   UNL A   1      37.777  21.415  23.217  1.00  0.00     0.163 HD
BRANCH   3   6
ATOM      6  C   UNL A   1      35.302  23.233  24.633  1.00  0.00     0.107 C 
BRANCH   6   7
ATOM      7  C   UNL A   1      33.861  23.475  24.056  1.00  0.00    -0.015 C 
ATOM      8  C   UNL A   1      32.866  23.609  25.252  1.00  0.00     0.008 C 
ATOM      9  C   UNL A   1      33.352  22.266  23.225  1.00  0.00     0.008 C 
ATOM     10  C   UNL A   1      32.705  22.316  26.061  1.00  0.00     0.001 C 
ATOM     11  C   UNL A   1      33.229  20.958  24.000  1.00  0.00     0.001 C 
ATOM     12  C   UNL A   1      32.298  21.131  25.191  1.00  0.00     0.000 C 
BRANCH   7  13
ATOM     13  C   UNL A   1      33.858  24.813  23.231  1.00  0.00     0.075 C 
BRANCH  13  14
ATOM     14  C   UNL A   1      33.438  26.038  23.995  1.00  0.00     0.094 A 
ATOM     15  C   UNL A   1      31.543  31.323  26.574  1.00  0.00     0.044 C 
ATOM     16  C   UNL A   1      32.240  30.048  26.199  1.00  0.00    -0.050 A 
ATOM     17  C   UNL A   1      33.398  29.650  26.871  1.00  0.00     0.006 A 
ATOM     18  C   UNL A   1      31.715  29.250  25.166  1.00  0.00     0.024 A 
ATOM     19  C   UNL A   1      34.048  28.461  26.531  1.00  0.00     0.030 A 
ATOM     20  C   UNL A   1      32.392  28.071  24.816  1.00  0.00     0.055 A 
ATOM     21  C   UNL A   1      33.543  27.660  25.489  1.00  0.00     0.082 A 
ATOM     22  S   UNL A   1      32.035  26.928  23.574  1.00  0.00    -0.119 S 
ATOM     23  N   UNL A   1      34.097  26.478  25.045  1.00  0.00    -0.241 NA
ENDBRANCH  13  14
ENDBRANCH   7  13
ENDBRANCH   6   7
ENDBRANCH   3   6
ENDBRANCH   1   2
BRANCH   1  24
ATOM     24  C   UNL A   1      38.158  19.669  24.951  1.00  0.00     0.042 C 
BRANCH  24  25
ATOM     25  C   UNL A   1      39.127  19.905  26.096  1.00  0.00     0.118 C 
BRANCH  25  26
ATOM     26  N   UNL A   1      40.324  19.084  25.993  1.00  0.00    -0.352 N 
ATOM     27  C   UNL A   1      41.655  19.423  26.010  1.00  0.00     0.251 C 
ATOM     28  H   UNL A   1      40.150  18.120  25.894  1.00  0.00     0.163 HD
ATOM     29  O   UNL A   1      42.487  18.568  25.717  1.00  0.00    -0.269 OA
BRANCH  27  30
ATOM     30  C   UNL A   1      42.115  20.792  26.355  1.00  0.00     0.039 A 
ATOM     31  C   UNL A   1      42.304  21.114  27.705  1.00  0.00     0.014 A 
ATOM     32  C   UNL A   1      42.300  21.783  25.387  1.00  0.00     0.014 A 
ATOM     33  C   UNL A   1      42.720  22.397  28.074  1.00  0.00     0.010 A 
ATOM     34  C   UNL A   1      42.812  23.029  25.745  1.00  0.00     0.010 A 
ATOM     35  C   UNL A   1      43.006  23.359  27.094  1.00  0.00    -0.014 A 
BRANCH  35  36
ATOM     36  C   UNL A   1      43.468  24.726  27.457  1.00  0.00     0.031 A 
ATOM     37  C   UNL A   1      42.476  25.764  27.907  1.00  0.00     0.074 A 
ATOM     38  C   UNL A   1      44.765  25.058  27.314  1.00  0.00     0.049 A 
ATOM     39  N   UNL A   1      42.665  27.030  28.189  1.00  0.00    -0.248 NA
ATOM     40  C   UNL A   1      41.074  25.331  28.022  1.00  0.00     0.031 C 
ATOM     41  C   UNL A   1      45.818  24.165  26.832  1.00  0.00     0.029 A 
ATOM     42  N   UNL A   1      45.416  26.243  27.550  1.00  0.00    -0.354 N 
ATOM     43  C   UNL A   1      41.409  27.546  28.479  1.00  0.00     0.074 A 
ATOM     44  C   UNL A   1      40.458  26.471  28.292  1.00  0.00     0.031 C 
ATOM     45  C   UNL A   1      46.986  24.826  26.824  1.00  0.00     0.029 A 
ATOM     46  C   UNL A   1      46.759  26.199  27.269  1.00  0.00     0.049 A 
ATOM     47  H   UNL A   1      44.963  27.049  27.887  1.00  0.00     0.167 HD
ATOM     48  C   UNL A   1      41.078  28.794  28.889  1.00  0.00     0.037 A 
ATOM     49  C   UNL A   1      47.702  27.156  27.357  1.00  0.00     0.037 A 
ATOM     50  C   UNL A   1      42.030  29.848  29.119  1.00  0.00     0.049 A 
ATOM     51  C   UNL A   1      47.321  28.524  27.851  1.00  0.00     0.074 A 
ATOM     52  C   UNL A   1      41.809  31.118  29.622  1.00  0.00     0.029 A 
ATOM     53  N   UNL A   1      43.390  29.751  28.863  1.00  0.00    -0.354 N 
ATOM     54  N   UNL A   1      46.142  28.979  28.198  1.00  0.00    -0.248 NA
ATOM     55  C   UNL A   1      48.404  29.510  27.975  1.00  0.00     0.031 C 
ATOM     56  C   UNL A   1      43.028  31.805  29.629  1.00  0.00     0.029 A 
ATOM     57  C   UNL A   1      44.018  30.947  29.174  1.00  0.00     0.049 A 
ATOM     58  H   UNL A   1      43.843  28.950  28.510  1.00  0.00     0.167 HD
ATOM     59  C   UNL A   1      46.341  30.293  28.598  1.00  0.00     0.074 A 
ATOM     60  C   UNL A   1      47.758  30.559  28.466  1.00  0.00     0.031 C 
ATOM     61  C   UNL A   1      45.430  31.197  29.034  1.00  0.00     0.037 A 
BRANCH  48  62
ATOM     62  C   UNL A   1      39.621  29.085  29.111  1.00  0.00     0.064 A 
ATOM     63  C   UNL A   1      39.023  28.940  30.373  1.00  0.00     0.173 A 
ATOM     64  C   UNL A   1      38.813  29.521  28.050  1.00  0.00     0.173 A 
ATOM     65  F   UNL A   1      39.748  28.515  31.419  1.00  0.00    -0.203 F 
ATOM     66  C   UNL A   1      37.663  29.179  30.554  1.00  0.00     0.198 A 
ATOM     67  C   UNL A   1      37.461  29.790  28.242  1.00  0.00     0.198 A 
ATOM     68  F   UNL A   1      39.335  29.684  26.825  1.00  0.00    -0.203 F 
ATOM     69  F   UNL A   1      37.102  28.974  31.754  1.00  0.00    -0.200 F 
ATOM     70  C   UNL A   1      36.884  29.608  29.491  1.00  0.00     0.200 A 
ATOM     71  F   UNL A   1      36.711  30.218  27.216  1.00  0.00    -0.200 F 
ATOM     72  F   UNL A   1      35.575  29.837  29.666  1.00  0.00    -0.200 F 
ENDBRANCH  48  62
BRANCH  49  73
ATOM     73  C   UNL A   1      49.106  26.832  26.998  1.00  0.00     0.064 A 
ATOM     74  C   UNL A   1      50.003  26.358  27.966  1.00  0.00     0.173 A 
ATOM     75  C   UNL A   1      49.570  26.955  25.681  1.00  0.00     0.173 A 
ATOM     76  F   UNL A   1      49.609  26.242  29.242  1.00  0.00    -0.203 F 
ATOM     77  C   UNL A   1      51.315  26.027  27.630  1.00  0.00     0.198 A 
ATOM     78  C   UNL A   1      50.874  26.602  25.342  1.00  0.00     0.198 A 
ATOM     79  F   UNL A   1      48.748  27.396  24.717  1.00  0.00    -0.203 F 
ATOM     80  F   UNL A   1      52.159  25.603  28.579  1.00  0.00    -0.200 F 
ATOM     81  C   UNL A   1      51.747  26.142  26.317  1.00  0.00     0.200 A 
ATOM     82  F   UNL A   1      51.284  26.699  24.069  1.00  0.00    -0.200 F 
ATOM     83  F   UNL A   1      53.004  25.810  25.992  1.00  0.00    -0.200 F 
ENDBRANCH  49  73
BRANCH  61  84
ATOM     84  C   UNL A   1      45.938  32.554  29.420  1.00  0.00     0.064 A 
ATOM     85  C   UNL A   1      46.390  32.825  30.720  1.00  0.00     0.173 A 
ATOM     86  C   UNL A   1      46.017  33.582  28.468  1.00  0.00     0.173 A 
ATOM     87  F   UNL A   1      46.320  31.881  31.669  1.00  0.00    -0.203 F 
ATOM     88  C   UNL A   1      46.883  34.083  31.058  1.00  0.00     0.198 A 
ATOM     89  C   UNL A   1      46.536  34.830  28.802  1.00  0.00     0.198 A 
ATOM     90  F   UNL A   1      45.604  33.370  27.210  1.00  0.00    -0.203 F 
ATOM     91  F   UNL A   1      47.271  34.333  32.316  1.00  0.00    -0.200 F 
ATOM     92  C   UNL A   1      46.963  35.081  30.098  1.00  0.00     0.200 A 
ATOM     93  F   UNL A   1      46.623  35.790  27.870  1.00  0.00    -0.200 F 
ATOM     94  F   UNL A   1      47.445  36.288  30.423  1.00  0.00    -0.200 F 
ENDBRANCH  61  84
ENDBRANCH  35  36
ENDBRANCH  27  30
ENDBRANCH  25  26
ENDBRANCH  24  25
ENDBRANCH   1  24
TORSDOF 13
ENDMDL
