MODEL 1
REMARK VINA RESULT:     -12.0      0.000      0.000
REMARK SMILES CCC(CC)(CC(=O)Nc1cccc(Br)c1)C(=O)NCCCNC(=O)c1ccc(-c2c3nc(c(-c4c(F)c(F)c(F)c(F)c4F)c4ccc([nH]4)c(-c4c(F)c(F)c(F)c(F)c4F)c4nc(c(-c5c(F)c(F)c(F)c(F)c5F)c5ccc2[nH]5)C=C4)C=C3)cc1
REMARK SMILES IDX 20 1 19 2 17 3 18 4 3 6 2 7 1 8 4 9 5 10 6 11 7 12 8 13 9 14
REMARK SMILES IDX 10 16 11 17 16 18 12 19 14 20 13 21 15 22 21 23 22 24 23 25
REMARK SMILES IDX 24 26 25 28 26 29 27 30 88 31 28 32 87 33 29 34 30 35 31 36
REMARK SMILES IDX 81 37 32 38 86 39 80 40 82 41 33 42 85 43 79 44 78 45 34 47
REMARK SMILES IDX 66 48 46 49 65 50 47 51 50 52 64 53 83 54 48 55 49 56 63 58
REMARK SMILES IDX 84 59 51 60 35 61 36 62 44 63 37 64 38 65 42 66 45 67 39 68
REMARK SMILES IDX 40 69 43 70 41 71 67 72 68 73 76 74 69 75 70 76 74 77 77 78
REMARK SMILES IDX 71 79 72 80 75 81 73 82 52 83 53 84 61 85 54 86 55 87 59 88
REMARK SMILES IDX 62 89 56 90 57 91 60 92 58 93
REMARK H PARENT 19 5 9 15 23 27 82 46 50 57
REMARK Flexibility Score: inf
ROOT
ATOM      1  C   UNL A   1      31.578  30.993  26.126  1.00  0.00     0.117 C 
ENDROOT
BRANCH   1   2
ATOM      2  N   UNL A   1      31.432  29.787  26.914  1.00  0.00    -0.356 N 
ATOM      3  C   UNL A   1      31.879  28.521  26.777  1.00  0.00     0.226 C 
ATOM      4  O   UNL A   1      31.414  27.718  27.595  1.00  0.00    -0.274 OA
ATOM      5  H   UNL A   1      30.888  29.919  27.725  1.00  0.00     0.163 HD
BRANCH   3   6
ATOM      6  C   UNL A   1      32.892  28.081  25.697  1.00  0.00     0.057 C 
BRANCH   6   7
ATOM      7  C   UNL A   1      32.503  26.631  25.279  1.00  0.00     0.014 C 
ATOM      8  C   UNL A   1      33.558  25.539  25.421  1.00  0.00     0.005 C 
ENDBRANCH   6   7
BRANCH   6   9
ATOM      9  C   UNL A   1      34.353  28.056  26.253  1.00  0.00     0.014 C 
ATOM     10  C   UNL A   1      34.813  29.338  26.940  1.00  0.00     0.005 C 
ENDBRANCH   6   9
BRANCH   6  11
ATOM     11  C   UNL A   1      32.778  28.985  24.435  1.00  0.00     0.117 C 
BRANCH  11  12
ATOM     12  C   UNL A   1      32.922  28.347  23.050  1.00  0.00     0.225 C 
ATOM     13  O   UNL A   1      34.032  28.021  22.622  1.00  0.00    -0.275 OA
ATOM     14  N   UNL A   1      31.798  27.958  22.353  1.00  0.00    -0.326 N 
ATOM     15  H   UNL A   1      31.932  27.258  21.675  1.00  0.00     0.169 HD
BRANCH  14  16
ATOM     16  C   UNL A   1      30.488  28.435  22.490  1.00  0.00     0.042 A 
ATOM     17  C   UNL A   1      29.543  27.685  23.190  1.00  0.00     0.026 A 
ATOM     18  C   UNL A   1      30.147  29.703  22.024  1.00  0.00     0.041 A 
ATOM     19  C   UNL A   1      28.213  28.100  23.261  1.00  0.00     0.003 A 
ATOM     20  C   UNL A   1      28.821  30.135  22.132  1.00  0.00     0.020 A 
ATOM     21  C   UNL A   1      27.845  29.324  22.712  1.00  0.00     0.016 A 
ATOM     22  Br  UNL A   1      28.334  31.843  21.481  1.00  0.00    -0.051 Br
ENDBRANCH  14  16
ENDBRANCH  11  12
ENDBRANCH   6  11
ENDBRANCH   3   6
ENDBRANCH   1   2
BRANCH   1  23
ATOM     23  C   UNL A   1      31.388  32.246  26.963  1.00  0.00     0.042 C 
BRANCH  23  24
ATOM     24  C   UNL A   1      32.676  32.973  27.315  1.00  0.00     0.118 C 
BRANCH  24  25
ATOM     25  N   UNL A   1      32.471  34.375  27.664  1.00  0.00    -0.352 N 
ATOM     26  C   UNL A   1      33.056  35.114  28.665  1.00  0.00     0.251 C 
ATOM     27  H   UNL A   1      31.824  34.860  27.103  1.00  0.00     0.163 HD
ATOM     28  O   UNL A   1      32.661  36.245  28.926  1.00  0.00    -0.269 OA
BRANCH  26  29
ATOM     29  C   UNL A   1      34.149  34.511  29.451  1.00  0.00     0.039 A 
ATOM     30  C   UNL A   1      33.844  33.772  30.596  1.00  0.00     0.014 A 
ATOM     31  C   UNL A   1      35.468  34.620  29.005  1.00  0.00     0.014 A 
ATOM     32  C   UNL A   1      34.856  33.061  31.243  1.00  0.00     0.010 A 
ATOM     33  C   UNL A   1      36.449  33.832  29.587  1.00  0.00     0.010 A 
ATOM     34  C   UNL A   1      36.156  33.046  30.712  1.00  0.00    -0.014 A 
BRANCH  34  35
ATOM     35  C   UNL A   1      37.248  32.241  31.313  1.00  0.00     0.031 A 
ATOM     36  C   UNL A   1      37.761  32.608  32.678  1.00  0.00     0.074 A 
ATOM     37  C   UNL A   1      37.850  31.272  30.597  1.00  0.00     0.049 A 
ATOM     38  N   UNL A   1      38.820  32.175  33.311  1.00  0.00    -0.248 NA
ATOM     39  C   UNL A   1      36.999  33.632  33.411  1.00  0.00     0.031 C 
ATOM     40  C   UNL A   1      37.472  30.853  29.246  1.00  0.00     0.029 A 
ATOM     41  N   UNL A   1      38.928  30.479  30.900  1.00  0.00    -0.354 N 
ATOM     42  C   UNL A   1      38.872  32.903  34.492  1.00  0.00     0.074 A 
ATOM     43  C   UNL A   1      37.769  33.837  34.468  1.00  0.00     0.031 C 
ATOM     44  C   UNL A   1      38.295  29.872  28.843  1.00  0.00     0.029 A 
ATOM     45  C   UNL A   1      39.288  29.626  29.883  1.00  0.00     0.049 A 
ATOM     46  H   UNL A   1      39.401  30.516  31.763  1.00  0.00     0.167 HD
ATOM     47  C   UNL A   1      39.749  32.786  35.518  1.00  0.00     0.037 A 
ATOM     48  C   UNL A   1      40.315  28.759  29.798  1.00  0.00     0.037 A 
ATOM     49  C   UNL A   1      40.816  31.823  35.555  1.00  0.00     0.049 A 
ATOM     50  C   UNL A   1      41.268  28.636  30.957  1.00  0.00     0.074 A 
ATOM     51  C   UNL A   1      41.722  31.577  36.570  1.00  0.00     0.029 A 
ATOM     52  N   UNL A   1      41.113  30.939  34.527  1.00  0.00    -0.354 N 
ATOM     53  N   UNL A   1      41.279  29.291  32.092  1.00  0.00    -0.248 NA
ATOM     54  C   UNL A   1      42.350  27.650  30.824  1.00  0.00     0.031 C 
ATOM     55  C   UNL A   1      42.592  30.570  36.143  1.00  0.00     0.029 A 
ATOM     56  C   UNL A   1      42.197  30.153  34.881  1.00  0.00     0.049 A 
ATOM     57  H   UNL A   1      40.627  30.880  33.673  1.00  0.00     0.167 HD
ATOM     58  C   UNL A   1      42.339  28.773  32.822  1.00  0.00     0.074 A 
ATOM     59  C   UNL A   1      42.948  27.746  32.004  1.00  0.00     0.031 C 
ATOM     60  C   UNL A   1      42.768  29.116  34.062  1.00  0.00     0.037 A 
BRANCH  47  61
ATOM     61  C   UNL A   1      39.584  33.718  36.682  1.00  0.00     0.064 A 
ATOM     62  C   UNL A   1      38.805  33.373  37.797  1.00  0.00     0.173 A 
ATOM     63  C   UNL A   1      40.233  34.961  36.696  1.00  0.00     0.173 A 
ATOM     64  F   UNL A   1      38.152  32.202  37.828  1.00  0.00    -0.203 F 
ATOM     65  C   UNL A   1      38.654  34.252  38.866  1.00  0.00     0.198 A 
ATOM     66  C   UNL A   1      40.107  35.824  37.782  1.00  0.00     0.198 A 
ATOM     67  F   UNL A   1      40.994  35.340  35.658  1.00  0.00    -0.203 F 
ATOM     68  F   UNL A   1      37.860  33.923  39.894  1.00  0.00    -0.200 F 
ATOM     69  C   UNL A   1      39.311  35.472  38.861  1.00  0.00     0.200 A 
ATOM     70  F   UNL A   1      40.754  36.998  37.781  1.00  0.00    -0.200 F 
ATOM     71  F   UNL A   1      39.171  36.315  39.894  1.00  0.00    -0.200 F 
ENDBRANCH  47  61
BRANCH  48  72
ATOM     72  C   UNL A   1      40.481  27.919  28.582  1.00  0.00     0.064 A 
ATOM     73  C   UNL A   1      41.230  28.381  27.490  1.00  0.00     0.173 A 
ATOM     74  C   UNL A   1      39.899  26.648  28.482  1.00  0.00     0.173 A 
ATOM     75  F   UNL A   1      41.790  29.600  27.530  1.00  0.00    -0.203 F 
ATOM     76  C   UNL A   1      41.373  27.613  26.336  1.00  0.00     0.198 A 
ATOM     77  C   UNL A   1      40.067  25.868  27.339  1.00  0.00     0.198 A 
ATOM     78  F   UNL A   1      39.179  26.157  29.500  1.00  0.00    -0.203 F 
ATOM     79  F   UNL A   1      42.057  28.098  25.291  1.00  0.00    -0.200 F 
ATOM     80  C   UNL A   1      40.796  26.354  26.264  1.00  0.00     0.200 A 
ATOM     81  F   UNL A   1      39.519  24.646  27.278  1.00  0.00    -0.200 F 
ATOM     82  F   UNL A   1      40.936  25.613  25.156  1.00  0.00    -0.200 F 
ENDBRANCH  48  72
BRANCH  60  83
ATOM     83  C   UNL A   1      43.909  28.333  34.641  1.00  0.00     0.064 A 
ATOM     84  C   UNL A   1      45.237  28.762  34.519  1.00  0.00     0.173 A 
ATOM     85  C   UNL A   1      43.656  27.172  35.388  1.00  0.00     0.173 A 
ATOM     86  F   UNL A   1      45.530  29.857  33.801  1.00  0.00    -0.203 F 
ATOM     87  C   UNL A   1      46.274  28.047  35.111  1.00  0.00     0.198 A 
ATOM     88  C   UNL A   1      44.693  26.477  36.003  1.00  0.00     0.198 A 
ATOM     89  F   UNL A   1      42.400  26.725  35.541  1.00  0.00    -0.203 F 
ATOM     90  F   UNL A   1      47.541  28.455  34.953  1.00  0.00    -0.200 F 
ATOM     91  C   UNL A   1      46.001  26.913  35.861  1.00  0.00     0.200 A 
ATOM     92  F   UNL A   1      44.424  25.389  36.738  1.00  0.00    -0.200 F 
ATOM     93  F   UNL A   1      47.000  26.235  36.443  1.00  0.00    -0.200 F 
ENDBRANCH  60  83
ENDBRANCH  34  35
ENDBRANCH  26  29
ENDBRANCH  24  25
ENDBRANCH  23  24
ENDBRANCH   1  23
TORSDOF 15
ENDMDL
MODEL 2
REMARK VINA RESULT:     -11.9      1.677      2.890
REMARK SMILES CCC(CC)(CC(=O)Nc1cccc(Br)c1)C(=O)NCCCNC(=O)c1ccc(-c2c3nc(c(-c4c(F)c(F)c(F)c(F)c4F)c4ccc([nH]4)c(-c4c(F)c(F)c(F)c(F)c4F)c4nc(c(-c5c(F)c(F)c(F)c(F)c5F)c5ccc2[nH]5)C=C4)C=C3)cc1
REMARK SMILES IDX 20 1 19 2 17 3 18 4 3 6 2 7 1 8 4 9 5 10 6 11 7 12 8 13 9 14
REMARK SMILES IDX 10 16 11 17 16 18 12 19 14 20 13 21 15 22 21 23 22 24 23 25
REMARK SMILES IDX 24 26 25 28 26 29 27 30 88 31 28 32 87 33 29 34 30 35 31 36
REMARK SMILES IDX 81 37 32 38 86 39 80 40 82 41 33 42 85 43 79 44 78 45 34 47
REMARK SMILES IDX 66 48 46 49 65 50 47 51 50 52 64 53 83 54 48 55 49 56 63 58
REMARK SMILES IDX 84 59 51 60 35 61 36 62 44 63 37 64 38 65 42 66 45 67 39 68
REMARK SMILES IDX 40 69 43 70 41 71 67 72 68 73 76 74 69 75 70 76 74 77 77 78
REMARK SMILES IDX 71 79 72 80 75 81 73 82 52 83 53 84 61 85 54 86 55 87 59 88
REMARK SMILES IDX 62 89 56 90 57 91 60 92 58 93
REMARK H PARENT 19 5 9 15 23 27 82 46 50 57
REMARK Flexibility Score: inf
ROOT
ATOM      1  C   UNL A   1      31.711  30.723  26.141  1.00  0.00     0.117 C 
ENDROOT
BRANCH   1   2
ATOM      2  N   UNL A   1      30.979  30.382  24.938  1.00  0.00    -0.356 N 
ATOM      3  C   UNL A   1      31.041  29.356  24.065  1.00  0.00     0.226 C 
ATOM      4  O   UNL A   1      30.337  29.491  23.057  1.00  0.00    -0.274 OA
ATOM      5  H   UNL A   1      30.286  31.044  24.709  1.00  0.00     0.163 HD
BRANCH   3   6
ATOM      6  C   UNL A   1      31.912  28.098  24.280  1.00  0.00     0.057 C 
BRANCH   6   7
ATOM      7  C   UNL A   1      31.231  27.268  25.410  1.00  0.00     0.014 C 
ATOM      8  C   UNL A   1      30.198  26.222  25.005  1.00  0.00     0.005 C 
ENDBRANCH   6   7
BRANCH   6   9
ATOM      9  C   UNL A   1      33.357  28.469  24.746  1.00  0.00     0.014 C 
ATOM     10  C   UNL A   1      33.836  27.766  26.012  1.00  0.00     0.005 C 
ENDBRANCH   6   9
BRANCH   6  11
ATOM     11  C   UNL A   1      31.936  27.218  22.995  1.00  0.00     0.117 C 
BRANCH  11  12
ATOM     12  C   UNL A   1      33.282  26.717  22.464  1.00  0.00     0.225 C 
ATOM     13  O   UNL A   1      33.958  27.419  21.707  1.00  0.00    -0.275 OA
ATOM     14  N   UNL A   1      33.835  25.564  22.976  1.00  0.00    -0.326 N 
ATOM     15  H   UNL A   1      34.811  25.477  22.885  1.00  0.00     0.169 HD
BRANCH  14  16
ATOM     16  C   UNL A   1      33.182  24.498  23.609  1.00  0.00     0.042 A 
ATOM     17  C   UNL A   1      32.304  23.691  22.886  1.00  0.00     0.026 A 
ATOM     18  C   UNL A   1      33.482  24.172  24.929  1.00  0.00     0.041 A 
ATOM     19  C   UNL A   1      31.577  22.682  23.519  1.00  0.00     0.003 A 
ATOM     20  C   UNL A   1      32.781  23.134  25.552  1.00  0.00     0.020 A 
ATOM     21  C   UNL A   1      31.802  22.414  24.866  1.00  0.00     0.016 A 
ATOM     22  Br  UNL A   1      33.155  22.695  27.353  1.00  0.00    -0.051 Br
ENDBRANCH  14  16
ENDBRANCH  11  12
ENDBRANCH   6  11
ENDBRANCH   3   6
ENDBRANCH   1   2
BRANCH   1  23
ATOM     23  C   UNL A   1      31.484  32.165  26.558  1.00  0.00     0.042 C 
BRANCH  23  24
ATOM     24  C   UNL A   1      32.670  32.817  27.250  1.00  0.00     0.118 C 
BRANCH  24  25
ATOM     25  N   UNL A   1      32.434  34.213  27.607  1.00  0.00    -0.352 N 
ATOM     26  C   UNL A   1      33.007  34.961  28.608  1.00  0.00     0.251 C 
ATOM     27  H   UNL A   1      31.771  34.684  27.053  1.00  0.00     0.163 HD
ATOM     28  O   UNL A   1      32.587  36.081  28.877  1.00  0.00    -0.269 OA
BRANCH  26  29
ATOM     29  C   UNL A   1      34.120  34.380  29.384  1.00  0.00     0.039 A 
ATOM     30  C   UNL A   1      33.842  33.663  30.549  1.00  0.00     0.014 A 
ATOM     31  C   UNL A   1      35.428  34.488  28.910  1.00  0.00     0.014 A 
ATOM     32  C   UNL A   1      34.872  32.970  31.190  1.00  0.00     0.010 A 
ATOM     33  C   UNL A   1      36.426  33.718  29.487  1.00  0.00     0.010 A 
ATOM     34  C   UNL A   1      36.161  32.953  30.633  1.00  0.00    -0.014 A 
BRANCH  34  35
ATOM     35  C   UNL A   1      37.270  32.167  31.228  1.00  0.00     0.031 A 
ATOM     36  C   UNL A   1      37.777  32.537  32.594  1.00  0.00     0.074 A 
ATOM     37  C   UNL A   1      37.890  31.215  30.506  1.00  0.00     0.049 A 
ATOM     38  N   UNL A   1      38.846  32.122  33.223  1.00  0.00    -0.248 NA
ATOM     39  C   UNL A   1      36.996  33.541  33.334  1.00  0.00     0.031 C 
ATOM     40  C   UNL A   1      37.518  30.795  29.153  1.00  0.00     0.029 A 
ATOM     41  N   UNL A   1      38.985  30.441  30.802  1.00  0.00    -0.354 N 
ATOM     42  C   UNL A   1      38.886  32.844  34.409  1.00  0.00     0.074 A 
ATOM     43  C   UNL A   1      37.764  33.756  34.391  1.00  0.00     0.031 C 
ATOM     44  C   UNL A   1      38.361  29.834  28.744  1.00  0.00     0.029 A 
ATOM     45  C   UNL A   1      39.360  29.602  29.781  1.00  0.00     0.049 A 
ATOM     46  H   UNL A   1      39.458  30.484  31.665  1.00  0.00     0.167 HD
ATOM     47  C   UNL A   1      39.766  32.740  35.432  1.00  0.00     0.037 A 
ATOM     48  C   UNL A   1      40.404  28.756  29.689  1.00  0.00     0.037 A 
ATOM     49  C   UNL A   1      40.852  31.799  35.462  1.00  0.00     0.049 A 
ATOM     50  C   UNL A   1      41.362  28.646  30.846  1.00  0.00     0.074 A 
ATOM     51  C   UNL A   1      41.765  31.565  36.475  1.00  0.00     0.029 A 
ATOM     52  N   UNL A   1      41.166  30.926  34.429  1.00  0.00    -0.354 N 
ATOM     53  N   UNL A   1      41.361  29.296  31.985  1.00  0.00    -0.248 NA
ATOM     54  C   UNL A   1      42.463  27.683  30.707  1.00  0.00     0.031 C 
ATOM     55  C   UNL A   1      42.655  30.578  36.041  1.00  0.00     0.029 A 
ATOM     56  C   UNL A   1      42.265  30.160  34.778  1.00  0.00     0.049 A 
ATOM     57  H   UNL A   1      40.679  30.862  33.576  1.00  0.00     0.167 HD
ATOM     58  C   UNL A   1      42.432  28.795  32.711  1.00  0.00     0.074 A 
ATOM     59  C   UNL A   1      43.061  27.785  31.886  1.00  0.00     0.031 C 
ATOM     60  C   UNL A   1      42.856  29.139  33.952  1.00  0.00     0.037 A 
BRANCH  47  61
ATOM     61  C   UNL A   1      39.584  33.662  36.602  1.00  0.00     0.064 A 
ATOM     62  C   UNL A   1      40.179  34.933  36.637  1.00  0.00     0.173 A 
ATOM     63  C   UNL A   1      38.787  33.281  37.691  1.00  0.00     0.173 A 
ATOM     64  F   UNL A   1      40.963  35.339  35.627  1.00  0.00    -0.203 F 
ATOM     65  C   UNL A   1      40.010  35.773  37.733  1.00  0.00     0.198 A 
ATOM     66  C   UNL A   1      38.593  34.139  38.771  1.00  0.00     0.198 A 
ATOM     67  F   UNL A   1      38.191  32.080  37.707  1.00  0.00    -0.203 F 
ATOM     68  F   UNL A   1      40.633  36.960  37.768  1.00  0.00    -0.200 F 
ATOM     69  C   UNL A   1      39.210  35.380  38.795  1.00  0.00     0.200 A 
ATOM     70  F   UNL A   1      37.809  33.762  39.790  1.00  0.00    -0.200 F 
ATOM     71  F   UNL A   1      39.042  36.193  39.847  1.00  0.00    -0.200 F 
ENDBRANCH  47  61
BRANCH  48  72
ATOM     72  C   UNL A   1      40.586  27.927  28.468  1.00  0.00     0.064 A 
ATOM     73  C   UNL A   1      40.007  26.653  28.375  1.00  0.00     0.173 A 
ATOM     74  C   UNL A   1      41.337  28.383  27.376  1.00  0.00     0.173 A 
ATOM     75  F   UNL A   1      39.296  26.165  29.403  1.00  0.00    -0.203 F 
ATOM     76  C   UNL A   1      40.190  25.858  27.245  1.00  0.00     0.198 A 
ATOM     77  C   UNL A   1      41.496  27.599  26.235  1.00  0.00     0.198 A 
ATOM     78  F   UNL A   1      41.906  29.597  27.411  1.00  0.00    -0.203 F 
ATOM     79  F   UNL A   1      39.663  24.628  27.203  1.00  0.00    -0.200 F 
ATOM     80  C   UNL A   1      40.930  26.335  26.173  1.00  0.00     0.200 A 
ATOM     81  F   UNL A   1      42.199  28.068  25.195  1.00  0.00    -0.200 F 
ATOM     82  F   UNL A   1      41.103  25.572  25.085  1.00  0.00    -0.200 F 
ENDBRANCH  48  72
BRANCH  60  83
ATOM     83  C   UNL A   1      44.014  28.376  34.525  1.00  0.00     0.064 A 
ATOM     84  C   UNL A   1      45.333  28.833  34.402  1.00  0.00     0.173 A 
ATOM     85  C   UNL A   1      43.786  27.207  35.267  1.00  0.00     0.173 A 
ATOM     86  F   UNL A   1      45.602  29.937  33.690  1.00  0.00    -0.203 F 
ATOM     87  C   UNL A   1      46.385  28.136  34.989  1.00  0.00     0.198 A 
ATOM     88  C   UNL A   1      44.837  26.530  35.876  1.00  0.00     0.198 A 
ATOM     89  F   UNL A   1      42.539  26.734  35.419  1.00  0.00    -0.203 F 
ATOM     90  F   UNL A   1      47.643  28.569  34.830  1.00  0.00    -0.200 F 
ATOM     91  C   UNL A   1      46.136  26.992  35.734  1.00  0.00     0.200 A 
ATOM     92  F   UNL A   1      44.592  25.433  36.607  1.00  0.00    -0.200 F 
ATOM     93  F   UNL A   1      47.149  26.332  36.310  1.00  0.00    -0.200 F 
ENDBRANCH  60  83
ENDBRANCH  34  35
ENDBRANCH  26  29
ENDBRANCH  24  25
ENDBRANCH  23  24
ENDBRANCH   1  23
TORSDOF 15
ENDMDL
MODEL 3
REMARK VINA RESULT:     -11.9      5.822      9.909
REMARK SMILES CCC(CC)(CC(=O)Nc1cccc(Br)c1)C(=O)NCCCNC(=O)c1ccc(-c2c3nc(c(-c4c(F)c(F)c(F)c(F)c4F)c4ccc([nH]4)c(-c4c(F)c(F)c(F)c(F)c4F)c4nc(c(-c5c(F)c(F)c(F)c(F)c5F)c5ccc2[nH]5)C=C4)C=C3)cc1
REMARK SMILES IDX 20 1 19 2 17 3 18 4 3 6 2 7 1 8 4 9 5 10 6 11 7 12 8 13 9 14
REMARK SMILES IDX 10 16 11 17 16 18 12 19 14 20 13 21 15 22 21 23 22 24 23 25
REMARK SMILES IDX 24 26 25 28 26 29 27 30 88 31 28 32 87 33 29 34 30 35 31 36
REMARK SMILES IDX 81 37 32 38 86 39 80 40 82 41 33 42 85 43 79 44 78 45 34 47
REMARK SMILES IDX 66 48 46 49 65 50 47 51 50 52 64 53 83 54 48 55 49 56 63 58
REMARK SMILES IDX 84 59 51 60 35 61 36 62 44 63 37 64 38 65 42 66 45 67 39 68
REMARK SMILES IDX 40 69 43 70 41 71 67 72 68 73 76 74 69 75 70 76 74 77 77 78
REMARK SMILES IDX 71 79 72 80 75 81 73 82 52 83 53 84 61 85 54 86 55 87 59 88
REMARK SMILES IDX 62 89 56 90 57 91 60 92 58 93
REMARK H PARENT 19 5 9 15 23 27 82 46 50 57
REMARK Flexibility Score: inf
ROOT
ATOM      1  C   UNL A   1      36.756  21.298  25.298  1.00  0.00     0.117 C 
ENDROOT
BRANCH   1   2
ATOM      2  N   UNL A   1      35.461  20.668  25.452  1.00  0.00    -0.356 N 
ATOM      3  C   UNL A   1      34.196  21.133  25.512  1.00  0.00     0.226 C 
ATOM      4  O   UNL A   1      33.347  20.283  25.804  1.00  0.00    -0.274 OA
ATOM      5  H   UNL A   1      35.517  19.687  25.531  1.00  0.00     0.163 HD
BRANCH   3   6
ATOM      6  C   UNL A   1      33.809  22.604  25.241  1.00  0.00     0.057 C 
BRANCH   6   7
ATOM      7  C   UNL A   1      34.037  22.855  23.720  1.00  0.00     0.014 C 
ATOM      8  C   UNL A   1      32.847  23.315  22.885  1.00  0.00     0.005 C 
ENDBRANCH   6   7
BRANCH   6   9
ATOM      9  C   UNL A   1      34.712  23.595  26.043  1.00  0.00     0.014 C 
ATOM     10  C   UNL A   1      35.205  24.809  25.262  1.00  0.00     0.005 C 
ENDBRANCH   6   9
BRANCH   6  11
ATOM     11  C   UNL A   1      32.299  22.839  25.539  1.00  0.00     0.117 C 
BRANCH  11  12
ATOM     12  C   UNL A   1      31.896  23.487  26.867  1.00  0.00     0.225 C 
ATOM     13  O   UNL A   1      31.959  22.847  27.920  1.00  0.00    -0.275 OA
ATOM     14  N   UNL A   1      31.645  24.840  26.922  1.00  0.00    -0.326 N 
ATOM     15  H   UNL A   1      31.746  25.262  27.806  1.00  0.00     0.169 HD
BRANCH  14  16
ATOM     16  C   UNL A   1      31.262  25.692  25.877  1.00  0.00     0.042 A 
ATOM     17  C   UNL A   1      29.954  25.657  25.394  1.00  0.00     0.026 A 
ATOM     18  C   UNL A   1      32.147  26.649  25.388  1.00  0.00     0.041 A 
ATOM     19  C   UNL A   1      29.578  26.432  24.297  1.00  0.00     0.003 A 
ATOM     20  C   UNL A   1      31.756  27.455  24.314  1.00  0.00     0.020 A 
ATOM     21  C   UNL A   1      30.491  27.323  23.740  1.00  0.00     0.016 A 
ATOM     22  Br  UNL A   1      32.954  28.742  23.619  1.00  0.00    -0.051 Br
ENDBRANCH  14  16
ENDBRANCH  11  12
ENDBRANCH   6  11
ENDBRANCH   3   6
ENDBRANCH   1   2
BRANCH   1  23
ATOM     23  C   UNL A   1      37.853  20.287  25.016  1.00  0.00     0.042 C 
BRANCH  23  24
ATOM     24  C   UNL A   1      39.163  20.556  25.739  1.00  0.00     0.118 C 
BRANCH  24  25
ATOM     25  N   UNL A   1      40.018  19.377  25.843  1.00  0.00    -0.352 N 
ATOM     26  C   UNL A   1      41.373  19.306  26.063  1.00  0.00     0.251 C 
ATOM     27  H   UNL A   1      39.559  18.513  25.742  1.00  0.00     0.163 HD
ATOM     28  O   UNL A   1      41.970  18.239  25.971  1.00  0.00    -0.269 OA
BRANCH  26  29
ATOM     29  C   UNL A   1      42.110  20.544  26.381  1.00  0.00     0.039 A 
ATOM     30  C   UNL A   1      42.563  21.358  25.340  1.00  0.00     0.014 A 
ATOM     31  C   UNL A   1      42.283  20.928  27.712  1.00  0.00     0.014 A 
ATOM     32  C   UNL A   1      43.108  22.610  25.636  1.00  0.00     0.010 A 
ATOM     33  C   UNL A   1      42.728  22.210  27.997  1.00  0.00     0.010 A 
ATOM     34  C   UNL A   1      43.147  23.064  26.965  1.00  0.00    -0.014 A 
BRANCH  34  35
ATOM     35  C   UNL A   1      43.639  24.416  27.325  1.00  0.00     0.031 A 
ATOM     36  C   UNL A   1      42.667  25.430  27.859  1.00  0.00     0.074 A 
ATOM     37  C   UNL A   1      44.914  24.766  27.065  1.00  0.00     0.049 A 
ATOM     38  N   UNL A   1      42.828  26.713  28.055  1.00  0.00    -0.248 NA
ATOM     39  C   UNL A   1      41.315  24.940  28.174  1.00  0.00     0.031 C 
ATOM     40  C   UNL A   1      45.941  23.884  26.508  1.00  0.00     0.029 A 
ATOM     41  N   UNL A   1      45.557  25.969  27.213  1.00  0.00    -0.354 N 
ATOM     42  C   UNL A   1      41.592  27.186  28.476  1.00  0.00     0.074 A 
ATOM     43  C   UNL A   1      40.678  26.065  28.459  1.00  0.00     0.031 C 
ATOM     44  C   UNL A   1      47.086  24.571  26.374  1.00  0.00     0.029 A 
ATOM     45  C   UNL A   1      46.863  25.952  26.789  1.00  0.00     0.049 A 
ATOM     46  H   UNL A   1      45.123  26.770  27.588  1.00  0.00     0.167 HD
ATOM     47  C   UNL A   1      41.255  28.438  28.864  1.00  0.00     0.037 A 
ATOM     48  C   UNL A   1      47.771  26.946  26.726  1.00  0.00     0.037 A 
ATOM     49  C   UNL A   1      42.180  29.537  28.921  1.00  0.00     0.049 A 
ATOM     50  C   UNL A   1      47.376  28.328  27.177  1.00  0.00     0.074 A 
ATOM     51  C   UNL A   1      41.959  30.830  29.357  1.00  0.00     0.029 A 
ATOM     52  N   UNL A   1      43.511  29.464  28.534  1.00  0.00    -0.354 N 
ATOM     53  N   UNL A   1      46.219  28.753  27.622  1.00  0.00    -0.248 NA
ATOM     54  C   UNL A   1      48.415  29.365  27.120  1.00  0.00     0.031 C 
ATOM     55  C   UNL A   1      43.146  31.552  29.200  1.00  0.00     0.029 A 
ATOM     56  C   UNL A   1      44.121  30.695  28.713  1.00  0.00     0.049 A 
ATOM     57  H   UNL A   1      43.955  28.659  28.184  1.00  0.00     0.167 HD
ATOM     58  C   UNL A   1      46.400  30.093  27.934  1.00  0.00     0.074 A 
ATOM     59  C   UNL A   1      47.779  30.411  27.629  1.00  0.00     0.031 C 
ATOM     60  C   UNL A   1      45.503  30.981  28.431  1.00  0.00     0.037 A 
BRANCH  47  61
ATOM     61  C   UNL A   1      39.828  28.682  29.261  1.00  0.00     0.064 A 
ATOM     62  C   UNL A   1      39.381  28.459  30.572  1.00  0.00     0.173 A 
ATOM     63  C   UNL A   1      38.902  29.167  28.326  1.00  0.00     0.173 A 
ATOM     64  F   UNL A   1      40.223  27.982  31.501  1.00  0.00    -0.203 F 
ATOM     65  C   UNL A   1      38.052  28.680  30.924  1.00  0.00     0.198 A 
ATOM     66  C   UNL A   1      37.582  29.420  28.690  1.00  0.00     0.198 A 
ATOM     67  F   UNL A   1      39.278  29.402  27.060  1.00  0.00    -0.203 F 
ATOM     68  F   UNL A   1      37.636  28.408  32.168  1.00  0.00    -0.200 F 
ATOM     69  C   UNL A   1      37.156  29.168  29.985  1.00  0.00     0.200 A 
ATOM     70  F   UNL A   1      36.721  29.904  27.784  1.00  0.00    -0.200 F 
ATOM     71  F   UNL A   1      35.879  29.388  30.326  1.00  0.00    -0.200 F 
ENDBRANCH  47  61
BRANCH  48  72
ATOM     72  C   UNL A   1      49.149  26.667  26.242  1.00  0.00     0.064 A 
ATOM     73  C   UNL A   1      50.117  26.135  27.105  1.00  0.00     0.173 A 
ATOM     74  C   UNL A   1      49.527  26.924  24.917  1.00  0.00     0.173 A 
ATOM     75  F   UNL A   1      49.808  25.890  28.387  1.00  0.00    -0.203 F 
ATOM     76  C   UNL A   1      51.418  25.891  26.667  1.00  0.00     0.198 A 
ATOM     77  C   UNL A   1      50.820  26.653  24.472  1.00  0.00     0.198 A 
ATOM     78  F   UNL A   1      48.637  27.426  24.049  1.00  0.00    -0.203 F 
ATOM     79  F   UNL A   1      52.334  25.425  27.526  1.00  0.00    -0.200 F 
ATOM     80  C   UNL A   1      51.766  26.145  25.350  1.00  0.00     0.200 A 
ATOM     81  F   UNL A   1      51.150  26.887  23.195  1.00  0.00    -0.200 F 
ATOM     82  F   UNL A   1      53.016  25.908  24.928  1.00  0.00    -0.200 F 
ENDBRANCH  48  72
BRANCH  60  83
ATOM     83  C   UNL A   1      45.996  32.363  28.740  1.00  0.00     0.064 A 
ATOM     84  C   UNL A   1      45.926  33.400  27.801  1.00  0.00     0.173 A 
ATOM     85  C   UNL A   1      46.481  32.665  30.022  1.00  0.00     0.173 A 
ATOM     86  F   UNL A   1      45.484  33.158  26.558  1.00  0.00    -0.203 F 
ATOM     87  C   UNL A   1      46.340  34.689  28.130  1.00  0.00     0.198 A 
ATOM     88  C   UNL A   1      46.866  33.959  30.356  1.00  0.00     0.198 A 
ATOM     89  F   UNL A   1      46.560  31.707  30.959  1.00  0.00    -0.203 F 
ATOM     90  F   UNL A   1      46.298  35.659  27.206  1.00  0.00    -0.200 F 
ATOM     91  C   UNL A   1      46.799  34.969  29.409  1.00  0.00     0.200 A 
ATOM     92  F   UNL A   1      47.296  34.231  31.596  1.00  0.00    -0.200 F 
ATOM     93  F   UNL A   1      47.182  36.213  29.727  1.00  0.00    -0.200 F 
ENDBRANCH  60  83
ENDBRANCH  34  35
ENDBRANCH  26  29
ENDBRANCH  24  25
ENDBRANCH  23  24
ENDBRANCH   1  23
TORSDOF 15
ENDMDL
