MODEL 1
REMARK VINA RESULT:     -11.5      0.000      0.000
REMARK SMILES Cc1oc(C[N@H+]2C[C@@H](C)[C@@H](C)C2)cc1C(=O)NCCCNC(=O)c1ccc(-c2c3nc(c(-c4c(F)c(F)c(F)c(F)c4F)c4ccc([nH]4)c(-c4c(F)c(F)c(F)c(F)c4F)c4nc(c(-c5c(F)c(F)c(F)c(F)c5F)c5ccc2[nH]5)C=C4)C=C3)cc1
REMARK SMILES IDX 19 1 18 2 17 3 15 4 16 5 14 7 1 8 2 9 3 10 4 11 13 12 5 13
REMARK SMILES IDX 6 14 7 15 12 16 8 18 10 19 9 20 11 21 20 22 21 23 22 24
REMARK SMILES IDX 23 26 24 27 25 28 86 29 26 30 85 31 27 32 28 33 29 34 79 35
REMARK SMILES IDX 30 36 84 37 78 38 80 39 31 40 83 41 77 42 76 43 32 45 64 46
REMARK SMILES IDX 44 47 63 48 45 49 48 50 62 51 81 52 46 53 47 54 61 56 82 57
REMARK SMILES IDX 49 58 33 59 34 60 42 61 35 62 36 63 40 64 43 65 37 66 38 67
REMARK SMILES IDX 41 68 39 69 65 70 66 71 74 72 67 73 68 74 72 75 75 76 69 77
REMARK SMILES IDX 70 78 73 79 71 80 50 81 51 82 59 83 52 84 53 85 57 86 60 87
REMARK SMILES IDX 54 88 55 89 58 90 56 91
REMARK H PARENT 17 6 6 17 21 25 80 44 48 55
REMARK Flexibility Score: inf
ROOT
ATOM      1  C   UNL A   1      42.594  18.858  26.784  1.00  0.00     0.042 C 
ENDROOT
BRANCH   1   2
ATOM      2  C   UNL A   1      41.452  19.565  27.515  1.00  0.00     0.118 C 
BRANCH   2   3
ATOM      3  N   UNL A   1      41.901  20.812  28.078  1.00  0.00    -0.352 N 
ATOM      4  C   UNL A   1      41.442  22.093  28.001  1.00  0.00     0.254 C 
ATOM      5  O   UNL A   1      42.095  22.907  28.668  1.00  0.00    -0.269 OA
ATOM      6  H   UNL A   1      42.708  20.720  28.634  1.00  0.00     0.163 HD
BRANCH   4   7
ATOM      7  C   UNL A   1      40.274  22.547  27.248  1.00  0.00     0.081 A 
ATOM      8  C   UNL A   1      39.279  24.946  27.977  1.00  0.00     0.088 C 
ATOM      9  C   UNL A   1      39.454  23.673  27.251  1.00  0.00     0.114 A 
ATOM     10  O   UNL A   1      38.459  23.529  26.329  1.00  0.00    -0.460 OA
ATOM     11  C   UNL A   1      38.527  22.287  25.806  1.00  0.00     0.159 A 
ATOM     12  C   UNL A   1      39.658  21.670  26.275  1.00  0.00     0.066 A 
BRANCH  11  13
ATOM     13  C   UNL A   1      37.376  21.843  24.969  1.00  0.00     0.338 C 
BRANCH  13  14
ATOM     14  N   UNL A   1      36.241  21.299  25.730  1.00  0.00    -0.328 N 
ATOM     15  C   UNL A   1      35.360  22.306  26.319  1.00  0.00     0.266 C 
ATOM     16  C   UNL A   1      35.418  20.327  25.001  1.00  0.00     0.266 C 
ATOM     17  H   UNL A   1      36.723  20.810  26.484  1.00  0.00     0.348 HD
ATOM     18  C   UNL A   1      34.090  21.517  26.623  1.00  0.00     0.049 C 
ATOM     19  C   UNL A   1      33.958  20.592  25.405  1.00  0.00     0.049 C 
ATOM     20  C   UNL A   1      32.900  22.419  26.918  1.00  0.00     0.014 C 
ATOM     21  C   UNL A   1      33.156  21.184  24.244  1.00  0.00     0.014 C 
ENDBRANCH  13  14
ENDBRANCH  11  13
ENDBRANCH   4   7
ENDBRANCH   2   3
ENDBRANCH   1   2
BRANCH   1  22
ATOM     22  C   UNL A   1      42.689  19.219  25.307  1.00  0.00     0.118 C 
BRANCH  22  23
ATOM     23  N   UNL A   1      43.964  18.802  24.743  1.00  0.00    -0.352 N 
ATOM     24  C   UNL A   1      45.041  19.550  24.354  1.00  0.00     0.251 C 
ATOM     25  H   UNL A   1      44.065  17.831  24.622  1.00  0.00     0.163 HD
ATOM     26  O   UNL A   1      45.914  19.031  23.653  1.00  0.00    -0.269 OA
BRANCH  24  27
ATOM     27  C   UNL A   1      45.176  20.964  24.760  1.00  0.00     0.039 A 
ATOM     28  C   UNL A   1      45.525  21.253  26.082  1.00  0.00     0.014 A 
ATOM     29  C   UNL A   1      44.903  22.004  23.868  1.00  0.00     0.014 A 
ATOM     30  C   UNL A   1      45.638  22.580  26.498  1.00  0.00     0.010 A 
ATOM     31  C   UNL A   1      45.091  23.326  24.260  1.00  0.00     0.010 A 
ATOM     32  C   UNL A   1      45.446  23.627  25.583  1.00  0.00    -0.014 A 
BRANCH  32  33
ATOM     33  C   UNL A   1      45.597  25.044  25.997  1.00  0.00     0.031 A 
ATOM     34  C   UNL A   1      46.943  25.708  25.933  1.00  0.00     0.074 A 
ATOM     35  C   UNL A   1      44.533  25.707  26.486  1.00  0.00     0.049 A 
ATOM     36  N   UNL A   1      47.292  26.912  26.313  1.00  0.00    -0.248 NA
ATOM     37  C   UNL A   1      48.053  24.905  25.395  1.00  0.00     0.031 C 
ATOM     38  C   UNL A   1      43.188  25.149  26.640  1.00  0.00     0.029 A 
ATOM     39  N   UNL A   1      44.415  26.990  26.954  1.00  0.00    -0.354 N 
ATOM     40  C   UNL A   1      48.658  27.001  26.078  1.00  0.00     0.074 A 
ATOM     41  C   UNL A   1      49.086  25.715  25.573  1.00  0.00     0.031 C 
ATOM     42  C   UNL A   1      42.377  26.091  27.146  1.00  0.00     0.029 A 
ATOM     43  C   UNL A   1      43.151  27.304  27.387  1.00  0.00     0.049 A 
ATOM     44  H   UNL A   1      45.167  27.627  26.979  1.00  0.00     0.167 HD
ATOM     45  C   UNL A   1      49.476  28.067  26.247  1.00  0.00     0.037 A 
ATOM     46  C   UNL A   1      42.673  28.442  27.926  1.00  0.00     0.037 A 
ATOM     47  C   UNL A   1      49.036  29.352  26.726  1.00  0.00     0.049 A 
ATOM     48  C   UNL A   1      43.601  29.613  28.100  1.00  0.00     0.074 A 
ATOM     49  C   UNL A   1      49.770  30.515  26.876  1.00  0.00     0.029 A 
ATOM     50  N   UNL A   1      47.740  29.639  27.133  1.00  0.00    -0.354 N 
ATOM     51  N   UNL A   1      44.876  29.707  27.811  1.00  0.00    -0.248 NA
ATOM     52  C   UNL A   1      43.021  30.837  28.667  1.00  0.00     0.031 C 
ATOM     53  C   UNL A   1      48.929  31.495  27.417  1.00  0.00     0.029 A 
ATOM     54  C   UNL A   1      47.659  30.957  27.554  1.00  0.00     0.049 A 
ATOM     55  H   UNL A   1      46.991  29.002  27.123  1.00  0.00     0.167 HD
ATOM     56  C   UNL A   1      45.245  31.006  28.133  1.00  0.00     0.074 A 
ATOM     57  C   UNL A   1      44.054  31.667  28.625  1.00  0.00     0.031 C 
ATOM     58  C   UNL A   1      46.462  31.598  28.033  1.00  0.00     0.037 A 
BRANCH  45  59
ATOM     59  C   UNL A   1      50.929  27.891  25.911  1.00  0.00     0.064 A 
ATOM     60  C   UNL A   1      51.401  28.018  24.592  1.00  0.00     0.173 A 
ATOM     61  C   UNL A   1      51.867  27.626  26.917  1.00  0.00     0.173 A 
ATOM     62  F   UNL A   1      50.543  28.260  23.590  1.00  0.00    -0.203 F 
ATOM     63  C   UNL A   1      52.749  27.854  24.295  1.00  0.00     0.198 A 
ATOM     64  C   UNL A   1      53.223  27.493  26.619  1.00  0.00     0.198 A 
ATOM     65  F   UNL A   1      51.474  27.500  28.193  1.00  0.00    -0.203 F 
ATOM     66  F   UNL A   1      53.167  27.927  23.024  1.00  0.00    -0.200 F 
ATOM     67  C   UNL A   1      53.661  27.599  25.310  1.00  0.00     0.200 A 
ATOM     68  F   UNL A   1      54.103  27.261  27.604  1.00  0.00    -0.200 F 
ATOM     69  F   UNL A   1      54.961  27.448  25.022  1.00  0.00    -0.200 F 
ENDBRANCH  45  59
BRANCH  46  70
ATOM     70  C   UNL A   1      41.242  28.536  28.313  1.00  0.00     0.064 A 
ATOM     71  C   UNL A   1      40.275  28.970  27.395  1.00  0.00     0.173 A 
ATOM     72  C   UNL A   1      40.809  28.190  29.602  1.00  0.00     0.173 A 
ATOM     73  F   UNL A   1      40.643  29.328  26.156  1.00  0.00    -0.203 F 
ATOM     74  C   UNL A   1      38.935  29.077  27.758  1.00  0.00     0.198 A 
ATOM     75  C   UNL A   1      39.464  28.270  29.955  1.00  0.00     0.198 A 
ATOM     76  F   UNL A   1      41.693  27.760  30.515  1.00  0.00    -0.203 F 
ATOM     77  F   UNL A   1      38.039  29.539  26.875  1.00  0.00    -0.200 F 
ATOM     78  C   UNL A   1      38.528  28.722  29.036  1.00  0.00     0.200 A 
ATOM     79  F   UNL A   1      39.072  27.910  31.184  1.00  0.00    -0.200 F 
ATOM     80  F   UNL A   1      37.239  28.821  29.382  1.00  0.00    -0.200 F 
ENDBRANCH  46  70
BRANCH  58  81
ATOM     81  C   UNL A   1      46.555  33.043  28.430  1.00  0.00     0.064 A 
ATOM     82  C   UNL A   1      46.889  33.428  29.736  1.00  0.00     0.173 A 
ATOM     83  C   UNL A   1      46.343  34.054  27.479  1.00  0.00     0.173 A 
ATOM     84  F   UNL A   1      47.086  32.500  30.685  1.00  0.00    -0.203 F 
ATOM     85  C   UNL A   1      46.980  34.774  30.083  1.00  0.00     0.198 A 
ATOM     86  C   UNL A   1      46.467  35.397  27.822  1.00  0.00     0.198 A 
ATOM     87  F   UNL A   1      46.028  33.737  26.214  1.00  0.00    -0.203 F 
ATOM     88  F   UNL A   1      47.252  35.119  31.350  1.00  0.00    -0.200 F 
ATOM     89  C   UNL A   1      46.777  35.755  29.125  1.00  0.00     0.200 A 
ATOM     90  F   UNL A   1      46.284  36.344  26.892  1.00  0.00    -0.200 F 
ATOM     91  F   UNL A   1      46.874  37.050  29.460  1.00  0.00    -0.200 F 
ENDBRANCH  58  81
ENDBRANCH  32  33
ENDBRANCH  24  27
ENDBRANCH  22  23
ENDBRANCH   1  22
TORSDOF 12
ENDMDL
MODEL 2
REMARK VINA RESULT:     -11.5      2.544      8.212
REMARK SMILES Cc1oc(C[N@H+]2C[C@@H](C)[C@@H](C)C2)cc1C(=O)NCCCNC(=O)c1ccc(-c2c3nc(c(-c4c(F)c(F)c(F)c(F)c4F)c4ccc([nH]4)c(-c4c(F)c(F)c(F)c(F)c4F)c4nc(c(-c5c(F)c(F)c(F)c(F)c5F)c5ccc2[nH]5)C=C4)C=C3)cc1
REMARK SMILES IDX 19 1 18 2 17 3 15 4 16 5 14 7 1 8 2 9 3 10 4 11 13 12 5 13
REMARK SMILES IDX 6 14 7 15 12 16 8 18 10 19 9 20 11 21 20 22 21 23 22 24
REMARK SMILES IDX 23 26 24 27 25 28 86 29 26 30 85 31 27 32 28 33 29 34 79 35
REMARK SMILES IDX 30 36 84 37 78 38 80 39 31 40 83 41 77 42 76 43 32 45 64 46
REMARK SMILES IDX 44 47 63 48 45 49 48 50 62 51 81 52 46 53 47 54 61 56 82 57
REMARK SMILES IDX 49 58 33 59 34 60 42 61 35 62 36 63 40 64 43 65 37 66 38 67
REMARK SMILES IDX 41 68 39 69 65 70 66 71 74 72 67 73 68 74 72 75 75 76 69 77
REMARK SMILES IDX 70 78 73 79 71 80 50 81 51 82 59 83 52 84 53 85 57 86 60 87
REMARK SMILES IDX 54 88 55 89 58 90 56 91
REMARK H PARENT 17 6 6 17 21 25 80 44 48 55
REMARK Flexibility Score: inf
ROOT
ATOM      1  C   UNL A   1      38.280  19.674  24.964  1.00  0.00     0.042 C 
ENDROOT
BRANCH   1   2
ATOM      2  C   UNL A   1      37.310  20.815  24.657  1.00  0.00     0.118 C 
BRANCH   2   3
ATOM      3  N   UNL A   1      37.797  22.058  25.198  1.00  0.00    -0.352 N 
ATOM      4  C   UNL A   1      37.183  23.187  25.651  1.00  0.00     0.254 C 
ATOM      5  O   UNL A   1      37.959  24.051  26.080  1.00  0.00    -0.269 OA
ATOM      6  H   UNL A   1      38.780  22.102  25.250  1.00  0.00     0.163 HD
BRANCH   4   7
ATOM      7  C   UNL A   1      35.741  23.426  25.693  1.00  0.00     0.081 A 
ATOM      8  C   UNL A   1      34.357  21.899  27.434  1.00  0.00     0.088 C 
ATOM      9  C   UNL A   1      34.660  22.917  26.408  1.00  0.00     0.114 A 
ATOM     10  O   UNL A   1      33.502  23.502  25.985  1.00  0.00    -0.460 OA
ATOM     11  C   UNL A   1      33.776  24.291  24.926  1.00  0.00     0.159 A 
ATOM     12  C   UNL A   1      35.134  24.342  24.749  1.00  0.00     0.066 A 
BRANCH  11  13
ATOM     13  C   UNL A   1      32.611  24.819  24.160  1.00  0.00     0.338 C 
BRANCH  13  14
ATOM     14  N   UNL A   1      32.192  26.176  24.542  1.00  0.00    -0.328 N 
ATOM     15  C   UNL A   1      31.624  26.287  25.884  1.00  0.00     0.266 C 
ATOM     16  C   UNL A   1      33.225  27.207  24.385  1.00  0.00     0.266 C 
ATOM     17  H   UNL A   1      31.454  26.356  23.861  1.00  0.00     0.348 HD
ATOM     18  C   UNL A   1      31.715  27.781  26.175  1.00  0.00     0.049 C 
ATOM     19  C   UNL A   1      33.077  28.167  25.578  1.00  0.00     0.049 C 
ATOM     20  C   UNL A   1      31.509  28.103  27.648  1.00  0.00     0.014 C 
ATOM     21  C   UNL A   1      34.253  28.039  26.548  1.00  0.00     0.014 C 
ENDBRANCH  13  14
ENDBRANCH  11  13
ENDBRANCH   4   7
ENDBRANCH   2   3
ENDBRANCH   1   2
BRANCH   1  22
ATOM     22  C   UNL A   1      39.285  20.005  26.060  1.00  0.00     0.118 C 
BRANCH  22  23
ATOM     23  N   UNL A   1      40.493  19.206  25.927  1.00  0.00    -0.352 N 
ATOM     24  C   UNL A   1      41.807  19.588  25.926  1.00  0.00     0.251 C 
ATOM     25  H   UNL A   1      40.341  18.240  25.821  1.00  0.00     0.163 HD
ATOM     26  O   UNL A   1      42.665  18.795  25.533  1.00  0.00    -0.269 OA
BRANCH  24  27
ATOM     27  C   UNL A   1      42.212  20.932  26.390  1.00  0.00     0.039 A 
ATOM     28  C   UNL A   1      42.266  21.180  27.764  1.00  0.00     0.014 A 
ATOM     29  C   UNL A   1      42.477  21.961  25.484  1.00  0.00     0.014 A 
ATOM     30  C   UNL A   1      42.624  22.446  28.229  1.00  0.00     0.010 A 
ATOM     31  C   UNL A   1      42.910  23.201  25.946  1.00  0.00     0.010 A 
ATOM     32  C   UNL A   1      42.972  23.460  27.323  1.00  0.00    -0.014 A 
BRANCH  32  33
ATOM     33  C   UNL A   1      43.391  24.802  27.797  1.00  0.00     0.031 A 
ATOM     34  C   UNL A   1      42.356  25.840  28.131  1.00  0.00     0.074 A 
ATOM     35  C   UNL A   1      44.701  25.100  27.867  1.00  0.00     0.049 A 
ATOM     36  N   UNL A   1      42.520  27.087  28.493  1.00  0.00    -0.248 NA
ATOM     37  C   UNL A   1      40.947  25.430  28.015  1.00  0.00     0.031 C 
ATOM     38  C   UNL A   1      45.794  24.188  27.523  1.00  0.00     0.029 A 
ATOM     39  N   UNL A   1      45.338  26.255  28.241  1.00  0.00    -0.354 N 
ATOM     40  C   UNL A   1      41.242  27.613  28.630  1.00  0.00     0.074 A 
ATOM     41  C   UNL A   1      40.313  26.568  28.261  1.00  0.00     0.031 C 
ATOM     42  C   UNL A   1      46.965  24.812  27.721  1.00  0.00     0.029 A 
ATOM     43  C   UNL A   1      46.707  26.176  28.169  1.00  0.00     0.049 A 
ATOM     44  H   UNL A   1      44.859  27.065  28.532  1.00  0.00     0.167 HD
ATOM     45  C   UNL A   1      40.878  28.848  29.048  1.00  0.00     0.037 A 
ATOM     46  C   UNL A   1      47.647  27.105  28.429  1.00  0.00     0.037 A 
ATOM     47  C   UNL A   1      41.810  29.874  29.439  1.00  0.00     0.049 A 
ATOM     48  C   UNL A   1      47.215  28.469  28.895  1.00  0.00     0.074 A 
ATOM     49  C   UNL A   1      41.545  31.138  29.936  1.00  0.00     0.029 A 
ATOM     50  N   UNL A   1      43.191  29.749  29.376  1.00  0.00    -0.354 N 
ATOM     51  N   UNL A   1      46.004  28.933  29.086  1.00  0.00    -0.248 NA
ATOM     52  C   UNL A   1      48.282  29.435  29.190  1.00  0.00     0.031 C 
ATOM     53  C   UNL A   1      42.765  31.795  30.130  1.00  0.00     0.029 A 
ATOM     54  C   UNL A   1      43.791  30.922  29.804  1.00  0.00     0.049 A 
ATOM     55  H   UNL A   1      43.672  28.946  29.072  1.00  0.00     0.167 HD
ATOM     56  C   UNL A   1      46.162  30.232  29.550  1.00  0.00     0.074 A 
ATOM     57  C   UNL A   1      47.588  30.476  29.626  1.00  0.00     0.031 C 
ATOM     58  C   UNL A   1      45.212  31.142  29.880  1.00  0.00     0.037 A 
BRANCH  45  59
ATOM     59  C   UNL A   1      39.410  29.159  29.107  1.00  0.00     0.064 A 
ATOM     60  C   UNL A   1      38.702  29.150  30.322  1.00  0.00     0.173 A 
ATOM     61  C   UNL A   1      38.706  29.502  27.946  1.00  0.00     0.173 A 
ATOM     62  F   UNL A   1      39.326  28.816  31.463  1.00  0.00    -0.203 F 
ATOM     63  C   UNL A   1      37.343  29.441  30.363  1.00  0.00     0.198 A 
ATOM     64  C   UNL A   1      37.350  29.824  27.994  1.00  0.00     0.198 A 
ATOM     65  F   UNL A   1      39.332  29.533  26.759  1.00  0.00    -0.203 F 
ATOM     66  F   UNL A   1      36.679  29.374  31.525  1.00  0.00    -0.200 F 
ATOM     67  C   UNL A   1      36.669  29.785  29.199  1.00  0.00     0.200 A 
ATOM     68  F   UNL A   1      36.705  30.171  26.871  1.00  0.00    -0.200 F 
ATOM     69  F   UNL A   1      35.361  30.072  29.241  1.00  0.00    -0.200 F 
ENDBRANCH  45  59
BRANCH  46  70
ATOM     70  C   UNL A   1      49.085  26.767  28.280  1.00  0.00     0.064 A 
ATOM     71  C   UNL A   1      49.714  26.831  27.029  1.00  0.00     0.173 A 
ATOM     72  C   UNL A   1      49.862  26.377  29.382  1.00  0.00     0.173 A 
ATOM     73  F   UNL A   1      49.009  27.181  25.944  1.00  0.00    -0.203 F 
ATOM     74  C   UNL A   1      51.058  26.497  26.881  1.00  0.00     0.198 A 
ATOM     75  C   UNL A   1      51.213  26.071  29.237  1.00  0.00     0.198 A 
ATOM     76  F   UNL A   1      49.310  26.308  30.602  1.00  0.00    -0.203 F 
ATOM     77  F   UNL A   1      51.622  26.523  25.666  1.00  0.00    -0.200 F 
ATOM     78  C   UNL A   1      51.809  26.123  27.985  1.00  0.00     0.200 A 
ATOM     79  F   UNL A   1      51.939  25.727  30.309  1.00  0.00    -0.200 F 
ATOM     80  F   UNL A   1      53.102  25.807  27.842  1.00  0.00    -0.200 F 
ENDBRANCH  46  70
BRANCH  58  81
ATOM     81  C   UNL A   1      45.686  32.473  30.390  1.00  0.00     0.064 A 
ATOM     82  C   UNL A   1      45.945  32.690  31.751  1.00  0.00     0.173 A 
ATOM     83  C   UNL A   1      45.918  33.531  29.497  1.00  0.00     0.173 A 
ATOM     84  F   UNL A   1      45.723  31.715  32.645  1.00  0.00    -0.203 F 
ATOM     85  C   UNL A   1      46.393  33.929  32.203  1.00  0.00     0.198 A 
ATOM     86  C   UNL A   1      46.398  34.756  29.949  1.00  0.00     0.198 A 
ATOM     87  F   UNL A   1      45.693  33.370  28.185  1.00  0.00    -0.203 F 
ATOM     88  F   UNL A   1      46.587  34.130  33.514  1.00  0.00    -0.200 F 
ATOM     89  C   UNL A   1      46.626  34.957  31.302  1.00  0.00     0.200 A 
ATOM     90  F   UNL A   1      46.636  35.744  29.076  1.00  0.00    -0.200 F 
ATOM     91  F   UNL A   1      47.066  36.146  31.740  1.00  0.00    -0.200 F 
ENDBRANCH  58  81
ENDBRANCH  32  33
ENDBRANCH  24  27
ENDBRANCH  22  23
ENDBRANCH   1  22
TORSDOF 12
ENDMDL
MODEL 3
REMARK VINA RESULT:     -11.5      2.248      8.184
REMARK SMILES Cc1oc(C[N@H+]2C[C@@H](C)[C@@H](C)C2)cc1C(=O)NCCCNC(=O)c1ccc(-c2c3nc(c(-c4c(F)c(F)c(F)c(F)c4F)c4ccc([nH]4)c(-c4c(F)c(F)c(F)c(F)c4F)c4nc(c(-c5c(F)c(F)c(F)c(F)c5F)c5ccc2[nH]5)C=C4)C=C3)cc1
REMARK SMILES IDX 19 1 18 2 17 3 15 4 16 5 14 7 1 8 2 9 3 10 4 11 13 12 5 13
REMARK SMILES IDX 6 14 7 15 12 16 8 18 10 19 9 20 11 21 20 22 21 23 22 24
REMARK SMILES IDX 23 26 24 27 25 28 86 29 26 30 85 31 27 32 28 33 29 34 79 35
REMARK SMILES IDX 30 36 84 37 78 38 80 39 31 40 83 41 77 42 76 43 32 45 64 46
REMARK SMILES IDX 44 47 63 48 45 49 48 50 62 51 81 52 46 53 47 54 61 56 82 57
REMARK SMILES IDX 49 58 33 59 34 60 42 61 35 62 36 63 40 64 43 65 37 66 38 67
REMARK SMILES IDX 41 68 39 69 65 70 66 71 74 72 67 73 68 74 72 75 75 76 69 77
REMARK SMILES IDX 70 78 73 79 71 80 50 81 51 82 59 83 52 84 53 85 57 86 60 87
REMARK SMILES IDX 54 88 55 89 58 90 56 91
REMARK H PARENT 17 6 6 17 21 25 80 44 48 55
REMARK Flexibility Score: inf
ROOT
ATOM      1  C   UNL A   1      38.337  19.600  24.939  1.00  0.00     0.042 C 
ENDROOT
BRANCH   1   2
ATOM      2  C   UNL A   1      37.348  20.738  24.686  1.00  0.00     0.118 C 
BRANCH   2   3
ATOM      3  N   UNL A   1      37.820  21.965  25.272  1.00  0.00    -0.352 N 
ATOM      4  C   UNL A   1      37.196  23.093  25.716  1.00  0.00     0.254 C 
ATOM      5  O   UNL A   1      37.959  23.940  26.197  1.00  0.00    -0.269 OA
ATOM      6  H   UNL A   1      38.800  21.997  25.374  1.00  0.00     0.163 HD
BRANCH   4   7
ATOM      7  C   UNL A   1      35.756  23.347  25.690  1.00  0.00     0.081 A 
ATOM      8  C   UNL A   1      34.287  21.894  27.425  1.00  0.00     0.088 C 
ATOM      9  C   UNL A   1      34.641  22.872  26.378  1.00  0.00     0.114 A 
ATOM     10  O   UNL A   1      33.508  23.454  25.889  1.00  0.00    -0.460 OA
ATOM     11  C   UNL A   1      33.833  24.203  24.815  1.00  0.00     0.159 A 
ATOM     12  C   UNL A   1      35.198  24.235  24.693  1.00  0.00     0.066 A 
BRANCH  11  13
ATOM     13  C   UNL A   1      32.706  24.715  23.985  1.00  0.00     0.338 C 
BRANCH  13  14
ATOM     14  N   UNL A   1      32.213  26.045  24.376  1.00  0.00    -0.328 N 
ATOM     15  C   UNL A   1      31.676  26.124  25.733  1.00  0.00     0.266 C 
ATOM     16  C   UNL A   1      33.175  27.138  24.190  1.00  0.00     0.266 C 
ATOM     17  H   UNL A   1      31.447  26.176  23.715  1.00  0.00     0.348 HD
ATOM     18  C   UNL A   1      31.681  27.623  26.019  1.00  0.00     0.049 C 
ATOM     19  C   UNL A   1      32.999  28.091  25.385  1.00  0.00     0.049 C 
ATOM     20  C   UNL A   1      31.495  27.935  27.497  1.00  0.00     0.014 C 
ATOM     21  C   UNL A   1      34.206  28.040  26.322  1.00  0.00     0.014 C 
ENDBRANCH  13  14
ENDBRANCH  11  13
ENDBRANCH   4   7
ENDBRANCH   2   3
ENDBRANCH   1   2
BRANCH   1  22
ATOM     22  C   UNL A   1      39.244  19.836  26.141  1.00  0.00     0.118 C 
BRANCH  22  23
ATOM     23  N   UNL A   1      40.412  18.970  26.100  1.00  0.00    -0.352 N 
ATOM     24  C   UNL A   1      41.742  19.286  26.051  1.00  0.00     0.251 C 
ATOM     25  H   UNL A   1      40.213  18.006  26.108  1.00  0.00     0.163 HD
ATOM     26  O   UNL A   1      42.559  18.412  25.751  1.00  0.00    -0.269 OA
BRANCH  24  27
ATOM     27  C   UNL A   1      42.214  20.653  26.353  1.00  0.00     0.039 A 
ATOM     28  C   UNL A   1      42.502  21.514  25.292  1.00  0.00     0.014 A 
ATOM     29  C   UNL A   1      42.432  21.070  27.669  1.00  0.00     0.014 A 
ATOM     30  C   UNL A   1      42.970  22.804  25.548  1.00  0.00     0.010 A 
ATOM     31  C   UNL A   1      42.823  22.381  27.928  1.00  0.00     0.010 A 
ATOM     32  C   UNL A   1      43.111  23.255  26.870  1.00  0.00    -0.014 A 
BRANCH  32  33
ATOM     33  C   UNL A   1      43.572  24.634  27.164  1.00  0.00     0.031 A 
ATOM     34  C   UNL A   1      42.602  25.660  27.681  1.00  0.00     0.074 A 
ATOM     35  C   UNL A   1      44.848  24.974  26.905  1.00  0.00     0.049 A 
ATOM     36  N   UNL A   1      42.794  26.930  27.931  1.00  0.00    -0.248 NA
ATOM     37  C   UNL A   1      41.224  25.203  27.923  1.00  0.00     0.031 C 
ATOM     38  C   UNL A   1      45.867  24.076  26.357  1.00  0.00     0.029 A 
ATOM     39  N   UNL A   1      45.506  26.167  27.059  1.00  0.00    -0.354 N 
ATOM     40  C   UNL A   1      41.563  27.425  28.341  1.00  0.00     0.074 A 
ATOM     41  C   UNL A   1      40.618  26.334  28.256  1.00  0.00     0.031 C 
ATOM     42  C   UNL A   1      47.024  24.744  26.241  1.00  0.00     0.029 A 
ATOM     43  C   UNL A   1      46.821  26.124  26.669  1.00  0.00     0.049 A 
ATOM     44  H   UNL A   1      45.076  26.979  27.415  1.00  0.00     0.167 HD
ATOM     45  C   UNL A   1      41.256  28.672  28.771  1.00  0.00     0.037 A 
ATOM     46  C   UNL A   1      47.756  27.093  26.651  1.00  0.00     0.037 A 
ATOM     47  C   UNL A   1      42.210  29.745  28.878  1.00  0.00     0.049 A 
ATOM     48  C   UNL A   1      47.389  28.469  27.138  1.00  0.00     0.074 A 
ATOM     49  C   UNL A   1      42.016  31.028  29.359  1.00  0.00     0.029 A 
ATOM     50  N   UNL A   1      43.541  29.657  28.495  1.00  0.00    -0.354 N 
ATOM     51  N   UNL A   1      46.239  28.908  27.587  1.00  0.00    -0.248 NA
ATOM     52  C   UNL A   1      48.454  29.481  27.122  1.00  0.00     0.031 C 
ATOM     53  C   UNL A   1      43.218  31.731  29.225  1.00  0.00     0.029 A 
ATOM     54  C   UNL A   1      44.175  30.870  28.710  1.00  0.00     0.049 A 
ATOM     55  H   UNL A   1      43.970  28.852  28.126  1.00  0.00     0.167 HD
ATOM     56  C   UNL A   1      46.446  30.236  27.934  1.00  0.00     0.074 A 
ATOM     57  C   UNL A   1      47.839  30.525  27.658  1.00  0.00     0.031 C 
ATOM     58  C   UNL A   1      45.564  31.136  28.435  1.00  0.00     0.037 A 
BRANCH  45  59
ATOM     59  C   UNL A   1      39.831  28.943  29.161  1.00  0.00     0.064 A 
ATOM     60  C   UNL A   1      39.385  28.782  30.485  1.00  0.00     0.173 A 
ATOM     61  C   UNL A   1      38.906  29.398  28.213  1.00  0.00     0.173 A 
ATOM     62  F   UNL A   1      40.227  28.336  31.430  1.00  0.00    -0.203 F 
ATOM     63  C   UNL A   1      38.064  29.037  30.833  1.00  0.00     0.198 A 
ATOM     64  C   UNL A   1      37.589  29.684  28.571  1.00  0.00     0.198 A 
ATOM     65  F   UNL A   1      39.277  29.575  26.935  1.00  0.00    -0.203 F 
ATOM     66  F   UNL A   1      37.650  28.827  32.090  1.00  0.00    -0.200 F 
ATOM     67  C   UNL A   1      37.167  29.496  29.876  1.00  0.00     0.200 A 
ATOM     68  F   UNL A   1      36.729  30.140  27.649  1.00  0.00    -0.200 F 
ATOM     69  F   UNL A   1      35.896  29.748  30.215  1.00  0.00    -0.200 F 
ENDBRANCH  45  59
BRANCH  46  70
ATOM     70  C   UNL A   1      49.132  26.789  26.182  1.00  0.00     0.064 A 
ATOM     71  C   UNL A   1      49.497  26.988  24.844  1.00  0.00     0.173 A 
ATOM     72  C   UNL A   1      50.112  26.299  27.060  1.00  0.00     0.173 A 
ATOM     73  F   UNL A   1      48.591  27.438  23.964  1.00  0.00    -0.203 F 
ATOM     74  C   UNL A   1      50.781  26.686  24.395  1.00  0.00     0.198 A 
ATOM     75  C   UNL A   1      51.403  26.025  26.616  1.00  0.00     0.198 A 
ATOM     76  F   UNL A   1      49.816  26.099  28.353  1.00  0.00    -0.203 F 
ATOM     77  F   UNL A   1      51.089  26.842  23.100  1.00  0.00    -0.200 F 
ATOM     78  C   UNL A   1      51.735  26.211  25.282  1.00  0.00     0.200 A 
ATOM     79  F   UNL A   1      52.327  25.583  27.479  1.00  0.00    -0.200 F 
ATOM     80  F   UNL A   1      52.970  25.926  24.850  1.00  0.00    -0.200 F 
ENDBRANCH  46  70
BRANCH  58  81
ATOM     81  C   UNL A   1      46.087  32.507  28.750  1.00  0.00     0.064 A 
ATOM     82  C   UNL A   1      46.043  33.546  27.809  1.00  0.00     0.173 A 
ATOM     83  C   UNL A   1      46.606  32.792  30.022  1.00  0.00     0.173 A 
ATOM     84  F   UNL A   1      45.571  33.320  26.574  1.00  0.00    -0.203 F 
ATOM     85  C   UNL A   1      46.525  34.815  28.123  1.00  0.00     0.198 A 
ATOM     86  C   UNL A   1      47.056  34.070  30.342  1.00  0.00     0.198 A 
ATOM     87  F   UNL A   1      46.663  31.834  30.960  1.00  0.00    -0.203 F 
ATOM     88  F   UNL A   1      46.519  35.779  27.192  1.00  0.00    -0.200 F 
ATOM     89  C   UNL A   1      47.024  35.076  29.390  1.00  0.00     0.200 A 
ATOM     90  F   UNL A   1      47.524  34.325  31.571  1.00  0.00    -0.200 F 
ATOM     91  F   UNL A   1      47.479  36.301  29.691  1.00  0.00    -0.200 F 
ENDBRANCH  58  81
ENDBRANCH  32  33
ENDBRANCH  24  27
ENDBRANCH  22  23
ENDBRANCH   1  22
TORSDOF 12
ENDMDL
