MODEL 1
REMARK VINA RESULT:     -11.4      0.000      0.000
REMARK SMILES O=C(NCCCNC(=O)[C@H]1Cc2cc(O)ccc2C[NH2+]1)c1ccc(-c2c3nc(c(-c4c(F)c(F)c(F)c(F)c4F)c4ccc([nH]4)c(-c4c(F)c(F)c(F)c(F)c4F)c4nc(c(-c5c(F)c(F)c(F)c(F)c5F)c5ccc2[nH]5)C=C4)C=C3)cc1
REMARK SMILES IDX 4 1 3 2 1 3 2 4 21 6 22 7 83 8 23 9 82 10 24 11 25 12 26 13
REMARK SMILES IDX 76 14 27 15 81 16 75 17 77 18 28 19 80 20 74 21 73 22 29 24
REMARK SMILES IDX 61 25 41 26 60 27 42 28 45 29 59 30 78 31 43 32 44 33 58 35
REMARK SMILES IDX 79 36 46 37 30 38 31 39 39 40 32 41 33 42 37 43 40 44 34 45
REMARK SMILES IDX 35 46 38 47 36 48 62 49 63 50 71 51 64 52 65 53 69 54 72 55
REMARK SMILES IDX 66 56 67 57 70 58 68 59 47 60 48 61 56 62 49 63 50 64 54 65
REMARK SMILES IDX 57 66 51 67 52 68 55 69 53 70 5 71 6 72 7 73 8 74 9 76 10 77
REMARK SMILES IDX 11 78 20 79 12 80 19 81 13 84 18 85 14 86 17 87 16 88 15 89
REMARK H PARENT 3 5 77 23 45 34 7 75 20 82 20 83 15 90
REMARK Flexibility Score: inf
ROOT
ATOM      1  C   UNL A   1      40.449  21.371  26.793  1.00  0.00     0.118 C 
ENDROOT
BRANCH   1   2
ATOM      2  N   UNL A   1      39.235  21.773  26.106  1.00  0.00    -0.352 N 
ATOM      3  O   UNL A   1      37.446  23.036  25.631  1.00  0.00    -0.269 OA
ATOM      4  C   UNL A   1      38.570  22.973  26.120  1.00  0.00     0.251 C 
ATOM      5  H   UNL A   1      38.824  21.077  25.545  1.00  0.00     0.163 HD
BRANCH   4   6
ATOM      6  C   UNL A   1      39.178  24.187  26.715  1.00  0.00     0.039 A 
ATOM      7  C   UNL A   1      38.949  24.445  28.071  1.00  0.00     0.014 A 
ATOM      8  C   UNL A   1      39.892  25.114  25.948  1.00  0.00     0.014 A 
ATOM      9  C   UNL A   1      39.435  25.618  28.654  1.00  0.00     0.010 A 
ATOM     10  C   UNL A   1      40.447  26.243  26.549  1.00  0.00     0.010 A 
ATOM     11  C   UNL A   1      40.194  26.525  27.899  1.00  0.00    -0.014 A 
BRANCH  11  12
ATOM     12  C   UNL A   1      40.649  27.811  28.488  1.00  0.00     0.031 A 
ATOM     13  C   UNL A   1      42.116  28.032  28.755  1.00  0.00     0.074 A 
ATOM     14  C   UNL A   1      39.756  28.773  28.790  1.00  0.00     0.049 A 
ATOM     15  N   UNL A   1      42.713  29.068  29.290  1.00  0.00    -0.248 NA
ATOM     16  C   UNL A   1      43.031  26.937  28.394  1.00  0.00     0.031 C 
ATOM     17  C   UNL A   1      38.309  28.669  28.605  1.00  0.00     0.029 A 
ATOM     18  N   UNL A   1      39.936  30.030  29.310  1.00  0.00    -0.354 N 
ATOM     19  C   UNL A   1      44.061  28.739  29.343  1.00  0.00     0.074 A 
ATOM     20  C   UNL A   1      44.193  27.392  28.837  1.00  0.00     0.031 C 
ATOM     21  C   UNL A   1      37.735  29.826  28.972  1.00  0.00     0.029 A 
ATOM     22  C   UNL A   1      38.769  30.743  29.448  1.00  0.00     0.049 A 
ATOM     23  H   UNL A   1      40.818  30.389  29.562  1.00  0.00     0.167 HD
ATOM     24  C   UNL A   1      45.101  29.505  29.748  1.00  0.00     0.037 A 
ATOM     25  C   UNL A   1      38.559  31.994  29.901  1.00  0.00     0.037 A 
ATOM     26  C   UNL A   1      44.977  30.865  30.197  1.00  0.00     0.049 A 
ATOM     27  C   UNL A   1      39.734  32.827  30.340  1.00  0.00     0.074 A 
ATOM     28  C   UNL A   1      45.980  31.742  30.571  1.00  0.00     0.029 A 
ATOM     29  N   UNL A   1      43.778  31.548  30.317  1.00  0.00    -0.354 N 
ATOM     30  N   UNL A   1      41.008  32.519  30.341  1.00  0.00    -0.248 NA
ATOM     31  C   UNL A   1      39.444  34.179  30.840  1.00  0.00     0.031 C 
ATOM     32  C   UNL A   1      45.385  32.948  30.947  1.00  0.00     0.029 A 
ATOM     33  C   UNL A   1      44.016  32.833  30.773  1.00  0.00     0.049 A 
ATOM     34  H   UNL A   1      42.891  31.175  30.110  1.00  0.00     0.167 HD
ATOM     35  C   UNL A   1      41.672  33.642  30.815  1.00  0.00     0.074 A 
ATOM     36  C   UNL A   1      40.662  34.644  31.084  1.00  0.00     0.031 C 
ATOM     37  C   UNL A   1      42.999  33.824  31.012  1.00  0.00     0.037 A 
BRANCH  24  38
ATOM     38  C   UNL A   1      46.476  28.908  29.699  1.00  0.00     0.064 A 
ATOM     39  C   UNL A   1      47.032  28.269  30.816  1.00  0.00     0.173 A 
ATOM     40  C   UNL A   1      47.208  28.901  28.502  1.00  0.00     0.173 A 
ATOM     41  F   UNL A   1      46.374  28.258  31.985  1.00  0.00    -0.203 F 
ATOM     42  C   UNL A   1      48.278  27.652  30.739  1.00  0.00     0.198 A 
ATOM     43  C   UNL A   1      48.441  28.261  28.422  1.00  0.00     0.198 A 
ATOM     44  F   UNL A   1      46.715  29.493  27.404  1.00  0.00    -0.203 F 
ATOM     45  F   UNL A   1      48.802  27.069  31.827  1.00  0.00    -0.200 F 
ATOM     46  C   UNL A   1      48.976  27.639  29.542  1.00  0.00     0.200 A 
ATOM     47  F   UNL A   1      49.109  28.237  27.261  1.00  0.00    -0.200 F 
ATOM     48  F   UNL A   1      50.166  27.027  29.465  1.00  0.00    -0.200 F 
ENDBRANCH  24  38
BRANCH  25  49
ATOM     49  C   UNL A   1      37.181  32.551  29.924  1.00  0.00     0.064 A 
ATOM     50  C   UNL A   1      36.331  32.313  31.013  1.00  0.00     0.173 A 
ATOM     51  C   UNL A   1      36.690  33.334  28.870  1.00  0.00     0.173 A 
ATOM     52  F   UNL A   1      36.749  31.553  32.036  1.00  0.00    -0.203 F 
ATOM     53  C   UNL A   1      35.038  32.830  31.041  1.00  0.00     0.198 A 
ATOM     54  C   UNL A   1      35.405  33.869  28.910  1.00  0.00     0.198 A 
ATOM     55  F   UNL A   1      37.465  33.592  27.806  1.00  0.00    -0.203 F 
ATOM     56  F   UNL A   1      34.233  32.559  32.079  1.00  0.00    -0.200 F 
ATOM     57  C   UNL A   1      34.578  33.613  29.994  1.00  0.00     0.200 A 
ATOM     58  F   UNL A   1      34.968  34.637  27.902  1.00  0.00    -0.200 F 
ATOM     59  F   UNL A   1      33.335  34.115  30.025  1.00  0.00    -0.200 F 
ENDBRANCH  25  49
BRANCH  37  60
ATOM     60  C   UNL A   1      43.457  35.157  31.520  1.00  0.00     0.064 A 
ATOM     61  C   UNL A   1      43.785  36.197  30.642  1.00  0.00     0.173 A 
ATOM     62  C   UNL A   1      43.453  35.429  32.897  1.00  0.00     0.173 A 
ATOM     63  F   UNL A   1      43.811  35.979  29.318  1.00  0.00    -0.203 F 
ATOM     64  C   UNL A   1      44.093  37.466  31.123  1.00  0.00     0.198 A 
ATOM     65  C   UNL A   1      43.739  36.705  33.373  1.00  0.00     0.198 A 
ATOM     66  F   UNL A   1      43.135  34.466  33.776  1.00  0.00    -0.203 F 
ATOM     67  F   UNL A   1      44.418  38.444  30.267  1.00  0.00    -0.200 F 
ATOM     68  C   UNL A   1      44.059  37.722  32.486  1.00  0.00     0.200 A 
ATOM     69  F   UNL A   1      43.690  36.954  34.689  1.00  0.00    -0.200 F 
ATOM     70  F   UNL A   1      44.330  38.951  32.945  1.00  0.00    -0.200 F 
ENDBRANCH  37  60
ENDBRANCH  11  12
ENDBRANCH   4   6
ENDBRANCH   1   2
BRANCH   1  71
ATOM     71  C   UNL A   1      40.913  19.982  26.375  1.00  0.00     0.042 C 
BRANCH  71  72
ATOM     72  C   UNL A   1      42.338  19.648  26.815  1.00  0.00     0.118 C 
BRANCH  72  73
ATOM     73  N   UNL A   1      43.192  19.371  25.676  1.00  0.00    -0.351 N 
ATOM     74  C   UNL A   1      43.941  20.213  24.900  1.00  0.00     0.278 C 
ATOM     75  H   UNL A   1      43.240  18.421  25.418  1.00  0.00     0.163 HD
ATOM     76  O   UNL A   1      44.549  19.700  23.957  1.00  0.00    -0.268 OA
BRANCH  74  77
ATOM     77  C   UNL A   1      44.080  21.705  25.272  1.00  0.00     0.277 C 
ATOM     78  C   UNL A   1      45.462  22.229  24.833  1.00  0.00     0.111 C 
ATOM     79  N   UNL A   1      43.035  22.533  24.623  1.00  0.00    -0.332 N 
ATOM     80  C   UNL A   1      45.587  23.727  24.984  1.00  0.00    -0.029 A 
ATOM     81  C   UNL A   1      43.068  23.885  25.187  1.00  0.00     0.298 C 
ATOM     82  H   UNL A   1      42.119  22.117  24.789  1.00  0.00     0.347 HD
ATOM     83  H   UNL A   1      43.210  22.577  23.619  1.00  0.00     0.347 HD
ATOM     84  C   UNL A   1      46.842  24.341  24.907  1.00  0.00     0.050 A 
ATOM     85  C   UNL A   1      44.433  24.520  25.130  1.00  0.00     0.010 A 
ATOM     86  C   UNL A   1      46.945  25.723  25.016  1.00  0.00     0.115 A 
ATOM     87  C   UNL A   1      44.561  25.909  25.268  1.00  0.00     0.013 A 
ATOM     88  C   UNL A   1      45.817  26.513  25.209  1.00  0.00     0.046 A 
BRANCH  86  89
ATOM     89  O   UNL A   1      48.188  26.276  24.924  1.00  0.00    -0.508 OA
ATOM     90  H   UNL A   1      48.633  26.561  25.698  1.00  0.00     0.293 HD
ENDBRANCH  86  89
ENDBRANCH  74  77
ENDBRANCH  72  73
ENDBRANCH  71  72
ENDBRANCH   1  71
TORSDOF 11
ENDMDL
MODEL 2
REMARK VINA RESULT:     -11.4      5.763     10.150
REMARK SMILES O=C(NCCCNC(=O)[C@H]1Cc2cc(O)ccc2C[NH2+]1)c1ccc(-c2c3nc(c(-c4c(F)c(F)c(F)c(F)c4F)c4ccc([nH]4)c(-c4c(F)c(F)c(F)c(F)c4F)c4nc(c(-c5c(F)c(F)c(F)c(F)c5F)c5ccc2[nH]5)C=C4)C=C3)cc1
REMARK SMILES IDX 4 1 3 2 1 3 2 4 21 6 22 7 83 8 23 9 82 10 24 11 25 12 26 13
REMARK SMILES IDX 76 14 27 15 81 16 75 17 77 18 28 19 80 20 74 21 73 22 29 24
REMARK SMILES IDX 61 25 41 26 60 27 42 28 45 29 59 30 78 31 43 32 44 33 58 35
REMARK SMILES IDX 79 36 46 37 30 38 31 39 39 40 32 41 33 42 37 43 40 44 34 45
REMARK SMILES IDX 35 46 38 47 36 48 62 49 63 50 71 51 64 52 65 53 69 54 72 55
REMARK SMILES IDX 66 56 67 57 70 58 68 59 47 60 48 61 56 62 49 63 50 64 54 65
REMARK SMILES IDX 57 66 51 67 52 68 55 69 53 70 5 71 6 72 7 73 8 74 9 76 10 77
REMARK SMILES IDX 11 78 20 79 12 80 19 81 13 84 18 85 14 86 17 87 16 88 15 89
REMARK H PARENT 3 5 77 23 45 34 7 75 20 82 20 83 15 90
REMARK Flexibility Score: inf
ROOT
ATOM      1  C   UNL A   1      32.626  32.823  27.252  1.00  0.00     0.118 C 
ENDROOT
BRANCH   1   2
ATOM      2  N   UNL A   1      32.441  34.214  27.626  1.00  0.00    -0.352 N 
ATOM      3  O   UNL A   1      32.528  36.038  28.924  1.00  0.00    -0.269 OA
ATOM      4  C   UNL A   1      32.978  34.925  28.668  1.00  0.00     0.251 C 
ATOM      5  H   UNL A   1      31.835  34.725  27.042  1.00  0.00     0.163 HD
BRANCH   4   6
ATOM      6  C   UNL A   1      34.084  34.378  29.489  1.00  0.00     0.039 A 
ATOM      7  C   UNL A   1      35.388  34.474  28.991  1.00  0.00     0.014 A 
ATOM      8  C   UNL A   1      33.853  33.698  30.690  1.00  0.00     0.014 A 
ATOM      9  C   UNL A   1      36.452  33.902  29.693  1.00  0.00     0.010 A 
ATOM     10  C   UNL A   1      34.924  33.198  31.431  1.00  0.00     0.010 A 
ATOM     11  C   UNL A   1      36.229  33.262  30.923  1.00  0.00    -0.014 A 
BRANCH  11  12
ATOM     12  C   UNL A   1      37.340  32.583  31.639  1.00  0.00     0.031 A 
ATOM     13  C   UNL A   1      38.066  31.440  30.977  1.00  0.00     0.074 A 
ATOM     14  C   UNL A   1      37.693  32.980  32.876  1.00  0.00     0.049 A 
ATOM     15  N   UNL A   1      39.040  30.697  31.442  1.00  0.00    -0.248 NA
ATOM     16  C   UNL A   1      37.627  31.066  29.622  1.00  0.00     0.031 C 
ATOM     17  C   UNL A   1      37.050  34.053  33.634  1.00  0.00     0.029 A 
ATOM     18  N   UNL A   1      38.684  32.530  33.713  1.00  0.00    -0.354 N 
ATOM     19  C   UNL A   1      39.311  29.767  30.448  1.00  0.00     0.074 A 
ATOM     20  C   UNL A   1      38.371  29.999  29.376  1.00  0.00     0.031 C 
ATOM     21  C   UNL A   1      37.684  34.203  34.808  1.00  0.00     0.029 A 
ATOM     22  C   UNL A   1      38.758  33.216  34.901  1.00  0.00     0.049 A 
ATOM     23  H   UNL A   1      39.286  31.784  33.483  1.00  0.00     0.167 HD
ATOM     24  C   UNL A   1      40.281  28.823  30.418  1.00  0.00     0.037 A 
ATOM     25  C   UNL A   1      39.600  33.070  35.941  1.00  0.00     0.037 A 
ATOM     26  C   UNL A   1      41.253  28.628  31.458  1.00  0.00     0.049 A 
ATOM     27  C   UNL A   1      40.673  32.015  35.880  1.00  0.00     0.074 A 
ATOM     28  C   UNL A   1      42.311  27.737  31.491  1.00  0.00     0.029 A 
ATOM     29  N   UNL A   1      41.294  29.349  32.641  1.00  0.00    -0.354 N 
ATOM     30  N   UNL A   1      40.947  31.174  34.914  1.00  0.00    -0.248 NA
ATOM     31  C   UNL A   1      41.553  31.890  37.051  1.00  0.00     0.031 C 
ATOM     32  C   UNL A   1      42.976  27.897  32.709  1.00  0.00     0.029 A 
ATOM     33  C   UNL A   1      42.354  28.912  33.418  1.00  0.00     0.049 A 
ATOM     34  H   UNL A   1      40.665  30.062  32.892  1.00  0.00     0.167 HD
ATOM     35  C   UNL A   1      42.043  30.439  35.346  1.00  0.00     0.074 A 
ATOM     36  C   UNL A   1      42.390  30.938  36.660  1.00  0.00     0.031 C 
ATOM     37  C   UNL A   1      42.698  29.438  34.713  1.00  0.00     0.037 A 
BRANCH  24  38
ATOM     38  C   UNL A   1      40.366  27.940  29.209  1.00  0.00     0.064 A 
ATOM     39  C   UNL A   1      39.632  26.748  29.124  1.00  0.00     0.173 A 
ATOM     40  C   UNL A   1      41.121  28.330  28.092  1.00  0.00     0.173 A 
ATOM     41  F   UNL A   1      38.903  26.328  30.170  1.00  0.00    -0.203 F 
ATOM     42  C   UNL A   1      39.658  25.972  27.969  1.00  0.00     0.198 A 
ATOM     43  C   UNL A   1      41.124  27.564  26.929  1.00  0.00     0.198 A 
ATOM     44  F   UNL A   1      41.834  29.465  28.121  1.00  0.00    -0.203 F 
ATOM     45  F   UNL A   1      38.969  24.823  27.919  1.00  0.00    -0.200 F 
ATOM     46  C   UNL A   1      40.395  26.386  26.869  1.00  0.00     0.200 A 
ATOM     47  F   UNL A   1      41.825  27.972  25.862  1.00  0.00    -0.200 F 
ATOM     48  F   UNL A   1      40.403  25.647  25.751  1.00  0.00    -0.200 F 
ENDBRANCH  24  38
BRANCH  25  49
ATOM     49  C   UNL A   1      39.488  33.973  37.117  1.00  0.00     0.064 A 
ATOM     50  C   UNL A   1      38.727  33.602  38.234  1.00  0.00     0.173 A 
ATOM     51  C   UNL A   1      40.140  35.213  37.152  1.00  0.00     0.173 A 
ATOM     52  F   UNL A   1      38.068  32.434  38.238  1.00  0.00    -0.203 F 
ATOM     53  C   UNL A   1      38.615  34.444  39.338  1.00  0.00     0.198 A 
ATOM     54  C   UNL A   1      40.046  36.044  38.267  1.00  0.00     0.198 A 
ATOM     55  F   UNL A   1      40.882  35.613  36.109  1.00  0.00    -0.203 F 
ATOM     56  F   UNL A   1      37.853  34.081  40.380  1.00  0.00    -0.200 F 
ATOM     57  C   UNL A   1      39.279  35.660  39.357  1.00  0.00     0.200 A 
ATOM     58  F   UNL A   1      40.700  37.213  38.287  1.00  0.00    -0.200 F 
ATOM     59  F   UNL A   1      39.176  36.466  40.423  1.00  0.00    -0.200 F 
ENDBRANCH  25  49
BRANCH  37  60
ATOM     60  C   UNL A   1      43.874  28.820  35.405  1.00  0.00     0.064 A 
ATOM     61  C   UNL A   1      45.166  29.336  35.243  1.00  0.00     0.173 A 
ATOM     62  C   UNL A   1      43.687  27.779  36.327  1.00  0.00     0.173 A 
ATOM     63  F   UNL A   1      45.393  30.325  34.365  1.00  0.00    -0.203 F 
ATOM     64  C   UNL A   1      46.232  28.832  35.982  1.00  0.00     0.198 A 
ATOM     65  C   UNL A   1      44.751  27.293  37.081  1.00  0.00     0.198 A 
ATOM     66  F   UNL A   1      42.465  27.260  36.522  1.00  0.00    -0.203 F 
ATOM     67  F   UNL A   1      47.463  29.330  35.803  1.00  0.00    -0.200 F 
ATOM     68  C   UNL A   1      46.022  27.820  36.908  1.00  0.00     0.200 A 
ATOM     69  F   UNL A   1      44.544  26.326  37.985  1.00  0.00    -0.200 F 
ATOM     70  F   UNL A   1      47.046  27.355  37.637  1.00  0.00    -0.200 F 
ENDBRANCH  37  60
ENDBRANCH  11  12
ENDBRANCH   4   6
ENDBRANCH   1   2
BRANCH   1  71
ATOM     71  C   UNL A   1      31.422  32.264  26.506  1.00  0.00     0.042 C 
BRANCH  71  72
ATOM     72  C   UNL A   1      31.433  30.741  26.368  1.00  0.00     0.118 C 
BRANCH  72  73
ATOM     73  N   UNL A   1      31.170  30.332  25.002  1.00  0.00    -0.351 N 
ATOM     74  C   UNL A   1      31.346  29.124  24.385  1.00  0.00     0.278 C 
ATOM     75  H   UNL A   1      30.803  31.041  24.423  1.00  0.00     0.163 HD
ATOM     76  O   UNL A   1      31.070  29.072  23.183  1.00  0.00    -0.268 OA
BRANCH  74  77
ATOM     77  C   UNL A   1      31.773  27.884  25.199  1.00  0.00     0.277 C 
ATOM     78  C   UNL A   1      30.733  26.758  25.024  1.00  0.00     0.111 C 
ATOM     79  N   UNL A   1      33.096  27.373  24.771  1.00  0.00    -0.332 N 
ATOM     80  C   UNL A   1      31.189  25.451  25.629  1.00  0.00    -0.029 A 
ATOM     81  C   UNL A   1      33.554  26.353  25.719  1.00  0.00     0.298 C 
ATOM     82  H   UNL A   1      33.767  28.141  24.747  1.00  0.00     0.347 HD
ATOM     83  H   UNL A   1      33.018  26.963  23.840  1.00  0.00     0.347 HD
ATOM     84  C   UNL A   1      30.278  24.406  25.818  1.00  0.00     0.050 A 
ATOM     85  C   UNL A   1      32.548  25.253  25.939  1.00  0.00     0.010 A 
ATOM     86  C   UNL A   1      30.712  23.195  26.346  1.00  0.00     0.115 A 
ATOM     87  C   UNL A   1      32.960  24.036  26.500  1.00  0.00     0.013 A 
ATOM     88  C   UNL A   1      32.042  23.004  26.702  1.00  0.00     0.046 A 
BRANCH  86  89
ATOM     89  O   UNL A   1      29.789  22.203  26.501  1.00  0.00    -0.508 OA
ATOM     90  H   UNL A   1      29.853  21.613  27.226  1.00  0.00     0.293 HD
ENDBRANCH  86  89
ENDBRANCH  74  77
ENDBRANCH  72  73
ENDBRANCH  71  72
ENDBRANCH   1  71
TORSDOF 11
ENDMDL
MODEL 3
REMARK VINA RESULT:     -11.4      4.664      9.995
REMARK SMILES O=C(NCCCNC(=O)[C@H]1Cc2cc(O)ccc2C[NH2+]1)c1ccc(-c2c3nc(c(-c4c(F)c(F)c(F)c(F)c4F)c4ccc([nH]4)c(-c4c(F)c(F)c(F)c(F)c4F)c4nc(c(-c5c(F)c(F)c(F)c(F)c5F)c5ccc2[nH]5)C=C4)C=C3)cc1
REMARK SMILES IDX 4 1 3 2 1 3 2 4 21 6 22 7 83 8 23 9 82 10 24 11 25 12 26 13
REMARK SMILES IDX 76 14 27 15 81 16 75 17 77 18 28 19 80 20 74 21 73 22 29 24
REMARK SMILES IDX 61 25 41 26 60 27 42 28 45 29 59 30 78 31 43 32 44 33 58 35
REMARK SMILES IDX 79 36 46 37 30 38 31 39 39 40 32 41 33 42 37 43 40 44 34 45
REMARK SMILES IDX 35 46 38 47 36 48 62 49 63 50 71 51 64 52 65 53 69 54 72 55
REMARK SMILES IDX 66 56 67 57 70 58 68 59 47 60 48 61 56 62 49 63 50 64 54 65
REMARK SMILES IDX 57 66 51 67 52 68 55 69 53 70 5 71 6 72 7 73 8 74 9 76 10 77
REMARK SMILES IDX 11 78 20 79 12 80 19 81 13 84 18 85 14 86 17 87 16 88 15 89
REMARK H PARENT 3 5 77 23 45 34 7 75 20 82 20 83 15 90
REMARK Flexibility Score: inf
ROOT
ATOM      1  C   UNL A   1      32.820  29.447  26.059  1.00  0.00     0.118 C 
ENDROOT
BRANCH   1   2
ATOM      2  N   UNL A   1      32.627  30.849  26.383  1.00  0.00    -0.352 N 
ATOM      3  O   UNL A   1      32.870  32.763  27.523  1.00  0.00    -0.269 OA
ATOM      4  C   UNL A   1      33.328  31.660  27.239  1.00  0.00     0.251 C 
ATOM      5  H   UNL A   1      31.877  31.285  25.918  1.00  0.00     0.163 HD
BRANCH   4   6
ATOM      6  C   UNL A   1      34.620  31.231  27.827  1.00  0.00     0.039 A 
ATOM      7  C   UNL A   1      34.727  29.918  28.300  1.00  0.00     0.014 A 
ATOM      8  C   UNL A   1      35.689  32.116  28.001  1.00  0.00     0.014 A 
ATOM      9  C   UNL A   1      35.898  29.494  28.934  1.00  0.00     0.010 A 
ATOM     10  C   UNL A   1      36.886  31.670  28.560  1.00  0.00     0.010 A 
ATOM     11  C   UNL A   1      36.990  30.366  29.065  1.00  0.00    -0.014 A 
BRANCH  11  12
ATOM     12  C   UNL A   1      38.210  29.950  29.806  1.00  0.00     0.031 A 
ATOM     13  C   UNL A   1      38.436  30.449  31.210  1.00  0.00     0.074 A 
ATOM     14  C   UNL A   1      39.113  29.138  29.223  1.00  0.00     0.049 A 
ATOM     15  N   UNL A   1      39.447  30.228  32.013  1.00  0.00    -0.248 NA
ATOM     16  C   UNL A   1      37.402  31.329  31.780  1.00  0.00     0.031 C 
ATOM     17  C   UNL A   1      39.022  28.612  27.862  1.00  0.00     0.029 A 
ATOM     18  N   UNL A   1      40.284  28.609  29.707  1.00  0.00    -0.354 N 
ATOM     19  C   UNL A   1      39.176  30.953  33.166  1.00  0.00     0.074 A 
ATOM     20  C   UNL A   1      37.936  31.661  32.945  1.00  0.00     0.031 C 
ATOM     21  C   UNL A   1      40.072  27.808  27.631  1.00  0.00     0.029 A 
ATOM     22  C   UNL A   1      40.927  27.785  28.815  1.00  0.00     0.049 A 
ATOM     23  H   UNL A   1      40.630  28.801  30.609  1.00  0.00     0.167 HD
ATOM     24  C   UNL A   1      39.882  30.998  34.320  1.00  0.00     0.037 A 
ATOM     25  C   UNL A   1      42.072  27.088  28.942  1.00  0.00     0.037 A 
ATOM     26  C   UNL A   1      41.085  30.249  34.562  1.00  0.00     0.049 A 
ATOM     27  C   UNL A   1      42.835  27.151  30.239  1.00  0.00     0.074 A 
ATOM     28  C   UNL A   1      41.838  30.183  35.721  1.00  0.00     0.029 A 
ATOM     29  N   UNL A   1      41.698  29.424  33.633  1.00  0.00    -0.354 N 
ATOM     30  N   UNL A   1      42.543  27.803  31.336  1.00  0.00    -0.248 NA
ATOM     31  C   UNL A   1      44.086  26.382  30.314  1.00  0.00     0.031 C 
ATOM     32  C   UNL A   1      42.926  29.340  35.484  1.00  0.00     0.029 A 
ATOM     33  C   UNL A   1      42.830  28.855  34.190  1.00  0.00     0.049 A 
ATOM     34  H   UNL A   1      41.378  29.268  32.716  1.00  0.00     0.167 HD
ATOM     35  C   UNL A   1      43.554  27.506  32.240  1.00  0.00     0.074 A 
ATOM     36  C   UNL A   1      44.466  26.606  31.566  1.00  0.00     0.031 C 
ATOM     37  C   UNL A   1      43.713  27.942  33.511  1.00  0.00     0.037 A 
BRANCH  24  38
ATOM     38  C   UNL A   1      39.362  31.862  35.430  1.00  0.00     0.064 A 
ATOM     39  C   UNL A   1      38.515  31.345  36.420  1.00  0.00     0.173 A 
ATOM     40  C   UNL A   1      39.783  33.195  35.553  1.00  0.00     0.173 A 
ATOM     41  F   UNL A   1      38.078  30.078  36.340  1.00  0.00    -0.203 F 
ATOM     42  C   UNL A   1      38.097  32.134  37.488  1.00  0.00     0.198 A 
ATOM     43  C   UNL A   1      39.384  33.974  36.636  1.00  0.00     0.198 A 
ATOM     44  F   UNL A   1      40.599  33.734  34.636  1.00  0.00    -0.203 F 
ATOM     45  F   UNL A   1      37.266  31.626  38.409  1.00  0.00    -0.200 F 
ATOM     46  C   UNL A   1      38.540  33.443  37.601  1.00  0.00     0.200 A 
ATOM     47  F   UNL A   1      39.823  35.234  36.752  1.00  0.00    -0.200 F 
ATOM     48  F   UNL A   1      38.153  34.195  38.641  1.00  0.00    -0.200 F 
ENDBRANCH  24  38
BRANCH  25  49
ATOM     49  C   UNL A   1      42.547  26.235  27.821  1.00  0.00     0.064 A 
ATOM     50  C   UNL A   1      42.045  24.937  27.647  1.00  0.00     0.173 A 
ATOM     51  C   UNL A   1      43.499  26.696  26.902  1.00  0.00     0.173 A 
ATOM     52  F   UNL A   1      41.148  24.444  28.513  1.00  0.00    -0.203 F 
ATOM     53  C   UNL A   1      42.487  24.130  26.601  1.00  0.00     0.198 A 
ATOM     54  C   UNL A   1      43.922  25.896  25.842  1.00  0.00     0.198 A 
ATOM     55  F   UNL A   1      44.008  27.931  27.024  1.00  0.00    -0.203 F 
ATOM     56  F   UNL A   1      42.017  22.881  26.477  1.00  0.00    -0.200 F 
ATOM     57  C   UNL A   1      43.419  24.612  25.696  1.00  0.00     0.200 A 
ATOM     58  F   UNL A   1      44.814  26.370  24.961  1.00  0.00    -0.200 F 
ATOM     59  F   UNL A   1      43.839  23.837  24.686  1.00  0.00    -0.200 F 
ENDBRANCH  25  49
BRANCH  37  60
ATOM     60  C   UNL A   1      44.898  27.445  34.281  1.00  0.00     0.064 A 
ATOM     61  C   UNL A   1      46.090  28.178  34.333  1.00  0.00     0.173 A 
ATOM     62  C   UNL A   1      44.797  26.287  35.067  1.00  0.00     0.173 A 
ATOM     63  F   UNL A   1      46.234  29.286  33.590  1.00  0.00    -0.203 F 
ATOM     64  C   UNL A   1      47.142  27.770  35.147  1.00  0.00     0.198 A 
ATOM     65  C   UNL A   1      45.842  25.895  35.897  1.00  0.00     0.198 A 
ATOM     66  F   UNL A   1      43.670  25.559  35.057  1.00  0.00    -0.203 F 
ATOM     67  F   UNL A   1      48.280  28.477  35.173  1.00  0.00    -0.200 F 
ATOM     68  C   UNL A   1      47.014  26.636  35.937  1.00  0.00     0.200 A 
ATOM     69  F   UNL A   1      45.711  24.809  36.671  1.00  0.00    -0.200 F 
ATOM     70  F   UNL A   1      48.019  26.260  36.739  1.00  0.00    -0.200 F 
ENDBRANCH  37  60
ENDBRANCH  11  12
ENDBRANCH   4   6
ENDBRANCH   1   2
BRANCH   1  71
ATOM     71  C   UNL A   1      31.778  28.556  26.720  1.00  0.00     0.042 C 
BRANCH  71  72
ATOM     72  C   UNL A   1      31.274  27.423  25.825  1.00  0.00     0.118 C 
BRANCH  72  73
ATOM     73  N   UNL A   1      31.017  26.219  26.591  1.00  0.00    -0.351 N 
ATOM     74  C   UNL A   1      31.546  24.962  26.478  1.00  0.00     0.278 C 
ATOM     75  H   UNL A   1      30.352  26.323  27.311  1.00  0.00     0.163 HD
ATOM     76  O   UNL A   1      31.106  24.107  27.251  1.00  0.00    -0.268 OA
BRANCH  74  77
ATOM     77  C   UNL A   1      32.702  24.685  25.494  1.00  0.00     0.277 C 
ATOM     78  C   UNL A   1      33.918  24.124  26.259  1.00  0.00     0.111 C 
ATOM     79  N   UNL A   1      32.313  23.711  24.448  1.00  0.00    -0.332 N 
ATOM     80  C   UNL A   1      35.011  23.642  25.333  1.00  0.00    -0.029 A 
ATOM     81  C   UNL A   1      33.355  23.661  23.418  1.00  0.00     0.298 C 
ATOM     82  H   UNL A   1      31.430  23.997  24.026  1.00  0.00     0.347 HD
ATOM     83  H   UNL A   1      32.204  22.786  24.867  1.00  0.00     0.347 HD
ATOM     84  C   UNL A   1      36.288  23.368  25.834  1.00  0.00     0.050 A 
ATOM     85  C   UNL A   1      34.730  23.399  23.975  1.00  0.00     0.010 A 
ATOM     86  C   UNL A   1      37.280  22.895  24.982  1.00  0.00     0.115 A 
ATOM     87  C   UNL A   1      35.751  22.953  23.126  1.00  0.00     0.013 A 
ATOM     88  C   UNL A   1      37.028  22.698  23.629  1.00  0.00     0.046 A 
BRANCH  86  89
ATOM     89  O   UNL A   1      38.506  22.631  25.518  1.00  0.00    -0.508 OA
ATOM     90  H   UNL A   1      38.749  21.748  25.717  1.00  0.00     0.293 HD
ENDBRANCH  86  89
ENDBRANCH  74  77
ENDBRANCH  72  73
ENDBRANCH  71  72
ENDBRANCH   1  71
TORSDOF 11
ENDMDL
