MODEL 1
REMARK VINA RESULT:     -12.9      0.000      0.000
REMARK SMILES COc1cc(N[C@H]2C=C[C@@H](C(=O)NCCCNC(=O)c3ccc(-c4c5nc(c(-c6c(F)c(F)c(F)c(F)c6F)c6ccc([nH]6)c(-c6c(F)c(F)c(F)c(F)c6F)c6nc(c(-c7c(F)c(F)c(F)c(F)c7F)c7ccc4[nH]7)C=C6)C=C5)cc3)C2)c([N+](=O)[O-])cc1F
REMARK SMILES IDX 14 1 13 2 11 3 12 4 10 6 7 7 8 8 83 9 9 10 6 11 5 13 3 14
REMARK SMILES IDX 4 15 89 16 88 17 90 18 84 19 2 20 1 21 85 22 86 23 87 24
REMARK SMILES IDX 15 25 16 26 17 27 18 28 19 30 20 31 21 32 82 33 22 34 81 35
REMARK SMILES IDX 23 36 24 37 25 38 75 39 26 40 80 41 74 42 76 43 27 44 79 45
REMARK SMILES IDX 73 46 72 47 28 49 60 50 40 51 59 52 41 53 44 54 58 55 77 56
REMARK SMILES IDX 42 57 43 58 57 60 78 61 45 62 29 63 30 64 38 65 31 66 32 67
REMARK SMILES IDX 36 68 39 69 33 70 34 71 37 72 35 73 61 74 62 75 70 76 63 77
REMARK SMILES IDX 64 78 68 79 71 80 65 81 66 82 69 83 67 84 46 85 47 86 55 87
REMARK SMILES IDX 48 88 49 89 53 90 56 91 50 92 51 93 54 94 52 95
REMARK H PARENT 13 5 6 12 17 29 76 48 44 59
REMARK Flexibility Score: inf
ROOT
ATOM      1  C   UNL A   1      32.117  27.596  26.787  1.00  0.00     0.117 C 
ENDROOT
BRANCH   1   2
ATOM      2  N   UNL A   1      30.950  26.750  26.846  1.00  0.00    -0.356 N 
ATOM      3  C   UNL A   1      30.658  25.625  26.139  1.00  0.00     0.227 C 
ATOM      4  O   UNL A   1      29.719  24.940  26.561  1.00  0.00    -0.274 OA
ATOM      5  H   UNL A   1      30.263  27.028  27.493  1.00  0.00     0.163 HD
BRANCH   3   6
ATOM      6  C   UNL A   1      31.443  25.167  24.901  1.00  0.00     0.103 C 
ATOM      7  C   UNL A   1      32.733  23.273  24.015  1.00  0.00     0.103 C 
ATOM      8  C   UNL A   1      31.379  23.355  23.408  1.00  0.00    -0.006 C 
ATOM      9  C   UNL A   1      32.719  24.344  25.120  1.00  0.00     0.046 C 
ATOM     10  C   UNL A   1      30.652  24.359  23.915  1.00  0.00    -0.016 C 
BRANCH   7  11
ATOM     11  N   UNL A   1      33.122  21.959  24.519  1.00  0.00    -0.373 N 
ATOM     12  H   UNL A   1      32.349  21.413  24.792  1.00  0.00     0.161 HD
BRANCH  11  13
ATOM     13  C   UNL A   1      34.327  21.304  24.698  1.00  0.00     0.117 A 
ATOM     14  C   UNL A   1      36.791  21.362  24.951  1.00  0.00     0.157 A 
ATOM     15  C   UNL A   1      35.542  21.995  24.857  1.00  0.00     0.082 A 
ATOM     16  C   UNL A   1      36.846  19.976  24.925  1.00  0.00     0.172 A 
ATOM     17  C   UNL A   1      35.680  19.233  24.811  1.00  0.00     0.131 A 
ATOM     18  F   UNL A   1      38.002  19.316  25.065  1.00  0.00    -0.203 F 
ATOM     19  C   UNL A   1      34.434  19.885  24.710  1.00  0.00     0.295 A 
BRANCH  14  20
ATOM     20  O   UNL A   1      37.852  22.199  25.159  1.00  0.00    -0.494 OA
ATOM     21  C   UNL A   1      37.526  23.498  25.642  1.00  0.00     0.278 C 
ENDBRANCH  14  20
BRANCH  19  22
ATOM     22  N   UNL A   1      33.243  19.016  24.608  1.00  0.00     0.065 N 
ATOM     23  O   UNL A   1      32.224  19.326  25.242  1.00  0.00    -0.258 OA
ATOM     24  O   UNL A   1      33.325  18.009  23.885  1.00  0.00    -0.258 OA
ENDBRANCH  19  22
ENDBRANCH  11  13
ENDBRANCH   7  11
ENDBRANCH   3   6
ENDBRANCH   1   2
BRANCH   1  25
ATOM     25  C   UNL A   1      31.827  29.051  27.156  1.00  0.00     0.042 C 
BRANCH  25  26
ATOM     26  C   UNL A   1      32.632  30.087  26.375  1.00  0.00     0.118 C 
BRANCH  26  27
ATOM     27  N   UNL A   1      32.505  31.444  26.890  1.00  0.00    -0.352 N 
ATOM     28  C   UNL A   1      33.400  32.258  27.534  1.00  0.00     0.251 C 
ATOM     29  H   UNL A   1      31.619  31.849  26.748  1.00  0.00     0.163 HD
ATOM     30  O   UNL A   1      33.060  33.396  27.851  1.00  0.00    -0.269 OA
BRANCH  28  31
ATOM     31  C   UNL A   1      34.736  31.761  27.910  1.00  0.00     0.039 A 
ATOM     32  C   UNL A   1      35.794  32.676  27.950  1.00  0.00     0.014 A 
ATOM     33  C   UNL A   1      34.942  30.427  28.264  1.00  0.00     0.014 A 
ATOM     34  C   UNL A   1      37.026  32.284  28.471  1.00  0.00     0.010 A 
ATOM     35  C   UNL A   1      36.146  30.054  28.845  1.00  0.00     0.010 A 
ATOM     36  C   UNL A   1      37.181  30.990  28.987  1.00  0.00    -0.014 A 
BRANCH  36  37
ATOM     37  C   UNL A   1      38.380  30.604  29.764  1.00  0.00     0.031 A 
ATOM     38  C   UNL A   1      39.347  29.612  29.199  1.00  0.00     0.074 A 
ATOM     39  C   UNL A   1      38.503  31.054  31.027  1.00  0.00     0.049 A 
ATOM     40  N   UNL A   1      40.327  28.984  29.794  1.00  0.00    -0.248 NA
ATOM     41  C   UNL A   1      39.169  29.255  27.782  1.00  0.00     0.031 C 
ATOM     42  C   UNL A   1      37.593  31.998  31.680  1.00  0.00     0.029 A 
ATOM     43  N   UNL A   1      39.426  30.760  31.998  1.00  0.00    -0.354 N 
ATOM     44  C   UNL A   1      40.867  28.141  28.834  1.00  0.00     0.074 A 
ATOM     45  C   UNL A   1      40.090  28.314  27.626  1.00  0.00     0.031 C 
ATOM     46  C   UNL A   1      38.006  32.212  32.938  1.00  0.00     0.029 A 
ATOM     47  C   UNL A   1      39.178  31.384  33.197  1.00  0.00     0.049 A 
ATOM     48  H   UNL A   1      40.192  30.161  31.850  1.00  0.00     0.167 HD
ATOM     49  C   UNL A   1      41.926  27.308  28.957  1.00  0.00     0.037 A 
ATOM     50  C   UNL A   1      39.810  31.274  34.381  1.00  0.00     0.037 A 
ATOM     51  C   UNL A   1      42.702  27.172  30.160  1.00  0.00     0.049 A 
ATOM     52  C   UNL A   1      40.975  30.334  34.493  1.00  0.00     0.074 A 
ATOM     53  C   UNL A   1      43.828  26.398  30.378  1.00  0.00     0.029 A 
ATOM     54  N   UNL A   1      42.433  27.835  31.350  1.00  0.00    -0.354 N 
ATOM     55  N   UNL A   1      41.497  29.557  33.574  1.00  0.00    -0.248 NA
ATOM     56  C   UNL A   1      41.633  30.241  35.803  1.00  0.00     0.031 C 
ATOM     57  C   UNL A   1      44.222  26.571  31.708  1.00  0.00     0.029 A 
ATOM     58  C   UNL A   1      43.361  27.475  32.311  1.00  0.00     0.049 A 
ATOM     59  H   UNL A   1      41.691  28.467  31.489  1.00  0.00     0.167 HD
ATOM     60  C   UNL A   1      42.544  28.888  34.188  1.00  0.00     0.074 A 
ATOM     61  C   UNL A   1      42.597  29.361  35.557  1.00  0.00     0.031 C 
ATOM     62  C   UNL A   1      43.384  27.963  33.666  1.00  0.00     0.037 A 
BRANCH  49  63
ATOM     63  C   UNL A   1      42.307  26.485  27.765  1.00  0.00     0.064 A 
ATOM     64  C   UNL A   1      41.715  25.233  27.543  1.00  0.00     0.173 A 
ATOM     65  C   UNL A   1      43.289  26.917  26.862  1.00  0.00     0.173 A 
ATOM     66  F   UNL A   1      40.772  24.772  28.379  1.00  0.00    -0.203 F 
ATOM     67  C   UNL A   1      42.097  24.442  26.462  1.00  0.00     0.198 A 
ATOM     68  C   UNL A   1      43.652  26.135  25.769  1.00  0.00     0.198 A 
ATOM     69  F   UNL A   1      43.873  28.114  27.024  1.00  0.00    -0.203 F 
ATOM     70  F   UNL A   1      41.532  23.241  26.279  1.00  0.00    -0.200 F 
ATOM     71  C   UNL A   1      43.061  24.895  25.574  1.00  0.00     0.200 A 
ATOM     72  F   UNL A   1      44.565  26.586  24.898  1.00  0.00    -0.200 F 
ATOM     73  F   UNL A   1      43.416  24.141  24.525  1.00  0.00    -0.200 F 
ENDBRANCH  49  63
BRANCH  50  74
ATOM     74  C   UNL A   1      39.348  32.084  35.536  1.00  0.00     0.064 A 
ATOM     75  C   UNL A   1      39.821  33.386  35.756  1.00  0.00     0.173 A 
ATOM     76  C   UNL A   1      38.458  31.545  36.475  1.00  0.00     0.173 A 
ATOM     77  F   UNL A   1      40.678  33.945  34.888  1.00  0.00    -0.203 F 
ATOM     78  C   UNL A   1      39.435  34.112  36.881  1.00  0.00     0.198 A 
ATOM     79  C   UNL A   1      38.056  32.279  37.589  1.00  0.00     0.198 A 
ATOM     80  F   UNL A   1      37.966  30.311  36.296  1.00  0.00    -0.203 F 
ATOM     81  F   UNL A   1      39.922  35.343  37.083  1.00  0.00    -0.200 F 
ATOM     82  C   UNL A   1      38.551  33.559  37.796  1.00  0.00     0.200 A 
ATOM     83  F   UNL A   1      37.186  31.749  38.459  1.00  0.00    -0.200 F 
ATOM     84  F   UNL A   1      38.173  34.258  38.874  1.00  0.00    -0.200 F 
ENDBRANCH  50  74
BRANCH  62  85
ATOM     85  C   UNL A   1      44.433  27.395  34.571  1.00  0.00     0.064 A 
ATOM     86  C   UNL A   1      44.123  26.343  35.444  1.00  0.00     0.173 A 
ATOM     87  C   UNL A   1      45.708  27.968  34.646  1.00  0.00     0.173 A 
ATOM     88  F   UNL A   1      42.910  25.770  35.409  1.00  0.00    -0.203 F 
ATOM     89  C   UNL A   1      45.050  25.899  36.382  1.00  0.00     0.198 A 
ATOM     90  C   UNL A   1      46.640  27.509  35.573  1.00  0.00     0.198 A 
ATOM     91  F   UNL A   1      46.050  28.969  33.821  1.00  0.00    -0.203 F 
ATOM     92  F   UNL A   1      44.722  24.918  37.233  1.00  0.00    -0.200 F 
ATOM     93  C   UNL A   1      46.306  26.484  36.446  1.00  0.00     0.200 A 
ATOM     94  F   UNL A   1      47.859  28.064  35.624  1.00  0.00    -0.200 F 
ATOM     95  F   UNL A   1      47.196  26.061  37.355  1.00  0.00    -0.200 F 
ENDBRANCH  62  85
ENDBRANCH  36  37
ENDBRANCH  28  31
ENDBRANCH  26  27
ENDBRANCH  25  26
ENDBRANCH   1  25
TORSDOF 14
ENDMDL
MODEL 2
REMARK VINA RESULT:     -12.8      4.776      9.952
REMARK SMILES COc1cc(N[C@H]2C=C[C@@H](C(=O)NCCCNC(=O)c3ccc(-c4c5nc(c(-c6c(F)c(F)c(F)c(F)c6F)c6ccc([nH]6)c(-c6c(F)c(F)c(F)c(F)c6F)c6nc(c(-c7c(F)c(F)c(F)c(F)c7F)c7ccc4[nH]7)C=C6)C=C5)cc3)C2)c([N+](=O)[O-])cc1F
REMARK SMILES IDX 14 1 13 2 11 3 12 4 10 6 7 7 8 8 83 9 9 10 6 11 5 13 3 14
REMARK SMILES IDX 4 15 89 16 88 17 90 18 84 19 2 20 1 21 85 22 86 23 87 24
REMARK SMILES IDX 15 25 16 26 17 27 18 28 19 30 20 31 21 32 82 33 22 34 81 35
REMARK SMILES IDX 23 36 24 37 25 38 75 39 26 40 80 41 74 42 76 43 27 44 79 45
REMARK SMILES IDX 73 46 72 47 28 49 60 50 40 51 59 52 41 53 44 54 58 55 77 56
REMARK SMILES IDX 42 57 43 58 57 60 78 61 45 62 29 63 30 64 38 65 31 66 32 67
REMARK SMILES IDX 36 68 39 69 33 70 34 71 37 72 35 73 61 74 62 75 70 76 63 77
REMARK SMILES IDX 64 78 68 79 71 80 65 81 66 82 69 83 67 84 46 85 47 86 55 87
REMARK SMILES IDX 48 88 49 89 53 90 56 91 50 92 51 93 54 94 52 95
REMARK H PARENT 13 5 6 12 17 29 76 48 44 59
REMARK Flexibility Score: inf
ROOT
ATOM      1  C   UNL A   1      36.515  20.429  24.944  1.00  0.00     0.117 C 
ENDROOT
BRANCH   1   2
ATOM      2  N   UNL A   1      35.599  20.836  25.982  1.00  0.00    -0.356 N 
ATOM      3  C   UNL A   1      34.280  21.158  25.898  1.00  0.00     0.227 C 
ATOM      4  O   UNL A   1      33.660  21.217  26.965  1.00  0.00    -0.274 OA
ATOM      5  H   UNL A   1      35.986  20.889  26.885  1.00  0.00     0.163 HD
BRANCH   3   6
ATOM      6  C   UNL A   1      33.546  21.410  24.571  1.00  0.00     0.103 C 
ATOM      7  C   UNL A   1      31.704  22.706  23.591  1.00  0.00     0.103 C 
ATOM      8  C   UNL A   1      33.031  23.264  23.226  1.00  0.00    -0.006 C 
ATOM      9  C   UNL A   1      32.025  21.603  24.616  1.00  0.00     0.046 C 
ATOM     10  C   UNL A   1      34.041  22.589  23.789  1.00  0.00    -0.016 C 
BRANCH   7  11
ATOM     11  N   UNL A   1      30.731  23.669  24.099  1.00  0.00    -0.373 N 
ATOM     12  H   UNL A   1      29.838  23.275  24.228  1.00  0.00     0.161 HD
BRANCH  11  13
ATOM     13  C   UNL A   1      30.777  25.009  24.441  1.00  0.00     0.117 A 
ATOM     14  C   UNL A   1      30.292  27.381  23.917  1.00  0.00     0.157 A 
ATOM     15  C   UNL A   1      30.186  26.008  23.646  1.00  0.00     0.082 A 
ATOM     16  C   UNL A   1      30.981  27.792  25.048  1.00  0.00     0.172 A 
ATOM     17  C   UNL A   1      31.552  26.855  25.897  1.00  0.00     0.131 A 
ATOM     18  F   UNL A   1      31.067  29.085  25.387  1.00  0.00    -0.203 F 
ATOM     19  C   UNL A   1      31.444  25.480  25.606  1.00  0.00     0.295 A 
BRANCH  14  20
ATOM     20  O   UNL A   1      29.603  28.196  23.062  1.00  0.00    -0.494 OA
ATOM     21  C   UNL A   1      30.398  29.084  22.282  1.00  0.00     0.278 C 
ENDBRANCH  14  20
BRANCH  19  22
ATOM     22  N   UNL A   1      32.069  24.553  26.572  1.00  0.00     0.065 N 
ATOM     23  O   UNL A   1      33.306  24.468  26.601  1.00  0.00    -0.258 OA
ATOM     24  O   UNL A   1      31.316  23.899  27.313  1.00  0.00    -0.258 OA
ENDBRANCH  19  22
ENDBRANCH  11  13
ENDBRANCH   7  11
ENDBRANCH   3   6
ENDBRANCH   1   2
BRANCH   1  25
ATOM     25  C   UNL A   1      37.731  21.346  24.818  1.00  0.00     0.042 C 
BRANCH  25  26
ATOM     26  C   UNL A   1      38.778  21.180  25.917  1.00  0.00     0.118 C 
BRANCH  26  27
ATOM     27  N   UNL A   1      39.649  20.027  25.733  1.00  0.00    -0.352 N 
ATOM     28  C   UNL A   1      40.981  19.842  26.002  1.00  0.00     0.251 C 
ATOM     29  H   UNL A   1      39.202  19.239  25.348  1.00  0.00     0.163 HD
ATOM     30  O   UNL A   1      41.495  18.748  25.782  1.00  0.00    -0.269 OA
BRANCH  28  31
ATOM     31  C   UNL A   1      41.814  20.959  26.485  1.00  0.00     0.039 A 
ATOM     32  C   UNL A   1      42.333  21.852  25.541  1.00  0.00     0.014 A 
ATOM     33  C   UNL A   1      42.045  21.157  27.846  1.00  0.00     0.014 A 
ATOM     34  C   UNL A   1      42.971  23.015  25.968  1.00  0.00     0.010 A 
ATOM     35  C   UNL A   1      42.620  22.346  28.274  1.00  0.00     0.010 A 
ATOM     36  C   UNL A   1      43.051  23.299  27.338  1.00  0.00    -0.014 A 
BRANCH  36  37
ATOM     37  C   UNL A   1      43.496  24.621  27.832  1.00  0.00     0.031 A 
ATOM     38  C   UNL A   1      42.484  25.671  28.168  1.00  0.00     0.074 A 
ATOM     39  C   UNL A   1      44.814  24.896  27.841  1.00  0.00     0.049 A 
ATOM     40  N   UNL A   1      42.664  26.943  28.404  1.00  0.00    -0.248 NA
ATOM     41  C   UNL A   1      41.079  25.238  28.212  1.00  0.00     0.031 C 
ATOM     42  C   UNL A   1      45.878  23.948  27.498  1.00  0.00     0.029 A 
ATOM     43  N   UNL A   1      45.485  26.058  28.122  1.00  0.00    -0.354 N 
ATOM     44  C   UNL A   1      41.396  27.469  28.602  1.00  0.00     0.074 A 
ATOM     45  C   UNL A   1      40.452  26.386  28.429  1.00  0.00     0.031 C 
ATOM     46  C   UNL A   1      47.066  24.563  27.597  1.00  0.00     0.029 A 
ATOM     47  C   UNL A   1      46.846  25.959  27.959  1.00  0.00     0.049 A 
ATOM     48  H   UNL A   1      45.036  26.884  28.412  1.00  0.00     0.167 HD
ATOM     49  C   UNL A   1      41.060  28.743  28.911  1.00  0.00     0.037 A 
ATOM     50  C   UNL A   1      47.805  26.897  28.063  1.00  0.00     0.037 A 
ATOM     51  C   UNL A   1      42.017  29.798  29.107  1.00  0.00     0.049 A 
ATOM     52  C   UNL A   1      47.404  28.305  28.397  1.00  0.00     0.074 A 
ATOM     53  C   UNL A   1      41.790  31.112  29.475  1.00  0.00     0.029 A 
ATOM     54  N   UNL A   1      43.390  29.655  28.953  1.00  0.00    -0.354 N 
ATOM     55  N   UNL A   1      46.204  28.792  28.606  1.00  0.00    -0.248 NA
ATOM     56  C   UNL A   1      48.481  29.300  28.495  1.00  0.00     0.031 C 
ATOM     57  C   UNL A   1      43.023  31.770  29.516  1.00  0.00     0.029 A 
ATOM     58  C   UNL A   1      44.021  30.860  29.202  1.00  0.00     0.049 A 
ATOM     59  H   UNL A   1      43.845  28.819  28.702  1.00  0.00     0.167 HD
ATOM     60  C   UNL A   1      46.378  30.142  28.867  1.00  0.00     0.074 A 
ATOM     61  C   UNL A   1      47.803  30.399  28.804  1.00  0.00     0.031 C 
ATOM     62  C   UNL A   1      45.442  31.084  29.130  1.00  0.00     0.037 A 
BRANCH  49  63
ATOM     63  C   UNL A   1      39.604  29.062  29.061  1.00  0.00     0.064 A 
ATOM     64  C   UNL A   1      38.983  28.992  30.316  1.00  0.00     0.173 A 
ATOM     65  C   UNL A   1      38.812  29.399  27.954  1.00  0.00     0.173 A 
ATOM     66  F   UNL A   1      39.696  28.672  31.407  1.00  0.00    -0.203 F 
ATOM     67  C   UNL A   1      37.621  29.242  30.456  1.00  0.00     0.198 A 
ATOM     68  C   UNL A   1      37.455  29.672  28.100  1.00  0.00     0.198 A 
ATOM     69  F   UNL A   1      39.364  29.493  26.734  1.00  0.00    -0.203 F 
ATOM     70  F   UNL A   1      37.044  29.152  31.662  1.00  0.00    -0.200 F 
ATOM     71  C   UNL A   1      36.859  29.587  29.350  1.00  0.00     0.200 A 
ATOM     72  F   UNL A   1      36.726  30.029  27.034  1.00  0.00    -0.200 F 
ATOM     73  F   UNL A   1      35.551  29.843  29.487  1.00  0.00    -0.200 F 
ENDBRANCH  49  63
BRANCH  50  74
ATOM     74  C   UNL A   1      49.226  26.522  27.854  1.00  0.00     0.064 A 
ATOM     75  C   UNL A   1      50.106  26.348  28.932  1.00  0.00     0.173 A 
ATOM     76  C   UNL A   1      49.743  26.378  26.559  1.00  0.00     0.173 A 
ATOM     77  F   UNL A   1      49.660  26.478  30.190  1.00  0.00    -0.203 F 
ATOM     78  C   UNL A   1      51.454  26.062  28.722  1.00  0.00     0.198 A 
ATOM     79  C   UNL A   1      51.087  26.073  26.351  1.00  0.00     0.198 A 
ATOM     80  F   UNL A   1      48.935  26.517  25.498  1.00  0.00    -0.203 F 
ATOM     81  F   UNL A   1      52.280  25.928  29.769  1.00  0.00    -0.200 F 
ATOM     82  C   UNL A   1      51.943  25.923  27.432  1.00  0.00     0.200 A 
ATOM     83  F   UNL A   1      51.550  25.918  25.103  1.00  0.00    -0.200 F 
ATOM     84  F   UNL A   1      53.237  25.642  27.230  1.00  0.00    -0.200 F 
ENDBRANCH  50  74
BRANCH  62  85
ATOM     85  C   UNL A   1      45.919  32.482  29.370  1.00  0.00     0.064 A 
ATOM     86  C   UNL A   1      46.200  32.924  30.671  1.00  0.00     0.173 A 
ATOM     87  C   UNL A   1      45.992  33.409  28.323  1.00  0.00     0.173 A 
ATOM     88  F   UNL A   1      46.135  32.070  31.703  1.00  0.00    -0.203 F 
ATOM     89  C   UNL A   1      46.513  34.257  30.918  1.00  0.00     0.198 A 
ATOM     90  C   UNL A   1      46.325  34.738  28.571  1.00  0.00     0.198 A 
ATOM     91  F   UNL A   1      45.744  33.025  27.062  1.00  0.00    -0.203 F 
ATOM     92  F   UNL A   1      46.741  34.668  32.172  1.00  0.00    -0.200 F 
ATOM     93  C   UNL A   1      46.573  35.162  29.869  1.00  0.00     0.200 A 
ATOM     94  F   UNL A   1      46.399  35.608  27.555  1.00  0.00    -0.200 F 
ATOM     95  F   UNL A   1      46.869  36.447  30.109  1.00  0.00    -0.200 F 
ENDBRANCH  62  85
ENDBRANCH  36  37
ENDBRANCH  28  31
ENDBRANCH  26  27
ENDBRANCH  25  26
ENDBRANCH   1  25
TORSDOF 14
ENDMDL
MODEL 3
REMARK VINA RESULT:     -12.8      1.720      2.693
REMARK SMILES COc1cc(N[C@H]2C=C[C@@H](C(=O)NCCCNC(=O)c3ccc(-c4c5nc(c(-c6c(F)c(F)c(F)c(F)c6F)c6ccc([nH]6)c(-c6c(F)c(F)c(F)c(F)c6F)c6nc(c(-c7c(F)c(F)c(F)c(F)c7F)c7ccc4[nH]7)C=C6)C=C5)cc3)C2)c([N+](=O)[O-])cc1F
REMARK SMILES IDX 14 1 13 2 11 3 12 4 10 6 7 7 8 8 83 9 9 10 6 11 5 13 3 14
REMARK SMILES IDX 4 15 89 16 88 17 90 18 84 19 2 20 1 21 85 22 86 23 87 24
REMARK SMILES IDX 15 25 16 26 17 27 18 28 19 30 20 31 21 32 82 33 22 34 81 35
REMARK SMILES IDX 23 36 24 37 25 38 75 39 26 40 80 41 74 42 76 43 27 44 79 45
REMARK SMILES IDX 73 46 72 47 28 49 60 50 40 51 59 52 41 53 44 54 58 55 77 56
REMARK SMILES IDX 42 57 43 58 57 60 78 61 45 62 29 63 30 64 38 65 31 66 32 67
REMARK SMILES IDX 36 68 39 69 33 70 34 71 37 72 35 73 61 74 62 75 70 76 63 77
REMARK SMILES IDX 64 78 68 79 71 80 65 81 66 82 69 83 67 84 46 85 47 86 55 87
REMARK SMILES IDX 48 88 49 89 53 90 56 91 50 92 51 93 54 94 52 95
REMARK H PARENT 13 5 6 12 17 29 76 48 44 59
REMARK Flexibility Score: inf
ROOT
ATOM      1  C   UNL A   1      31.112  28.054  25.287  1.00  0.00     0.117 C 
ENDROOT
BRANCH   1   2
ATOM      2  N   UNL A   1      30.797  28.886  24.151  1.00  0.00    -0.356 N 
ATOM      3  C   UNL A   1      31.054  28.685  22.831  1.00  0.00     0.227 C 
ATOM      4  O   UNL A   1      30.452  29.416  22.037  1.00  0.00    -0.274 OA
ATOM      5  H   UNL A   1      30.327  29.725  24.364  1.00  0.00     0.163 HD
BRANCH   3   6
ATOM      6  C   UNL A   1      32.004  27.599  22.303  1.00  0.00     0.103 C 
ATOM      7  C   UNL A   1      33.681  25.964  23.043  1.00  0.00     0.103 C 
ATOM      8  C   UNL A   1      32.386  25.317  22.705  1.00  0.00    -0.006 C 
ATOM      9  C   UNL A   1      33.386  27.472  22.955  1.00  0.00     0.046 C 
ATOM     10  C   UNL A   1      31.453  26.205  22.340  1.00  0.00    -0.016 C 
BRANCH   7  11
ATOM     11  N   UNL A   1      34.261  25.584  24.328  1.00  0.00    -0.373 N 
ATOM     12  H   UNL A   1      35.064  26.108  24.552  1.00  0.00     0.161 HD
BRANCH  11  13
ATOM     13  C   UNL A   1      33.939  24.658  25.304  1.00  0.00     0.117 A 
ATOM     14  C   UNL A   1      32.307  23.688  26.895  1.00  0.00     0.157 A 
ATOM     15  C   UNL A   1      32.644  24.553  25.843  1.00  0.00     0.082 A 
ATOM     16  C   UNL A   1      33.283  22.856  27.421  1.00  0.00     0.172 A 
ATOM     17  C   UNL A   1      34.572  22.881  26.908  1.00  0.00     0.131 A 
ATOM     18  F   UNL A   1      33.007  21.972  28.388  1.00  0.00    -0.203 F 
ATOM     19  C   UNL A   1      34.897  23.761  25.855  1.00  0.00     0.295 A 
BRANCH  14  20
ATOM     20  O   UNL A   1      30.984  23.686  27.244  1.00  0.00    -0.494 OA
ATOM     21  C   UNL A   1      30.124  24.447  26.402  1.00  0.00     0.278 C 
ENDBRANCH  14  20
BRANCH  19  22
ATOM     22  N   UNL A   1      36.288  23.710  25.360  1.00  0.00     0.065 N 
ATOM     23  O   UNL A   1      36.482  23.513  24.151  1.00  0.00    -0.258 OA
ATOM     24  O   UNL A   1      37.200  23.867  26.188  1.00  0.00    -0.258 OA
ENDBRANCH  19  22
ENDBRANCH  11  13
ENDBRANCH   7  11
ENDBRANCH   3   6
ENDBRANCH   1   2
BRANCH   1  25
ATOM     25  C   UNL A   1      31.835  28.806  26.404  1.00  0.00     0.042 C 
BRANCH  25  26
ATOM     26  C   UNL A   1      32.740  29.942  25.935  1.00  0.00     0.118 C 
BRANCH  26  27
ATOM     27  N   UNL A   1      32.489  31.212  26.605  1.00  0.00    -0.352 N 
ATOM     28  C   UNL A   1      33.292  31.996  27.393  1.00  0.00     0.251 C 
ATOM     29  H   UNL A   1      31.584  31.571  26.466  1.00  0.00     0.163 HD
ATOM     30  O   UNL A   1      32.855  33.059  27.828  1.00  0.00    -0.269 OA
BRANCH  28  31
ATOM     31  C   UNL A   1      34.642  31.546  27.777  1.00  0.00     0.039 A 
ATOM     32  C   UNL A   1      35.661  32.502  27.852  1.00  0.00     0.014 A 
ATOM     33  C   UNL A   1      34.897  30.214  28.106  1.00  0.00     0.014 A 
ATOM     34  C   UNL A   1      36.901  32.150  28.382  1.00  0.00     0.010 A 
ATOM     35  C   UNL A   1      36.108  29.878  28.697  1.00  0.00     0.010 A 
ATOM     36  C   UNL A   1      37.102  30.853  28.873  1.00  0.00    -0.014 A 
BRANCH  36  37
ATOM     37  C   UNL A   1      38.305  30.499  29.659  1.00  0.00     0.031 A 
ATOM     38  C   UNL A   1      39.296  29.524  29.108  1.00  0.00     0.074 A 
ATOM     39  C   UNL A   1      38.412  30.963  30.919  1.00  0.00     0.049 A 
ATOM     40  N   UNL A   1      40.286  28.923  29.712  1.00  0.00    -0.248 NA
ATOM     41  C   UNL A   1      39.133  29.151  27.694  1.00  0.00     0.031 C 
ATOM     42  C   UNL A   1      37.478  31.893  31.560  1.00  0.00     0.029 A 
ATOM     43  N   UNL A   1      39.336  30.698  31.897  1.00  0.00    -0.354 N 
ATOM     44  C   UNL A   1      40.849  28.083  28.763  1.00  0.00     0.074 A 
ATOM     45  C   UNL A   1      40.074  28.229  27.550  1.00  0.00     0.031 C 
ATOM     46  C   UNL A   1      37.881  32.127  32.817  1.00  0.00     0.029 A 
ATOM     47  C   UNL A   1      39.069  31.326  33.090  1.00  0.00     0.049 A 
ATOM     48  H   UNL A   1      40.116  30.114  31.758  1.00  0.00     0.167 HD
ATOM     49  C   UNL A   1      41.925  27.274  28.899  1.00  0.00     0.037 A 
ATOM     50  C   UNL A   1      39.697  31.240  34.277  1.00  0.00     0.037 A 
ATOM     51  C   UNL A   1      42.698  27.166  30.106  1.00  0.00     0.049 A 
ATOM     52  C   UNL A   1      40.882  30.327  34.403  1.00  0.00     0.074 A 
ATOM     53  C   UNL A   1      43.840  26.418  30.336  1.00  0.00     0.029 A 
ATOM     54  N   UNL A   1      42.409  27.833  31.289  1.00  0.00    -0.354 N 
ATOM     55  N   UNL A   1      41.425  29.553  33.494  1.00  0.00    -0.248 NA
ATOM     56  C   UNL A   1      41.535  30.259  35.717  1.00  0.00     0.031 C 
ATOM     57  C   UNL A   1      44.223  26.611  31.667  1.00  0.00     0.029 A 
ATOM     58  C   UNL A   1      43.339  27.501  32.257  1.00  0.00     0.049 A 
ATOM     59  H   UNL A   1      41.653  28.450  31.419  1.00  0.00     0.167 HD
ATOM     60  C   UNL A   1      42.483  28.913  34.118  1.00  0.00     0.074 A 
ATOM     61  C   UNL A   1      42.519  29.399  35.483  1.00  0.00     0.031 C 
ATOM     62  C   UNL A   1      43.346  28.002  33.608  1.00  0.00     0.037 A 
BRANCH  49  63
ATOM     63  C   UNL A   1      42.330  26.450  27.715  1.00  0.00     0.064 A 
ATOM     64  C   UNL A   1      41.762  25.185  27.498  1.00  0.00     0.173 A 
ATOM     65  C   UNL A   1      43.311  26.893  26.816  1.00  0.00     0.173 A 
ATOM     66  F   UNL A   1      40.821  24.714  28.330  1.00  0.00    -0.203 F 
ATOM     67  C   UNL A   1      42.166  24.394  26.427  1.00  0.00     0.198 A 
ATOM     68  C   UNL A   1      43.696  26.109  25.732  1.00  0.00     0.198 A 
ATOM     69  F   UNL A   1      43.873  28.101  26.974  1.00  0.00    -0.203 F 
ATOM     70  F   UNL A   1      41.624  23.182  26.248  1.00  0.00    -0.200 F 
ATOM     71  C   UNL A   1      43.128  24.857  25.542  1.00  0.00     0.200 A 
ATOM     72  F   UNL A   1      44.607  26.570  24.864  1.00  0.00    -0.200 F 
ATOM     73  F   UNL A   1      43.505  24.102  24.501  1.00  0.00    -0.200 F 
ENDBRANCH  49  63
BRANCH  50  74
ATOM     74  C   UNL A   1      39.212  32.050  35.423  1.00  0.00     0.064 A 
ATOM     75  C   UNL A   1      39.597  33.388  35.592  1.00  0.00     0.173 A 
ATOM     76  C   UNL A   1      38.391  31.477  36.403  1.00  0.00     0.173 A 
ATOM     77  F   UNL A   1      40.386  33.979  34.683  1.00  0.00    -0.203 F 
ATOM     78  C   UNL A   1      39.192  34.118  36.708  1.00  0.00     0.198 A 
ATOM     79  C   UNL A   1      37.969  32.215  37.509  1.00  0.00     0.198 A 
ATOM     80  F   UNL A   1      37.982  30.207  36.275  1.00  0.00    -0.203 F 
ATOM     81  F   UNL A   1      39.596  35.386  36.860  1.00  0.00    -0.200 F 
ATOM     82  C   UNL A   1      38.377  33.532  37.665  1.00  0.00     0.200 A 
ATOM     83  F   UNL A   1      37.165  31.651  38.419  1.00  0.00    -0.200 F 
ATOM     84  F   UNL A   1      37.981  34.235  38.733  1.00  0.00    -0.200 F 
ENDBRANCH  50  74
BRANCH  62  85
ATOM     85  C   UNL A   1      44.402  27.464  34.523  1.00  0.00     0.064 A 
ATOM     86  C   UNL A   1      45.644  28.107  34.629  1.00  0.00     0.173 A 
ATOM     87  C   UNL A   1      44.218  26.257  35.207  1.00  0.00     0.173 A 
ATOM     88  F   UNL A   1      45.864  29.263  33.985  1.00  0.00    -0.203 F 
ATOM     89  C   UNL A   1      46.676  27.542  35.371  1.00  0.00     0.198 A 
ATOM     90  C   UNL A   1      45.247  25.704  35.964  1.00  0.00     0.198 A 
ATOM     91  F   UNL A   1      43.041  25.616  35.143  1.00  0.00    -0.203 F 
ATOM     92  F   UNL A   1      47.868  28.151  35.429  1.00  0.00    -0.200 F 
ATOM     93  C   UNL A   1      46.477  26.341  36.035  1.00  0.00     0.200 A 
ATOM     94  F   UNL A   1      45.049  24.552  36.619  1.00  0.00    -0.200 F 
ATOM     95  F   UNL A   1      47.475  25.794  36.744  1.00  0.00    -0.200 F 
ENDBRANCH  62  85
ENDBRANCH  36  37
ENDBRANCH  28  31
ENDBRANCH  26  27
ENDBRANCH  25  26
ENDBRANCH   1  25
TORSDOF 14
ENDMDL
