MODEL 1
REMARK VINA RESULT:     -12.7      0.000      0.000
REMARK SMILES Cc1nc(N[C@@H](C(=O)NCCCNC(=O)c2ccc(-c3c4nc(c(-c5c(F)c(F)c(F)c(F)c5F)c5ccc([nH]5)c(-c5c(F)c(F)c(F)c(F)c5F)c5nc(c(-c6c(F)c(F)c(F)c(F)c6F)c6ccc3[nH]6)C=C5)C=C4)cc2)C(C)C)c2c3c(sc2n1)CCCC3
REMARK SMILES IDX 11 1 10 2 9 3 7 4 8 5 6 7 5 8 4 10 1 11 2 12 3 13 87 14
REMARK SMILES IDX 86 15 82 16 85 17 83 18 84 19 91 20 88 21 90 22 89 23 79 24
REMARK SMILES IDX 80 25 81 26 12 27 13 28 14 29 15 31 16 32 17 33 78 34 18 35
REMARK SMILES IDX 77 36 19 37 20 38 21 39 71 40 22 41 76 42 70 43 72 44 23 45
REMARK SMILES IDX 75 46 69 47 68 48 24 50 56 51 36 52 55 53 37 54 40 55 54 56
REMARK SMILES IDX 73 57 38 58 39 59 53 61 74 62 41 63 25 64 26 65 34 66 27 67
REMARK SMILES IDX 28 68 32 69 35 70 29 71 30 72 33 73 31 74 57 75 58 76 66 77
REMARK SMILES IDX 59 78 60 79 64 80 67 81 61 82 62 83 65 84 63 85 42 86 43 87
REMARK SMILES IDX 51 88 44 89 45 90 49 91 52 92 46 93 47 94 50 95 48 96
REMARK H PARENT 9 6 5 9 13 30 72 49 40 60
REMARK Flexibility Score: inf
ROOT
ATOM      1  C   UNL A   1      37.409  21.657  24.639  1.00  0.00     0.042 C 
ENDROOT
BRANCH   1   2
ATOM      2  C   UNL A   1      36.183  20.926  25.197  1.00  0.00     0.117 C 
BRANCH   2   3
ATOM      3  N   UNL A   1      35.413  21.781  26.081  1.00  0.00    -0.354 N 
ATOM      4  C   UNL A   1      34.535  22.787  25.772  1.00  0.00     0.242 C 
ATOM      5  O   UNL A   1      34.078  23.439  26.713  1.00  0.00    -0.273 OA
ATOM      6  H   UNL A   1      35.539  21.614  27.042  1.00  0.00     0.163 HD
BRANCH   4   7
ATOM      7  C   UNL A   1      34.108  23.023  24.291  1.00  0.00     0.172 C 
BRANCH   7   8
ATOM      8  N   UNL A   1      34.356  24.401  23.920  1.00  0.00    -0.358 N 
ATOM      9  H   UNL A   1      35.249  24.720  24.189  1.00  0.00     0.162 HD
BRANCH   8  10
ATOM     10  C   UNL A   1      33.614  25.353  23.274  1.00  0.00     0.139 A 
ATOM     11  C   UNL A   1      32.627  25.253  19.713  1.00  0.00     0.090 C 
ATOM     12  C   UNL A   1      32.741  25.740  21.124  1.00  0.00     0.129 A 
ATOM     13  N   UNL A   1      33.482  25.009  21.966  1.00  0.00    -0.216 NA
ATOM     14  N   UNL A   1      32.065  26.832  21.452  1.00  0.00    -0.222 NA
ATOM     15  C   UNL A   1      32.203  27.177  22.738  1.00  0.00     0.129 A 
ATOM     16  C   UNL A   1      32.952  26.534  23.728  1.00  0.00     0.057 A 
ATOM     17  S   UNL A   1      31.345  28.543  23.272  1.00  0.00    -0.120 S 
ATOM     18  C   UNL A   1      32.809  27.296  24.979  1.00  0.00    -0.021 A 
ATOM     19  C   UNL A   1      31.920  28.355  24.848  1.00  0.00     0.011 A 
ATOM     20  C   UNL A   1      33.437  27.049  26.322  1.00  0.00     0.037 C 
ATOM     21  C   UNL A   1      31.498  29.306  25.931  1.00  0.00     0.047 C 
ATOM     22  C   UNL A   1      33.285  28.213  27.312  1.00  0.00     0.005 C 
ATOM     23  C   UNL A   1      31.853  28.745  27.310  1.00  0.00     0.006 C 
ENDBRANCH   8  10
ENDBRANCH   7   8
BRANCH   7  24
ATOM     24  C   UNL A   1      32.611  22.660  24.075  1.00  0.00     0.015 C 
ATOM     25  C   UNL A   1      32.328  21.899  22.772  1.00  0.00     0.010 C 
ATOM     26  C   UNL A   1      32.087  21.830  25.257  1.00  0.00     0.010 C 
ENDBRANCH   7  24
ENDBRANCH   4   7
ENDBRANCH   2   3
ENDBRANCH   1   2
BRANCH   1  27
ATOM     27  C   UNL A   1      38.199  22.402  25.722  1.00  0.00     0.118 C 
BRANCH  27  28
ATOM     28  N   UNL A   1      39.084  21.489  26.428  1.00  0.00    -0.352 N 
ATOM     29  C   UNL A   1      40.336  21.663  26.940  1.00  0.00     0.251 C 
ATOM     30  H   UNL A   1      38.715  20.586  26.559  1.00  0.00     0.163 HD
ATOM     31  O   UNL A   1      40.963  20.659  27.297  1.00  0.00    -0.269 OA
BRANCH  29  32
ATOM     32  C   UNL A   1      40.973  22.989  27.080  1.00  0.00     0.039 A 
ATOM     33  C   UNL A   1      40.540  23.794  28.141  1.00  0.00     0.014 A 
ATOM     34  C   UNL A   1      41.858  23.510  26.131  1.00  0.00     0.014 A 
ATOM     35  C   UNL A   1      40.990  25.107  28.259  1.00  0.00     0.010 A 
ATOM     36  C   UNL A   1      42.313  24.830  26.253  1.00  0.00     0.010 A 
ATOM     37  C   UNL A   1      41.878  25.636  27.314  1.00  0.00    -0.014 A 
BRANCH  37  38
ATOM     38  C   UNL A   1      42.343  27.022  27.493  1.00  0.00     0.031 A 
ATOM     39  C   UNL A   1      41.307  28.084  27.592  1.00  0.00     0.074 A 
ATOM     40  C   UNL A   1      43.575  27.314  27.963  1.00  0.00     0.049 A 
ATOM     41  N   UNL A   1      40.701  28.374  28.705  1.00  0.00    -0.248 NA
ATOM     42  C   UNL A   1      40.771  28.778  26.423  1.00  0.00     0.031 C 
ATOM     43  C   UNL A   1      44.397  26.407  28.769  1.00  0.00     0.029 A 
ATOM     44  N   UNL A   1      44.248  28.512  28.004  1.00  0.00    -0.354 N 
ATOM     45  C   UNL A   1      39.678  29.246  28.396  1.00  0.00     0.074 A 
ATOM     46  C   UNL A   1      39.771  29.486  26.972  1.00  0.00     0.031 C 
ATOM     47  C   UNL A   1      45.369  27.125  29.369  1.00  0.00     0.029 A 
ATOM     48  C   UNL A   1      45.338  28.496  28.867  1.00  0.00     0.049 A 
ATOM     49  H   UNL A   1      43.987  29.300  27.475  1.00  0.00     0.167 HD
ATOM     50  C   UNL A   1      38.802  29.715  29.323  1.00  0.00     0.037 A 
ATOM     51  C   UNL A   1      45.829  29.563  29.553  1.00  0.00     0.037 A 
ATOM     52  C   UNL A   1      39.000  29.253  30.664  1.00  0.00     0.049 A 
ATOM     53  C   UNL A   1      44.633  29.981  30.371  1.00  0.00     0.074 A 
ATOM     54  C   UNL A   1      38.589  28.178  31.423  1.00  0.00     0.029 A 
ATOM     55  N   UNL A   1      39.895  29.923  31.464  1.00  0.00    -0.354 N 
ATOM     56  N   UNL A   1      44.231  29.420  31.481  1.00  0.00    -0.248 NA
ATOM     57  C   UNL A   1      43.653  30.876  29.750  1.00  0.00     0.031 C 
ATOM     58  C   UNL A   1      39.599  28.010  32.423  1.00  0.00     0.029 A 
ATOM     59  C   UNL A   1      40.583  28.961  32.160  1.00  0.00     0.049 A 
ATOM     60  H   UNL A   1      40.019  30.898  31.525  1.00  0.00     0.167 HD
ATOM     61  C   UNL A   1      42.864  29.693  31.560  1.00  0.00     0.074 A 
ATOM     62  C   UNL A   1      42.579  30.616  30.482  1.00  0.00     0.031 C 
ATOM     63  C   UNL A   1      42.010  29.015  32.377  1.00  0.00     0.037 A 
BRANCH  50  64
ATOM     64  C   UNL A   1      37.768  30.722  29.050  1.00  0.00     0.064 A 
ATOM     65  C   UNL A   1      36.611  30.333  28.364  1.00  0.00     0.173 A 
ATOM     66  C   UNL A   1      37.988  32.085  29.270  1.00  0.00     0.173 A 
ATOM     67  F   UNL A   1      36.385  29.032  28.118  1.00  0.00    -0.203 F 
ATOM     68  C   UNL A   1      35.715  31.278  27.881  1.00  0.00     0.198 A 
ATOM     69  C   UNL A   1      37.088  33.031  28.788  1.00  0.00     0.198 A 
ATOM     70  F   UNL A   1      39.091  32.496  29.911  1.00  0.00    -0.203 F 
ATOM     71  F   UNL A   1      34.636  30.883  27.192  1.00  0.00    -0.200 F 
ATOM     72  C   UNL A   1      35.959  32.629  28.083  1.00  0.00     0.200 A 
ATOM     73  F   UNL A   1      37.325  34.337  28.976  1.00  0.00    -0.200 F 
ATOM     74  F   UNL A   1      35.115  33.542  27.586  1.00  0.00    -0.200 F 
ENDBRANCH  50  64
BRANCH  51  75
ATOM     75  C   UNL A   1      46.637  30.533  28.740  1.00  0.00     0.064 A 
ATOM     76  C   UNL A   1      48.014  30.684  29.009  1.00  0.00     0.173 A 
ATOM     77  C   UNL A   1      46.124  31.344  27.714  1.00  0.00     0.173 A 
ATOM     78  F   UNL A   1      48.575  30.046  30.049  1.00  0.00    -0.203 F 
ATOM     79  C   UNL A   1      48.841  31.487  28.222  1.00  0.00     0.198 A 
ATOM     80  C   UNL A   1      46.955  32.126  26.909  1.00  0.00     0.198 A 
ATOM     81  F   UNL A   1      44.809  31.388  27.461  1.00  0.00    -0.203 F 
ATOM     82  F   UNL A   1      50.151  31.570  28.495  1.00  0.00    -0.200 F 
ATOM     83  C   UNL A   1      48.315  32.184  27.150  1.00  0.00     0.200 A 
ATOM     84  F   UNL A   1      46.431  32.809  25.881  1.00  0.00    -0.200 F 
ATOM     85  F   UNL A   1      49.113  32.915  26.360  1.00  0.00    -0.200 F 
ENDBRANCH  51  75
BRANCH  63  86
ATOM     86  C   UNL A   1      42.648  28.080  33.343  1.00  0.00     0.064 A 
ATOM     87  C   UNL A   1      43.180  26.864  32.900  1.00  0.00     0.173 A 
ATOM     88  C   UNL A   1      42.775  28.403  34.703  1.00  0.00     0.173 A 
ATOM     89  F   UNL A   1      43.090  26.517  31.607  1.00  0.00    -0.203 F 
ATOM     90  C   UNL A   1      43.842  26.013  33.781  1.00  0.00     0.198 A 
ATOM     91  C   UNL A   1      43.456  27.561  35.575  1.00  0.00     0.198 A 
ATOM     92  F   UNL A   1      42.272  29.550  35.186  1.00  0.00    -0.203 F 
ATOM     93  F   UNL A   1      44.360  24.860  33.335  1.00  0.00    -0.200 F 
ATOM     94  C   UNL A   1      43.991  26.368  35.114  1.00  0.00     0.200 A 
ATOM     95  F   UNL A   1      43.618  27.914  36.859  1.00  0.00    -0.200 F 
ATOM     96  F   UNL A   1      44.665  25.567  35.951  1.00  0.00    -0.200 F 
ENDBRANCH  63  86
ENDBRANCH  37  38
ENDBRANCH  29  32
ENDBRANCH  27  28
ENDBRANCH   1  27
TORSDOF 13
ENDMDL
MODEL 2
REMARK VINA RESULT:     -12.5      1.223      2.193
REMARK SMILES Cc1nc(N[C@@H](C(=O)NCCCNC(=O)c2ccc(-c3c4nc(c(-c5c(F)c(F)c(F)c(F)c5F)c5ccc([nH]5)c(-c5c(F)c(F)c(F)c(F)c5F)c5nc(c(-c6c(F)c(F)c(F)c(F)c6F)c6ccc3[nH]6)C=C5)C=C4)cc2)C(C)C)c2c3c(sc2n1)CCCC3
REMARK SMILES IDX 11 1 10 2 9 3 7 4 8 5 6 7 5 8 4 10 1 11 2 12 3 13 87 14
REMARK SMILES IDX 86 15 82 16 85 17 83 18 84 19 91 20 88 21 90 22 89 23 79 24
REMARK SMILES IDX 80 25 81 26 12 27 13 28 14 29 15 31 16 32 17 33 78 34 18 35
REMARK SMILES IDX 77 36 19 37 20 38 21 39 71 40 22 41 76 42 70 43 72 44 23 45
REMARK SMILES IDX 75 46 69 47 68 48 24 50 56 51 36 52 55 53 37 54 40 55 54 56
REMARK SMILES IDX 73 57 38 58 39 59 53 61 74 62 41 63 25 64 26 65 34 66 27 67
REMARK SMILES IDX 28 68 32 69 35 70 29 71 30 72 33 73 31 74 57 75 58 76 66 77
REMARK SMILES IDX 59 78 60 79 64 80 67 81 61 82 62 83 65 84 63 85 42 86 43 87
REMARK SMILES IDX 51 88 44 89 45 90 49 91 52 92 46 93 47 94 50 95 48 96
REMARK H PARENT 9 6 5 9 13 30 72 49 40 60
REMARK Flexibility Score: inf
ROOT
ATOM      1  C   UNL A   1      38.141  21.387  25.021  1.00  0.00     0.042 C 
ENDROOT
BRANCH   1   2
ATOM      2  C   UNL A   1      36.962  22.227  24.518  1.00  0.00     0.117 C 
BRANCH   2   3
ATOM      3  N   UNL A   1      36.043  22.549  25.593  1.00  0.00    -0.354 N 
ATOM      4  C   UNL A   1      34.674  22.499  25.613  1.00  0.00     0.242 C 
ATOM      5  O   UNL A   1      34.113  22.922  26.626  1.00  0.00    -0.273 OA
ATOM      6  H   UNL A   1      36.465  22.845  26.431  1.00  0.00     0.163 HD
BRANCH   4   7
ATOM      7  C   UNL A   1      33.898  21.868  24.417  1.00  0.00     0.172 C 
BRANCH   7   8
ATOM      8  N   UNL A   1      32.788  22.721  24.044  1.00  0.00    -0.358 N 
ATOM      9  H   UNL A   1      32.539  22.641  23.094  1.00  0.00     0.162 HD
BRANCH   8  10
ATOM     10  C   UNL A   1      32.011  23.615  24.732  1.00  0.00     0.139 A 
ATOM     11  C   UNL A   1      29.536  22.744  27.336  1.00  0.00     0.090 C 
ATOM     12  C   UNL A   1      30.371  23.582  26.418  1.00  0.00     0.129 A 
ATOM     13  N   UNL A   1      31.190  22.938  25.577  1.00  0.00    -0.216 NA
ATOM     14  N   UNL A   1      30.276  24.898  26.534  1.00  0.00    -0.222 NA
ATOM     15  C   UNL A   1      31.079  25.566  25.695  1.00  0.00     0.129 A 
ATOM     16  C   UNL A   1      31.966  25.042  24.751  1.00  0.00     0.057 A 
ATOM     17  S   UNL A   1      31.062  27.263  25.788  1.00  0.00    -0.120 S 
ATOM     18  C   UNL A   1      32.612  26.166  24.054  1.00  0.00    -0.021 A 
ATOM     19  C   UNL A   1      32.235  27.394  24.582  1.00  0.00     0.011 A 
ATOM     20  C   UNL A   1      33.613  26.144  22.932  1.00  0.00     0.037 C 
ATOM     21  C   UNL A   1      32.735  28.743  24.150  1.00  0.00     0.047 C 
ATOM     22  C   UNL A   1      33.845  27.508  22.269  1.00  0.00     0.005 C 
ATOM     23  C   UNL A   1      34.014  28.604  23.320  1.00  0.00     0.006 C 
ENDBRANCH   8  10
ENDBRANCH   7   8
BRANCH   7  24
ATOM     24  C   UNL A   1      33.396  20.438  24.766  1.00  0.00     0.015 C 
ATOM     25  C   UNL A   1      32.305  19.905  23.826  1.00  0.00     0.010 C 
ATOM     26  C   UNL A   1      34.570  19.448  24.775  1.00  0.00     0.010 C 
ENDBRANCH   7  24
ENDBRANCH   4   7
ENDBRANCH   2   3
ENDBRANCH   1   2
BRANCH   1  27
ATOM     27  C   UNL A   1      38.918  22.074  26.150  1.00  0.00     0.118 C 
BRANCH  27  28
ATOM     28  N   UNL A   1      40.054  21.261  26.557  1.00  0.00    -0.352 N 
ATOM     29  C   UNL A   1      41.356  21.586  26.797  1.00  0.00     0.251 C 
ATOM     30  H   UNL A   1      39.846  20.307  26.679  1.00  0.00     0.163 HD
ATOM     31  O   UNL A   1      42.174  20.667  26.913  1.00  0.00    -0.269 OA
BRANCH  29  32
ATOM     32  C   UNL A   1      41.829  22.982  26.919  1.00  0.00     0.039 A 
ATOM     33  C   UNL A   1      41.499  23.665  28.097  1.00  0.00     0.014 A 
ATOM     34  C   UNL A   1      42.447  23.668  25.870  1.00  0.00     0.014 A 
ATOM     35  C   UNL A   1      41.787  25.021  28.229  1.00  0.00     0.010 A 
ATOM     36  C   UNL A   1      42.740  25.031  26.005  1.00  0.00     0.010 A 
ATOM     37  C   UNL A   1      42.407  25.715  27.182  1.00  0.00    -0.014 A 
BRANCH  37  38
ATOM     38  C   UNL A   1      42.713  27.143  27.378  1.00  0.00     0.031 A 
ATOM     39  C   UNL A   1      41.563  28.081  27.479  1.00  0.00     0.074 A 
ATOM     40  C   UNL A   1      43.901  27.568  27.858  1.00  0.00     0.049 A 
ATOM     41  N   UNL A   1      40.923  28.290  28.592  1.00  0.00    -0.248 NA
ATOM     42  C   UNL A   1      40.959  28.722  26.314  1.00  0.00     0.031 C 
ATOM     43  C   UNL A   1      44.816  26.751  28.661  1.00  0.00     0.029 A 
ATOM     44  N   UNL A   1      44.435  28.833  27.914  1.00  0.00    -0.354 N 
ATOM     45  C   UNL A   1      39.809  29.044  28.284  1.00  0.00     0.074 A 
ATOM     46  C   UNL A   1      39.882  29.307  26.863  1.00  0.00     0.031 C 
ATOM     47  C   UNL A   1      45.697  27.568  29.274  1.00  0.00     0.029 A 
ATOM     48  C   UNL A   1      45.515  28.931  28.784  1.00  0.00     0.049 A 
ATOM     49  H   UNL A   1      44.090  29.592  27.391  1.00  0.00     0.167 HD
ATOM     50  C   UNL A   1      38.882  29.402  29.210  1.00  0.00     0.037 A 
ATOM     51  C   UNL A   1      45.879  30.040  29.484  1.00  0.00     0.037 A 
ATOM     52  C   UNL A   1      39.123  28.952  30.547  1.00  0.00     0.049 A 
ATOM     53  C   UNL A   1      44.639  30.312  30.298  1.00  0.00     0.074 A 
ATOM     54  C   UNL A   1      38.832  27.831  31.294  1.00  0.00     0.029 A 
ATOM     55  N   UNL A   1      39.933  29.711  31.359  1.00  0.00    -0.354 N 
ATOM     56  N   UNL A   1      44.298  29.699  31.400  1.00  0.00    -0.248 NA
ATOM     57  C   UNL A   1      43.568  31.097  29.678  1.00  0.00     0.031 C 
ATOM     58  C   UNL A   1      39.848  27.767  32.298  1.00  0.00     0.029 A 
ATOM     59  C   UNL A   1      40.721  28.825  32.051  1.00  0.00     0.049 A 
ATOM     60  H   UNL A   1      39.945  30.693  31.430  1.00  0.00     0.167 HD
ATOM     61  C   UNL A   1      42.908  29.815  31.472  1.00  0.00     0.074 A 
ATOM     62  C   UNL A   1      42.526  30.711  30.401  1.00  0.00     0.031 C 
ATOM     63  C   UNL A   1      42.131  29.037  32.277  1.00  0.00     0.037 A 
BRANCH  50  64
ATOM     64  C   UNL A   1      37.742  30.289  28.939  1.00  0.00     0.064 A 
ATOM     65  C   UNL A   1      36.636  29.777  28.250  1.00  0.00     0.173 A 
ATOM     66  C   UNL A   1      37.809  31.667  29.165  1.00  0.00     0.173 A 
ATOM     67  F   UNL A   1      36.556  28.459  27.999  1.00  0.00    -0.203 F 
ATOM     68  C   UNL A   1      35.641  30.619  27.770  1.00  0.00     0.198 A 
ATOM     69  C   UNL A   1      36.809  32.509  28.685  1.00  0.00     0.198 A 
ATOM     70  F   UNL A   1      38.859  32.196  29.809  1.00  0.00    -0.203 F 
ATOM     71  F   UNL A   1      34.613  30.108  27.077  1.00  0.00    -0.200 F 
ATOM     72  C   UNL A   1      35.733  31.987  27.977  1.00  0.00     0.200 A 
ATOM     73  F   UNL A   1      36.900  33.832  28.879  1.00  0.00    -0.200 F 
ATOM     74  F   UNL A   1      34.793  32.803  27.483  1.00  0.00    -0.200 F 
ENDBRANCH  50  64
BRANCH  51  75
ATOM     75  C   UNL A   1      46.577  31.103  28.685  1.00  0.00     0.064 A 
ATOM     76  C   UNL A   1      47.904  31.455  29.011  1.00  0.00     0.173 A 
ATOM     77  C   UNL A   1      46.002  31.814  27.619  1.00  0.00     0.173 A 
ATOM     78  F   UNL A   1      48.501  30.922  30.089  1.00  0.00    -0.203 F 
ATOM     79  C   UNL A   1      48.644  32.356  28.242  1.00  0.00     0.198 A 
ATOM     80  C   UNL A   1      46.750  32.694  26.833  1.00  0.00     0.198 A 
ATOM     81  F   UNL A   1      44.708  31.664  27.306  1.00  0.00    -0.203 F 
ATOM     82  F   UNL A   1      49.914  32.632  28.572  1.00  0.00    -0.200 F 
ATOM     83  C   UNL A   1      48.074  32.952  27.133  1.00  0.00     0.200 A 
ATOM     84  F   UNL A   1      46.182  33.277  25.767  1.00  0.00    -0.200 F 
ATOM     85  F   UNL A   1      48.796  33.778  26.362  1.00  0.00    -0.200 F 
ENDBRANCH  51  75
BRANCH  63  86
ATOM     86  C   UNL A   1      42.865  28.171  33.239  1.00  0.00     0.064 A 
ATOM     87  C   UNL A   1      42.972  28.545  34.584  1.00  0.00     0.173 A 
ATOM     88  C   UNL A   1      43.427  26.947  32.845  1.00  0.00     0.173 A 
ATOM     89  F   UNL A   1      42.442  29.703  35.009  1.00  0.00    -0.203 F 
ATOM     90  C   UNL A   1      43.594  27.711  35.507  1.00  0.00     0.198 A 
ATOM     91  C   UNL A   1      44.028  26.106  33.775  1.00  0.00     0.198 A 
ATOM     92  F   UNL A   1      43.365  26.544  31.566  1.00  0.00    -0.203 F 
ATOM     93  F   UNL A   1      43.673  28.078  36.795  1.00  0.00    -0.200 F 
ATOM     94  C   UNL A   1      44.109  26.487  35.106  1.00  0.00     0.200 A 
ATOM     95  F   UNL A   1      44.507  24.915  33.390  1.00  0.00    -0.200 F 
ATOM     96  F   UNL A   1      44.671  25.666  36.005  1.00  0.00    -0.200 F 
ENDBRANCH  63  86
ENDBRANCH  37  38
ENDBRANCH  29  32
ENDBRANCH  27  28
ENDBRANCH   1  27
TORSDOF 13
ENDMDL
MODEL 3
REMARK VINA RESULT:     -12.3      6.448     12.913
REMARK SMILES Cc1nc(N[C@@H](C(=O)NCCCNC(=O)c2ccc(-c3c4nc(c(-c5c(F)c(F)c(F)c(F)c5F)c5ccc([nH]5)c(-c5c(F)c(F)c(F)c(F)c5F)c5nc(c(-c6c(F)c(F)c(F)c(F)c6F)c6ccc3[nH]6)C=C5)C=C4)cc2)C(C)C)c2c3c(sc2n1)CCCC3
REMARK SMILES IDX 11 1 10 2 9 3 7 4 8 5 6 7 5 8 4 10 1 11 2 12 3 13 87 14
REMARK SMILES IDX 86 15 82 16 85 17 83 18 84 19 91 20 88 21 90 22 89 23 79 24
REMARK SMILES IDX 80 25 81 26 12 27 13 28 14 29 15 31 16 32 17 33 78 34 18 35
REMARK SMILES IDX 77 36 19 37 20 38 21 39 71 40 22 41 76 42 70 43 72 44 23 45
REMARK SMILES IDX 75 46 69 47 68 48 24 50 56 51 36 52 55 53 37 54 40 55 54 56
REMARK SMILES IDX 73 57 38 58 39 59 53 61 74 62 41 63 25 64 26 65 34 66 27 67
REMARK SMILES IDX 28 68 32 69 35 70 29 71 30 72 33 73 31 74 57 75 58 76 66 77
REMARK SMILES IDX 59 78 60 79 64 80 67 81 61 82 62 83 65 84 63 85 42 86 43 87
REMARK SMILES IDX 51 88 44 89 45 90 49 91 52 92 46 93 47 94 50 95 48 96
REMARK H PARENT 9 6 5 9 13 30 72 49 40 60
REMARK Flexibility Score: inf
ROOT
ATOM      1  C   UNL A   1      45.294  24.311  38.856  1.00  0.00     0.042 C 
ENDROOT
BRANCH   1   2
ATOM      2  C   UNL A   1      45.777  22.861  38.751  1.00  0.00     0.117 C 
BRANCH   2   3
ATOM      3  N   UNL A   1      46.959  22.755  37.916  1.00  0.00    -0.354 N 
ATOM      4  C   UNL A   1      47.439  21.677  37.219  1.00  0.00     0.242 C 
ATOM      5  O   UNL A   1      48.528  21.813  36.658  1.00  0.00    -0.273 OA
ATOM      6  H   UNL A   1      47.494  23.577  37.839  1.00  0.00     0.163 HD
BRANCH   4   7
ATOM      7  C   UNL A   1      46.585  20.376  37.108  1.00  0.00     0.172 C 
BRANCH   7   8
ATOM      8  N   UNL A   1      47.285  19.272  37.733  1.00  0.00    -0.358 N 
ATOM      9  H   UNL A   1      47.778  18.713  37.089  1.00  0.00     0.162 HD
BRANCH   8  10
ATOM     10  C   UNL A   1      47.406  18.842  39.027  1.00  0.00     0.139 A 
ATOM     11  C   UNL A   1      50.074  19.848  41.380  1.00  0.00     0.090 C 
ATOM     12  C   UNL A   1      48.840  19.175  40.861  1.00  0.00     0.129 A 
ATOM     13  N   UNL A   1      48.525  19.383  39.576  1.00  0.00    -0.216 NA
ATOM     14  N   UNL A   1      48.126  18.460  41.718  1.00  0.00    -0.222 NA
ATOM     15  C   UNL A   1      47.028  17.919  41.174  1.00  0.00     0.129 A 
ATOM     16  C   UNL A   1      46.578  18.025  39.855  1.00  0.00     0.057 A 
ATOM     17  S   UNL A   1      46.019  17.013  42.198  1.00  0.00    -0.120 S 
ATOM     18  C   UNL A   1      45.337  17.244  39.730  1.00  0.00    -0.021 A 
ATOM     19  C   UNL A   1      44.927  16.714  40.946  1.00  0.00     0.011 A 
ATOM     20  C   UNL A   1      44.480  17.004  38.518  1.00  0.00     0.037 C 
ATOM     21  C   UNL A   1      43.684  15.910  41.197  1.00  0.00     0.047 C 
ATOM     22  C   UNL A   1      43.424  15.905  38.701  1.00  0.00     0.005 C 
ATOM     23  C   UNL A   1      42.698  16.065  40.036  1.00  0.00     0.006 C 
ENDBRANCH   8  10
ENDBRANCH   7   8
BRANCH   7  24
ATOM     24  C   UNL A   1      46.257  20.047  35.624  1.00  0.00     0.015 C 
ATOM     25  C   UNL A   1      45.493  18.729  35.424  1.00  0.00     0.010 C 
ATOM     26  C   UNL A   1      45.450  21.188  34.989  1.00  0.00     0.010 C 
ENDBRANCH   7  24
ENDBRANCH   4   7
ENDBRANCH   2   3
ENDBRANCH   1   2
BRANCH   1  27
ATOM     27  C   UNL A   1      44.844  24.885  37.507  1.00  0.00     0.118 C 
BRANCH  27  28
ATOM     28  N   UNL A   1      43.529  24.374  37.148  1.00  0.00    -0.352 N 
ATOM     29  C   UNL A   1      42.781  24.525  36.018  1.00  0.00     0.251 C 
ATOM     30  H   UNL A   1      43.105  23.823  37.844  1.00  0.00     0.163 HD
ATOM     31  O   UNL A   1      41.598  24.173  36.053  1.00  0.00    -0.269 OA
BRANCH  29  32
ATOM     32  C   UNL A   1      43.320  25.093  34.764  1.00  0.00     0.039 A 
ATOM     33  C   UNL A   1      42.938  26.402  34.444  1.00  0.00     0.014 A 
ATOM     34  C   UNL A   1      44.052  24.340  33.843  1.00  0.00     0.014 A 
ATOM     35  C   UNL A   1      43.289  26.958  33.215  1.00  0.00     0.010 A 
ATOM     36  C   UNL A   1      44.409  24.900  32.610  1.00  0.00     0.010 A 
ATOM     37  C   UNL A   1      44.025  26.210  32.288  1.00  0.00    -0.014 A 
BRANCH  37  38
ATOM     38  C   UNL A   1      44.393  26.848  31.012  1.00  0.00     0.031 A 
ATOM     39  C   UNL A   1      44.456  25.979  29.806  1.00  0.00     0.074 A 
ATOM     40  C   UNL A   1      44.277  28.178  30.811  1.00  0.00     0.049 A 
ATOM     41  N   UNL A   1      43.406  25.678  29.101  1.00  0.00    -0.248 NA
ATOM     42  C   UNL A   1      45.668  25.268  29.406  1.00  0.00     0.031 C 
ATOM     43  C   UNL A   1      43.385  29.061  31.568  1.00  0.00     0.029 A 
ATOM     44  N   UNL A   1      44.751  28.966  29.789  1.00  0.00    -0.354 N 
ATOM     45  C   UNL A   1      43.789  24.709  28.197  1.00  0.00     0.074 A 
ATOM     46  C   UNL A   1      45.205  24.501  28.406  1.00  0.00     0.031 C 
ATOM     47  C   UNL A   1      43.239  30.214  30.883  1.00  0.00     0.029 A 
ATOM     48  C   UNL A   1      44.144  30.216  29.738  1.00  0.00     0.049 A 
ATOM     49  H   UNL A   1      45.449  28.676  29.159  1.00  0.00     0.167 HD
ATOM     50  C   UNL A   1      42.920  24.123  27.333  1.00  0.00     0.037 A 
ATOM     51  C   UNL A   1      43.942  30.960  28.616  1.00  0.00     0.037 A 
ATOM     52  C   UNL A   1      41.562  24.570  27.406  1.00  0.00     0.049 A 
ATOM     53  C   UNL A   1      43.100  30.033  27.777  1.00  0.00     0.074 A 
ATOM     54  C   UNL A   1      40.434  24.232  28.122  1.00  0.00     0.029 A 
ATOM     55  N   UNL A   1      41.201  25.690  26.694  1.00  0.00    -0.354 N 
ATOM     56  N   UNL A   1      41.815  29.838  27.908  1.00  0.00    -0.248 NA
ATOM     57  C   UNL A   1      43.788  29.037  26.950  1.00  0.00     0.031 C 
ATOM     58  C   UNL A   1      39.636  25.418  28.159  1.00  0.00     0.029 A 
ATOM     59  C   UNL A   1      40.368  26.412  27.512  1.00  0.00     0.049 A 
ATOM     60  H   UNL A   1      41.483  25.927  25.781  1.00  0.00     0.167 HD
ATOM     61  C   UNL A   1      41.580  28.561  27.394  1.00  0.00     0.074 A 
ATOM     62  C   UNL A   1      42.828  28.137  26.794  1.00  0.00     0.031 C 
ATOM     63  C   UNL A   1      40.446  27.848  27.643  1.00  0.00     0.037 A 
BRANCH  50  64
ATOM     64  C   UNL A   1      43.312  23.166  26.288  1.00  0.00     0.064 A 
ATOM     65  C   UNL A   1      43.117  21.798  26.518  1.00  0.00     0.173 A 
ATOM     66  C   UNL A   1      44.049  23.557  25.167  1.00  0.00     0.173 A 
ATOM     67  F   UNL A   1      42.431  21.392  27.599  1.00  0.00    -0.203 F 
ATOM     68  C   UNL A   1      43.674  20.846  25.673  1.00  0.00     0.198 A 
ATOM     69  C   UNL A   1      44.604  22.602  24.319  1.00  0.00     0.198 A 
ATOM     70  F   UNL A   1      44.267  24.857  24.922  1.00  0.00    -0.203 F 
ATOM     71  F   UNL A   1      43.509  19.543  25.937  1.00  0.00    -0.200 F 
ATOM     72  C   UNL A   1      44.427  21.248  24.579  1.00  0.00     0.200 A 
ATOM     73  F   UNL A   1      45.337  22.987  23.267  1.00  0.00    -0.200 F 
ATOM     74  F   UNL A   1      44.993  20.330  23.785  1.00  0.00    -0.200 F 
ENDBRANCH  50  64
BRANCH  51  75
ATOM     75  C   UNL A   1      45.159  31.660  28.083  1.00  0.00     0.064 A 
ATOM     76  C   UNL A   1      45.036  32.505  26.960  1.00  0.00     0.173 A 
ATOM     77  C   UNL A   1      46.455  31.530  28.609  1.00  0.00     0.173 A 
ATOM     78  F   UNL A   1      43.865  32.601  26.310  1.00  0.00    -0.203 F 
ATOM     79  C   UNL A   1      46.105  33.266  26.482  1.00  0.00     0.198 A 
ATOM     80  C   UNL A   1      47.518  32.312  28.149  1.00  0.00     0.198 A 
ATOM     81  F   UNL A   1      46.720  30.653  29.587  1.00  0.00    -0.203 F 
ATOM     82  F   UNL A   1      45.929  34.082  25.433  1.00  0.00    -0.200 F 
ATOM     83  C   UNL A   1      47.339  33.192  27.099  1.00  0.00     0.200 A 
ATOM     84  F   UNL A   1      48.715  32.220  28.747  1.00  0.00    -0.200 F 
ATOM     85  F   UNL A   1      48.354  33.959  26.677  1.00  0.00    -0.200 F 
ENDBRANCH  51  75
BRANCH  63  86
ATOM     86  C   UNL A   1      39.362  28.587  28.347  1.00  0.00     0.064 A 
ATOM     87  C   UNL A   1      38.518  29.446  27.634  1.00  0.00     0.173 A 
ATOM     88  C   UNL A   1      39.127  28.414  29.719  1.00  0.00     0.173 A 
ATOM     89  F   UNL A   1      38.699  29.636  26.318  1.00  0.00    -0.203 F 
ATOM     90  C   UNL A   1      37.457  30.088  28.267  1.00  0.00     0.198 A 
ATOM     91  C   UNL A   1      38.053  29.040  30.343  1.00  0.00     0.198 A 
ATOM     92  F   UNL A   1      39.912  27.612  30.455  1.00  0.00    -0.203 F 
ATOM     93  F   UNL A   1      36.649  30.895  27.564  1.00  0.00    -0.200 F 
ATOM     94  C   UNL A   1      37.217  29.874  29.616  1.00  0.00     0.200 A 
ATOM     95  F   UNL A   1      37.809  28.817  31.643  1.00  0.00    -0.200 F 
ATOM     96  F   UNL A   1      36.170  30.461  30.214  1.00  0.00    -0.200 F 
ENDBRANCH  63  86
ENDBRANCH  37  38
ENDBRANCH  29  32
ENDBRANCH  27  28
ENDBRANCH   1  27
TORSDOF 13
ENDMDL
