MODEL 1
REMARK VINA RESULT:     -14.0      0.000      0.000
REMARK SMILES Cc1ccc(-c2cc(C(=O)NCCCNC(=O)c3ccc(-c4c5nc(c(-c6c(F)c(F)c(F)c(F)c6F)c6ccc([nH]6)c(-c6c(F)c(F)c(F)c(F)c6F)c6nc(c(-c7c(F)c(F)c(F)c(F)c7F)c7ccc4[nH]7)C=C6)C=C5)cc3)c3cc(C)ccc3n2)c(C)c1
REMARK SMILES IDX 13 1 12 2 11 3 9 4 10 5 8 7 6 8 7 9 88 10 87 11 81 12 86 13
REMARK SMILES IDX 82 14 85 15 83 16 84 17 5 18 1 19 2 20 3 21 91 22 4 23 89 24
REMARK SMILES IDX 90 25 14 26 15 27 16 28 17 30 18 31 19 32 80 33 20 34 79 35
REMARK SMILES IDX 21 36 22 37 23 38 73 39 24 40 78 41 72 42 74 43 25 44 77 45
REMARK SMILES IDX 71 46 70 47 26 49 58 50 38 51 57 52 39 53 42 54 56 55 75 56
REMARK SMILES IDX 40 57 41 58 55 60 76 61 43 62 27 63 28 64 36 65 29 66 30 67
REMARK SMILES IDX 34 68 37 69 31 70 32 71 35 72 33 73 59 74 60 75 68 76 61 77
REMARK SMILES IDX 62 78 66 79 69 80 63 81 64 82 67 83 65 84 44 85 45 86 53 87
REMARK SMILES IDX 46 88 47 89 51 90 54 91 48 92 49 93 52 94 50 95
REMARK H PARENT 11 6 15 29 74 48 42 59
REMARK Flexibility Score: inf
ROOT
ATOM      1  C   UNL A   1      32.598  29.019  23.910  1.00  0.00     0.042 C 
ENDROOT
BRANCH   1   2
ATOM      2  C   UNL A   1      33.858  28.690  23.133  1.00  0.00     0.118 C 
BRANCH   2   3
ATOM      3  N   UNL A   1      33.698  27.811  21.986  1.00  0.00    -0.352 N 
ATOM      4  C   UNL A   1      33.365  26.473  21.913  1.00  0.00     0.252 C 
ATOM      5  O   UNL A   1      33.209  25.981  20.795  1.00  0.00    -0.269 OA
ATOM      6  H   UNL A   1      33.851  28.242  21.113  1.00  0.00     0.163 HD
BRANCH   4   7
ATOM      7  C   UNL A   1      33.296  25.582  23.106  1.00  0.00     0.051 A 
ATOM      8  C   UNL A   1      34.544  24.224  24.629  1.00  0.00     0.072 A 
ATOM      9  C   UNL A   1      34.498  24.957  23.456  1.00  0.00     0.043 A 
ATOM     10  N   UNL A   1      33.514  24.206  25.505  1.00  0.00    -0.248 NA
ATOM     11  C   UNL A   1      32.354  24.782  25.158  1.00  0.00     0.072 A 
ATOM     12  C   UNL A   1      32.149  25.372  23.902  1.00  0.00     0.013 A 
ATOM     13  C   UNL A   1      31.317  24.808  26.080  1.00  0.00     0.029 A 
ATOM     14  C   UNL A   1      30.832  25.735  23.540  1.00  0.00     0.014 A 
ATOM     15  C   UNL A   1      30.077  25.381  25.782  1.00  0.00     0.005 A 
ATOM     16  C   UNL A   1      29.817  25.830  24.492  1.00  0.00    -0.050 A 
ATOM     17  C   UNL A   1      28.545  26.551  24.158  1.00  0.00     0.044 C 
BRANCH   8  18
ATOM     18  C   UNL A   1      35.675  23.345  24.960  1.00  0.00     0.003 A 
ATOM     19  C   UNL A   1      39.032  20.789  25.956  1.00  0.00     0.044 C 
ATOM     20  C   UNL A   1      37.882  21.687  25.609  1.00  0.00    -0.051 A 
ATOM     21  C   UNL A   1      37.977  23.073  25.739  1.00  0.00     0.004 A 
ATOM     22  C   UNL A   1      36.684  21.130  25.152  1.00  0.00     0.007 A 
ATOM     23  C   UNL A   1      36.888  23.891  25.419  1.00  0.00     0.011 A 
ATOM     24  C   UNL A   1      35.585  21.940  24.812  1.00  0.00    -0.041 A 
ATOM     25  C   UNL A   1      34.331  21.249  24.339  1.00  0.00     0.045 C 
ENDBRANCH   8  18
ENDBRANCH   4   7
ENDBRANCH   2   3
ENDBRANCH   1   2
BRANCH   1  26
ATOM     26  C   UNL A   1      32.780  29.093  25.419  1.00  0.00     0.118 C 
BRANCH  26  27
ATOM     27  N   UNL A   1      32.411  30.373  26.018  1.00  0.00    -0.352 N 
ATOM     28  C   UNL A   1      33.025  31.205  26.926  1.00  0.00     0.251 C 
ATOM     29  H   UNL A   1      31.541  30.713  25.707  1.00  0.00     0.163 HD
ATOM     30  O   UNL A   1      32.420  32.204  27.315  1.00  0.00    -0.269 OA
BRANCH  28  31
ATOM     31  C   UNL A   1      34.362  30.908  27.493  1.00  0.00     0.039 A 
ATOM     32  C   UNL A   1      35.261  31.964  27.696  1.00  0.00     0.014 A 
ATOM     33  C   UNL A   1      34.759  29.615  27.812  1.00  0.00     0.014 A 
ATOM     34  C   UNL A   1      36.492  31.730  28.321  1.00  0.00     0.010 A 
ATOM     35  C   UNL A   1      35.914  29.402  28.556  1.00  0.00     0.010 A 
ATOM     36  C   UNL A   1      36.800  30.455  28.819  1.00  0.00    -0.014 A 
BRANCH  36  37
ATOM     37  C   UNL A   1      38.031  30.186  29.609  1.00  0.00     0.031 A 
ATOM     38  C   UNL A   1      39.074  29.235  29.082  1.00  0.00     0.074 A 
ATOM     39  C   UNL A   1      38.161  30.702  30.847  1.00  0.00     0.049 A 
ATOM     40  N   UNL A   1      40.127  28.738  29.683  1.00  0.00    -0.248 NA
ATOM     41  C   UNL A   1      38.879  28.737  27.711  1.00  0.00     0.031 C 
ATOM     42  C   UNL A   1      37.194  31.582  31.506  1.00  0.00     0.029 A 
ATOM     43  N   UNL A   1      39.152  30.544  31.785  1.00  0.00    -0.354 N 
ATOM     44  C   UNL A   1      40.692  27.848  28.779  1.00  0.00     0.074 A 
ATOM     45  C   UNL A   1      39.831  27.821  27.617  1.00  0.00     0.031 C 
ATOM     46  C   UNL A   1      37.649  31.904  32.726  1.00  0.00     0.029 A 
ATOM     47  C   UNL A   1      38.915  31.218  32.957  1.00  0.00     0.049 A 
ATOM     48  H   UNL A   1      39.957  29.998  31.631  1.00  0.00     0.167 HD
ATOM     49  C   UNL A   1      41.842  27.139  28.891  1.00  0.00     0.037 A 
ATOM     50  C   UNL A   1      39.630  31.268  34.098  1.00  0.00     0.037 A 
ATOM     51  C   UNL A   1      42.722  27.205  30.027  1.00  0.00     0.049 A 
ATOM     52  C   UNL A   1      40.919  30.498  34.189  1.00  0.00     0.074 A 
ATOM     53  C   UNL A   1      43.945  26.586  30.210  1.00  0.00     0.029 A 
ATOM     54  N   UNL A   1      42.471  27.943  31.175  1.00  0.00    -0.354 N 
ATOM     55  N   UNL A   1      41.474  29.708  33.303  1.00  0.00    -0.248 NA
ATOM     56  C   UNL A   1      41.682  30.632  35.438  1.00  0.00     0.031 C 
ATOM     57  C   UNL A   1      44.418  26.920  31.484  1.00  0.00     0.029 A 
ATOM     58  C   UNL A   1      43.511  27.784  32.076  1.00  0.00     0.049 A 
ATOM     59  H   UNL A   1      41.672  28.498  31.327  1.00  0.00     0.167 HD
ATOM     60  C   UNL A   1      42.660  29.268  33.875  1.00  0.00     0.074 A 
ATOM     61  C   UNL A   1      42.752  29.893  35.177  1.00  0.00     0.031 C 
ATOM     62  C   UNL A   1      43.587  28.418  33.368  1.00  0.00     0.037 A 
BRANCH  49  63
ATOM     63  C   UNL A   1      42.217  26.246  27.742  1.00  0.00     0.064 A 
ATOM     64  C   UNL A   1      43.177  26.632  26.793  1.00  0.00     0.173 A 
ATOM     65  C   UNL A   1      41.620  24.985  27.593  1.00  0.00     0.173 A 
ATOM     66  F   UNL A   1      43.769  27.833  26.881  1.00  0.00    -0.203 F 
ATOM     67  C   UNL A   1      43.490  25.811  25.714  1.00  0.00     0.198 A 
ATOM     68  C   UNL A   1      41.963  24.151  26.532  1.00  0.00     0.198 A 
ATOM     69  F   UNL A   1      40.703  24.561  28.475  1.00  0.00    -0.203 F 
ATOM     70  F   UNL A   1      44.360  26.231  24.784  1.00  0.00    -0.200 F 
ATOM     71  C   UNL A   1      42.889  24.568  25.587  1.00  0.00     0.200 A 
ATOM     72  F   UNL A   1      41.390  22.944  26.418  1.00  0.00    -0.200 F 
ATOM     73  F   UNL A   1      43.192  23.777  24.549  1.00  0.00    -0.200 F 
ENDBRANCH  49  63
BRANCH  50  74
ATOM     74  C   UNL A   1      39.153  32.100  35.233  1.00  0.00     0.064 A 
ATOM     75  C   UNL A   1      38.418  31.529  36.281  1.00  0.00     0.173 A 
ATOM     76  C   UNL A   1      39.433  33.472  35.304  1.00  0.00     0.173 A 
ATOM     77  F   UNL A   1      38.110  30.224  36.248  1.00  0.00    -0.203 F 
ATOM     78  C   UNL A   1      37.964  32.302  37.348  1.00  0.00     0.198 A 
ATOM     79  C   UNL A   1      39.002  34.240  36.385  1.00  0.00     0.198 A 
ATOM     80  F   UNL A   1      40.140  34.066  34.332  1.00  0.00    -0.203 F 
ATOM     81  F   UNL A   1      37.229  31.738  38.316  1.00  0.00    -0.200 F 
ATOM     82  C   UNL A   1      38.263  33.655  37.403  1.00  0.00     0.200 A 
ATOM     83  F   UNL A   1      39.308  35.543  36.443  1.00  0.00    -0.200 F 
ATOM     84  F   UNL A   1      37.835  34.396  38.433  1.00  0.00    -0.200 F 
ENDBRANCH  50  74
BRANCH  62  85
ATOM     85  C   UNL A   1      44.794  28.136  34.214  1.00  0.00     0.064 A 
ATOM     86  C   UNL A   1      44.833  27.049  35.099  1.00  0.00     0.173 A 
ATOM     87  C   UNL A   1      45.939  28.940  34.105  1.00  0.00     0.173 A 
ATOM     88  F   UNL A   1      43.758  26.262  35.248  1.00  0.00    -0.203 F 
ATOM     89  C   UNL A   1      45.968  26.790  35.862  1.00  0.00     0.198 A 
ATOM     90  C   UNL A   1      47.082  28.661  34.849  1.00  0.00     0.198 A 
ATOM     91  F   UNL A   1      45.954  29.988  33.268  1.00  0.00    -0.203 F 
ATOM     92  F   UNL A   1      45.968  25.774  36.735  1.00  0.00    -0.200 F 
ATOM     93  C   UNL A   1      47.093  27.591  35.732  1.00  0.00     0.200 A 
ATOM     94  F   UNL A   1      48.173  29.427  34.712  1.00  0.00    -0.200 F 
ATOM     95  F   UNL A   1      48.187  27.336  36.462  1.00  0.00    -0.200 F 
ENDBRANCH  62  85
ENDBRANCH  36  37
ENDBRANCH  28  31
ENDBRANCH  26  27
ENDBRANCH   1  26
TORSDOF 11
ENDMDL
MODEL 2
REMARK VINA RESULT:     -13.8      1.583      7.582
REMARK SMILES Cc1ccc(-c2cc(C(=O)NCCCNC(=O)c3ccc(-c4c5nc(c(-c6c(F)c(F)c(F)c(F)c6F)c6ccc([nH]6)c(-c6c(F)c(F)c(F)c(F)c6F)c6nc(c(-c7c(F)c(F)c(F)c(F)c7F)c7ccc4[nH]7)C=C6)C=C5)cc3)c3cc(C)ccc3n2)c(C)c1
REMARK SMILES IDX 13 1 12 2 11 3 9 4 10 5 8 7 6 8 7 9 88 10 87 11 81 12 86 13
REMARK SMILES IDX 82 14 85 15 83 16 84 17 5 18 1 19 2 20 3 21 91 22 4 23 89 24
REMARK SMILES IDX 90 25 14 26 15 27 16 28 17 30 18 31 19 32 80 33 20 34 79 35
REMARK SMILES IDX 21 36 22 37 23 38 73 39 24 40 78 41 72 42 74 43 25 44 77 45
REMARK SMILES IDX 71 46 70 47 26 49 58 50 38 51 57 52 39 53 42 54 56 55 75 56
REMARK SMILES IDX 40 57 41 58 55 60 76 61 43 62 27 63 28 64 36 65 29 66 30 67
REMARK SMILES IDX 34 68 37 69 31 70 32 71 35 72 33 73 59 74 60 75 68 76 61 77
REMARK SMILES IDX 62 78 66 79 69 80 63 81 64 82 67 83 65 84 44 85 45 86 53 87
REMARK SMILES IDX 46 88 47 89 51 90 54 91 48 92 49 93 52 94 50 95
REMARK H PARENT 11 6 15 29 74 48 42 59
REMARK Flexibility Score: inf
ROOT
ATOM      1  C   UNL A   1      32.461  29.683  25.217  1.00  0.00     0.042 C 
ENDROOT
BRANCH   1   2
ATOM      2  C   UNL A   1      33.656  28.761  25.071  1.00  0.00     0.118 C 
BRANCH   2   3
ATOM      3  N   UNL A   1      34.076  28.460  23.711  1.00  0.00    -0.352 N 
ATOM      4  C   UNL A   1      33.508  27.647  22.751  1.00  0.00     0.252 C 
ATOM      5  O   UNL A   1      34.024  27.634  21.633  1.00  0.00    -0.269 OA
ATOM      6  H   UNL A   1      34.903  28.912  23.427  1.00  0.00     0.163 HD
BRANCH   4   7
ATOM      7  C   UNL A   1      32.380  26.714  23.032  1.00  0.00     0.051 A 
ATOM      8  C   UNL A   1      31.770  24.530  23.795  1.00  0.00     0.072 A 
ATOM      9  C   UNL A   1      32.754  25.413  23.389  1.00  0.00     0.043 A 
ATOM     10  N   UNL A   1      30.489  24.922  23.986  1.00  0.00    -0.248 NA
ATOM     11  C   UNL A   1      30.125  26.160  23.620  1.00  0.00     0.072 A 
ATOM     12  C   UNL A   1      31.012  27.058  23.007  1.00  0.00     0.013 A 
ATOM     13  C   UNL A   1      28.824  26.575  23.867  1.00  0.00     0.029 A 
ATOM     14  C   UNL A   1      30.481  28.239  22.441  1.00  0.00     0.014 A 
ATOM     15  C   UNL A   1      28.373  27.847  23.500  1.00  0.00     0.005 A 
ATOM     16  C   UNL A   1      29.197  28.685  22.758  1.00  0.00    -0.050 A 
ATOM     17  C   UNL A   1      28.797  30.095  22.441  1.00  0.00     0.044 C 
BRANCH   8  18
ATOM     18  C   UNL A   1      32.026  23.093  23.960  1.00  0.00     0.003 A 
ATOM     19  C   UNL A   1      32.795  18.849  24.404  1.00  0.00     0.044 C 
ATOM     20  C   UNL A   1      32.523  20.314  24.234  1.00  0.00    -0.051 A 
ATOM     21  C   UNL A   1      32.413  20.891  22.968  1.00  0.00     0.004 A 
ATOM     22  C   UNL A   1      32.380  21.126  25.363  1.00  0.00     0.007 A 
ATOM     23  C   UNL A   1      32.169  22.263  22.834  1.00  0.00     0.011 A 
ATOM     24  C   UNL A   1      32.120  22.503  25.244  1.00  0.00    -0.041 A 
ATOM     25  C   UNL A   1      31.993  23.300  26.518  1.00  0.00     0.045 C 
ENDBRANCH   8  18
ENDBRANCH   4   7
ENDBRANCH   2   3
ENDBRANCH   1   2
BRANCH   1  26
ATOM     26  C   UNL A   1      32.174  30.134  26.642  1.00  0.00     0.118 C 
BRANCH  26  27
ATOM     27  N   UNL A   1      32.358  31.563  26.881  1.00  0.00    -0.352 N 
ATOM     28  C   UNL A   1      33.355  32.302  27.476  1.00  0.00     0.251 C 
ATOM     29  H   UNL A   1      31.614  32.113  26.546  1.00  0.00     0.163 HD
ATOM     30  O   UNL A   1      33.191  33.515  27.609  1.00  0.00    -0.269 OA
BRANCH  28  31
ATOM     31  C   UNL A   1      34.588  31.679  28.012  1.00  0.00     0.039 A 
ATOM     32  C   UNL A   1      35.722  32.481  28.206  1.00  0.00     0.014 A 
ATOM     33  C   UNL A   1      34.663  30.324  28.312  1.00  0.00     0.014 A 
ATOM     34  C   UNL A   1      36.869  31.946  28.803  1.00  0.00     0.010 A 
ATOM     35  C   UNL A   1      35.745  29.826  29.030  1.00  0.00     0.010 A 
ATOM     36  C   UNL A   1      36.865  30.627  29.284  1.00  0.00    -0.014 A 
BRANCH  36  37
ATOM     37  C   UNL A   1      38.007  30.054  30.046  1.00  0.00     0.031 A 
ATOM     38  C   UNL A   1      38.264  30.490  31.464  1.00  0.00     0.074 A 
ATOM     39  C   UNL A   1      38.881  29.233  29.429  1.00  0.00     0.049 A 
ATOM     40  N   UNL A   1      39.293  30.242  32.237  1.00  0.00    -0.248 NA
ATOM     41  C   UNL A   1      37.252  31.361  32.080  1.00  0.00     0.031 C 
ATOM     42  C   UNL A   1      38.789  28.786  28.037  1.00  0.00     0.029 A 
ATOM     43  N   UNL A   1      40.033  28.644  29.887  1.00  0.00    -0.354 N 
ATOM     44  C   UNL A   1      39.065  30.955  33.408  1.00  0.00     0.074 A 
ATOM     45  C   UNL A   1      37.838  31.697  33.219  1.00  0.00     0.031 C 
ATOM     46  C   UNL A   1      39.823  27.977  27.764  1.00  0.00     0.029 A 
ATOM     47  C   UNL A   1      40.677  27.883  28.942  1.00  0.00     0.049 A 
ATOM     48  H   UNL A   1      40.366  28.755  30.807  1.00  0.00     0.167 HD
ATOM     49  C   UNL A   1      39.794  30.968  34.550  1.00  0.00     0.037 A 
ATOM     50  C   UNL A   1      41.835  27.198  29.012  1.00  0.00     0.037 A 
ATOM     51  C   UNL A   1      40.988  30.191  34.753  1.00  0.00     0.049 A 
ATOM     52  C   UNL A   1      42.612  27.201  30.299  1.00  0.00     0.074 A 
ATOM     53  C   UNL A   1      41.760  30.075  35.894  1.00  0.00     0.029 A 
ATOM     54  N   UNL A   1      41.580  29.391  33.786  1.00  0.00    -0.354 N 
ATOM     55  N   UNL A   1      42.354  27.829  31.419  1.00  0.00    -0.248 NA
ATOM     56  C   UNL A   1      43.840  26.394  30.332  1.00  0.00     0.031 C 
ATOM     57  C   UNL A   1      42.840  29.232  35.609  1.00  0.00     0.029 A 
ATOM     58  C   UNL A   1      42.715  28.787  34.302  1.00  0.00     0.049 A 
ATOM     59  H   UNL A   1      41.242  29.269  32.869  1.00  0.00     0.167 HD
ATOM     60  C   UNL A   1      43.371  27.479  32.297  1.00  0.00     0.074 A 
ATOM     61  C   UNL A   1      44.241  26.568  31.584  1.00  0.00     0.031 C 
ATOM     62  C   UNL A   1      43.568  27.880  33.577  1.00  0.00     0.037 A 
BRANCH  49  63
ATOM     63  C   UNL A   1      39.304  31.838  35.672  1.00  0.00     0.064 A 
ATOM     64  C   UNL A   1      39.732  33.168  35.814  1.00  0.00     0.173 A 
ATOM     65  C   UNL A   1      38.386  31.343  36.612  1.00  0.00     0.173 A 
ATOM     66  F   UNL A   1      40.618  33.686  34.951  1.00  0.00    -0.203 F 
ATOM     67  C   UNL A   1      39.297  33.953  36.878  1.00  0.00     0.198 A 
ATOM     68  C   UNL A   1      37.926  32.144  37.654  1.00  0.00     0.198 A 
ATOM     69  F   UNL A   1      37.936  30.083  36.521  1.00  0.00    -0.203 F 
ATOM     70  F   UNL A   1      39.774  35.197  37.029  1.00  0.00    -0.200 F 
ATOM     71  C   UNL A   1      38.390  33.443  37.794  1.00  0.00     0.200 A 
ATOM     72  F   UNL A   1      37.038  31.654  38.531  1.00  0.00    -0.200 F 
ATOM     73  F   UNL A   1      37.971  34.200  38.817  1.00  0.00    -0.200 F 
ENDBRANCH  49  63
BRANCH  50  74
ATOM     74  C   UNL A   1      42.311  26.431  27.832  1.00  0.00     0.064 A 
ATOM     75  C   UNL A   1      43.257  26.978  26.955  1.00  0.00     0.173 A 
ATOM     76  C   UNL A   1      41.846  25.135  27.564  1.00  0.00     0.173 A 
ATOM     77  F   UNL A   1      43.718  28.221  27.159  1.00  0.00    -0.203 F 
ATOM     78  C   UNL A   1      43.707  26.267  25.844  1.00  0.00     0.198 A 
ATOM     79  C   UNL A   1      42.317  24.413  26.468  1.00  0.00     0.198 A 
ATOM     80  F   UNL A   1      40.946  24.562  28.376  1.00  0.00    -0.203 F 
ATOM     81  F   UNL A   1      44.582  26.830  25.000  1.00  0.00    -0.200 F 
ATOM     82  C   UNL A   1      43.243  24.983  25.606  1.00  0.00     0.200 A 
ATOM     83  F   UNL A   1      41.878  23.166  26.251  1.00  0.00    -0.200 F 
ATOM     84  F   UNL A   1      43.682  24.295  24.543  1.00  0.00    -0.200 F 
ENDBRANCH  50  74
BRANCH  62  85
ATOM     85  C   UNL A   1      44.757  27.314  34.297  1.00  0.00     0.064 A 
ATOM     86  C   UNL A   1      45.991  27.979  34.313  1.00  0.00     0.173 A 
ATOM     87  C   UNL A   1      44.646  26.113  35.014  1.00  0.00     0.173 A 
ATOM     88  F   UNL A   1      46.150  29.123  33.631  1.00  0.00    -0.203 F 
ATOM     89  C   UNL A   1      47.079  27.451  35.003  1.00  0.00     0.198 A 
ATOM     90  C   UNL A   1      45.728  25.601  35.725  1.00  0.00     0.198 A 
ATOM     91  F   UNL A   1      43.484  25.441  35.035  1.00  0.00    -0.203 F 
ATOM     92  F   UNL A   1      48.261  28.079  34.967  1.00  0.00    -0.200 F 
ATOM     93  C   UNL A   1      46.944  26.267  35.714  1.00  0.00     0.200 A 
ATOM     94  F   UNL A   1      45.593  24.465  36.422  1.00  0.00    -0.200 F 
ATOM     95  F   UNL A   1      47.991  25.763  36.382  1.00  0.00    -0.200 F 
ENDBRANCH  62  85
ENDBRANCH  36  37
ENDBRANCH  28  31
ENDBRANCH  26  27
ENDBRANCH   1  26
TORSDOF 11
ENDMDL
MODEL 3
REMARK VINA RESULT:     -13.8      1.551      2.556
REMARK SMILES Cc1ccc(-c2cc(C(=O)NCCCNC(=O)c3ccc(-c4c5nc(c(-c6c(F)c(F)c(F)c(F)c6F)c6ccc([nH]6)c(-c6c(F)c(F)c(F)c(F)c6F)c6nc(c(-c7c(F)c(F)c(F)c(F)c7F)c7ccc4[nH]7)C=C6)C=C5)cc3)c3cc(C)ccc3n2)c(C)c1
REMARK SMILES IDX 13 1 12 2 11 3 9 4 10 5 8 7 6 8 7 9 88 10 87 11 81 12 86 13
REMARK SMILES IDX 82 14 85 15 83 16 84 17 5 18 1 19 2 20 3 21 91 22 4 23 89 24
REMARK SMILES IDX 90 25 14 26 15 27 16 28 17 30 18 31 19 32 80 33 20 34 79 35
REMARK SMILES IDX 21 36 22 37 23 38 73 39 24 40 78 41 72 42 74 43 25 44 77 45
REMARK SMILES IDX 71 46 70 47 26 49 58 50 38 51 57 52 39 53 42 54 56 55 75 56
REMARK SMILES IDX 40 57 41 58 55 60 76 61 43 62 27 63 28 64 36 65 29 66 30 67
REMARK SMILES IDX 34 68 37 69 31 70 32 71 35 72 33 73 59 74 60 75 68 76 61 77
REMARK SMILES IDX 62 78 66 79 69 80 63 81 64 82 67 83 65 84 44 85 45 86 53 87
REMARK SMILES IDX 46 88 47 89 51 90 54 91 48 92 49 93 52 94 50 95
REMARK H PARENT 11 6 15 29 74 48 42 59
REMARK Flexibility Score: inf
ROOT
ATOM      1  C   UNL A   1      32.483  29.709  25.211  1.00  0.00     0.042 C 
ENDROOT
BRANCH   1   2
ATOM      2  C   UNL A   1      33.638  28.733  25.094  1.00  0.00     0.118 C 
BRANCH   2   3
ATOM      3  N   UNL A   1      34.081  28.416  23.744  1.00  0.00    -0.352 N 
ATOM      4  C   UNL A   1      33.531  27.592  22.784  1.00  0.00     0.252 C 
ATOM      5  O   UNL A   1      34.065  27.566  21.675  1.00  0.00    -0.269 OA
ATOM      6  H   UNL A   1      34.913  28.866  23.469  1.00  0.00     0.163 HD
BRANCH   4   7
ATOM      7  C   UNL A   1      32.399  26.661  23.057  1.00  0.00     0.051 A 
ATOM      8  C   UNL A   1      31.778  24.485  23.832  1.00  0.00     0.072 A 
ATOM      9  C   UNL A   1      32.768  25.364  23.432  1.00  0.00     0.043 A 
ATOM     10  N   UNL A   1      30.494  24.877  23.999  1.00  0.00    -0.248 NA
ATOM     11  C   UNL A   1      30.135  26.111  23.614  1.00  0.00     0.072 A 
ATOM     12  C   UNL A   1      31.031  27.004  23.007  1.00  0.00     0.013 A 
ATOM     13  C   UNL A   1      28.830  26.528  23.837  1.00  0.00     0.029 A 
ATOM     14  C   UNL A   1      30.508  28.179  22.421  1.00  0.00     0.014 A 
ATOM     15  C   UNL A   1      28.384  27.795  23.451  1.00  0.00     0.005 A 
ATOM     16  C   UNL A   1      29.220  28.626  22.714  1.00  0.00    -0.050 A 
ATOM     17  C   UNL A   1      28.823  30.033  22.377  1.00  0.00     0.044 C 
BRANCH   8  18
ATOM     18  C   UNL A   1      32.033  23.049  24.015  1.00  0.00     0.003 A 
ATOM     19  C   UNL A   1      32.790  18.809  24.512  1.00  0.00     0.044 C 
ATOM     20  C   UNL A   1      32.519  20.272  24.324  1.00  0.00    -0.051 A 
ATOM     21  C   UNL A   1      32.234  20.804  23.066  1.00  0.00     0.004 A 
ATOM     22  C   UNL A   1      32.557  21.129  25.429  1.00  0.00     0.007 A 
ATOM     23  C   UNL A   1      31.995  22.175  22.914  1.00  0.00     0.011 A 
ATOM     24  C   UNL A   1      32.305  22.506  25.294  1.00  0.00    -0.041 A 
ATOM     25  C   UNL A   1      32.380  23.352  26.540  1.00  0.00     0.045 C 
ENDBRANCH   8  18
ENDBRANCH   4   7
ENDBRANCH   2   3
ENDBRANCH   1   2
BRANCH   1  26
ATOM     26  C   UNL A   1      32.174  30.163  26.630  1.00  0.00     0.118 C 
BRANCH  26  27
ATOM     27  N   UNL A   1      32.203  31.610  26.829  1.00  0.00    -0.352 N 
ATOM     28  C   UNL A   1      33.112  32.468  27.405  1.00  0.00     0.251 C 
ATOM     29  H   UNL A   1      31.405  32.068  26.479  1.00  0.00     0.163 HD
ATOM     30  O   UNL A   1      32.818  33.659  27.503  1.00  0.00    -0.269 OA
BRANCH  28  31
ATOM     31  C   UNL A   1      34.403  31.997  27.959  1.00  0.00     0.039 A 
ATOM     32  C   UNL A   1      35.454  32.913  28.096  1.00  0.00     0.014 A 
ATOM     33  C   UNL A   1      34.610  30.673  28.329  1.00  0.00     0.014 A 
ATOM     34  C   UNL A   1      36.652  32.523  28.708  1.00  0.00     0.010 A 
ATOM     35  C   UNL A   1      35.739  30.321  29.060  1.00  0.00     0.010 A 
ATOM     36  C   UNL A   1      36.779  31.239  29.258  1.00  0.00    -0.014 A 
BRANCH  36  37
ATOM     37  C   UNL A   1      37.976  30.820  30.036  1.00  0.00     0.031 A 
ATOM     38  C   UNL A   1      38.969  29.859  29.436  1.00  0.00     0.074 A 
ATOM     39  C   UNL A   1      38.112  31.209  31.319  1.00  0.00     0.049 A 
ATOM     40  N   UNL A   1      39.977  29.244  30.002  1.00  0.00    -0.248 NA
ATOM     41  C   UNL A   1      38.772  29.505  28.022  1.00  0.00     0.031 C 
ATOM     42  C   UNL A   1      37.187  32.082  32.045  1.00  0.00     0.029 A 
ATOM     43  N   UNL A   1      39.073  30.902  32.251  1.00  0.00    -0.354 N 
ATOM     44  C   UNL A   1      40.506  28.408  29.026  1.00  0.00     0.074 A 
ATOM     45  C   UNL A   1      39.667  28.545  27.854  1.00  0.00     0.031 C 
ATOM     46  C   UNL A   1      37.637  32.259  33.296  1.00  0.00     0.029 A 
ATOM     47  C   UNL A   1      38.854  31.477  33.479  1.00  0.00     0.049 A 
ATOM     48  H   UNL A   1      39.846  30.324  32.057  1.00  0.00     0.167 HD
ATOM     49  C   UNL A   1      41.608  27.623  29.085  1.00  0.00     0.037 A 
ATOM     50  C   UNL A   1      39.549  31.376  34.629  1.00  0.00     0.037 A 
ATOM     51  C   UNL A   1      42.467  27.527  30.235  1.00  0.00     0.049 A 
ATOM     52  C   UNL A   1      40.786  30.522  34.664  1.00  0.00     0.074 A 
ATOM     53  C   UNL A   1      43.647  26.818  30.376  1.00  0.00     0.029 A 
ATOM     54  N   UNL A   1      42.239  28.168  31.444  1.00  0.00    -0.354 N 
ATOM     55  N   UNL A   1      41.310  29.785  33.716  1.00  0.00    -0.248 NA
ATOM     56  C   UNL A   1      41.531  30.490  35.931  1.00  0.00     0.031 C 
ATOM     57  C   UNL A   1      44.114  27.001  31.681  1.00  0.00     0.029 A 
ATOM     58  C   UNL A   1      43.250  27.861  32.341  1.00  0.00     0.049 A 
ATOM     59  H   UNL A   1      41.473  28.755  31.636  1.00  0.00     0.167 HD
ATOM     60  C   UNL A   1      42.455  29.220  34.260  1.00  0.00     0.074 A 
ATOM     61  C   UNL A   1      42.560  29.714  35.617  1.00  0.00     0.031 C 
ATOM     62  C   UNL A   1      43.339  28.365  33.688  1.00  0.00     0.037 A 
BRANCH  49  63
ATOM     63  C   UNL A   1      41.951  26.819  27.863  1.00  0.00     0.064 A 
ATOM     64  C   UNL A   1      41.426  25.534  27.655  1.00  0.00     0.173 A 
ATOM     65  C   UNL A   1      42.804  27.344  26.880  1.00  0.00     0.173 A 
ATOM     66  F   UNL A   1      40.615  24.980  28.569  1.00  0.00    -0.203 F 
ATOM     67  C   UNL A   1      41.779  24.787  26.535  1.00  0.00     0.198 A 
ATOM     68  C   UNL A   1      43.126  26.607  25.743  1.00  0.00     0.198 A 
ATOM     69  F   UNL A   1      43.328  28.571  27.022  1.00  0.00    -0.203 F 
ATOM     70  F   UNL A   1      41.319  23.535  26.394  1.00  0.00    -0.200 F 
ATOM     71  C   UNL A   1      42.623  25.325  25.577  1.00  0.00     0.200 A 
ATOM     72  F   UNL A   1      43.932  27.134  24.811  1.00  0.00    -0.200 F 
ATOM     73  F   UNL A   1      42.962  24.605  24.498  1.00  0.00    -0.200 F 
ENDBRANCH  49  63
BRANCH  50  74
ATOM     74  C   UNL A   1      39.101  32.126  35.831  1.00  0.00     0.064 A 
ATOM     75  C   UNL A   1      38.271  31.521  36.785  1.00  0.00     0.173 A 
ATOM     76  C   UNL A   1      39.502  33.450  36.060  1.00  0.00     0.173 A 
ATOM     77  F   UNL A   1      37.846  30.263  36.600  1.00  0.00    -0.203 F 
ATOM     78  C   UNL A   1      37.844  32.218  37.914  1.00  0.00     0.198 A 
ATOM     79  C   UNL A   1      39.097  34.137  37.203  1.00  0.00     0.198 A 
ATOM     80  F   UNL A   1      40.303  34.071  35.182  1.00  0.00    -0.203 F 
ATOM     81  F   UNL A   1      37.018  31.629  38.789  1.00  0.00    -0.200 F 
ATOM     82  C   UNL A   1      38.263  33.522  38.126  1.00  0.00     0.200 A 
ATOM     83  F   UNL A   1      39.518  35.391  37.413  1.00  0.00    -0.200 F 
ATOM     84  F   UNL A   1      37.860  34.189  39.215  1.00  0.00    -0.200 F 
ENDBRANCH  50  74
BRANCH  62  85
ATOM     85  C   UNL A   1      44.509  27.931  34.519  1.00  0.00     0.064 A 
ATOM     86  C   UNL A   1      45.698  28.674  34.559  1.00  0.00     0.173 A 
ATOM     87  C   UNL A   1      44.425  26.780  35.318  1.00  0.00     0.173 A 
ATOM     88  F   UNL A   1      45.832  29.774  33.803  1.00  0.00    -0.203 F 
ATOM     89  C   UNL A   1      46.768  28.268  35.352  1.00  0.00     0.198 A 
ATOM     90  C   UNL A   1      45.487  26.392  36.129  1.00  0.00     0.198 A 
ATOM     91  F   UNL A   1      43.307  26.038  35.318  1.00  0.00    -0.203 F 
ATOM     92  F   UNL A   1      47.910  28.968  35.340  1.00  0.00    -0.200 F 
ATOM     93  C   UNL A   1      46.659  27.132  36.141  1.00  0.00     0.200 A 
ATOM     94  F   UNL A   1      45.375  25.303  36.901  1.00  0.00    -0.200 F 
ATOM     95  F   UNL A   1      47.688  26.748  36.908  1.00  0.00    -0.200 F 
ENDBRANCH  62  85
ENDBRANCH  36  37
ENDBRANCH  28  31
ENDBRANCH  26  27
ENDBRANCH   1  26
TORSDOF 11
ENDMDL
