MODEL 1
REMARK VINA RESULT:     -13.8      0.000      0.000
REMARK SMILES C[C@@]1(C(=O)NCCCNC(=O)c2ccc(-c3c4nc(c(-c5c(F)c(F)c(F)c(F)c5F)c5ccc([nH]5)c(-c5c(F)c(F)c(F)c(F)c5F)c5nc(c(-c6c(F)c(F)c(F)c(F)c6F)c6ccc3[nH]6)C=C5)C=C4)cc2)[C@@H]2C=C[C@@]3(CN(c4ccccc4)C(=O)[C@H]13)O2
REMARK SMILES IDX 7 1 6 2 5 3 3 4 4 5 2 7 1 8 75 9 89 10 76 11 90 12 78 13
REMARK SMILES IDX 87 14 77 15 79 16 80 17 88 18 81 19 82 20 86 21 83 22 85 23
REMARK SMILES IDX 84 24 8 25 9 26 10 27 11 29 12 30 13 31 74 32 14 33 73 34
REMARK SMILES IDX 15 35 16 36 17 37 67 38 18 39 72 40 66 41 68 42 19 43 71 44
REMARK SMILES IDX 65 45 64 46 20 48 52 49 32 50 51 51 33 52 36 53 50 54 69 55
REMARK SMILES IDX 34 56 35 57 49 59 70 60 37 61 21 62 22 63 30 64 23 65 24 66
REMARK SMILES IDX 28 67 31 68 25 69 26 70 29 71 27 72 53 73 54 74 62 75 55 76
REMARK SMILES IDX 56 77 60 78 63 79 57 80 58 81 61 82 59 83 38 84 39 85 47 86
REMARK SMILES IDX 40 87 41 88 45 89 48 90 42 91 43 92 46 93 44 94
REMARK H PARENT 5 6 9 28 68 47 36 58
REMARK Flexibility Score: inf
ROOT
ATOM      1  C   UNL A   1      33.416  29.059  23.333  1.00  0.00     0.042 C 
ENDROOT
BRANCH   1   2
ATOM      2  C   UNL A   1      32.699  28.008  22.491  1.00  0.00     0.117 C 
BRANCH   2   3
ATOM      3  N   UNL A   1      33.386  26.730  22.400  1.00  0.00    -0.355 N 
ATOM      4  C   UNL A   1      33.219  25.481  22.892  1.00  0.00     0.229 C 
ATOM      5  O   UNL A   1      34.012  24.672  22.382  1.00  0.00    -0.274 OA
ATOM      6  H   UNL A   1      34.187  26.791  21.831  1.00  0.00     0.163 HD
BRANCH   4   7
ATOM      7  C   UNL A   1      32.193  24.967  23.930  1.00  0.00     0.091 C 
ATOM      8  C   UNL A   1      30.824  25.623  23.549  1.00  0.00     0.026 C 
ATOM      9  C   UNL A   1      32.415  25.322  25.434  1.00  0.00     0.158 C 
ATOM     10  C   UNL A   1      31.947  23.467  24.068  1.00  0.00     0.135 C 
ATOM     11  C   UNL A   1      33.751  24.893  25.934  1.00  0.00     0.004 C 
ATOM     12  O   UNL A   1      31.594  24.247  26.105  1.00  0.00    -0.360 OA
ATOM     13  C   UNL A   1      32.325  23.162  25.523  1.00  0.00     0.118 C 
ATOM     14  C   UNL A   1      32.515  22.303  23.336  1.00  0.00     0.234 C 
ATOM     15  C   UNL A   1      33.701  23.557  25.989  1.00  0.00     0.009 C 
ATOM     16  C   UNL A   1      32.014  21.681  25.586  1.00  0.00     0.166 C 
ATOM     17  N   UNL A   1      32.502  21.234  24.269  1.00  0.00    -0.309 N 
ATOM     18  O   UNL A   1      32.740  22.290  22.139  1.00  0.00    -0.274 OA
BRANCH  17  19
ATOM     19  C   UNL A   1      32.875  19.896  23.982  1.00  0.00     0.044 A 
ATOM     20  C   UNL A   1      33.968  19.302  24.625  1.00  0.00     0.026 A 
ATOM     21  C   UNL A   1      32.168  19.132  23.044  1.00  0.00     0.026 A 
ATOM     22  C   UNL A   1      34.325  17.976  24.352  1.00  0.00     0.002 A 
ATOM     23  C   UNL A   1      32.539  17.816  22.751  1.00  0.00     0.002 A 
ATOM     24  C   UNL A   1      33.614  17.234  23.412  1.00  0.00     0.000 A 
ENDBRANCH  17  19
ENDBRANCH   4   7
ENDBRANCH   2   3
ENDBRANCH   1   2
BRANCH   1  25
ATOM     25  C   UNL A   1      33.260  28.895  24.835  1.00  0.00     0.118 C 
BRANCH  25  26
ATOM     26  N   UNL A   1      32.709  30.077  25.479  1.00  0.00    -0.352 N 
ATOM     27  C   UNL A   1      33.096  30.815  26.571  1.00  0.00     0.251 C 
ATOM     28  H   UNL A   1      31.893  30.416  25.044  1.00  0.00     0.163 HD
ATOM     29  O   UNL A   1      32.315  31.671  26.986  1.00  0.00    -0.269 OA
BRANCH  27  30
ATOM     30  C   UNL A   1      34.386  30.622  27.289  1.00  0.00     0.039 A 
ATOM     31  C   UNL A   1      34.692  29.331  27.749  1.00  0.00     0.014 A 
ATOM     32  C   UNL A   1      35.248  31.666  27.626  1.00  0.00     0.014 A 
ATOM     33  C   UNL A   1      35.850  29.088  28.500  1.00  0.00     0.010 A 
ATOM     34  C   UNL A   1      36.448  31.411  28.301  1.00  0.00     0.010 A 
ATOM     35  C   UNL A   1      36.757  30.124  28.763  1.00  0.00    -0.014 A 
BRANCH  35  36
ATOM     36  C   UNL A   1      38.004  29.896  29.546  1.00  0.00     0.031 A 
ATOM     37  C   UNL A   1      39.080  28.979  29.018  1.00  0.00     0.074 A 
ATOM     38  C   UNL A   1      38.147  30.449  30.766  1.00  0.00     0.049 A 
ATOM     39  N   UNL A   1      40.166  28.545  29.609  1.00  0.00    -0.248 NA
ATOM     40  C   UNL A   1      38.892  28.452  27.657  1.00  0.00     0.031 C 
ATOM     41  C   UNL A   1      37.169  31.316  31.423  1.00  0.00     0.029 A 
ATOM     42  N   UNL A   1      39.167  30.346  31.682  1.00  0.00    -0.354 N 
ATOM     43  C   UNL A   1      40.756  27.656  28.718  1.00  0.00     0.074 A 
ATOM     44  C   UNL A   1      39.902  27.599  27.553  1.00  0.00     0.031 C 
ATOM     45  C   UNL A   1      37.640  31.677  32.628  1.00  0.00     0.029 A 
ATOM     46  C   UNL A   1      38.934  31.037  32.846  1.00  0.00     0.049 A 
ATOM     47  H   UNL A   1      39.987  29.827  31.519  1.00  0.00     0.167 HD
ATOM     48  C   UNL A   1      41.910  26.959  28.854  1.00  0.00     0.037 A 
ATOM     49  C   UNL A   1      39.672  31.134  33.969  1.00  0.00     0.037 A 
ATOM     50  C   UNL A   1      42.808  27.077  29.973  1.00  0.00     0.049 A 
ATOM     51  C   UNL A   1      40.991  30.415  34.059  1.00  0.00     0.074 A 
ATOM     52  C   UNL A   1      44.051  26.493  30.145  1.00  0.00     0.029 A 
ATOM     53  N   UNL A   1      42.565  27.843  31.101  1.00  0.00    -0.354 N 
ATOM     54  N   UNL A   1      41.560  29.623  33.185  1.00  0.00    -0.248 NA
ATOM     55  C   UNL A   1      41.769  30.606  35.292  1.00  0.00     0.031 C 
ATOM     56  C   UNL A   1      44.552  26.887  31.390  1.00  0.00     0.029 A 
ATOM     57  C   UNL A   1      43.631  27.738  31.980  1.00  0.00     0.049 A 
ATOM     58  H   UNL A   1      41.756  28.381  31.256  1.00  0.00     0.167 HD
ATOM     59  C   UNL A   1      42.767  29.236  33.752  1.00  0.00     0.074 A 
ATOM     60  C   UNL A   1      42.857  29.892  35.039  1.00  0.00     0.031 C 
ATOM     61  C   UNL A   1      43.712  28.405  33.251  1.00  0.00     0.037 A 
BRANCH  48  62
ATOM     62  C   UNL A   1      42.283  26.004  27.760  1.00  0.00     0.064 A 
ATOM     63  C   UNL A   1      41.732  24.717  27.687  1.00  0.00     0.173 A 
ATOM     64  C   UNL A   1      43.160  26.404  26.741  1.00  0.00     0.173 A 
ATOM     65  F   UNL A   1      40.895  24.286  28.643  1.00  0.00    -0.203 F 
ATOM     66  C   UNL A   1      42.060  23.857  26.642  1.00  0.00     0.198 A 
ATOM     67  C   UNL A   1      43.468  25.550  25.685  1.00  0.00     0.198 A 
ATOM     68  F   UNL A   1      43.707  27.628  26.762  1.00  0.00    -0.203 F 
ATOM     69  F   UNL A   1      41.548  22.620  26.608  1.00  0.00    -0.200 F 
ATOM     70  C   UNL A   1      42.922  24.277  25.638  1.00  0.00     0.200 A 
ATOM     71  F   UNL A   1      44.291  25.961  24.710  1.00  0.00    -0.200 F 
ATOM     72  F   UNL A   1      43.228  23.451  24.628  1.00  0.00    -0.200 F 
ENDBRANCH  48  62
BRANCH  49  73
ATOM     73  C   UNL A   1      39.184  31.962  35.101  1.00  0.00     0.064 A 
ATOM     74  C   UNL A   1      38.443  31.388  36.143  1.00  0.00     0.173 A 
ATOM     75  C   UNL A   1      39.445  33.338  35.164  1.00  0.00     0.173 A 
ATOM     76  F   UNL A   1      38.154  30.078  36.115  1.00  0.00    -0.203 F 
ATOM     77  C   UNL A   1      37.966  32.163  37.198  1.00  0.00     0.198 A 
ATOM     78  C   UNL A   1      38.987  34.108  36.231  1.00  0.00     0.198 A 
ATOM     79  F   UNL A   1      40.159  33.932  34.196  1.00  0.00    -0.203 F 
ATOM     80  F   UNL A   1      37.228  31.597  38.161  1.00  0.00    -0.200 F 
ATOM     81  C   UNL A   1      38.242  33.521  37.243  1.00  0.00     0.200 A 
ATOM     82  F   UNL A   1      39.269  35.417  36.279  1.00  0.00    -0.200 F 
ATOM     83  F   UNL A   1      37.785  34.265  38.259  1.00  0.00    -0.200 F 
ENDBRANCH  49  73
BRANCH  61  84
ATOM     84  C   UNL A   1      44.938  28.178  34.083  1.00  0.00     0.064 A 
ATOM     85  C   UNL A   1      45.018  27.109  34.986  1.00  0.00     0.173 A 
ATOM     86  C   UNL A   1      46.058  29.009  33.942  1.00  0.00     0.173 A 
ATOM     87  F   UNL A   1      43.965  26.297  35.164  1.00  0.00    -0.203 F 
ATOM     88  C   UNL A   1      46.173  26.888  35.730  1.00  0.00     0.198 A 
ATOM     89  C   UNL A   1      47.219  28.774  34.672  1.00  0.00     0.198 A 
ATOM     90  F   UNL A   1      46.030  30.043  33.086  1.00  0.00    -0.203 F 
ATOM     91  F   UNL A   1      46.218  25.881  36.612  1.00  0.00    -0.200 F 
ATOM     92  C   UNL A   1      47.274  27.716  35.569  1.00  0.00     0.200 A 
ATOM     93  F   UNL A   1      48.284  29.570  34.511  1.00  0.00    -0.200 F 
ATOM     94  F   UNL A   1      48.387  27.500  36.283  1.00  0.00    -0.200 F 
ENDBRANCH  61  84
ENDBRANCH  35  36
ENDBRANCH  27  30
ENDBRANCH  25  26
ENDBRANCH   1  25
TORSDOF 11
ENDMDL
MODEL 2
REMARK VINA RESULT:     -13.8      0.128      1.335
REMARK SMILES C[C@@]1(C(=O)NCCCNC(=O)c2ccc(-c3c4nc(c(-c5c(F)c(F)c(F)c(F)c5F)c5ccc([nH]5)c(-c5c(F)c(F)c(F)c(F)c5F)c5nc(c(-c6c(F)c(F)c(F)c(F)c6F)c6ccc3[nH]6)C=C5)C=C4)cc2)[C@@H]2C=C[C@@]3(CN(c4ccccc4)C(=O)[C@H]13)O2
REMARK SMILES IDX 7 1 6 2 5 3 3 4 4 5 2 7 1 8 75 9 89 10 76 11 90 12 78 13
REMARK SMILES IDX 87 14 77 15 79 16 80 17 88 18 81 19 82 20 86 21 83 22 85 23
REMARK SMILES IDX 84 24 8 25 9 26 10 27 11 29 12 30 13 31 74 32 14 33 73 34
REMARK SMILES IDX 15 35 16 36 17 37 67 38 18 39 72 40 66 41 68 42 19 43 71 44
REMARK SMILES IDX 65 45 64 46 20 48 52 49 32 50 51 51 33 52 36 53 50 54 69 55
REMARK SMILES IDX 34 56 35 57 49 59 70 60 37 61 21 62 22 63 30 64 23 65 24 66
REMARK SMILES IDX 28 67 31 68 25 69 26 70 29 71 27 72 53 73 54 74 62 75 55 76
REMARK SMILES IDX 56 77 60 78 63 79 57 80 58 81 61 82 59 83 38 84 39 85 47 86
REMARK SMILES IDX 40 87 41 88 45 89 48 90 42 91 43 92 46 93 44 94
REMARK H PARENT 5 6 9 28 68 47 36 58
REMARK Flexibility Score: inf
ROOT
ATOM      1  C   UNL A   1      33.425  28.953  23.357  1.00  0.00     0.042 C 
ENDROOT
BRANCH   1   2
ATOM      2  C   UNL A   1      32.688  27.904  22.528  1.00  0.00     0.117 C 
BRANCH   2   3
ATOM      3  N   UNL A   1      33.375  26.628  22.415  1.00  0.00    -0.355 N 
ATOM      4  C   UNL A   1      33.219  25.376  22.901  1.00  0.00     0.229 C 
ATOM      5  O   UNL A   1      34.003  24.571  22.370  1.00  0.00    -0.274 OA
ATOM      6  H   UNL A   1      34.165  26.693  21.831  1.00  0.00     0.163 HD
BRANCH   4   7
ATOM      7  C   UNL A   1      32.214  24.853  23.955  1.00  0.00     0.091 C 
ATOM      8  C   UNL A   1      30.837  25.507  23.603  1.00  0.00     0.026 C 
ATOM      9  C   UNL A   1      32.464  25.201  25.457  1.00  0.00     0.158 C 
ATOM     10  C   UNL A   1      31.975  23.352  24.090  1.00  0.00     0.135 C 
ATOM     11  C   UNL A   1      33.810  24.773  25.930  1.00  0.00     0.004 C 
ATOM     12  O   UNL A   1      31.658  24.120  26.137  1.00  0.00    -0.360 OA
ATOM     13  C   UNL A   1      32.381  23.040  25.536  1.00  0.00     0.118 C 
ATOM     14  C   UNL A   1      32.532  22.193  23.341  1.00  0.00     0.234 C 
ATOM     15  C   UNL A   1      33.764  23.437  25.979  1.00  0.00     0.009 C 
ATOM     16  C   UNL A   1      32.075  21.558  25.597  1.00  0.00     0.166 C 
ATOM     17  N   UNL A   1      32.540  21.119  24.269  1.00  0.00    -0.309 N 
ATOM     18  O   UNL A   1      32.734  22.187  22.141  1.00  0.00    -0.274 OA
BRANCH  17  19
ATOM     19  C   UNL A   1      32.910  19.784  23.967  1.00  0.00     0.044 A 
ATOM     20  C   UNL A   1      32.166  19.020  23.061  1.00  0.00     0.026 A 
ATOM     21  C   UNL A   1      34.026  19.188  24.570  1.00  0.00     0.026 A 
ATOM     22  C   UNL A   1      32.542  17.707  22.752  1.00  0.00     0.002 A 
ATOM     23  C   UNL A   1      34.389  17.868  24.282  1.00  0.00     0.002 A 
ATOM     24  C   UNL A   1      33.651  17.130  23.366  1.00  0.00     0.000 A 
ENDBRANCH  17  19
ENDBRANCH   4   7
ENDBRANCH   2   3
ENDBRANCH   1   2
BRANCH   1  25
ATOM     25  C   UNL A   1      33.205  28.855  24.857  1.00  0.00     0.118 C 
BRANCH  25  26
ATOM     26  N   UNL A   1      32.686  30.085  25.433  1.00  0.00    -0.352 N 
ATOM     27  C   UNL A   1      33.029  30.816  26.545  1.00  0.00     0.251 C 
ATOM     28  H   UNL A   1      31.938  30.472  24.924  1.00  0.00     0.163 HD
ATOM     29  O   UNL A   1      32.278  31.733  26.878  1.00  0.00    -0.269 OA
BRANCH  27  30
ATOM     30  C   UNL A   1      34.235  30.548  27.376  1.00  0.00     0.039 A 
ATOM     31  C   UNL A   1      35.108  31.620  27.626  1.00  0.00     0.014 A 
ATOM     32  C   UNL A   1      34.602  29.278  27.823  1.00  0.00     0.014 A 
ATOM     33  C   UNL A   1      36.302  31.427  28.334  1.00  0.00     0.010 A 
ATOM     34  C   UNL A   1      35.750  29.100  28.604  1.00  0.00     0.010 A 
ATOM     35  C   UNL A   1      36.625  30.167  28.855  1.00  0.00    -0.014 A 
BRANCH  35  36
ATOM     36  C   UNL A   1      37.879  29.933  29.625  1.00  0.00     0.031 A 
ATOM     37  C   UNL A   1      38.948  29.016  29.083  1.00  0.00     0.074 A 
ATOM     38  C   UNL A   1      38.034  30.480  30.847  1.00  0.00     0.049 A 
ATOM     39  N   UNL A   1      40.039  28.577  29.663  1.00  0.00    -0.248 NA
ATOM     40  C   UNL A   1      38.747  28.496  27.722  1.00  0.00     0.031 C 
ATOM     41  C   UNL A   1      37.064  31.346  31.517  1.00  0.00     0.029 A 
ATOM     42  N   UNL A   1      39.062  30.371  31.753  1.00  0.00    -0.354 N 
ATOM     43  C   UNL A   1      40.618  27.691  28.762  1.00  0.00     0.074 A 
ATOM     44  C   UNL A   1      39.754  27.642  27.604  1.00  0.00     0.031 C 
ATOM     45  C   UNL A   1      37.547  31.700  32.719  1.00  0.00     0.029 A 
ATOM     46  C   UNL A   1      38.841  31.057  32.923  1.00  0.00     0.049 A 
ATOM     47  H   UNL A   1      39.880  29.850  31.580  1.00  0.00     0.167 HD
ATOM     48  C   UNL A   1      41.772  26.991  28.884  1.00  0.00     0.037 A 
ATOM     49  C   UNL A   1      39.590  31.147  34.039  1.00  0.00     0.037 A 
ATOM     50  C   UNL A   1      42.681  27.102  29.995  1.00  0.00     0.049 A 
ATOM     51  C   UNL A   1      40.907  30.425  34.114  1.00  0.00     0.074 A 
ATOM     52  C   UNL A   1      43.924  26.515  30.154  1.00  0.00     0.029 A 
ATOM     53  N   UNL A   1      42.449  27.863  31.130  1.00  0.00    -0.354 N 
ATOM     54  N   UNL A   1      41.467  29.635  33.231  1.00  0.00    -0.248 NA
ATOM     55  C   UNL A   1      41.697  30.608  35.340  1.00  0.00     0.031 C 
ATOM     56  C   UNL A   1      44.436  26.902  31.396  1.00  0.00     0.029 A 
ATOM     57  C   UNL A   1      43.523  27.752  31.998  1.00  0.00     0.049 A 
ATOM     58  H   UNL A   1      41.643  28.402  31.295  1.00  0.00     0.167 HD
ATOM     59  C   UNL A   1      42.678  29.243  33.785  1.00  0.00     0.074 A 
ATOM     60  C   UNL A   1      42.781  29.892  35.074  1.00  0.00     0.031 C 
ATOM     61  C   UNL A   1      43.617  28.413  33.272  1.00  0.00     0.037 A 
BRANCH  48  62
ATOM     62  C   UNL A   1      42.133  26.040  27.783  1.00  0.00     0.064 A 
ATOM     63  C   UNL A   1      41.596  24.746  27.722  1.00  0.00     0.173 A 
ATOM     64  C   UNL A   1      42.983  26.450  26.745  1.00  0.00     0.173 A 
ATOM     65  F   UNL A   1      40.785  24.306  28.695  1.00  0.00    -0.203 F 
ATOM     66  C   UNL A   1      41.912  23.891  26.669  1.00  0.00     0.198 A 
ATOM     67  C   UNL A   1      43.278  25.600  25.682  1.00  0.00     0.198 A 
ATOM     68  F   UNL A   1      43.516  27.681  26.754  1.00  0.00    -0.203 F 
ATOM     69  F   UNL A   1      41.414  22.647  26.647  1.00  0.00    -0.200 F 
ATOM     70  C   UNL A   1      42.747  24.320  25.648  1.00  0.00     0.200 A 
ATOM     71  F   UNL A   1      44.075  26.021  24.691  1.00  0.00    -0.200 F 
ATOM     72  F   UNL A   1      43.041  23.498  24.631  1.00  0.00    -0.200 F 
ENDBRANCH  48  62
BRANCH  49  73
ATOM     73  C   UNL A   1      39.114  31.970  35.179  1.00  0.00     0.064 A 
ATOM     74  C   UNL A   1      39.349  33.352  35.216  1.00  0.00     0.173 A 
ATOM     75  C   UNL A   1      38.418  31.396  36.253  1.00  0.00     0.173 A 
ATOM     76  F   UNL A   1      40.027  33.941  34.220  1.00  0.00    -0.203 F 
ATOM     77  C   UNL A   1      38.922  34.125  36.293  1.00  0.00     0.198 A 
ATOM     78  C   UNL A   1      37.971  32.174  37.318  1.00  0.00     0.198 A 
ATOM     79  F   UNL A   1      38.160  30.079  36.259  1.00  0.00    -0.203 F 
ATOM     80  F   UNL A   1      39.193  35.437  36.322  1.00  0.00    -0.200 F 
ATOM     81  C   UNL A   1      38.230  33.537  37.341  1.00  0.00     0.200 A 
ATOM     82  F   UNL A   1      37.290  31.604  38.322  1.00  0.00    -0.200 F 
ATOM     83  F   UNL A   1      37.817  34.281  38.375  1.00  0.00    -0.200 F 
ENDBRANCH  49  73
BRANCH  61  84
ATOM     84  C   UNL A   1      44.849  28.178  34.091  1.00  0.00     0.064 A 
ATOM     85  C   UNL A   1      44.936  27.104  34.987  1.00  0.00     0.173 A 
ATOM     86  C   UNL A   1      45.970  29.009  33.945  1.00  0.00     0.173 A 
ATOM     87  F   UNL A   1      43.883  26.293  35.170  1.00  0.00    -0.203 F 
ATOM     88  C   UNL A   1      46.097  26.878  35.720  1.00  0.00     0.198 A 
ATOM     89  C   UNL A   1      47.137  28.769  34.664  1.00  0.00     0.198 A 
ATOM     90  F   UNL A   1      45.936  30.048  33.096  1.00  0.00    -0.203 F 
ATOM     91  F   UNL A   1      46.149  25.865  36.596  1.00  0.00    -0.200 F 
ATOM     92  C   UNL A   1      47.198  27.705  35.554  1.00  0.00     0.200 A 
ATOM     93  F   UNL A   1      48.202  29.564  34.498  1.00  0.00    -0.200 F 
ATOM     94  F   UNL A   1      48.317  27.483  36.257  1.00  0.00    -0.200 F 
ENDBRANCH  61  84
ENDBRANCH  35  36
ENDBRANCH  27  30
ENDBRANCH  25  26
ENDBRANCH   1  25
TORSDOF 11
ENDMDL
MODEL 3
REMARK VINA RESULT:     -13.6      1.459      7.673
REMARK SMILES C[C@@]1(C(=O)NCCCNC(=O)c2ccc(-c3c4nc(c(-c5c(F)c(F)c(F)c(F)c5F)c5ccc([nH]5)c(-c5c(F)c(F)c(F)c(F)c5F)c5nc(c(-c6c(F)c(F)c(F)c(F)c6F)c6ccc3[nH]6)C=C5)C=C4)cc2)[C@@H]2C=C[C@@]3(CN(c4ccccc4)C(=O)[C@H]13)O2
REMARK SMILES IDX 7 1 6 2 5 3 3 4 4 5 2 7 1 8 75 9 89 10 76 11 90 12 78 13
REMARK SMILES IDX 87 14 77 15 79 16 80 17 88 18 81 19 82 20 86 21 83 22 85 23
REMARK SMILES IDX 84 24 8 25 9 26 10 27 11 29 12 30 13 31 74 32 14 33 73 34
REMARK SMILES IDX 15 35 16 36 17 37 67 38 18 39 72 40 66 41 68 42 19 43 71 44
REMARK SMILES IDX 65 45 64 46 20 48 52 49 32 50 51 51 33 52 36 53 50 54 69 55
REMARK SMILES IDX 34 56 35 57 49 59 70 60 37 61 21 62 22 63 30 64 23 65 24 66
REMARK SMILES IDX 28 67 31 68 25 69 26 70 29 71 27 72 53 73 54 74 62 75 55 76
REMARK SMILES IDX 56 77 60 78 63 79 57 80 58 81 61 82 59 83 38 84 39 85 47 86
REMARK SMILES IDX 40 87 41 88 45 89 48 90 42 91 43 92 46 93 44 94
REMARK H PARENT 5 6 9 28 68 47 36 58
REMARK Flexibility Score: inf
ROOT
ATOM      1  C   UNL A   1      32.037  28.267  25.877  1.00  0.00     0.042 C 
ENDROOT
BRANCH   1   2
ATOM      2  C   UNL A   1      32.709  26.955  26.275  1.00  0.00     0.117 C 
BRANCH   2   3
ATOM      3  N   UNL A   1      31.935  25.761  25.975  1.00  0.00    -0.355 N 
ATOM      4  C   UNL A   1      31.935  24.796  25.028  1.00  0.00     0.229 C 
ATOM      5  O   UNL A   1      31.148  23.875  25.304  1.00  0.00    -0.274 OA
ATOM      6  H   UNL A   1      31.221  25.619  26.637  1.00  0.00     0.163 HD
BRANCH   4   7
ATOM      7  C   UNL A   1      32.776  24.696  23.732  1.00  0.00     0.091 C 
ATOM      8  C   UNL A   1      32.560  26.045  22.970  1.00  0.00     0.026 C 
ATOM      9  C   UNL A   1      32.421  23.578  22.701  1.00  0.00     0.158 C 
ATOM     10  C   UNL A   1      34.282  24.471  23.826  1.00  0.00     0.135 C 
ATOM     11  C   UNL A   1      32.435  22.215  23.303  1.00  0.00     0.004 C 
ATOM     12  O   UNL A   1      33.718  23.474  21.937  1.00  0.00    -0.360 OA
ATOM     13  C   UNL A   1      34.505  23.146  23.087  1.00  0.00     0.118 C 
ATOM     14  C   UNL A   1      35.189  24.343  24.999  1.00  0.00     0.234 C 
ATOM     15  C   UNL A   1      33.723  21.944  23.544  1.00  0.00     0.009 C 
ATOM     16  C   UNL A   1      36.012  23.022  23.189  1.00  0.00     0.166 C 
ATOM     17  N   UNL A   1      36.242  23.496  24.565  1.00  0.00    -0.309 N 
ATOM     18  O   UNL A   1      35.092  25.006  26.015  1.00  0.00    -0.274 OA
BRANCH  17  19
ATOM     19  C   UNL A   1      37.389  23.164  25.329  1.00  0.00     0.044 A 
ATOM     20  C   UNL A   1      37.914  21.867  25.310  1.00  0.00     0.026 A 
ATOM     21  C   UNL A   1      38.028  24.120  26.130  1.00  0.00     0.026 A 
ATOM     22  C   UNL A   1      39.056  21.544  26.052  1.00  0.00     0.002 A 
ATOM     23  C   UNL A   1      39.154  23.794  26.893  1.00  0.00     0.002 A 
ATOM     24  C   UNL A   1      39.674  22.507  26.847  1.00  0.00     0.000 A 
ENDBRANCH  17  19
ENDBRANCH   4   7
ENDBRANCH   2   3
ENDBRANCH   1   2
BRANCH   1  25
ATOM     25  C   UNL A   1      32.980  29.341  25.364  1.00  0.00     0.118 C 
BRANCH  25  26
ATOM     26  N   UNL A   1      32.685  30.657  25.907  1.00  0.00    -0.352 N 
ATOM     27  C   UNL A   1      33.242  31.399  26.921  1.00  0.00     0.251 C 
ATOM     28  H   UNL A   1      31.934  31.108  25.457  1.00  0.00     0.163 HD
ATOM     29  O   UNL A   1      32.651  32.422  27.269  1.00  0.00    -0.269 OA
BRANCH  27  30
ATOM     30  C   UNL A   1      34.495  31.026  27.632  1.00  0.00     0.039 A 
ATOM     31  C   UNL A   1      34.624  29.700  28.078  1.00  0.00     0.014 A 
ATOM     32  C   UNL A   1      35.491  31.939  27.977  1.00  0.00     0.014 A 
ATOM     33  C   UNL A   1      35.740  29.294  28.822  1.00  0.00     0.010 A 
ATOM     34  C   UNL A   1      36.647  31.516  28.644  1.00  0.00     0.010 A 
ATOM     35  C   UNL A   1      36.779  30.194  29.092  1.00  0.00    -0.014 A 
BRANCH  35  36
ATOM     36  C   UNL A   1      37.986  29.790  29.868  1.00  0.00     0.031 A 
ATOM     37  C   UNL A   1      38.188  30.284  31.278  1.00  0.00     0.074 A 
ATOM     38  C   UNL A   1      38.944  29.041  29.286  1.00  0.00     0.049 A 
ATOM     39  N   UNL A   1      39.232  30.160  32.062  1.00  0.00    -0.248 NA
ATOM     40  C   UNL A   1      37.083  31.049  31.876  1.00  0.00     0.031 C 
ATOM     41  C   UNL A   1      38.906  28.532  27.915  1.00  0.00     0.029 A 
ATOM     42  N   UNL A   1      40.148  28.591  29.773  1.00  0.00    -0.354 N 
ATOM     43  C   UNL A   1      38.931  30.876  33.214  1.00  0.00     0.074 A 
ATOM     44  C   UNL A   1      37.615  31.445  33.025  1.00  0.00     0.031 C 
ATOM     45  C   UNL A   1      40.026  27.832  27.674  1.00  0.00     0.029 A 
ATOM     46  C   UNL A   1      40.879  27.873  28.858  1.00  0.00     0.049 A 
ATOM     47  H   UNL A   1      40.458  28.767  30.691  1.00  0.00     0.167 HD
ATOM     48  C   UNL A   1      39.678  31.036  34.333  1.00  0.00     0.037 A 
ATOM     49  C   UNL A   1      42.103  27.319  28.957  1.00  0.00     0.037 A 
ATOM     50  C   UNL A   1      40.950  30.402  34.563  1.00  0.00     0.049 A 
ATOM     51  C   UNL A   1      42.876  27.442  30.241  1.00  0.00     0.074 A 
ATOM     52  C   UNL A   1      41.726  30.419  35.709  1.00  0.00     0.029 A 
ATOM     53  N   UNL A   1      41.623  29.625  33.634  1.00  0.00    -0.354 N 
ATOM     54  N   UNL A   1      42.553  28.076  31.341  1.00  0.00    -0.248 NA
ATOM     55  C   UNL A   1      44.183  26.771  30.298  1.00  0.00     0.031 C 
ATOM     56  C   UNL A   1      42.883  29.670  35.465  1.00  0.00     0.029 A 
ATOM     57  C   UNL A   1      42.811  29.165  34.177  1.00  0.00     0.049 A 
ATOM     58  H   UNL A   1      41.304  29.429  32.724  1.00  0.00     0.167 HD
ATOM     59  C   UNL A   1      43.604  27.866  32.224  1.00  0.00     0.074 A 
ATOM     60  C   UNL A   1      44.569  27.034  31.539  1.00  0.00     0.031 C 
ATOM     61  C   UNL A   1      43.756  28.329  33.488  1.00  0.00     0.037 A 
BRANCH  48  62
ATOM     62  C   UNL A   1      39.141  31.929  35.412  1.00  0.00     0.064 A 
ATOM     63  C   UNL A   1      38.366  31.426  36.466  1.00  0.00     0.173 A 
ATOM     64  C   UNL A   1      39.457  33.296  35.420  1.00  0.00     0.173 A 
ATOM     65  F   UNL A   1      38.031  30.128  36.498  1.00  0.00    -0.203 F 
ATOM     66  C   UNL A   1      37.910  32.264  37.480  1.00  0.00     0.198 A 
ATOM     67  C   UNL A   1      39.019  34.126  36.448  1.00  0.00     0.198 A 
ATOM     68  F   UNL A   1      40.203  33.823  34.437  1.00  0.00    -0.203 F 
ATOM     69  F   UNL A   1      37.142  31.770  38.461  1.00  0.00    -0.200 F 
ATOM     70  C   UNL A   1      38.242  33.611  37.474  1.00  0.00     0.200 A 
ATOM     71  F   UNL A   1      39.351  35.425  36.446  1.00  0.00    -0.200 F 
ATOM     72  F   UNL A   1      37.810  34.413  38.457  1.00  0.00    -0.200 F 
ENDBRANCH  48  62
BRANCH  49  73
ATOM     73  C   UNL A   1      42.672  26.581  27.800  1.00  0.00     0.064 A 
ATOM     74  C   UNL A   1      42.504  25.195  27.680  1.00  0.00     0.173 A 
ATOM     75  C   UNL A   1      43.394  27.243  26.797  1.00  0.00     0.173 A 
ATOM     76  F   UNL A   1      41.837  24.518  28.626  1.00  0.00    -0.203 F 
ATOM     77  C   UNL A   1      43.053  24.495  26.607  1.00  0.00     0.198 A 
ATOM     78  C   UNL A   1      43.923  26.546  25.714  1.00  0.00     0.198 A 
ATOM     79  F   UNL A   1      43.573  28.571  26.862  1.00  0.00    -0.203 F 
ATOM     80  F   UNL A   1      42.911  23.165  26.536  1.00  0.00    -0.200 F 
ATOM     81  C   UNL A   1      43.758  25.171  25.623  1.00  0.00     0.200 A 
ATOM     82  F   UNL A   1      44.590  27.205  24.757  1.00  0.00    -0.200 F 
ATOM     83  F   UNL A   1      44.283  24.498  24.591  1.00  0.00    -0.200 F 
ENDBRANCH  49  73
BRANCH  61  84
ATOM     84  C   UNL A   1      44.998  27.926  34.222  1.00  0.00     0.064 A 
ATOM     85  C   UNL A   1      46.147  28.728  34.208  1.00  0.00     0.173 A 
ATOM     86  C   UNL A   1      45.024  26.748  34.985  1.00  0.00     0.173 A 
ATOM     87  F   UNL A   1      46.172  29.855  33.480  1.00  0.00    -0.203 F 
ATOM     88  C   UNL A   1      47.285  28.360  34.920  1.00  0.00     0.198 A 
ATOM     89  C   UNL A   1      46.156  26.392  35.712  1.00  0.00     0.198 A 
ATOM     90  F   UNL A   1      43.947  25.950  35.033  1.00  0.00    -0.203 F 
ATOM     91  F   UNL A   1      48.384  29.124  34.866  1.00  0.00    -0.200 F 
ATOM     92  C   UNL A   1      47.287  27.196  35.676  1.00  0.00     0.200 A 
ATOM     93  F   UNL A   1      46.155  25.273  36.447  1.00  0.00    -0.200 F 
ATOM     94  F   UNL A   1      48.381  26.845  36.364  1.00  0.00    -0.200 F 
ENDBRANCH  61  84
ENDBRANCH  35  36
ENDBRANCH  27  30
ENDBRANCH  25  26
ENDBRANCH   1  25
TORSDOF 11
ENDMDL
