MODEL 1
REMARK VINA RESULT:     -11.9      0.000      0.000
REMARK SMILES C[C@@](NC(=O)CSCc1ccccc1)(C(=O)NCCCNC(=O)c1ccc(-c2c3nc(c(-c4c(F)c(F)c(F)c(F)c4F)c4ccc([nH]4)c(-c4c(F)c(F)c(F)c(F)c4F)c4nc(c(-c5c(F)c(F)c(F)c(F)c5F)c5ccc2[nH]5)C=C4)C=C3)cc1)C1CC1
REMARK SMILES IDX 15 1 16 2 17 3 2 5 1 6 3 7 4 8 5 10 6 11 7 12 8 13 9 14
REMARK SMILES IDX 10 15 14 16 11 17 13 18 12 19 87 20 88 21 89 22 18 23 19 24
REMARK SMILES IDX 20 25 21 26 22 27 23 29 24 30 25 31 86 32 26 33 85 34 27 35
REMARK SMILES IDX 28 36 29 37 79 38 30 39 84 40 78 41 80 42 31 43 83 44 77 45
REMARK SMILES IDX 76 46 32 48 64 49 44 50 63 51 45 52 48 53 62 54 81 55 46 56
REMARK SMILES IDX 47 57 61 59 82 60 49 61 33 62 34 63 42 64 35 65 36 66 40 67
REMARK SMILES IDX 43 68 37 69 38 70 41 71 39 72 65 73 66 74 74 75 67 76 68 77
REMARK SMILES IDX 72 78 75 79 69 80 70 81 73 82 71 83 50 84 51 85 59 86 52 87
REMARK SMILES IDX 53 88 57 89 60 90 54 91 55 92 58 93 56 94
REMARK H PARENT 17 4 3 9 21 28 80 47 48 58
REMARK Flexibility Score: inf
ROOT
ATOM      1  C   UNL A   1      33.984  24.887  24.305  1.00  0.00     0.245 C 
ATOM      2  O   UNL A   1      33.976  24.678  23.085  1.00  0.00    -0.272 OA
ATOM      3  N   UNL A   1      34.002  26.196  24.671  1.00  0.00    -0.354 N 
ATOM      4  H   UNL A   1      34.220  26.822  23.944  1.00  0.00     0.163 HD
ENDROOT
BRANCH   1   5
ATOM      5  C   UNL A   1      34.000  23.709  25.338  1.00  0.00     0.119 C 
ATOM      6  C   UNL A   1      35.347  23.739  26.100  1.00  0.00     0.046 C 
BRANCH   5   7
ATOM      7  N   UNL A   1      32.945  23.822  26.367  1.00  0.00    -0.341 N 
ATOM      8  C   UNL A   1      31.589  23.874  26.327  1.00  0.00     0.230 C 
ATOM      9  H   UNL A   1      33.304  23.868  27.283  1.00  0.00     0.164 HD
ATOM     10  O   UNL A   1      31.009  23.647  27.396  1.00  0.00    -0.274 OA
BRANCH   8  11
ATOM     11  C   UNL A   1      30.793  24.237  25.088  1.00  0.00     0.169 C 
BRANCH  11  12
ATOM     12  S   UNL A   1      29.913  25.837  25.187  1.00  0.00    -0.147 SA
BRANCH  12  13
ATOM     13  C   UNL A   1      30.238  26.584  23.552  1.00  0.00     0.105 C 
BRANCH  13  14
ATOM     14  C   UNL A   1      29.407  27.787  23.170  1.00  0.00    -0.038 A 
ATOM     15  C   UNL A   1      30.054  28.812  22.456  1.00  0.00     0.004 A 
ATOM     16  C   UNL A   1      28.032  27.914  23.404  1.00  0.00     0.004 A 
ATOM     17  C   UNL A   1      29.362  29.946  22.031  1.00  0.00     0.000 A 
ATOM     18  C   UNL A   1      27.338  29.053  22.982  1.00  0.00     0.000 A 
ATOM     19  C   UNL A   1      28.004  30.071  22.304  1.00  0.00     0.000 A 
ENDBRANCH  13  14
ENDBRANCH  12  13
ENDBRANCH  11  12
ENDBRANCH   8  11
ENDBRANCH   5   7
BRANCH   5  20
ATOM     20  C   UNL A   1      33.833  22.370  24.601  1.00  0.00     0.024 C 
ATOM     21  C   UNL A   1      35.032  21.455  24.413  1.00  0.00     0.007 C 
ATOM     22  C   UNL A   1      33.875  20.991  25.243  1.00  0.00     0.007 C 
ENDBRANCH   5  20
ENDBRANCH   1   5
BRANCH   3  23
ATOM     23  C   UNL A   1      33.752  26.821  25.954  1.00  0.00     0.117 C 
BRANCH  23  24
ATOM     24  C   UNL A   1      32.789  27.999  25.884  1.00  0.00     0.042 C 
BRANCH  24  25
ATOM     25  C   UNL A   1      33.387  29.337  25.468  1.00  0.00     0.118 C 
BRANCH  25  26
ATOM     26  N   UNL A   1      32.824  30.491  26.150  1.00  0.00    -0.352 N 
ATOM     27  C   UNL A   1      33.330  31.253  27.183  1.00  0.00     0.251 C 
ATOM     28  H   UNL A   1      31.940  30.775  25.821  1.00  0.00     0.163 HD
ATOM     29  O   UNL A   1      32.664  32.107  27.736  1.00  0.00    -0.269 OA
BRANCH  27  30
ATOM     30  C   UNL A   1      34.708  31.003  27.643  1.00  0.00     0.039 A 
ATOM     31  C   UNL A   1      35.617  32.061  27.716  1.00  0.00     0.014 A 
ATOM     32  C   UNL A   1      35.076  29.721  28.045  1.00  0.00     0.014 A 
ATOM     33  C   UNL A   1      36.857  31.854  28.322  1.00  0.00     0.010 A 
ATOM     34  C   UNL A   1      36.244  29.551  28.763  1.00  0.00     0.010 A 
ATOM     35  C   UNL A   1      37.146  30.615  28.914  1.00  0.00    -0.014 A 
BRANCH  35  36
ATOM     36  C   UNL A   1      38.373  30.367  29.707  1.00  0.00     0.031 A 
ATOM     37  C   UNL A   1      39.408  29.421  29.166  1.00  0.00     0.074 A 
ATOM     38  C   UNL A   1      38.470  30.851  30.961  1.00  0.00     0.049 A 
ATOM     39  N   UNL A   1      40.409  28.844  29.777  1.00  0.00    -0.248 NA
ATOM     40  C   UNL A   1      39.252  29.020  27.757  1.00  0.00     0.031 C 
ATOM     41  C   UNL A   1      37.498  31.737  31.608  1.00  0.00     0.029 A 
ATOM     42  N   UNL A   1      39.414  30.635  31.932  1.00  0.00    -0.354 N 
ATOM     43  C   UNL A   1      40.969  27.984  28.843  1.00  0.00     0.074 A 
ATOM     44  C   UNL A   1      40.162  28.066  27.647  1.00  0.00     0.031 C 
ATOM     45  C   UNL A   1      37.903  31.996  32.861  1.00  0.00     0.029 A 
ATOM     46  C   UNL A   1      39.130  31.253  33.126  1.00  0.00     0.049 A 
ATOM     47  H   UNL A   1      40.221  30.088  31.788  1.00  0.00     0.167 HD
ATOM     48  C   UNL A   1      42.073  27.210  28.970  1.00  0.00     0.037 A 
ATOM     49  C   UNL A   1      39.775  31.203  34.307  1.00  0.00     0.037 A 
ATOM     50  C   UNL A   1      42.888  27.179  30.155  1.00  0.00     0.049 A 
ATOM     51  C   UNL A   1      41.012  30.353  34.417  1.00  0.00     0.074 A 
ATOM     52  C   UNL A   1      44.067  26.492  30.374  1.00  0.00     0.029 A 
ATOM     53  N   UNL A   1      42.605  27.877  31.321  1.00  0.00    -0.354 N 
ATOM     54  N   UNL A   1      41.569  29.584  33.513  1.00  0.00    -0.248 NA
ATOM     55  C   UNL A   1      41.714  30.366  35.707  1.00  0.00     0.031 C 
ATOM     56  C   UNL A   1      44.475  26.740  31.688  1.00  0.00     0.029 A 
ATOM     57  C   UNL A   1      43.581  27.627  32.269  1.00  0.00     0.049 A 
ATOM     58  H   UNL A   1      41.824  28.463  31.454  1.00  0.00     0.167 HD
ATOM     59  C   UNL A   1      42.705  29.053  34.108  1.00  0.00     0.074 A 
ATOM     60  C   UNL A   1      42.759  29.591  35.451  1.00  0.00     0.031 C 
ATOM     61  C   UNL A   1      43.623  28.200  33.590  1.00  0.00     0.037 A 
BRANCH  48  62
ATOM     62  C   UNL A   1      42.461  26.351  27.801  1.00  0.00     0.064 A 
ATOM     63  C   UNL A   1      43.433  26.758  26.874  1.00  0.00     0.173 A 
ATOM     64  C   UNL A   1      41.869  25.092  27.615  1.00  0.00     0.173 A 
ATOM     65  F   UNL A   1      44.023  27.957  26.997  1.00  0.00    -0.203 F 
ATOM     66  C   UNL A   1      43.769  25.957  25.785  1.00  0.00     0.198 A 
ATOM     67  C   UNL A   1      42.234  24.277  26.546  1.00  0.00     0.198 A 
ATOM     68  F   UNL A   1      40.937  24.648  28.472  1.00  0.00    -0.203 F 
ATOM     69  F   UNL A   1      44.653  26.397  24.880  1.00  0.00    -0.200 F 
ATOM     70  C   UNL A   1      43.174  24.715  25.626  1.00  0.00     0.200 A 
ATOM     71  F   UNL A   1      41.670  23.071  26.402  1.00  0.00    -0.200 F 
ATOM     72  F   UNL A   1      43.504  23.942  24.582  1.00  0.00    -0.200 F 
ENDBRANCH  48  62
BRANCH  49  73
ATOM     73  C   UNL A   1      39.281  31.997  35.462  1.00  0.00     0.064 A 
ATOM     74  C   UNL A   1      39.620  33.351  35.596  1.00  0.00     0.173 A 
ATOM     75  C   UNL A   1      38.456  31.434  36.448  1.00  0.00     0.173 A 
ATOM     76  F   UNL A   1      40.418  33.933  34.689  1.00  0.00    -0.203 F 
ATOM     77  C   UNL A   1      39.173  34.105  36.680  1.00  0.00     0.198 A 
ATOM     78  C   UNL A   1      37.986  32.196  37.516  1.00  0.00     0.198 A 
ATOM     79  F   UNL A   1      38.091  30.146  36.363  1.00  0.00    -0.203 F 
ATOM     80  F   UNL A   1      39.550  35.385  36.804  1.00  0.00    -0.200 F 
ATOM     81  C   UNL A   1      38.352  33.528  37.636  1.00  0.00     0.200 A 
ATOM     82  F   UNL A   1      37.176  31.639  38.428  1.00  0.00    -0.200 F 
ATOM     83  F   UNL A   1      37.916  34.254  38.675  1.00  0.00    -0.200 F 
ENDBRANCH  49  73
BRANCH  61  84
ATOM     84  C   UNL A   1      44.799  27.846  34.450  1.00  0.00     0.064 A 
ATOM     85  C   UNL A   1      45.963  28.625  34.468  1.00  0.00     0.173 A 
ATOM     86  C   UNL A   1      44.721  26.753  35.326  1.00  0.00     0.173 A 
ATOM     87  F   UNL A   1      46.089  29.671  33.638  1.00  0.00    -0.203 F 
ATOM     88  C   UNL A   1      47.016  28.313  35.323  1.00  0.00     0.198 A 
ATOM     89  C   UNL A   1      45.763  26.463  36.202  1.00  0.00     0.198 A 
ATOM     90  F   UNL A   1      43.624  25.982  35.351  1.00  0.00    -0.203 F 
ATOM     91  F   UNL A   1      48.136  29.049  35.300  1.00  0.00    -0.200 F 
ATOM     92  C   UNL A   1      46.910  27.240  36.197  1.00  0.00     0.200 A 
ATOM     93  F   UNL A   1      45.651  25.436  37.056  1.00  0.00    -0.200 F 
ATOM     94  F   UNL A   1      47.917  26.954  37.032  1.00  0.00    -0.200 F 
ENDBRANCH  61  84
ENDBRANCH  35  36
ENDBRANCH  27  30
ENDBRANCH  25  26
ENDBRANCH  24  25
ENDBRANCH  23  24
ENDBRANCH   3  23
TORSDOF 16
ENDMDL
MODEL 2
REMARK VINA RESULT:     -11.8      0.802      2.088
REMARK SMILES C[C@@](NC(=O)CSCc1ccccc1)(C(=O)NCCCNC(=O)c1ccc(-c2c3nc(c(-c4c(F)c(F)c(F)c(F)c4F)c4ccc([nH]4)c(-c4c(F)c(F)c(F)c(F)c4F)c4nc(c(-c5c(F)c(F)c(F)c(F)c5F)c5ccc2[nH]5)C=C4)C=C3)cc1)C1CC1
REMARK SMILES IDX 15 1 16 2 17 3 2 5 1 6 3 7 4 8 5 10 6 11 7 12 8 13 9 14
REMARK SMILES IDX 10 15 14 16 11 17 13 18 12 19 87 20 88 21 89 22 18 23 19 24
REMARK SMILES IDX 20 25 21 26 22 27 23 29 24 30 25 31 86 32 26 33 85 34 27 35
REMARK SMILES IDX 28 36 29 37 79 38 30 39 84 40 78 41 80 42 31 43 83 44 77 45
REMARK SMILES IDX 76 46 32 48 64 49 44 50 63 51 45 52 48 53 62 54 81 55 46 56
REMARK SMILES IDX 47 57 61 59 82 60 49 61 33 62 34 63 42 64 35 65 36 66 40 67
REMARK SMILES IDX 43 68 37 69 38 70 41 71 39 72 65 73 66 74 74 75 67 76 68 77
REMARK SMILES IDX 72 78 75 79 69 80 70 81 73 82 71 83 50 84 51 85 59 86 52 87
REMARK SMILES IDX 53 88 57 89 60 90 54 91 55 92 58 93 56 94
REMARK H PARENT 17 4 3 9 21 28 80 47 48 58
REMARK Flexibility Score: inf
ROOT
ATOM      1  C   UNL A   1      31.517  24.328  26.639  1.00  0.00     0.245 C 
ATOM      2  O   UNL A   1      30.611  23.728  27.233  1.00  0.00    -0.272 OA
ATOM      3  N   UNL A   1      31.581  25.665  26.874  1.00  0.00    -0.354 N 
ATOM      4  H   UNL A   1      30.784  26.043  27.312  1.00  0.00     0.163 HD
ENDROOT
BRANCH   1   5
ATOM      5  C   UNL A   1      32.494  23.583  25.668  1.00  0.00     0.119 C 
ATOM      6  C   UNL A   1      31.778  22.326  25.115  1.00  0.00     0.046 C 
BRANCH   5   7
ATOM      7  N   UNL A   1      32.874  24.390  24.489  1.00  0.00    -0.341 N 
ATOM      8  C   UNL A   1      32.175  25.095  23.563  1.00  0.00     0.230 C 
ATOM      9  H   UNL A   1      33.847  24.423  24.343  1.00  0.00     0.164 HD
ATOM     10  O   UNL A   1      32.828  25.911  22.902  1.00  0.00    -0.274 OA
BRANCH   8  11
ATOM     11  C   UNL A   1      30.698  24.893  23.284  1.00  0.00     0.169 C 
BRANCH  11  12
ATOM     12  S   UNL A   1      29.609  26.206  23.944  1.00  0.00    -0.147 SA
BRANCH  12  13
ATOM     13  C   UNL A   1      29.874  27.583  22.773  1.00  0.00     0.105 C 
BRANCH  13  14
ATOM     14  C   UNL A   1      29.185  28.891  23.086  1.00  0.00    -0.038 A 
ATOM     15  C   UNL A   1      29.975  29.914  23.642  1.00  0.00     0.004 A 
ATOM     16  C   UNL A   1      27.847  29.180  22.788  1.00  0.00     0.004 A 
ATOM     17  C   UNL A   1      29.435  31.167  23.933  1.00  0.00     0.000 A 
ATOM     18  C   UNL A   1      27.305  30.434  23.083  1.00  0.00     0.000 A 
ATOM     19  C   UNL A   1      28.096  31.424  23.663  1.00  0.00     0.000 A 
ENDBRANCH  13  14
ENDBRANCH  12  13
ENDBRANCH  11  12
ENDBRANCH   8  11
ENDBRANCH   5   7
BRANCH   5  20
ATOM     20  C   UNL A   1      33.771  23.179  26.425  1.00  0.00     0.024 C 
ATOM     21  C   UNL A   1      33.669  22.613  27.832  1.00  0.00     0.007 C 
ATOM     22  C   UNL A   1      34.209  21.753  26.730  1.00  0.00     0.007 C 
ENDBRANCH   5  20
ENDBRANCH   1   5
BRANCH   3  23
ATOM     23  C   UNL A   1      32.626  26.626  26.587  1.00  0.00     0.117 C 
BRANCH  23  24
ATOM     24  C   UNL A   1      32.115  27.923  25.975  1.00  0.00     0.042 C 
BRANCH  24  25
ATOM     25  C   UNL A   1      33.131  29.051  25.838  1.00  0.00     0.118 C 
BRANCH  25  26
ATOM     26  N   UNL A   1      32.666  30.346  26.311  1.00  0.00    -0.352 N 
ATOM     27  C   UNL A   1      33.261  31.249  27.167  1.00  0.00     0.251 C 
ATOM     28  H   UNL A   1      31.787  30.621  25.963  1.00  0.00     0.163 HD
ATOM     29  O   UNL A   1      32.671  32.232  27.573  1.00  0.00    -0.269 OA
BRANCH  27  30
ATOM     30  C   UNL A   1      34.641  30.997  27.621  1.00  0.00     0.039 A 
ATOM     31  C   UNL A   1      35.546  32.057  27.708  1.00  0.00     0.014 A 
ATOM     32  C   UNL A   1      35.014  29.712  28.006  1.00  0.00     0.014 A 
ATOM     33  C   UNL A   1      36.788  31.847  28.309  1.00  0.00     0.010 A 
ATOM     34  C   UNL A   1      36.183  29.536  28.720  1.00  0.00     0.010 A 
ATOM     35  C   UNL A   1      37.082  30.601  28.884  1.00  0.00    -0.014 A 
BRANCH  35  36
ATOM     36  C   UNL A   1      38.311  30.347  29.672  1.00  0.00     0.031 A 
ATOM     37  C   UNL A   1      39.328  29.378  29.137  1.00  0.00     0.074 A 
ATOM     38  C   UNL A   1      38.423  30.847  30.918  1.00  0.00     0.049 A 
ATOM     39  N   UNL A   1      40.325  28.796  29.750  1.00  0.00    -0.248 NA
ATOM     40  C   UNL A   1      39.157  28.960  27.735  1.00  0.00     0.031 C 
ATOM     41  C   UNL A   1      37.470  31.755  31.560  1.00  0.00     0.029 A 
ATOM     42  N   UNL A   1      39.372  30.631  31.886  1.00  0.00    -0.354 N 
ATOM     43  C   UNL A   1      40.867  27.914  28.823  1.00  0.00     0.074 A 
ATOM     44  C   UNL A   1      40.052  27.991  27.632  1.00  0.00     0.031 C 
ATOM     45  C   UNL A   1      37.887  32.027  32.805  1.00  0.00     0.029 A 
ATOM     46  C   UNL A   1      39.105  31.269  33.072  1.00  0.00     0.049 A 
ATOM     47  H   UNL A   1      40.169  30.071  31.743  1.00  0.00     0.167 HD
ATOM     48  C   UNL A   1      41.960  27.127  28.954  1.00  0.00     0.037 A 
ATOM     49  C   UNL A   1      39.758  31.227  34.249  1.00  0.00     0.037 A 
ATOM     50  C   UNL A   1      42.783  27.101  30.133  1.00  0.00     0.049 A 
ATOM     51  C   UNL A   1      40.983  30.361  34.363  1.00  0.00     0.074 A 
ATOM     52  C   UNL A   1      43.954  26.400  30.354  1.00  0.00     0.029 A 
ATOM     53  N   UNL A   1      42.518  27.819  31.291  1.00  0.00    -0.354 N 
ATOM     54  N   UNL A   1      41.522  29.571  33.466  1.00  0.00    -0.248 NA
ATOM     55  C   UNL A   1      41.695  30.382  35.647  1.00  0.00     0.031 C 
ATOM     56  C   UNL A   1      44.374  26.660  31.661  1.00  0.00     0.029 A 
ATOM     57  C   UNL A   1      43.497  27.568  32.236  1.00  0.00     0.049 A 
ATOM     58  H   UNL A   1      41.747  28.418  31.421  1.00  0.00     0.167 HD
ATOM     59  C   UNL A   1      42.655  29.032  34.061  1.00  0.00     0.074 A 
ATOM     60  C   UNL A   1      42.726  29.588  35.396  1.00  0.00     0.031 C 
ATOM     61  C   UNL A   1      43.557  28.159  33.548  1.00  0.00     0.037 A 
BRANCH  48  62
ATOM     62  C   UNL A   1      42.328  26.245  27.795  1.00  0.00     0.064 A 
ATOM     63  C   UNL A   1      43.299  26.625  26.855  1.00  0.00     0.173 A 
ATOM     64  C   UNL A   1      41.715  24.993  27.630  1.00  0.00     0.173 A 
ATOM     65  F   UNL A   1      43.908  27.816  26.958  1.00  0.00    -0.203 F 
ATOM     66  C   UNL A   1      43.615  25.804  25.776  1.00  0.00     0.198 A 
ATOM     67  C   UNL A   1      42.061  24.158  26.570  1.00  0.00     0.198 A 
ATOM     68  F   UNL A   1      40.783  24.575  28.499  1.00  0.00    -0.203 F 
ATOM     69  F   UNL A   1      44.500  26.218  24.859  1.00  0.00    -0.200 F 
ATOM     70  C   UNL A   1      43.001  24.569  25.638  1.00  0.00     0.200 A 
ATOM     71  F   UNL A   1      41.478  22.958  26.447  1.00  0.00    -0.200 F 
ATOM     72  F   UNL A   1      43.313  23.777  24.602  1.00  0.00    -0.200 F 
ENDBRANCH  48  62
BRANCH  49  73
ATOM     73  C   UNL A   1      39.283  32.044  35.397  1.00  0.00     0.064 A 
ATOM     74  C   UNL A   1      38.463  31.482  36.385  1.00  0.00     0.173 A 
ATOM     75  C   UNL A   1      39.642  33.393  35.542  1.00  0.00     0.173 A 
ATOM     76  F   UNL A   1      38.079  30.200  36.285  1.00  0.00    -0.203 F 
ATOM     77  C   UNL A   1      38.001  32.240  37.460  1.00  0.00     0.198 A 
ATOM     78  C   UNL A   1      39.204  34.142  36.632  1.00  0.00     0.198 A 
ATOM     79  F   UNL A   1      40.434  33.979  34.632  1.00  0.00    -0.203 F 
ATOM     80  F   UNL A   1      37.182  31.686  38.365  1.00  0.00    -0.200 F 
ATOM     81  C   UNL A   1      38.377  33.567  37.586  1.00  0.00     0.200 A 
ATOM     82  F   UNL A   1      39.586  35.421  36.761  1.00  0.00    -0.200 F 
ATOM     83  F   UNL A   1      37.939  34.295  38.623  1.00  0.00    -0.200 F 
ENDBRANCH  49  73
BRANCH  61  84
ATOM     84  C   UNL A   1      44.734  27.801  34.405  1.00  0.00     0.064 A 
ATOM     85  C   UNL A   1      44.701  26.713  35.288  1.00  0.00     0.173 A 
ATOM     86  C   UNL A   1      45.936  28.514  34.278  1.00  0.00     0.173 A 
ATOM     87  F   UNL A   1      43.570  26.011  35.454  1.00  0.00    -0.203 F 
ATOM     88  C   UNL A   1      45.828  26.360  36.025  1.00  0.00     0.198 A 
ATOM     89  C   UNL A   1      47.069  28.138  34.993  1.00  0.00     0.198 A 
ATOM     90  F   UNL A   1      46.018  29.557  33.440  1.00  0.00    -0.203 F 
ATOM     91  F   UNL A   1      45.766  25.339  36.891  1.00  0.00    -0.200 F 
ATOM     92  C   UNL A   1      47.013  27.065  35.869  1.00  0.00     0.200 A 
ATOM     93  F   UNL A   1      48.216  28.810  34.828  1.00  0.00    -0.200 F 
ATOM     94  F   UNL A   1      48.101  26.711  36.565  1.00  0.00    -0.200 F 
ENDBRANCH  61  84
ENDBRANCH  35  36
ENDBRANCH  27  30
ENDBRANCH  25  26
ENDBRANCH  24  25
ENDBRANCH  23  24
ENDBRANCH   3  23
TORSDOF 16
ENDMDL
MODEL 3
REMARK VINA RESULT:     -11.6      2.098      7.862
REMARK SMILES C[C@@](NC(=O)CSCc1ccccc1)(C(=O)NCCCNC(=O)c1ccc(-c2c3nc(c(-c4c(F)c(F)c(F)c(F)c4F)c4ccc([nH]4)c(-c4c(F)c(F)c(F)c(F)c4F)c4nc(c(-c5c(F)c(F)c(F)c(F)c5F)c5ccc2[nH]5)C=C4)C=C3)cc1)C1CC1
REMARK SMILES IDX 15 1 16 2 17 3 2 5 1 6 3 7 4 8 5 10 6 11 7 12 8 13 9 14
REMARK SMILES IDX 10 15 14 16 11 17 13 18 12 19 87 20 88 21 89 22 18 23 19 24
REMARK SMILES IDX 20 25 21 26 22 27 23 29 24 30 25 31 86 32 26 33 85 34 27 35
REMARK SMILES IDX 28 36 29 37 79 38 30 39 84 40 78 41 80 42 31 43 83 44 77 45
REMARK SMILES IDX 76 46 32 48 64 49 44 50 63 51 45 52 48 53 62 54 81 55 46 56
REMARK SMILES IDX 47 57 61 59 82 60 49 61 33 62 34 63 42 64 35 65 36 66 40 67
REMARK SMILES IDX 43 68 37 69 38 70 41 71 39 72 65 73 66 74 74 75 67 76 68 77
REMARK SMILES IDX 72 78 75 79 69 80 70 81 73 82 71 83 50 84 51 85 59 86 52 87
REMARK SMILES IDX 53 88 57 89 60 90 54 91 55 92 58 93 56 94
REMARK H PARENT 17 4 3 9 21 28 80 47 48 58
REMARK Flexibility Score: inf
ROOT
ATOM      1  C   UNL A   1      33.693  28.936  26.543  1.00  0.00     0.245 C 
ATOM      2  O   UNL A   1      34.864  28.873  26.939  1.00  0.00    -0.272 OA
ATOM      3  N   UNL A   1      33.016  30.057  26.906  1.00  0.00    -0.354 N 
ATOM      4  H   UNL A   1      33.450  30.588  27.612  1.00  0.00     0.163 HD
ENDROOT
BRANCH   1   5
ATOM      5  C   UNL A   1      33.047  27.780  25.705  1.00  0.00     0.119 C 
ATOM      6  C   UNL A   1      34.035  26.590  25.662  1.00  0.00     0.046 C 
BRANCH   5   7
ATOM      7  N   UNL A   1      31.799  27.255  26.299  1.00  0.00    -0.341 N 
ATOM      8  C   UNL A   1      30.829  26.411  25.865  1.00  0.00     0.230 C 
ATOM      9  H   UNL A   1      31.636  27.592  27.210  1.00  0.00     0.164 HD
ATOM     10  O   UNL A   1      30.092  25.941  26.740  1.00  0.00    -0.274 OA
BRANCH   8  11
ATOM     11  C   UNL A   1      30.592  26.076  24.404  1.00  0.00     0.169 C 
BRANCH  11  12
ATOM     12  S   UNL A   1      29.059  26.781  23.698  1.00  0.00    -0.147 SA
BRANCH  12  13
ATOM     13  C   UNL A   1      29.688  27.994  22.486  1.00  0.00     0.105 C 
BRANCH  13  14
ATOM     14  C   UNL A   1      29.071  29.373  22.513  1.00  0.00    -0.038 A 
ATOM     15  C   UNL A   1      27.989  29.573  23.390  1.00  0.00     0.004 A 
ATOM     16  C   UNL A   1      29.549  30.476  21.794  1.00  0.00     0.004 A 
ATOM     17  C   UNL A   1      27.377  30.821  23.508  1.00  0.00     0.000 A 
ATOM     18  C   UNL A   1      28.933  31.726  21.910  1.00  0.00     0.000 A 
ATOM     19  C   UNL A   1      27.843  31.896  22.760  1.00  0.00     0.000 A 
ENDBRANCH  13  14
ENDBRANCH  12  13
ENDBRANCH  11  12
ENDBRANCH   8  11
ENDBRANCH   5   7
BRANCH   5  20
ATOM     20  C   UNL A   1      32.748  28.277  24.281  1.00  0.00     0.024 C 
ATOM     21  C   UNL A   1      33.795  29.075  23.522  1.00  0.00     0.007 C 
ATOM     22  C   UNL A   1      33.372  27.736  23.002  1.00  0.00     0.007 C 
ENDBRANCH   5  20
ENDBRANCH   1   5
BRANCH   3  23
ATOM     23  C   UNL A   1      31.761  30.600  26.426  1.00  0.00     0.117 C 
BRANCH  23  24
ATOM     24  C   UNL A   1      31.562  32.072  26.762  1.00  0.00     0.042 C 
BRANCH  24  25
ATOM     25  C   UNL A   1      32.774  32.806  27.324  1.00  0.00     0.118 C 
BRANCH  25  26
ATOM     26  N   UNL A   1      32.539  34.206  27.644  1.00  0.00    -0.352 N 
ATOM     27  C   UNL A   1      33.069  34.994  28.644  1.00  0.00     0.251 C 
ATOM     28  H   UNL A   1      31.902  34.664  27.050  1.00  0.00     0.163 HD
ATOM     29  O   UNL A   1      32.659  36.118  28.861  1.00  0.00    -0.269 OA
BRANCH  27  30
ATOM     30  C   UNL A   1      34.143  34.442  29.491  1.00  0.00     0.039 A 
ATOM     31  C   UNL A   1      33.823  33.829  30.705  1.00  0.00     0.014 A 
ATOM     32  C   UNL A   1      35.462  34.495  29.049  1.00  0.00     0.014 A 
ATOM     33  C   UNL A   1      34.818  33.151  31.410  1.00  0.00     0.010 A 
ATOM     34  C   UNL A   1      36.413  33.712  29.674  1.00  0.00     0.010 A 
ATOM     35  C   UNL A   1      36.103  33.028  30.859  1.00  0.00    -0.014 A 
BRANCH  35  36
ATOM     36  C   UNL A   1      37.166  32.196  31.471  1.00  0.00     0.031 A 
ATOM     37  C   UNL A   1      37.685  32.568  32.831  1.00  0.00     0.074 A 
ATOM     38  C   UNL A   1      37.765  31.233  30.742  1.00  0.00     0.049 A 
ATOM     39  N   UNL A   1      38.771  32.174  33.443  1.00  0.00    -0.248 NA
ATOM     40  C   UNL A   1      36.906  33.572  33.575  1.00  0.00     0.031 C 
ATOM     41  C   UNL A   1      37.378  30.824  29.390  1.00  0.00     0.029 A 
ATOM     42  N   UNL A   1      38.855  30.449  31.023  1.00  0.00    -0.354 N 
ATOM     43  C   UNL A   1      38.825  32.914  34.617  1.00  0.00     0.074 A 
ATOM     44  C   UNL A   1      37.702  33.823  34.602  1.00  0.00     0.031 C 
ATOM     45  C   UNL A   1      38.207  29.859  28.966  1.00  0.00     0.029 A 
ATOM     46  C   UNL A   1      39.219  29.621  29.990  1.00  0.00     0.049 A 
ATOM     47  H   UNL A   1      39.333  30.477  31.884  1.00  0.00     0.167 HD
ATOM     48  C   UNL A   1      39.724  32.825  35.625  1.00  0.00     0.037 A 
ATOM     49  C   UNL A   1      40.267  28.782  29.875  1.00  0.00     0.037 A 
ATOM     50  C   UNL A   1      40.809  31.880  35.638  1.00  0.00     0.049 A 
ATOM     51  C   UNL A   1      41.240  28.684  31.018  1.00  0.00     0.074 A 
ATOM     52  C   UNL A   1      41.739  31.647  36.635  1.00  0.00     0.029 A 
ATOM     53  N   UNL A   1      41.102  31.006  34.601  1.00  0.00    -0.354 N 
ATOM     54  N   UNL A   1      41.256  29.347  32.149  1.00  0.00    -0.248 NA
ATOM     55  C   UNL A   1      42.340  27.721  30.873  1.00  0.00     0.031 C 
ATOM     56  C   UNL A   1      42.621  30.662  36.182  1.00  0.00     0.029 A 
ATOM     57  C   UNL A   1      42.206  30.240  34.928  1.00  0.00     0.049 A 
ATOM     58  H   UNL A   1      40.599  30.941  33.757  1.00  0.00     0.167 HD
ATOM     59  C   UNL A   1      42.338  28.855  32.866  1.00  0.00     0.074 A 
ATOM     60  C   UNL A   1      42.953  27.836  32.042  1.00  0.00     0.031 C 
ATOM     61  C   UNL A   1      42.780  29.212  34.097  1.00  0.00     0.037 A 
BRANCH  48  62
ATOM     62  C   UNL A   1      39.564  33.761  36.788  1.00  0.00     0.064 A 
ATOM     63  C   UNL A   1      40.132  35.044  36.788  1.00  0.00     0.173 A 
ATOM     64  C   UNL A   1      38.816  33.379  37.912  1.00  0.00     0.173 A 
ATOM     65  F   UNL A   1      40.868  35.457  35.744  1.00  0.00    -0.203 F 
ATOM     66  C   UNL A   1      39.990  35.894  37.882  1.00  0.00     0.198 A 
ATOM     67  C   UNL A   1      38.644  34.245  38.989  1.00  0.00     0.198 A 
ATOM     68  F   UNL A   1      38.245  32.166  37.967  1.00  0.00    -0.203 F 
ATOM     69  F   UNL A   1      40.596  37.089  37.883  1.00  0.00    -0.200 F 
ATOM     70  C   UNL A   1      39.241  35.497  38.979  1.00  0.00     0.200 A 
ATOM     71  F   UNL A   1      37.907  33.865  40.042  1.00  0.00    -0.200 F 
ATOM     72  F   UNL A   1      39.099  36.318  40.028  1.00  0.00    -0.200 F 
ENDBRANCH  48  62
BRANCH  49  73
ATOM     73  C   UNL A   1      40.430  27.955  28.650  1.00  0.00     0.064 A 
ATOM     74  C   UNL A   1      41.187  28.424  27.566  1.00  0.00     0.173 A 
ATOM     75  C   UNL A   1      39.850  26.682  28.534  1.00  0.00     0.173 A 
ATOM     76  F   UNL A   1      41.750  29.641  27.621  1.00  0.00    -0.203 F 
ATOM     77  C   UNL A   1      41.339  27.664  26.408  1.00  0.00     0.198 A 
ATOM     78  C   UNL A   1      40.027  25.912  27.387  1.00  0.00     0.198 A 
ATOM     79  F   UNL A   1      39.126  26.180  29.545  1.00  0.00    -0.203 F 
ATOM     80  F   UNL A   1      42.031  28.158  25.372  1.00  0.00    -0.200 F 
ATOM     81  C   UNL A   1      40.765  26.407  26.321  1.00  0.00     0.200 A 
ATOM     82  F   UNL A   1      39.486  24.687  27.315  1.00  0.00    -0.200 F 
ATOM     83  F   UNL A   1      40.916  25.673  25.210  1.00  0.00    -0.200 F 
ENDBRANCH  49  73
BRANCH  61  84
ATOM     84  C   UNL A   1      43.946  28.453  34.658  1.00  0.00     0.064 A 
ATOM     85  C   UNL A   1      43.778  27.256  35.365  1.00  0.00     0.173 A 
ATOM     86  C   UNL A   1      45.254  28.897  34.410  1.00  0.00     0.173 A 
ATOM     87  F   UNL A   1      42.546  26.800  35.639  1.00  0.00    -0.203 F 
ATOM     88  C   UNL A   1      44.879  26.536  35.819  1.00  0.00     0.198 A 
ATOM     89  C   UNL A   1      46.353  28.159  34.839  1.00  0.00     0.198 A 
ATOM     90  F   UNL A   1      45.466  30.034  33.730  1.00  0.00    -0.203 F 
ATOM     91  F   UNL A   1      44.697  25.412  36.527  1.00  0.00    -0.200 F 
ATOM     92  C   UNL A   1      46.164  26.981  35.546  1.00  0.00     0.200 A 
ATOM     93  F   UNL A   1      47.593  28.583  34.558  1.00  0.00    -0.200 F 
ATOM     94  F   UNL A   1      47.223  26.277  35.968  1.00  0.00    -0.200 F 
ENDBRANCH  61  84
ENDBRANCH  35  36
ENDBRANCH  27  30
ENDBRANCH  25  26
ENDBRANCH  24  25
ENDBRANCH  23  24
ENDBRANCH   3  23
TORSDOF 16
ENDMDL
