MODEL 1
REMARK VINA RESULT:     -12.3      0.000      0.000
REMARK SMILES C[C@@]([NH2+]CC(=O)NC1CCOCC1)(C(=O)NCCCNC(=O)c1ccc(-c2c3nc(c(-c4c(F)c(F)c(F)c(F)c4F)c4ccc([nH]4)c(-c4c(F)c(F)c(F)c(F)c4F)c4nc(c(-c5c(F)c(F)c(F)c(F)c5F)c5ccc2[nH]5)C=C4)C=C3)cc1)C(F)(F)F
REMARK SMILES IDX 17 1 16 2 14 3 15 4 2 6 1 7 3 8 4 11 5 12 6 13 7 14 8 16
REMARK SMILES IDX 9 17 13 18 10 19 12 20 11 21 86 22 87 23 88 24 89 25 18 26
REMARK SMILES IDX 19 27 20 28 21 29 22 31 23 32 24 33 85 34 25 35 84 36 26 37
REMARK SMILES IDX 27 38 28 39 78 40 29 41 83 42 77 43 79 44 30 45 82 46 76 47
REMARK SMILES IDX 75 48 31 50 63 51 43 52 62 53 44 54 47 55 61 56 80 57 45 58
REMARK SMILES IDX 46 59 60 61 81 62 48 63 32 64 33 65 41 66 34 67 35 68 39 69
REMARK SMILES IDX 42 70 36 71 37 72 40 73 38 74 64 75 65 76 73 77 66 78 67 79
REMARK SMILES IDX 71 80 74 81 68 82 69 83 72 84 70 85 49 86 50 87 58 88 51 89
REMARK SMILES IDX 52 90 56 91 59 92 53 93 54 94 57 95 55 96
REMARK H PARENT 16 5 3 9 3 10 7 15 20 30 79 49 47 60
REMARK Flexibility Score: inf
ROOT
ATOM      1  C   UNL A   1      31.653  30.889  26.144  1.00  0.00     0.118 C 
ENDROOT
BRANCH   1   2
ATOM      2  N   UNL A   1      31.740  29.882  27.189  1.00  0.00    -0.350 N 
ATOM      3  C   UNL A   1      31.758  28.520  27.126  1.00  0.00     0.290 C 
ATOM      4  O   UNL A   1      31.342  27.956  28.143  1.00  0.00    -0.267 OA
ATOM      5  H   UNL A   1      31.794  30.247  28.102  1.00  0.00     0.163 HD
BRANCH   3   6
ATOM      6  C   UNL A   1      32.274  27.741  25.901  1.00  0.00     0.268 C 
ATOM      7  C   UNL A   1      31.757  26.293  26.042  1.00  0.00     0.101 C 
BRANCH   6   8
ATOM      8  N   UNL A   1      31.753  28.286  24.590  1.00  0.00    -0.318 N 
ATOM      9  H   UNL A   1      32.486  28.144  23.894  1.00  0.00     0.347 HD
ATOM     10  H   UNL A   1      31.514  29.255  24.803  1.00  0.00     0.347 HD
BRANCH   8  11
ATOM     11  C   UNL A   1      30.504  27.723  24.029  1.00  0.00     0.362 C 
BRANCH  11  12
ATOM     12  C   UNL A   1      30.323  27.846  22.513  1.00  0.00     0.275 C 
ATOM     13  O   UNL A   1      30.879  27.056  21.748  1.00  0.00    -0.268 OA
ATOM     14  N   UNL A   1      29.502  28.812  21.989  1.00  0.00    -0.348 N 
ATOM     15  H   UNL A   1      29.146  28.632  21.089  1.00  0.00     0.163 HD
BRANCH  14  16
ATOM     16  C   UNL A   1      29.091  30.071  22.599  1.00  0.00     0.086 C 
ATOM     17  C   UNL A   1      27.693  30.065  23.216  1.00  0.00     0.053 C 
ATOM     18  C   UNL A   1      29.235  31.257  21.642  1.00  0.00     0.053 C 
ATOM     19  C   UNL A   1      27.408  31.424  23.850  1.00  0.00     0.162 C 
ATOM     20  C   UNL A   1      28.881  32.547  22.375  1.00  0.00     0.162 C 
ATOM     21  O   UNL A   1      27.552  32.471  22.895  1.00  0.00    -0.381 OA
ENDBRANCH  14  16
ENDBRANCH  11  12
ENDBRANCH   8  11
ENDBRANCH   6   8
BRANCH   6  22
ATOM     22  C   UNL A   1      33.828  27.639  25.997  1.00  0.00     0.453 C 
ATOM     23  F   UNL A   1      34.286  26.370  25.942  1.00  0.00    -0.164 F 
ATOM     24  F   UNL A   1      34.391  28.295  24.944  1.00  0.00    -0.164 F 
ATOM     25  F   UNL A   1      34.332  28.210  27.110  1.00  0.00    -0.164 F 
ENDBRANCH   6  22
ENDBRANCH   3   6
ENDBRANCH   1   2
BRANCH   1  26
ATOM     26  C   UNL A   1      31.401  32.246  26.799  1.00  0.00     0.042 C 
BRANCH  26  27
ATOM     27  C   UNL A   1      32.690  32.946  27.232  1.00  0.00     0.118 C 
BRANCH  27  28
ATOM     28  N   UNL A   1      32.456  34.320  27.646  1.00  0.00    -0.352 N 
ATOM     29  C   UNL A   1      33.025  35.028  28.676  1.00  0.00     0.251 C 
ATOM     30  H   UNL A   1      31.794  34.814  27.110  1.00  0.00     0.163 HD
ATOM     31  O   UNL A   1      32.549  36.106  29.012  1.00  0.00    -0.269 OA
BRANCH  29  32
ATOM     32  C   UNL A   1      34.196  34.483  29.397  1.00  0.00     0.039 A 
ATOM     33  C   UNL A   1      33.992  33.842  30.621  1.00  0.00     0.014 A 
ATOM     34  C   UNL A   1      35.489  34.616  28.884  1.00  0.00     0.014 A 
ATOM     35  C   UNL A   1      35.076  33.283  31.301  1.00  0.00     0.010 A 
ATOM     36  C   UNL A   1      36.559  33.994  29.525  1.00  0.00     0.010 A 
ATOM     37  C   UNL A   1      36.364  33.321  30.742  1.00  0.00    -0.014 A 
BRANCH  37  38
ATOM     38  C   UNL A   1      37.511  32.655  31.413  1.00  0.00     0.031 A 
ATOM     39  C   UNL A   1      38.214  31.498  30.756  1.00  0.00     0.074 A 
ATOM     40  C   UNL A   1      37.887  33.057  32.642  1.00  0.00     0.049 A 
ATOM     41  N   UNL A   1      39.195  30.759  31.209  1.00  0.00    -0.248 NA
ATOM     42  C   UNL A   1      37.735  31.105  29.422  1.00  0.00     0.031 C 
ATOM     43  C   UNL A   1      37.261  34.137  33.406  1.00  0.00     0.029 A 
ATOM     44  N   UNL A   1      38.881  32.598  33.472  1.00  0.00    -0.354 N 
ATOM     45  C   UNL A   1      39.443  29.811  30.224  1.00  0.00     0.074 A 
ATOM     46  C   UNL A   1      38.473  30.033  29.173  1.00  0.00     0.031 C 
ATOM     47  C   UNL A   1      37.898  34.273  34.580  1.00  0.00     0.029 A 
ATOM     48  C   UNL A   1      38.949  33.264  34.672  1.00  0.00     0.049 A 
ATOM     49  H   UNL A   1      39.487  31.861  33.230  1.00  0.00     0.167 HD
ATOM     50  C   UNL A   1      40.405  28.858  30.190  1.00  0.00     0.037 A 
ATOM     51  C   UNL A   1      39.759  33.077  35.732  1.00  0.00     0.037 A 
ATOM     52  C   UNL A   1      41.379  28.648  31.230  1.00  0.00     0.049 A 
ATOM     53  C   UNL A   1      40.805  31.996  35.676  1.00  0.00     0.074 A 
ATOM     54  C   UNL A   1      42.426  27.745  31.263  1.00  0.00     0.029 A 
ATOM     55  N   UNL A   1      41.419  29.348  32.428  1.00  0.00    -0.354 N 
ATOM     56  N   UNL A   1      41.074  31.153  34.709  1.00  0.00    -0.248 NA
ATOM     57  C   UNL A   1      41.665  31.846  36.857  1.00  0.00     0.031 C 
ATOM     58  C   UNL A   1      43.065  27.857  32.501  1.00  0.00     0.029 A 
ATOM     59  C   UNL A   1      42.456  28.876  33.216  1.00  0.00     0.049 A 
ATOM     60  H   UNL A   1      40.802  30.073  32.680  1.00  0.00     0.167 HD
ATOM     61  C   UNL A   1      42.151  30.396  35.151  1.00  0.00     0.074 A 
ATOM     62  C   UNL A   1      42.496  30.891  36.466  1.00  0.00     0.031 C 
ATOM     63  C   UNL A   1      42.797  29.382  34.523  1.00  0.00     0.037 A 
BRANCH  50  64
ATOM     64  C   UNL A   1      40.453  27.961  28.983  1.00  0.00     0.064 A 
ATOM     65  C   UNL A   1      39.722  26.766  28.923  1.00  0.00     0.173 A 
ATOM     66  C   UNL A   1      41.207  28.325  27.857  1.00  0.00     0.173 A 
ATOM     67  F   UNL A   1      38.991  26.365  29.975  1.00  0.00    -0.203 F 
ATOM     68  C   UNL A   1      39.769  25.951  27.794  1.00  0.00     0.198 A 
ATOM     69  C   UNL A   1      41.224  27.526  26.716  1.00  0.00     0.198 A 
ATOM     70  F   UNL A   1      41.919  29.462  27.856  1.00  0.00    -0.203 F 
ATOM     71  F   UNL A   1      39.104  24.788  27.780  1.00  0.00    -0.200 F 
ATOM     72  C   UNL A   1      40.513  26.336  26.689  1.00  0.00     0.200 A 
ATOM     73  F   UNL A   1      41.931  27.908  25.643  1.00  0.00    -0.200 F 
ATOM     74  F   UNL A   1      40.549  25.557  25.599  1.00  0.00    -0.200 F 
ENDBRANCH  50  64
BRANCH  51  75
ATOM     75  C   UNL A   1      39.626  33.944  36.932  1.00  0.00     0.064 A 
ATOM     76  C   UNL A   1      38.851  33.545  38.029  1.00  0.00     0.173 A 
ATOM     77  C   UNL A   1      40.260  35.194  37.003  1.00  0.00     0.173 A 
ATOM     78  F   UNL A   1      38.207  32.368  38.000  1.00  0.00    -0.203 F 
ATOM     79  C   UNL A   1      38.694  34.372  39.140  1.00  0.00     0.198 A 
ATOM     80  C   UNL A   1      40.129  36.005  38.128  1.00  0.00     0.198 A 
ATOM     81  F   UNL A   1      41.019  35.621  35.983  1.00  0.00    -0.203 F 
ATOM     82  F   UNL A   1      37.904  33.986  40.152  1.00  0.00    -0.200 F 
ATOM     83  C   UNL A   1      39.338  35.598  39.191  1.00  0.00     0.200 A 
ATOM     84  F   UNL A   1      40.768  37.182  38.180  1.00  0.00    -0.200 F 
ATOM     85  F   UNL A   1      39.190  36.391  40.261  1.00  0.00    -0.200 F 
ENDBRANCH  51  75
BRANCH  63  86
ATOM     86  C   UNL A   1      43.970  28.766  35.231  1.00  0.00     0.064 A 
ATOM     87  C   UNL A   1      43.822  27.668  36.092  1.00  0.00     0.173 A 
ATOM     88  C   UNL A   1      45.266  29.262  35.018  1.00  0.00     0.173 A 
ATOM     89  F   UNL A   1      42.604  27.165  36.342  1.00  0.00    -0.203 F 
ATOM     90  C   UNL A   1      44.923  27.109  36.736  1.00  0.00     0.198 A 
ATOM     91  C   UNL A   1      46.368  28.679  35.636  1.00  0.00     0.198 A 
ATOM     92  F   UNL A   1      45.465  30.306  34.199  1.00  0.00    -0.203 F 
ATOM     93  F   UNL A   1      44.751  26.097  37.596  1.00  0.00    -0.200 F 
ATOM     94  C   UNL A   1      46.196  27.610  36.502  1.00  0.00     0.200 A 
ATOM     95  F   UNL A   1      47.598  29.154  35.396  1.00  0.00    -0.200 F 
ATOM     96  F   UNL A   1      47.255  27.066  37.117  1.00  0.00    -0.200 F 
ENDBRANCH  63  86
ENDBRANCH  37  38
ENDBRANCH  29  32
ENDBRANCH  27  28
ENDBRANCH  26  27
ENDBRANCH   1  26
TORSDOF 15
ENDMDL
MODEL 2
REMARK VINA RESULT:     -12.0      6.655     11.832
REMARK SMILES C[C@@]([NH2+]CC(=O)NC1CCOCC1)(C(=O)NCCCNC(=O)c1ccc(-c2c3nc(c(-c4c(F)c(F)c(F)c(F)c4F)c4ccc([nH]4)c(-c4c(F)c(F)c(F)c(F)c4F)c4nc(c(-c5c(F)c(F)c(F)c(F)c5F)c5ccc2[nH]5)C=C4)C=C3)cc1)C(F)(F)F
REMARK SMILES IDX 17 1 16 2 14 3 15 4 2 6 1 7 3 8 4 11 5 12 6 13 7 14 8 16
REMARK SMILES IDX 9 17 13 18 10 19 12 20 11 21 86 22 87 23 88 24 89 25 18 26
REMARK SMILES IDX 19 27 20 28 21 29 22 31 23 32 24 33 85 34 25 35 84 36 26 37
REMARK SMILES IDX 27 38 28 39 78 40 29 41 83 42 77 43 79 44 30 45 82 46 76 47
REMARK SMILES IDX 75 48 31 50 63 51 43 52 62 53 44 54 47 55 61 56 80 57 45 58
REMARK SMILES IDX 46 59 60 61 81 62 48 63 32 64 33 65 41 66 34 67 35 68 39 69
REMARK SMILES IDX 42 70 36 71 37 72 40 73 38 74 64 75 65 76 73 77 66 78 67 79
REMARK SMILES IDX 71 80 74 81 68 82 69 83 72 84 70 85 49 86 50 87 58 88 51 89
REMARK SMILES IDX 52 90 56 91 59 92 53 93 54 94 57 95 55 96
REMARK H PARENT 16 5 3 9 3 10 7 15 20 30 79 49 47 60
REMARK Flexibility Score: inf
ROOT
ATOM      1  C   UNL A   1      36.846  20.562  25.009  1.00  0.00     0.118 C 
ENDROOT
BRANCH   1   2
ATOM      2  N   UNL A   1      37.151  21.761  24.246  1.00  0.00    -0.350 N 
ATOM      3  C   UNL A   1      36.343  22.742  23.751  1.00  0.00     0.290 C 
ATOM      4  O   UNL A   1      36.796  23.327  22.762  1.00  0.00    -0.267 OA
ATOM      5  H   UNL A   1      38.109  21.886  24.051  1.00  0.00     0.163 HD
BRANCH   3   6
ATOM      6  C   UNL A   1      34.987  23.112  24.381  1.00  0.00     0.268 C 
ATOM      7  C   UNL A   1      34.107  23.677  23.246  1.00  0.00     0.101 C 
BRANCH   6   8
ATOM      8  N   UNL A   1      34.264  21.922  24.971  1.00  0.00    -0.318 N 
ATOM      9  H   UNL A   1      33.725  22.264  25.767  1.00  0.00     0.347 HD
ATOM     10  H   UNL A   1      35.010  21.258  25.180  1.00  0.00     0.347 HD
BRANCH   8  11
ATOM     11  C   UNL A   1      33.332  21.156  24.112  1.00  0.00     0.362 C 
BRANCH  11  12
ATOM     12  C   UNL A   1      32.153  20.482  24.819  1.00  0.00     0.275 C 
ATOM     13  O   UNL A   1      31.282  21.158  25.370  1.00  0.00    -0.268 OA
ATOM     14  N   UNL A   1      32.027  19.116  24.810  1.00  0.00    -0.348 N 
ATOM     15  H   UNL A   1      31.117  18.767  24.948  1.00  0.00     0.163 HD
BRANCH  14  16
ATOM     16  C   UNL A   1      33.072  18.118  24.620  1.00  0.00     0.086 C 
ATOM     17  C   UNL A   1      33.204  17.581  23.195  1.00  0.00     0.053 C 
ATOM     18  C   UNL A   1      32.955  16.954  25.607  1.00  0.00     0.053 C 
ATOM     19  C   UNL A   1      34.354  16.580  23.130  1.00  0.00     0.162 C 
ATOM     20  C   UNL A   1      34.131  16.003  25.415  1.00  0.00     0.162 C 
ATOM     21  O   UNL A   1      34.165  15.525  24.068  1.00  0.00    -0.381 OA
ENDBRANCH  14  16
ENDBRANCH  11  12
ENDBRANCH   8  11
ENDBRANCH   6   8
BRANCH   6  22
ATOM     22  C   UNL A   1      35.207  24.301  25.368  1.00  0.00     0.453 C 
ATOM     23  F   UNL A   1      34.780  25.486  24.882  1.00  0.00    -0.164 F 
ATOM     24  F   UNL A   1      34.498  24.078  26.510  1.00  0.00    -0.164 F 
ATOM     25  F   UNL A   1      36.493  24.450  25.744  1.00  0.00    -0.164 F 
ENDBRANCH   6  22
ENDBRANCH   3   6
ENDBRANCH   1   2
BRANCH   1  26
ATOM     26  C   UNL A   1      38.057  19.632  24.954  1.00  0.00     0.042 C 
BRANCH  26  27
ATOM     27  C   UNL A   1      39.212  20.107  25.837  1.00  0.00     0.118 C 
BRANCH  27  28
ATOM     28  N   UNL A   1      40.252  19.099  25.970  1.00  0.00    -0.352 N 
ATOM     29  C   UNL A   1      41.607  19.261  26.127  1.00  0.00     0.251 C 
ATOM     30  H   UNL A   1      39.940  18.166  25.941  1.00  0.00     0.163 HD
ATOM     31  O   UNL A   1      42.356  18.300  26.004  1.00  0.00    -0.269 OA
BRANCH  29  32
ATOM     32  C   UNL A   1      42.167  20.598  26.424  1.00  0.00     0.039 A 
ATOM     33  C   UNL A   1      42.582  21.403  25.360  1.00  0.00     0.014 A 
ATOM     34  C   UNL A   1      42.302  21.052  27.739  1.00  0.00     0.014 A 
ATOM     35  C   UNL A   1      43.076  22.685  25.610  1.00  0.00     0.010 A 
ATOM     36  C   UNL A   1      42.725  22.358  27.983  1.00  0.00     0.010 A 
ATOM     37  C   UNL A   1      43.118  23.188  26.922  1.00  0.00    -0.014 A 
BRANCH  37  38
ATOM     38  C   UNL A   1      43.560  24.581  27.194  1.00  0.00     0.031 A 
ATOM     39  C   UNL A   1      42.578  25.613  27.679  1.00  0.00     0.074 A 
ATOM     40  C   UNL A   1      44.838  24.933  26.952  1.00  0.00     0.049 A 
ATOM     41  N   UNL A   1      42.766  26.887  27.918  1.00  0.00    -0.248 NA
ATOM     42  C   UNL A   1      41.198  25.158  27.903  1.00  0.00     0.031 C 
ATOM     43  C   UNL A   1      45.877  24.038  26.441  1.00  0.00     0.029 A 
ATOM     44  N   UNL A   1      45.479  26.139  27.095  1.00  0.00    -0.354 N 
ATOM     45  C   UNL A   1      41.529  27.385  28.309  1.00  0.00     0.074 A 
ATOM     46  C   UNL A   1      40.587  26.290  28.222  1.00  0.00     0.031 C 
ATOM     47  C   UNL A   1      47.030  24.718  26.334  1.00  0.00     0.029 A 
ATOM     48  C   UNL A   1      46.803  26.106  26.728  1.00  0.00     0.049 A 
ATOM     49  H   UNL A   1      45.033  26.950  27.428  1.00  0.00     0.167 HD
ATOM     50  C   UNL A   1      41.214  28.636  28.723  1.00  0.00     0.037 A 
ATOM     51  C   UNL A   1      47.728  27.085  26.701  1.00  0.00     0.037 A 
ATOM     52  C   UNL A   1      42.156  29.721  28.824  1.00  0.00     0.049 A 
ATOM     53  C   UNL A   1      47.345  28.471  27.146  1.00  0.00     0.074 A 
ATOM     54  C   UNL A   1      41.945  31.008  29.285  1.00  0.00     0.029 A 
ATOM     55  N   UNL A   1      43.490  29.646  28.449  1.00  0.00    -0.354 N 
ATOM     56  N   UNL A   1      46.189  28.912  27.581  1.00  0.00    -0.248 NA
ATOM     57  C   UNL A   1      48.398  29.494  27.104  1.00  0.00     0.031 C 
ATOM     58  C   UNL A   1      43.133  31.729  29.136  1.00  0.00     0.029 A 
ATOM     59  C   UNL A   1      44.105  30.873  28.643  1.00  0.00     0.049 A 
ATOM     60  H   UNL A   1      43.934  28.841  28.098  1.00  0.00     0.167 HD
ATOM     61  C   UNL A   1      46.384  30.251  27.892  1.00  0.00     0.074 A 
ATOM     62  C   UNL A   1      47.773  30.546  27.613  1.00  0.00     0.031 C 
ATOM     63  C   UNL A   1      45.492  31.154  28.368  1.00  0.00     0.037 A 
BRANCH  50  64
ATOM     64  C   UNL A   1      39.783  28.903  29.101  1.00  0.00     0.064 A 
ATOM     65  C   UNL A   1      39.324  28.736  30.416  1.00  0.00     0.173 A 
ATOM     66  C   UNL A   1      38.870  29.374  28.145  1.00  0.00     0.173 A 
ATOM     67  F   UNL A   1      40.151  28.279  31.369  1.00  0.00    -0.203 F 
ATOM     68  C   UNL A   1      37.998  28.998  30.753  1.00  0.00     0.198 A 
ATOM     69  C   UNL A   1      37.554  29.669  28.492  1.00  0.00     0.198 A 
ATOM     70  F   UNL A   1      39.257  29.562  26.874  1.00  0.00    -0.203 F 
ATOM     71  F   UNL A   1      37.570  28.779  32.004  1.00  0.00    -0.200 F 
ATOM     72  C   UNL A   1      37.117  29.472  29.793  1.00  0.00     0.200 A 
ATOM     73  F   UNL A   1      36.708  30.142  27.566  1.00  0.00    -0.200 F 
ATOM     74  F   UNL A   1      35.844  29.733  30.120  1.00  0.00    -0.200 F 
ENDBRANCH  50  64
BRANCH  51  75
ATOM     75  C   UNL A   1      49.113  26.787  26.252  1.00  0.00     0.064 A 
ATOM     76  C   UNL A   1      49.495  26.973  24.916  1.00  0.00     0.173 A 
ATOM     77  C   UNL A   1      50.081  26.299  27.144  1.00  0.00     0.173 A 
ATOM     78  F   UNL A   1      48.601  27.417  24.020  1.00  0.00    -0.203 F 
ATOM     79  C   UNL A   1      50.782  26.659  24.484  1.00  0.00     0.198 A 
ATOM     80  C   UNL A   1      51.376  26.018  26.717  1.00  0.00     0.198 A 
ATOM     81  F   UNL A   1      49.769  26.109  28.435  1.00  0.00    -0.203 F 
ATOM     82  F   UNL A   1      51.104  26.797  23.190  1.00  0.00    -0.200 F 
ATOM     83  C   UNL A   1      51.724  26.188  25.386  1.00  0.00     0.200 A 
ATOM     84  F   UNL A   1      52.288  25.578  27.596  1.00  0.00    -0.200 F 
ATOM     85  F   UNL A   1      52.962  25.890  24.971  1.00  0.00    -0.200 F 
ENDBRANCH  51  75
BRANCH  63  86
ATOM     86  C   UNL A   1      45.999  32.539  28.658  1.00  0.00     0.064 A 
ATOM     87  C   UNL A   1      46.551  32.879  29.902  1.00  0.00     0.173 A 
ATOM     88  C   UNL A   1      45.959  33.530  27.666  1.00  0.00     0.173 A 
ATOM     89  F   UNL A   1      46.600  31.974  30.891  1.00  0.00    -0.203 F 
ATOM     90  C   UNL A   1      47.019  34.168  30.150  1.00  0.00     0.198 A 
ATOM     91  C   UNL A   1      46.458  34.807  27.905  1.00  0.00     0.198 A 
ATOM     92  F   UNL A   1      45.447  33.256  26.456  1.00  0.00    -0.203 F 
ATOM     93  F   UNL A   1      47.492  34.485  31.363  1.00  0.00    -0.200 F 
ATOM     94  C   UNL A   1      46.979  35.128  29.150  1.00  0.00     0.200 A 
ATOM     95  F   UNL A   1      46.434  35.728  26.932  1.00  0.00    -0.200 F 
ATOM     96  F   UNL A   1      47.435  36.365  29.388  1.00  0.00    -0.200 F 
ENDBRANCH  63  86
ENDBRANCH  37  38
ENDBRANCH  29  32
ENDBRANCH  27  28
ENDBRANCH  26  27
ENDBRANCH   1  26
TORSDOF 15
ENDMDL
MODEL 3
REMARK VINA RESULT:     -11.9      6.029     11.220
REMARK SMILES C[C@@]([NH2+]CC(=O)NC1CCOCC1)(C(=O)NCCCNC(=O)c1ccc(-c2c3nc(c(-c4c(F)c(F)c(F)c(F)c4F)c4ccc([nH]4)c(-c4c(F)c(F)c(F)c(F)c4F)c4nc(c(-c5c(F)c(F)c(F)c(F)c5F)c5ccc2[nH]5)C=C4)C=C3)cc1)C(F)(F)F
REMARK SMILES IDX 17 1 16 2 14 3 15 4 2 6 1 7 3 8 4 11 5 12 6 13 7 14 8 16
REMARK SMILES IDX 9 17 13 18 10 19 12 20 11 21 86 22 87 23 88 24 89 25 18 26
REMARK SMILES IDX 19 27 20 28 21 29 22 31 23 32 24 33 85 34 25 35 84 36 26 37
REMARK SMILES IDX 27 38 28 39 78 40 29 41 83 42 77 43 79 44 30 45 82 46 76 47
REMARK SMILES IDX 75 48 31 50 63 51 43 52 62 53 44 54 47 55 61 56 80 57 45 58
REMARK SMILES IDX 46 59 60 61 81 62 48 63 32 64 33 65 41 66 34 67 35 68 39 69
REMARK SMILES IDX 42 70 36 71 37 72 40 73 38 74 64 75 65 76 73 77 66 78 67 79
REMARK SMILES IDX 71 80 74 81 68 82 69 83 72 84 70 85 49 86 50 87 58 88 51 89
REMARK SMILES IDX 52 90 56 91 59 92 53 93 54 94 57 95 55 96
REMARK H PARENT 16 5 3 9 3 10 7 15 20 30 79 49 47 60
REMARK Flexibility Score: inf
ROOT
ATOM      1  C   UNL A   1      36.751  20.545  25.053  1.00  0.00     0.118 C 
ENDROOT
BRANCH   1   2
ATOM      2  N   UNL A   1      37.058  21.688  24.209  1.00  0.00    -0.350 N 
ATOM      3  C   UNL A   1      36.261  22.672  23.702  1.00  0.00     0.290 C 
ATOM      4  O   UNL A   1      36.683  23.184  22.660  1.00  0.00    -0.267 OA
ATOM      5  H   UNL A   1      38.008  21.766  23.960  1.00  0.00     0.163 HD
BRANCH   3   6
ATOM      6  C   UNL A   1      34.954  23.127  24.376  1.00  0.00     0.268 C 
ATOM      7  C   UNL A   1      34.385  24.276  23.518  1.00  0.00     0.101 C 
BRANCH   6   8
ATOM      8  N   UNL A   1      33.906  22.037  24.434  1.00  0.00    -0.318 N 
ATOM      9  H   UNL A   1      33.900  21.678  25.388  1.00  0.00     0.347 HD
ATOM     10  H   UNL A   1      34.191  21.382  23.705  1.00  0.00     0.347 HD
BRANCH   8  11
ATOM     11  C   UNL A   1      32.507  22.374  24.086  1.00  0.00     0.362 C 
BRANCH  11  12
ATOM     12  C   UNL A   1      31.522  22.478  25.254  1.00  0.00     0.275 C 
ATOM     13  O   UNL A   1      31.028  21.464  25.751  1.00  0.00    -0.268 OA
ATOM     14  N   UNL A   1      31.211  23.701  25.793  1.00  0.00    -0.348 N 
ATOM     15  H   UNL A   1      30.883  23.692  26.721  1.00  0.00     0.163 HD
BRANCH  14  16
ATOM     16  C   UNL A   1      31.307  25.012  25.162  1.00  0.00     0.086 C 
ATOM     17  C   UNL A   1      31.255  26.198  26.124  1.00  0.00     0.053 C 
ATOM     18  C   UNL A   1      30.278  25.199  24.045  1.00  0.00     0.053 C 
ATOM     19  C   UNL A   1      31.405  27.499  25.339  1.00  0.00     0.162 C 
ATOM     20  C   UNL A   1      30.500  26.549  23.369  1.00  0.00     0.162 C 
ATOM     21  O   UNL A   1      30.406  27.603  24.329  1.00  0.00    -0.381 OA
ENDBRANCH  14  16
ENDBRANCH  11  12
ENDBRANCH   8  11
ENDBRANCH   6   8
BRANCH   6  22
ATOM     22  C   UNL A   1      35.305  23.771  25.754  1.00  0.00     0.453 C 
ATOM     23  F   UNL A   1      36.570  24.237  25.820  1.00  0.00    -0.164 F 
ATOM     24  F   UNL A   1      34.491  24.841  25.975  1.00  0.00    -0.164 F 
ATOM     25  F   UNL A   1      35.120  22.935  26.795  1.00  0.00    -0.164 F 
ENDBRANCH   6  22
ENDBRANCH   3   6
ENDBRANCH   1   2
BRANCH   1  26
ATOM     26  C   UNL A   1      37.929  19.575  25.001  1.00  0.00     0.042 C 
BRANCH  26  27
ATOM     27  C   UNL A   1      39.154  20.084  25.762  1.00  0.00     0.118 C 
BRANCH  27  28
ATOM     28  N   UNL A   1      40.191  19.071  25.876  1.00  0.00    -0.352 N 
ATOM     29  C   UNL A   1      41.548  19.226  26.024  1.00  0.00     0.251 C 
ATOM     30  H   UNL A   1      39.875  18.140  25.841  1.00  0.00     0.163 HD
ATOM     31  O   UNL A   1      42.291  18.263  25.885  1.00  0.00    -0.269 OA
BRANCH  29  32
ATOM     32  C   UNL A   1      42.116  20.558  26.328  1.00  0.00     0.039 A 
ATOM     33  C   UNL A   1      42.519  21.374  25.268  1.00  0.00     0.014 A 
ATOM     34  C   UNL A   1      42.270  20.996  27.646  1.00  0.00     0.014 A 
ATOM     35  C   UNL A   1      43.020  22.651  25.526  1.00  0.00     0.010 A 
ATOM     36  C   UNL A   1      42.700  22.298  27.900  1.00  0.00     0.010 A 
ATOM     37  C   UNL A   1      43.081  23.139  26.843  1.00  0.00    -0.014 A 
BRANCH  37  38
ATOM     38  C   UNL A   1      43.531  24.528  27.125  1.00  0.00     0.031 A 
ATOM     39  C   UNL A   1      42.564  25.551  27.655  1.00  0.00     0.074 A 
ATOM     40  C   UNL A   1      44.801  24.884  26.852  1.00  0.00     0.049 A 
ATOM     41  N   UNL A   1      42.759  26.821  27.910  1.00  0.00    -0.248 NA
ATOM     42  C   UNL A   1      41.191  25.093  27.911  1.00  0.00     0.031 C 
ATOM     43  C   UNL A   1      45.826  23.998  26.296  1.00  0.00     0.029 A 
ATOM     44  N   UNL A   1      45.447  26.088  26.995  1.00  0.00    -0.354 N 
ATOM     45  C   UNL A   1      41.534  27.312  28.344  1.00  0.00     0.074 A 
ATOM     46  C   UNL A   1      40.590  26.219  28.267  1.00  0.00     0.031 C 
ATOM     47  C   UNL A   1      46.975  24.680  26.166  1.00  0.00     0.029 A 
ATOM     48  C   UNL A   1      46.759  26.061  26.590  1.00  0.00     0.049 A 
ATOM     49  H   UNL A   1      45.011  26.893  27.355  1.00  0.00     0.167 HD
ATOM     50  C   UNL A   1      41.231  28.556  28.788  1.00  0.00     0.037 A 
ATOM     51  C   UNL A   1      47.683  27.041  26.552  1.00  0.00     0.037 A 
ATOM     52  C   UNL A   1      42.176  29.639  28.879  1.00  0.00     0.049 A 
ATOM     53  C   UNL A   1      47.313  28.419  27.031  1.00  0.00     0.074 A 
ATOM     54  C   UNL A   1      41.978  30.919  29.368  1.00  0.00     0.029 A 
ATOM     55  N   UNL A   1      43.499  29.572  28.465  1.00  0.00    -0.354 N 
ATOM     56  N   UNL A   1      46.171  28.852  27.506  1.00  0.00    -0.248 NA
ATOM     57  C   UNL A   1      48.365  29.443  26.975  1.00  0.00     0.031 C 
ATOM     58  C   UNL A   1      43.162  31.642  29.196  1.00  0.00     0.029 A 
ATOM     59  C   UNL A   1      44.119  30.795  28.661  1.00  0.00     0.049 A 
ATOM     60  H   UNL A   1      43.932  28.772  28.087  1.00  0.00     0.167 HD
ATOM     61  C   UNL A   1      46.375  30.186  27.834  1.00  0.00     0.074 A 
ATOM     62  C   UNL A   1      47.756  30.486  27.520  1.00  0.00     0.031 C 
ATOM     63  C   UNL A   1      45.498  31.081  28.350  1.00  0.00     0.037 A 
BRANCH  50  64
ATOM     64  C   UNL A   1      39.812  28.817  29.212  1.00  0.00     0.064 A 
ATOM     65  C   UNL A   1      39.388  28.617  30.534  1.00  0.00     0.173 A 
ATOM     66  C   UNL A   1      38.874  29.314  28.293  1.00  0.00     0.173 A 
ATOM     67  F   UNL A   1      40.241  28.134  31.452  1.00  0.00    -0.203 F 
ATOM     68  C   UNL A   1      38.073  28.873  30.914  1.00  0.00     0.198 A 
ATOM     69  C   UNL A   1      37.569  29.602  28.684  1.00  0.00     0.198 A 
ATOM     70  F   UNL A   1      39.227  29.532  27.017  1.00  0.00    -0.203 F 
ATOM     71  F   UNL A   1      37.679  28.623  32.170  1.00  0.00    -0.200 F 
ATOM     72  C   UNL A   1      37.167  29.373  29.991  1.00  0.00     0.200 A 
ATOM     73  F   UNL A   1      36.700  30.100  27.794  1.00  0.00    -0.200 F 
ATOM     74  F   UNL A   1      35.904  29.628  30.359  1.00  0.00    -0.200 F 
ENDBRANCH  50  64
BRANCH  51  75
ATOM     75  C   UNL A   1      49.055  26.750  26.058  1.00  0.00     0.064 A 
ATOM     76  C   UNL A   1      49.413  27.008  24.728  1.00  0.00     0.173 A 
ATOM     77  C   UNL A   1      50.033  26.199  26.900  1.00  0.00     0.173 A 
ATOM     78  F   UNL A   1      48.507  27.515  23.878  1.00  0.00    -0.203 F 
ATOM     79  C   UNL A   1      50.687  26.703  24.252  1.00  0.00     0.198 A 
ATOM     80  C   UNL A   1      51.315  25.925  26.432  1.00  0.00     0.198 A 
ATOM     81  F   UNL A   1      49.745  25.939  28.184  1.00  0.00    -0.203 F 
ATOM     82  F   UNL A   1      50.984  26.911  22.961  1.00  0.00    -0.200 F 
ATOM     83  C   UNL A   1      51.639  26.167  25.106  1.00  0.00     0.200 A 
ATOM     84  F   UNL A   1      52.238  25.423  27.265  1.00  0.00    -0.200 F 
ATOM     85  F   UNL A   1      52.865  25.877  24.648  1.00  0.00    -0.200 F 
ENDBRANCH  51  75
BRANCH  63  86
ATOM     86  C   UNL A   1      46.013  32.461  28.649  1.00  0.00     0.064 A 
ATOM     87  C   UNL A   1      45.930  33.501  27.710  1.00  0.00     0.173 A 
ATOM     88  C   UNL A   1      46.568  32.754  29.904  1.00  0.00     0.173 A 
ATOM     89  F   UNL A   1      45.421  33.271  26.490  1.00  0.00    -0.203 F 
ATOM     90  C   UNL A   1      46.410  34.774  28.007  1.00  0.00     0.198 A 
ATOM     91  C   UNL A   1      47.015  34.036  30.210  1.00  0.00     0.198 A 
ATOM     92  F   UNL A   1      46.665  31.798  30.841  1.00  0.00    -0.203 F 
ATOM     93  F   UNL A   1      46.370  35.737  27.077  1.00  0.00    -0.200 F 
ATOM     94  C   UNL A   1      46.945  35.043  29.259  1.00  0.00     0.200 A 
ATOM     95  F   UNL A   1      47.517  34.297  31.425  1.00  0.00    -0.200 F 
ATOM     96  F   UNL A   1      47.400  36.270  29.545  1.00  0.00    -0.200 F 
ENDBRANCH  63  86
ENDBRANCH  37  38
ENDBRANCH  29  32
ENDBRANCH  27  28
ENDBRANCH  26  27
ENDBRANCH   1  26
TORSDOF 15
ENDMDL
