MODEL 1
REMARK VINA RESULT:     -11.4      0.000      0.000
REMARK SMILES O=C(CN(CC(F)(F)F)C(=O)[C@H]1C[C@H]2CC[C@@H]1[NH2+]2)NCCCNC(=O)c1ccc(-c2c3nc(c(-c4c(F)c(F)c(F)c(F)c4F)c4ccc([nH]4)c(-c4c(F)c(F)c(F)c(F)c4F)c4nc(c(-c5c(F)c(F)c(F)c(F)c5F)c5ccc2[nH]5)C=C4)C=C3)cc1
REMARK SMILES IDX 20 1 19 2 1 3 2 4 3 6 4 7 5 8 6 9 7 10 8 11 9 12 10 13 11 14
REMARK SMILES IDX 12 15 13 16 17 17 14 18 16 19 18 20 15 21 21 24 22 25 23 26
REMARK SMILES IDX 24 27 25 29 26 30 27 31 88 32 28 33 87 34 29 35 30 36 31 37
REMARK SMILES IDX 81 38 32 39 86 40 80 41 82 42 33 43 85 44 79 45 78 46 34 48
REMARK SMILES IDX 66 49 46 50 65 51 47 52 50 53 64 54 83 55 48 56 49 57 63 59
REMARK SMILES IDX 84 60 51 61 35 62 36 63 44 64 37 65 38 66 42 67 45 68 39 69
REMARK SMILES IDX 40 70 43 71 41 72 67 73 68 74 76 75 69 76 70 77 74 78 77 79
REMARK SMILES IDX 71 80 72 81 75 82 73 83 52 84 53 85 61 86 54 87 55 88 59 89
REMARK SMILES IDX 62 90 56 91 57 92 60 93 58 94
REMARK H PARENT 19 5 18 22 18 23 23 28 82 47 50 58
REMARK Flexibility Score: inf
ROOT
ATOM      1  C   UNL A   1      36.895  20.495  24.660  1.00  0.00     0.117 C 
ENDROOT
BRANCH   1   2
ATOM      2  N   UNL A   1      35.670  20.376  25.421  1.00  0.00    -0.354 N 
ATOM      3  O   UNL A   1      35.647  22.544  26.159  1.00  0.00    -0.273 OA
ATOM      4  C   UNL A   1      35.076  21.463  26.027  1.00  0.00     0.239 C 
ATOM      5  H   UNL A   1      35.245  19.491  25.508  1.00  0.00     0.163 HD
BRANCH   4   6
ATOM      6  C   UNL A   1      33.697  21.198  26.655  1.00  0.00     0.219 C 
BRANCH   6   7
ATOM      7  N   UNL A   1      32.553  21.835  25.975  1.00  0.00    -0.324 N 
BRANCH   7   8
ATOM      8  C   UNL A   1      31.844  21.032  24.955  1.00  0.00     0.235 C 
BRANCH   8   9
ATOM      9  C   UNL A   1      32.542  20.890  23.591  1.00  0.00     0.406 C 
ATOM     10  F   UNL A   1      33.474  21.853  23.421  1.00  0.00    -0.169 F 
ATOM     11  F   UNL A   1      33.169  19.697  23.499  1.00  0.00    -0.169 F 
ATOM     12  F   UNL A   1      31.673  20.972  22.560  1.00  0.00    -0.169 F 
ENDBRANCH   8   9
ENDBRANCH   7   8
BRANCH   7  13
ATOM     13  C   UNL A   1      32.194  23.102  26.421  1.00  0.00     0.232 C 
ATOM     14  O   UNL A   1      32.274  23.369  27.621  1.00  0.00    -0.274 OA
BRANCH  13  15
ATOM     15  C   UNL A   1      31.806  24.171  25.409  1.00  0.00     0.142 C 
ATOM     16  C   UNL A   1      31.113  25.422  25.973  1.00  0.00     0.084 C 
ATOM     17  C   UNL A   1      33.013  24.791  24.676  1.00  0.00     0.195 C 
ATOM     18  C   UNL A   1      31.933  26.574  25.387  1.00  0.00     0.183 C 
ATOM     19  C   UNL A   1      34.032  25.474  25.603  1.00  0.00     0.072 C 
ATOM     20  N   UNL A   1      32.342  25.981  24.099  1.00  0.00    -0.341 N 
ATOM     21  C   UNL A   1      33.265  26.688  26.126  1.00  0.00     0.071 C 
ATOM     22  H   UNL A   1      32.982  26.579  23.577  1.00  0.00     0.346 HD
ATOM     23  H   UNL A   1      31.606  25.812  23.413  1.00  0.00     0.346 HD
ENDBRANCH  13  15
ENDBRANCH   7  13
ENDBRANCH   6   7
ENDBRANCH   4   6
ENDBRANCH   1   2
BRANCH   1  24
ATOM     24  C   UNL A   1      37.952  19.446  24.995  1.00  0.00     0.042 C 
BRANCH  24  25
ATOM     25  C   UNL A   1      39.145  19.961  25.796  1.00  0.00     0.118 C 
BRANCH  25  26
ATOM     26  N   UNL A   1      40.247  19.012  25.872  1.00  0.00    -0.352 N 
ATOM     27  C   UNL A   1      41.587  19.201  26.100  1.00  0.00     0.251 C 
ATOM     28  H   UNL A   1      39.987  18.072  25.735  1.00  0.00     0.163 HD
ATOM     29  O   UNL A   1      42.348  18.237  26.011  1.00  0.00    -0.269 OA
BRANCH  27  30
ATOM     30  C   UNL A   1      42.145  20.535  26.426  1.00  0.00     0.039 A 
ATOM     31  C   UNL A   1      42.577  21.349  25.371  1.00  0.00     0.014 A 
ATOM     32  C   UNL A   1      42.292  20.978  27.742  1.00  0.00     0.014 A 
ATOM     33  C   UNL A   1      43.088  22.624  25.631  1.00  0.00     0.010 A 
ATOM     34  C   UNL A   1      42.741  22.275  27.997  1.00  0.00     0.010 A 
ATOM     35  C   UNL A   1      43.139  23.115  26.945  1.00  0.00    -0.014 A 
BRANCH  35  36
ATOM     36  C   UNL A   1      43.585  24.504  27.232  1.00  0.00     0.031 A 
ATOM     37  C   UNL A   1      42.609  25.534  27.730  1.00  0.00     0.074 A 
ATOM     38  C   UNL A   1      44.861  24.858  26.980  1.00  0.00     0.049 A 
ATOM     39  N   UNL A   1      42.795  26.811  27.955  1.00  0.00    -0.248 NA
ATOM     40  C   UNL A   1      41.237  25.073  27.989  1.00  0.00     0.031 C 
ATOM     41  C   UNL A   1      45.897  23.966  26.458  1.00  0.00     0.029 A 
ATOM     42  N   UNL A   1      45.499  26.066  27.113  1.00  0.00    -0.354 N 
ATOM     43  C   UNL A   1      41.564  27.307  28.362  1.00  0.00     0.074 A 
ATOM     44  C   UNL A   1      40.629  26.204  28.316  1.00  0.00     0.031 C 
ATOM     45  C   UNL A   1      47.044  24.653  26.330  1.00  0.00     0.029 A 
ATOM     46  C   UNL A   1      46.815  26.040  26.723  1.00  0.00     0.049 A 
ATOM     47  H   UNL A   1      45.056  26.876  27.457  1.00  0.00     0.167 HD
ATOM     48  C   UNL A   1      41.247  28.564  28.758  1.00  0.00     0.037 A 
ATOM     49  C   UNL A   1      47.734  27.024  26.676  1.00  0.00     0.037 A 
ATOM     50  C   UNL A   1      42.183  29.657  28.831  1.00  0.00     0.049 A 
ATOM     51  C   UNL A   1      47.354  28.411  27.116  1.00  0.00     0.074 A 
ATOM     52  C   UNL A   1      41.968  30.949  29.278  1.00  0.00     0.029 A 
ATOM     53  N   UNL A   1      43.514  29.585  28.446  1.00  0.00    -0.354 N 
ATOM     54  N   UNL A   1      46.203  28.853  27.558  1.00  0.00    -0.248 NA
ATOM     55  C   UNL A   1      48.407  29.435  27.055  1.00  0.00     0.031 C 
ATOM     56  C   UNL A   1      43.157  31.671  29.124  1.00  0.00     0.029 A 
ATOM     57  C   UNL A   1      44.126  30.816  28.625  1.00  0.00     0.049 A 
ATOM     58  H   UNL A   1      43.958  28.778  28.096  1.00  0.00     0.167 HD
ATOM     59  C   UNL A   1      46.398  30.195  27.853  1.00  0.00     0.074 A 
ATOM     60  C   UNL A   1      47.782  30.494  27.553  1.00  0.00     0.031 C 
ATOM     61  C   UNL A   1      45.506  31.098  28.330  1.00  0.00     0.037 A 
BRANCH  48  62
ATOM     62  C   UNL A   1      39.823  28.831  29.149  1.00  0.00     0.064 A 
ATOM     63  C   UNL A   1      39.381  28.674  30.471  1.00  0.00     0.173 A 
ATOM     64  C   UNL A   1      38.897  29.290  28.199  1.00  0.00     0.173 A 
ATOM     65  F   UNL A   1      40.224  28.229  31.416  1.00  0.00    -0.203 F 
ATOM     66  C   UNL A   1      38.060  28.940  30.823  1.00  0.00     0.198 A 
ATOM     67  C   UNL A   1      37.584  29.583  28.560  1.00  0.00     0.198 A 
ATOM     68  F   UNL A   1      39.269  29.464  26.922  1.00  0.00    -0.203 F 
ATOM     69  F   UNL A   1      37.650  28.739  32.083  1.00  0.00    -0.200 F 
ATOM     70  C   UNL A   1      37.165  29.402  29.869  1.00  0.00     0.200 A 
ATOM     71  F   UNL A   1      36.724  30.041  27.639  1.00  0.00    -0.200 F 
ATOM     72  F   UNL A   1      35.897  29.664  30.210  1.00  0.00    -0.200 F 
ENDBRANCH  48  62
BRANCH  49  73
ATOM     73  C   UNL A   1      49.113  26.726  26.211  1.00  0.00     0.064 A 
ATOM     74  C   UNL A   1      50.085  26.249  27.102  1.00  0.00     0.173 A 
ATOM     75  C   UNL A   1      49.491  26.917  24.875  1.00  0.00     0.173 A 
ATOM     76  F   UNL A   1      49.776  26.073  28.396  1.00  0.00    -0.203 F 
ATOM     77  C   UNL A   1      51.386  25.991  26.678  1.00  0.00     0.198 A 
ATOM     78  C   UNL A   1      50.785  26.633  24.445  1.00  0.00     0.198 A 
ATOM     79  F   UNL A   1      48.598  27.370  23.982  1.00  0.00    -0.203 F 
ATOM     80  F   UNL A   1      52.306  25.578  27.561  1.00  0.00    -0.200 F 
ATOM     81  C   UNL A   1      51.734  26.177  25.349  1.00  0.00     0.200 A 
ATOM     82  F   UNL A   1      51.115  26.803  23.158  1.00  0.00    -0.200 F 
ATOM     83  F   UNL A   1      52.986  25.926  24.941  1.00  0.00    -0.200 F 
ENDBRANCH  49  73
BRANCH  61  84
ATOM     84  C   UNL A   1      46.010  32.488  28.592  1.00  0.00     0.064 A 
ATOM     85  C   UNL A   1      46.579  32.846  29.823  1.00  0.00     0.173 A 
ATOM     86  C   UNL A   1      45.954  33.464  27.585  1.00  0.00     0.173 A 
ATOM     87  F   UNL A   1      46.641  31.953  30.823  1.00  0.00    -0.203 F 
ATOM     88  C   UNL A   1      47.054  34.136  30.044  1.00  0.00     0.198 A 
ATOM     89  C   UNL A   1      46.454  34.746  27.800  1.00  0.00     0.198 A 
ATOM     90  F   UNL A   1      45.424  33.171  26.388  1.00  0.00    -0.203 F 
ATOM     91  F   UNL A   1      47.553  34.468  31.243  1.00  0.00    -0.200 F 
ATOM     92  C   UNL A   1      46.998  35.082  29.031  1.00  0.00     0.200 A 
ATOM     93  F   UNL A   1      46.411  35.654  26.817  1.00  0.00    -0.200 F 
ATOM     94  F   UNL A   1      47.460  36.322  29.244  1.00  0.00    -0.200 F 
ENDBRANCH  61  84
ENDBRANCH  35  36
ENDBRANCH  27  30
ENDBRANCH  25  26
ENDBRANCH  24  25
ENDBRANCH   1  24
TORSDOF 15
ENDMDL
MODEL 2
REMARK VINA RESULT:     -11.2      5.899     11.286
REMARK SMILES O=C(CN(CC(F)(F)F)C(=O)[C@H]1C[C@H]2CC[C@@H]1[NH2+]2)NCCCNC(=O)c1ccc(-c2c3nc(c(-c4c(F)c(F)c(F)c(F)c4F)c4ccc([nH]4)c(-c4c(F)c(F)c(F)c(F)c4F)c4nc(c(-c5c(F)c(F)c(F)c(F)c5F)c5ccc2[nH]5)C=C4)C=C3)cc1
REMARK SMILES IDX 20 1 19 2 1 3 2 4 3 6 4 7 5 8 6 9 7 10 8 11 9 12 10 13 11 14
REMARK SMILES IDX 12 15 13 16 17 17 14 18 16 19 18 20 15 21 21 24 22 25 23 26
REMARK SMILES IDX 24 27 25 29 26 30 27 31 88 32 28 33 87 34 29 35 30 36 31 37
REMARK SMILES IDX 81 38 32 39 86 40 80 41 82 42 33 43 85 44 79 45 78 46 34 48
REMARK SMILES IDX 66 49 46 50 65 51 47 52 50 53 64 54 83 55 48 56 49 57 63 59
REMARK SMILES IDX 84 60 51 61 35 62 36 63 44 64 37 65 38 66 42 67 45 68 39 69
REMARK SMILES IDX 40 70 43 71 41 72 67 73 68 74 76 75 69 76 70 77 74 78 77 79
REMARK SMILES IDX 71 80 72 81 75 82 73 83 52 84 53 85 61 86 54 87 55 88 59 89
REMARK SMILES IDX 62 90 56 91 57 92 60 93 58 94
REMARK H PARENT 19 5 18 22 18 23 23 28 82 47 50 58
REMARK Flexibility Score: inf
ROOT
ATOM      1  C   UNL A   1      31.424  30.756  26.488  1.00  0.00     0.117 C 
ENDROOT
BRANCH   1   2
ATOM      2  N   UNL A   1      31.871  30.209  25.224  1.00  0.00    -0.354 N 
ATOM      3  O   UNL A   1      33.685  29.104  26.082  1.00  0.00    -0.273 OA
ATOM      4  C   UNL A   1      32.921  29.318  25.143  1.00  0.00     0.239 C 
ATOM      5  H   UNL A   1      31.410  30.480  24.397  1.00  0.00     0.163 HD
BRANCH   4   6
ATOM      6  C   UNL A   1      33.162  28.708  23.752  1.00  0.00     0.219 C 
BRANCH   6   7
ATOM      7  N   UNL A   1      32.619  27.351  23.548  1.00  0.00    -0.324 N 
BRANCH   7   8
ATOM      8  C   UNL A   1      31.283  27.068  24.116  1.00  0.00     0.235 C 
BRANCH   8   9
ATOM      9  C   UNL A   1      30.075  27.502  23.267  1.00  0.00     0.406 C 
ATOM     10  F   UNL A   1      29.035  26.655  23.435  1.00  0.00    -0.169 F 
ATOM     11  F   UNL A   1      29.656  28.735  23.628  1.00  0.00    -0.169 F 
ATOM     12  F   UNL A   1      30.363  27.541  21.947  1.00  0.00    -0.169 F 
ENDBRANCH   8   9
ENDBRANCH   7   8
BRANCH   7  13
ATOM     13  C   UNL A   1      33.379  26.491  22.763  1.00  0.00     0.232 C 
ATOM     14  O   UNL A   1      33.501  26.717  21.558  1.00  0.00    -0.274 OA
BRANCH  13  15
ATOM     15  C   UNL A   1      34.130  25.342  23.421  1.00  0.00     0.142 C 
ATOM     16  C   UNL A   1      33.937  25.183  24.937  1.00  0.00     0.084 C 
ATOM     17  C   UNL A   1      33.700  23.952  22.908  1.00  0.00     0.195 C 
ATOM     18  C   UNL A   1      33.553  23.708  25.092  1.00  0.00     0.183 C 
ATOM     19  C   UNL A   1      32.213  23.631  23.128  1.00  0.00     0.072 C 
ATOM     20  N   UNL A   1      34.310  23.119  23.971  1.00  0.00    -0.341 N 
ATOM     21  C   UNL A   1      32.107  23.503  24.646  1.00  0.00     0.071 C 
ATOM     22  H   UNL A   1      34.120  22.124  23.849  1.00  0.00     0.346 HD
ATOM     23  H   UNL A   1      35.328  23.130  24.043  1.00  0.00     0.346 HD
ENDBRANCH  13  15
ENDBRANCH   7  13
ENDBRANCH   6   7
ENDBRANCH   4   6
ENDBRANCH   1   2
BRANCH   1  24
ATOM     24  C   UNL A   1      31.386  32.281  26.539  1.00  0.00     0.042 C 
BRANCH  24  25
ATOM     25  C   UNL A   1      32.636  32.941  27.113  1.00  0.00     0.118 C 
BRANCH  25  26
ATOM     26  N   UNL A   1      32.399  34.281  27.634  1.00  0.00    -0.352 N 
ATOM     27  C   UNL A   1      33.022  34.983  28.634  1.00  0.00     0.251 C 
ATOM     28  H   UNL A   1      31.664  34.766  27.193  1.00  0.00     0.163 HD
ATOM     29  O   UNL A   1      32.566  36.078  28.966  1.00  0.00    -0.269 OA
BRANCH  27  30
ATOM     30  C   UNL A   1      34.212  34.453  29.340  1.00  0.00     0.039 A 
ATOM     31  C   UNL A   1      34.022  33.807  30.569  1.00  0.00     0.014 A 
ATOM     32  C   UNL A   1      35.506  34.616  28.843  1.00  0.00     0.014 A 
ATOM     33  C   UNL A   1      35.113  33.270  31.258  1.00  0.00     0.010 A 
ATOM     34  C   UNL A   1      36.588  34.023  29.497  1.00  0.00     0.010 A 
ATOM     35  C   UNL A   1      36.403  33.339  30.709  1.00  0.00    -0.014 A 
BRANCH  35  36
ATOM     36  C   UNL A   1      37.561  32.687  31.377  1.00  0.00     0.031 A 
ATOM     37  C   UNL A   1      38.268  31.531  30.727  1.00  0.00     0.074 A 
ATOM     38  C   UNL A   1      37.935  33.095  32.606  1.00  0.00     0.049 A 
ATOM     39  N   UNL A   1      39.239  30.785  31.194  1.00  0.00    -0.248 NA
ATOM     40  C   UNL A   1      37.809  31.147  29.384  1.00  0.00     0.031 C 
ATOM     41  C   UNL A   1      37.307  34.178  33.364  1.00  0.00     0.029 A 
ATOM     42  N   UNL A   1      38.924  32.636  33.441  1.00  0.00    -0.354 N 
ATOM     43  C   UNL A   1      39.494  29.837  30.212  1.00  0.00     0.074 A 
ATOM     44  C   UNL A   1      38.549  30.074  29.142  1.00  0.00     0.031 C 
ATOM     45  C   UNL A   1      37.935  34.311  34.543  1.00  0.00     0.029 A 
ATOM     46  C   UNL A   1      38.982  33.299  34.642  1.00  0.00     0.049 A 
ATOM     47  H   UNL A   1      39.535  31.902  33.201  1.00  0.00     0.167 HD
ATOM     48  C   UNL A   1      40.442  28.868  30.197  1.00  0.00     0.037 A 
ATOM     49  C   UNL A   1      39.781  33.107  35.709  1.00  0.00     0.037 A 
ATOM     50  C   UNL A   1      41.401  28.648  31.249  1.00  0.00     0.049 A 
ATOM     51  C   UNL A   1      40.822  32.021  35.668  1.00  0.00     0.074 A 
ATOM     52  C   UNL A   1      42.437  27.732  31.295  1.00  0.00     0.029 A 
ATOM     53  N   UNL A   1      41.440  29.354  32.443  1.00  0.00    -0.354 N 
ATOM     54  N   UNL A   1      41.092  31.171  34.708  1.00  0.00    -0.248 NA
ATOM     55  C   UNL A   1      41.671  31.874  36.858  1.00  0.00     0.031 C 
ATOM     56  C   UNL A   1      43.077  27.853  32.534  1.00  0.00     0.029 A 
ATOM     57  C   UNL A   1      42.469  28.878  33.240  1.00  0.00     0.049 A 
ATOM     58  H   UNL A   1      40.826  30.085  32.688  1.00  0.00     0.167 HD
ATOM     59  C   UNL A   1      42.158  30.407  35.166  1.00  0.00     0.074 A 
ATOM     60  C   UNL A   1      42.494  30.903  36.484  1.00  0.00     0.031 C 
ATOM     61  C   UNL A   1      42.799  29.386  34.547  1.00  0.00     0.037 A 
BRANCH  48  62
ATOM     62  C   UNL A   1      40.494  27.966  28.998  1.00  0.00     0.064 A 
ATOM     63  C   UNL A   1      41.306  28.261  27.892  1.00  0.00     0.173 A 
ATOM     64  C   UNL A   1      39.758  26.772  28.971  1.00  0.00     0.173 A 
ATOM     65  F   UNL A   1      42.023  29.395  27.863  1.00  0.00    -0.203 F 
ATOM     66  C   UNL A   1      41.357  27.408  26.792  1.00  0.00     0.198 A 
ATOM     67  C   UNL A   1      39.833  25.907  27.883  1.00  0.00     0.198 A 
ATOM     68  F   UNL A   1      38.971  26.440  30.006  1.00  0.00    -0.203 F 
ATOM     69  F   UNL A   1      42.104  27.732  25.728  1.00  0.00    -0.200 F 
ATOM     70  C   UNL A   1      40.627  26.228  26.792  1.00  0.00     0.200 A 
ATOM     71  F   UNL A   1      39.137  24.762  27.890  1.00  0.00    -0.200 F 
ATOM     72  F   UNL A   1      40.682  25.405  25.737  1.00  0.00    -0.200 F 
ENDBRANCH  48  62
BRANCH  49  73
ATOM     73  C   UNL A   1      39.641  33.978  36.904  1.00  0.00     0.064 A 
ATOM     74  C   UNL A   1      40.307  35.209  36.977  1.00  0.00     0.173 A 
ATOM     75  C   UNL A   1      38.848  33.599  37.997  1.00  0.00     0.173 A 
ATOM     76  F   UNL A   1      41.096  35.604  35.966  1.00  0.00    -0.203 F 
ATOM     77  C   UNL A   1      40.200  36.020  38.104  1.00  0.00     0.198 A 
ATOM     78  C   UNL A   1      38.719  34.423  39.112  1.00  0.00     0.198 A 
ATOM     79  F   UNL A   1      38.189  32.431  37.975  1.00  0.00    -0.203 F 
ATOM     80  F   UNL A   1      40.883  37.172  38.166  1.00  0.00    -0.200 F 
ATOM     81  C   UNL A   1      39.401  35.630  39.169  1.00  0.00     0.200 A 
ATOM     82  F   UNL A   1      37.937  34.048  40.134  1.00  0.00    -0.200 F 
ATOM     83  F   UNL A   1      39.296  36.412  40.252  1.00  0.00    -0.200 F 
ENDBRANCH  49  73
BRANCH  61  84
ATOM     84  C   UNL A   1      43.954  28.759  35.272  1.00  0.00     0.064 A 
ATOM     85  C   UNL A   1      45.267  29.220  35.105  1.00  0.00     0.173 A 
ATOM     86  C   UNL A   1      43.737  27.706  36.175  1.00  0.00     0.173 A 
ATOM     87  F   UNL A   1      45.528  30.214  34.241  1.00  0.00    -0.203 F 
ATOM     88  C   UNL A   1      46.325  28.635  35.797  1.00  0.00     0.198 A 
ATOM     89  C   UNL A   1      44.793  27.142  36.886  1.00  0.00     0.198 A 
ATOM     90  F   UNL A   1      42.498  27.232  36.375  1.00  0.00    -0.203 F 
ATOM     91  F   UNL A   1      47.578  29.063  35.587  1.00  0.00    -0.200 F 
ATOM     92  C   UNL A   1      46.087  27.603  36.691  1.00  0.00     0.200 A 
ATOM     93  F   UNL A   1      44.559  26.153  37.758  1.00  0.00    -0.200 F 
ATOM     94  F   UNL A   1      47.104  27.045  37.360  1.00  0.00    -0.200 F 
ENDBRANCH  61  84
ENDBRANCH  35  36
ENDBRANCH  27  30
ENDBRANCH  25  26
ENDBRANCH  24  25
ENDBRANCH   1  24
TORSDOF 15
ENDMDL
MODEL 3
REMARK VINA RESULT:     -11.1      4.644     10.033
REMARK SMILES O=C(CN(CC(F)(F)F)C(=O)[C@H]1C[C@H]2CC[C@@H]1[NH2+]2)NCCCNC(=O)c1ccc(-c2c3nc(c(-c4c(F)c(F)c(F)c(F)c4F)c4ccc([nH]4)c(-c4c(F)c(F)c(F)c(F)c4F)c4nc(c(-c5c(F)c(F)c(F)c(F)c5F)c5ccc2[nH]5)C=C4)C=C3)cc1
REMARK SMILES IDX 20 1 19 2 1 3 2 4 3 6 4 7 5 8 6 9 7 10 8 11 9 12 10 13 11 14
REMARK SMILES IDX 12 15 13 16 17 17 14 18 16 19 18 20 15 21 21 24 22 25 23 26
REMARK SMILES IDX 24 27 25 29 26 30 27 31 88 32 28 33 87 34 29 35 30 36 31 37
REMARK SMILES IDX 81 38 32 39 86 40 80 41 82 42 33 43 85 44 79 45 78 46 34 48
REMARK SMILES IDX 66 49 46 50 65 51 47 52 50 53 64 54 83 55 48 56 49 57 63 59
REMARK SMILES IDX 84 60 51 61 35 62 36 63 44 64 37 65 38 66 42 67 45 68 39 69
REMARK SMILES IDX 40 70 43 71 41 72 67 73 68 74 76 75 69 76 70 77 74 78 77 79
REMARK SMILES IDX 71 80 72 81 75 82 73 83 52 84 53 85 61 86 54 87 55 88 59 89
REMARK SMILES IDX 62 90 56 91 57 92 60 93 58 94
REMARK H PARENT 19 5 18 22 18 23 23 28 82 47 50 58
REMARK Flexibility Score: inf
ROOT
ATOM      1  C   UNL A   1      30.990  27.921  25.637  1.00  0.00     0.117 C 
ENDROOT
BRANCH   1   2
ATOM      2  N   UNL A   1      31.234  26.606  25.082  1.00  0.00    -0.354 N 
ATOM      3  O   UNL A   1      29.810  25.495  26.491  1.00  0.00    -0.273 OA
ATOM      4  C   UNL A   1      30.523  25.497  25.490  1.00  0.00     0.239 C 
ATOM      5  H   UNL A   1      31.927  26.501  24.390  1.00  0.00     0.163 HD
BRANCH   4   6
ATOM      6  C   UNL A   1      30.789  24.211  24.687  1.00  0.00     0.219 C 
BRANCH   6   7
ATOM      7  N   UNL A   1      32.205  23.935  24.376  1.00  0.00    -0.324 N 
BRANCH   7   8
ATOM      8  C   UNL A   1      32.665  24.246  23.005  1.00  0.00     0.235 C 
BRANCH   8   9
ATOM      9  C   UNL A   1      33.293  23.083  22.216  1.00  0.00     0.406 C 
ATOM     10  F   UNL A   1      32.572  21.950  22.365  1.00  0.00    -0.169 F 
ATOM     11  F   UNL A   1      33.331  23.368  20.895  1.00  0.00    -0.169 F 
ATOM     12  F   UNL A   1      34.558  22.820  22.610  1.00  0.00    -0.169 F 
ENDBRANCH   8   9
ENDBRANCH   7   8
BRANCH   7  13
ATOM     13  C   UNL A   1      32.996  23.492  25.429  1.00  0.00     0.232 C 
ATOM     14  O   UNL A   1      33.885  24.222  25.869  1.00  0.00    -0.274 OA
BRANCH  13  15
ATOM     15  C   UNL A   1      32.687  22.155  26.088  1.00  0.00     0.142 C 
ATOM     16  C   UNL A   1      32.025  21.094  25.196  1.00  0.00     0.084 C 
ATOM     17  C   UNL A   1      33.943  21.406  26.578  1.00  0.00     0.195 C 
ATOM     18  C   UNL A   1      32.910  19.861  25.397  1.00  0.00     0.183 C 
ATOM     19  C   UNL A   1      34.954  21.076  25.468  1.00  0.00     0.072 C 
ATOM     20  N   UNL A   1      33.341  20.068  26.793  1.00  0.00    -0.341 N 
ATOM     21  C   UNL A   1      34.218  20.034  24.628  1.00  0.00     0.071 C 
ATOM     22  H   UNL A   1      34.023  19.375  27.101  1.00  0.00     0.346 HD
ATOM     23  H   UNL A   1      32.624  19.993  27.514  1.00  0.00     0.346 HD
ENDBRANCH  13  15
ENDBRANCH   7  13
ENDBRANCH   6   7
ENDBRANCH   4   6
ENDBRANCH   1   2
BRANCH   1  24
ATOM     24  C   UNL A   1      32.150  28.490  26.448  1.00  0.00     0.042 C 
BRANCH  24  25
ATOM     25  C   UNL A   1      32.963  29.573  25.745  1.00  0.00     0.118 C 
BRANCH  25  26
ATOM     26  N   UNL A   1      32.668  30.920  26.217  1.00  0.00    -0.352 N 
ATOM     27  C   UNL A   1      33.297  31.708  27.147  1.00  0.00     0.251 C 
ATOM     28  H   UNL A   1      31.880  31.335  25.797  1.00  0.00     0.163 HD
ATOM     29  O   UNL A   1      32.789  32.787  27.455  1.00  0.00    -0.269 OA
BRANCH  27  30
ATOM     30  C   UNL A   1      34.555  31.287  27.808  1.00  0.00     0.039 A 
ATOM     31  C   UNL A   1      35.587  32.227  27.929  1.00  0.00     0.014 A 
ATOM     32  C   UNL A   1      34.755  29.984  28.265  1.00  0.00     0.014 A 
ATOM     33  C   UNL A   1      36.782  31.882  28.566  1.00  0.00     0.010 A 
ATOM     34  C   UNL A   1      35.922  29.657  28.959  1.00  0.00     0.010 A 
ATOM     35  C   UNL A   1      36.946  30.603  29.122  1.00  0.00    -0.014 A 
BRANCH  35  36
ATOM     36  C   UNL A   1      38.169  30.248  29.890  1.00  0.00     0.031 A 
ATOM     37  C   UNL A   1      39.178  29.288  29.323  1.00  0.00     0.074 A 
ATOM     38  C   UNL A   1      38.340  30.740  31.134  1.00  0.00     0.049 A 
ATOM     39  N   UNL A   1      40.258  28.797  29.879  1.00  0.00    -0.248 NA
ATOM     40  C   UNL A   1      38.928  28.798  27.959  1.00  0.00     0.031 C 
ATOM     41  C   UNL A   1      37.417  31.648  31.816  1.00  0.00     0.029 A 
ATOM     42  N   UNL A   1      39.341  30.534  32.050  1.00  0.00    -0.354 N 
ATOM     43  C   UNL A   1      40.805  27.929  28.942  1.00  0.00     0.074 A 
ATOM     44  C   UNL A   1      39.917  27.929  27.799  1.00  0.00     0.031 C 
ATOM     45  C   UNL A   1      37.902  31.933  33.035  1.00  0.00     0.029 A 
ATOM     46  C   UNL A   1      39.147  31.198  33.236  1.00  0.00     0.049 A 
ATOM     47  H   UNL A   1      40.124  29.963  31.874  1.00  0.00     0.167 HD
ATOM     48  C   UNL A   1      41.952  27.213  29.021  1.00  0.00     0.037 A 
ATOM     49  C   UNL A   1      39.883  31.207  34.364  1.00  0.00     0.037 A 
ATOM     50  C   UNL A   1      42.851  27.233  30.147  1.00  0.00     0.049 A 
ATOM     51  C   UNL A   1      41.150  30.399  34.427  1.00  0.00     0.074 A 
ATOM     52  C   UNL A   1      44.067  26.588  30.292  1.00  0.00     0.029 A 
ATOM     53  N   UNL A   1      42.629  27.935  31.322  1.00  0.00    -0.354 N 
ATOM     54  N   UNL A   1      41.688  29.631  33.511  1.00  0.00    -0.248 NA
ATOM     55  C   UNL A   1      41.915  30.464  35.680  1.00  0.00     0.031 C 
ATOM     56  C   UNL A   1      44.562  26.866  31.571  1.00  0.00     0.029 A 
ATOM     57  C   UNL A   1      43.677  27.722  32.205  1.00  0.00     0.049 A 
ATOM     58  H   UNL A   1      41.844  28.501  31.503  1.00  0.00     0.167 HD
ATOM     59  C   UNL A   1      42.864  29.145  34.065  1.00  0.00     0.074 A 
ATOM     60  C   UNL A   1      42.970  29.714  35.392  1.00  0.00     0.031 C 
ATOM     61  C   UNL A   1      43.774  28.301  33.520  1.00  0.00     0.037 A 
BRANCH  48  62
ATOM     62  C   UNL A   1      42.310  26.342  27.851  1.00  0.00     0.064 A 
ATOM     63  C   UNL A   1      43.208  26.771  26.863  1.00  0.00     0.173 A 
ATOM     64  C   UNL A   1      41.780  25.048  27.739  1.00  0.00     0.173 A 
ATOM     65  F   UNL A   1      43.736  28.003  26.919  1.00  0.00    -0.203 F 
ATOM     66  C   UNL A   1      43.543  25.947  25.792  1.00  0.00     0.198 A 
ATOM     67  C   UNL A   1      42.139  24.215  26.682  1.00  0.00     0.198 A 
ATOM     68  F   UNL A   1      40.921  24.586  28.660  1.00  0.00    -0.203 F 
ATOM     69  F   UNL A   1      44.368  26.395  24.835  1.00  0.00    -0.200 F 
ATOM     70  C   UNL A   1      43.014  24.668  25.705  1.00  0.00     0.200 A 
ATOM     71  F   UNL A   1      41.637  22.975  26.607  1.00  0.00    -0.200 F 
ATOM     72  F   UNL A   1      43.342  23.873  24.678  1.00  0.00    -0.200 F 
ENDBRANCH  48  62
BRANCH  49  73
ATOM     73  C   UNL A   1      39.449  32.028  35.524  1.00  0.00     0.064 A 
ATOM     74  C   UNL A   1      39.916  33.339  35.691  1.00  0.00     0.173 A 
ATOM     75  C   UNL A   1      38.567  31.521  36.489  1.00  0.00     0.173 A 
ATOM     76  F   UNL A   1      40.779  33.859  34.806  1.00  0.00    -0.203 F 
ATOM     77  C   UNL A   1      39.532  34.106  36.788  1.00  0.00     0.198 A 
ATOM     78  C   UNL A   1      38.162  32.298  37.572  1.00  0.00     0.198 A 
ATOM     79  F   UNL A   1      38.090  30.273  36.374  1.00  0.00    -0.203 F 
ATOM     80  F   UNL A   1      40.029  35.340  36.947  1.00  0.00    -0.200 F 
ATOM     81  C   UNL A   1      38.651  33.587  37.725  1.00  0.00     0.200 A 
ATOM     82  F   UNL A   1      37.302  31.798  38.469  1.00  0.00    -0.200 F 
ATOM     83  F   UNL A   1      38.279  34.326  38.780  1.00  0.00    -0.200 F 
ENDBRANCH  49  73
BRANCH  61  84
ATOM     84  C   UNL A   1      44.984  27.969  34.345  1.00  0.00     0.064 A 
ATOM     85  C   UNL A   1      45.020  26.845  35.182  1.00  0.00     0.173 A 
ATOM     86  C   UNL A   1      46.136  28.767  34.267  1.00  0.00     0.173 A 
ATOM     87  F   UNL A   1      43.938  26.060  35.303  1.00  0.00    -0.203 F 
ATOM     88  C   UNL A   1      46.155  26.545  35.929  1.00  0.00     0.198 A 
ATOM     89  C   UNL A   1      47.280  28.449  34.994  1.00  0.00     0.198 A 
ATOM     90  F   UNL A   1      46.155  29.851  33.476  1.00  0.00    -0.203 F 
ATOM     91  F   UNL A   1      46.151  25.490  36.757  1.00  0.00    -0.200 F 
ATOM     92  C   UNL A   1      47.286  27.341  35.830  1.00  0.00     0.200 A 
ATOM     93  F   UNL A   1      48.374  29.213  34.887  1.00  0.00    -0.200 F 
ATOM     94  F   UNL A   1      48.380  27.048  36.545  1.00  0.00    -0.200 F 
ENDBRANCH  61  84
ENDBRANCH  35  36
ENDBRANCH  27  30
ENDBRANCH  25  26
ENDBRANCH  24  25
ENDBRANCH   1  24
TORSDOF 15
ENDMDL
