MODEL 1
REMARK VINA RESULT:     -11.2      0.000      0.000
REMARK SMILES CCN(CC)C(=O)C[N@@H+](C)[C@@H](C)c1ccc(C(=O)NCCCNC(=O)c2ccc(-c3c4nc(c(-c5c(F)c(F)c(F)c(F)c5F)c5ccc([nH]5)c(-c5c(F)c(F)c(F)c(F)c5F)c5nc(c(-c6c(F)c(F)c(F)c(F)c6F)c6ccc3[nH]6)C=C5)C=C4)cc2)o1
REMARK SMILES IDX 17 1 18 2 19 3 16 5 13 6 14 7 89 8 15 9 11 10 12 11 9 12
REMARK SMILES IDX 10 13 8 15 6 16 3 17 7 18 2 19 1 20 4 21 5 22 20 23 21 24
REMARK SMILES IDX 22 25 23 26 24 27 25 29 26 30 27 31 88 32 28 33 87 34 29 35
REMARK SMILES IDX 30 36 31 37 81 38 32 39 86 40 80 41 82 42 33 43 85 44 79 45
REMARK SMILES IDX 78 46 34 48 66 49 46 50 65 51 47 52 50 53 64 54 83 55 48 56
REMARK SMILES IDX 49 57 63 59 84 60 51 61 35 62 36 63 44 64 37 65 38 66 42 67
REMARK SMILES IDX 45 68 39 69 40 70 43 71 41 72 67 73 68 74 76 75 69 76 70 77
REMARK SMILES IDX 74 78 77 79 71 80 72 81 75 82 73 83 52 84 53 85 61 86 54 87
REMARK SMILES IDX 55 88 59 89 62 90 56 91 57 92 60 93 58 94
REMARK H PARENT 19 4 9 14 23 28 82 47 50 58
REMARK Flexibility Score: inf
ROOT
ATOM      1  C   UNL A   1      33.532  29.183  26.425  1.00  0.00     0.287 C 
ATOM      2  O   UNL A   1      34.429  28.872  27.213  1.00  0.00    -0.266 OA
ATOM      3  N   UNL A   1      32.593  30.098  26.896  1.00  0.00    -0.349 N 
ATOM      4  H   UNL A   1      32.680  30.311  27.853  1.00  0.00     0.163 HD
ENDROOT
BRANCH   1   5
ATOM      5  C   UNL A   1      33.361  28.576  25.120  1.00  0.00     0.191 A 
ATOM      6  C   UNL A   1      32.295  27.607  23.463  1.00  0.00     0.161 A 
ATOM      7  C   UNL A   1      32.997  28.684  23.004  1.00  0.00     0.053 A 
ATOM      8  O   UNL A   1      32.336  27.660  24.848  1.00  0.00    -0.450 OA
ATOM      9  C   UNL A   1      34.033  28.713  23.931  1.00  0.00     0.057 A 
BRANCH   6  10
ATOM     10  C   UNL A   1      31.649  26.486  22.711  1.00  0.00     0.248 C 
ATOM     11  C   UNL A   1      30.534  25.848  23.550  1.00  0.00     0.084 C 
BRANCH  10  12
ATOM     12  N   UNL A   1      32.680  25.512  22.189  1.00  0.00    -0.321 N 
ATOM     13  C   UNL A   1      32.629  25.474  20.721  1.00  0.00     0.333 C 
ATOM     14  H   UNL A   1      33.552  25.889  22.560  1.00  0.00     0.348 HD
BRANCH  12  15
ATOM     15  C   UNL A   1      32.638  24.100  22.695  1.00  0.00     0.364 C 
BRANCH  15  16
ATOM     16  C   UNL A   1      33.933  23.513  23.329  1.00  0.00     0.277 C 
ATOM     17  N   UNL A   1      34.021  23.282  24.710  1.00  0.00    -0.338 N 
ATOM     18  O   UNL A   1      34.916  23.314  22.604  1.00  0.00    -0.268 OA
BRANCH  17  19
ATOM     19  C   UNL A   1      35.291  22.796  25.280  1.00  0.00     0.116 C 
ATOM     20  C   UNL A   1      36.301  23.899  25.578  1.00  0.00     0.027 C 
ENDBRANCH  17  19
BRANCH  17  21
ATOM     21  C   UNL A   1      32.924  23.468  25.660  1.00  0.00     0.116 C 
ATOM     22  C   UNL A   1      33.264  22.889  27.021  1.00  0.00     0.027 C 
ENDBRANCH  17  21
ENDBRANCH  15  16
ENDBRANCH  12  15
ENDBRANCH  10  12
ENDBRANCH   6  10
ENDBRANCH   1   5
BRANCH   3  23
ATOM     23  C   UNL A   1      31.504  30.796  26.225  1.00  0.00     0.118 C 
BRANCH  23  24
ATOM     24  C   UNL A   1      31.383  32.281  26.519  1.00  0.00     0.042 C 
BRANCH  24  25
ATOM     25  C   UNL A   1      32.580  32.855  27.249  1.00  0.00     0.118 C 
BRANCH  25  26
ATOM     26  N   UNL A   1      32.374  34.233  27.685  1.00  0.00    -0.352 N 
ATOM     27  C   UNL A   1      33.000  34.991  28.644  1.00  0.00     0.251 C 
ATOM     28  H   UNL A   1      31.656  34.706  27.204  1.00  0.00     0.163 HD
ATOM     29  O   UNL A   1      32.554  36.105  28.909  1.00  0.00    -0.269 OA
BRANCH  27  30
ATOM     30  C   UNL A   1      34.178  34.483  29.381  1.00  0.00     0.039 A 
ATOM     31  C   UNL A   1      33.980  33.884  30.630  1.00  0.00     0.014 A 
ATOM     32  C   UNL A   1      35.472  34.608  28.876  1.00  0.00     0.014 A 
ATOM     33  C   UNL A   1      35.064  33.344  31.326  1.00  0.00     0.010 A 
ATOM     34  C   UNL A   1      36.532  33.974  29.512  1.00  0.00     0.010 A 
ATOM     35  C   UNL A   1      36.343  33.344  30.750  1.00  0.00    -0.014 A 
BRANCH  35  36
ATOM     36  C   UNL A   1      37.504  32.709  31.421  1.00  0.00     0.031 A 
ATOM     37  C   UNL A   1      38.219  31.562  30.761  1.00  0.00     0.074 A 
ATOM     38  C   UNL A   1      37.863  33.106  32.658  1.00  0.00     0.049 A 
ATOM     39  N   UNL A   1      39.175  30.800  31.230  1.00  0.00    -0.248 NA
ATOM     40  C   UNL A   1      37.778  31.201  29.404  1.00  0.00     0.031 C 
ATOM     41  C   UNL A   1      37.219  34.174  33.424  1.00  0.00     0.029 A 
ATOM     42  N   UNL A   1      38.850  32.647  33.493  1.00  0.00    -0.354 N 
ATOM     43  C   UNL A   1      39.429  29.861  30.240  1.00  0.00     0.074 A 
ATOM     44  C   UNL A   1      38.492  30.111  29.166  1.00  0.00     0.031 C 
ATOM     45  C   UNL A   1      37.845  34.305  34.605  1.00  0.00     0.029 A 
ATOM     46  C   UNL A   1      38.903  33.304  34.697  1.00  0.00     0.049 A 
ATOM     47  H   UNL A   1      39.463  31.915  33.251  1.00  0.00     0.167 HD
ATOM     48  C   UNL A   1      40.376  28.892  30.215  1.00  0.00     0.037 A 
ATOM     49  C   UNL A   1      39.707  33.115  35.759  1.00  0.00     0.037 A 
ATOM     50  C   UNL A   1      41.332  28.668  31.267  1.00  0.00     0.049 A 
ATOM     51  C   UNL A   1      40.753  32.035  35.706  1.00  0.00     0.074 A 
ATOM     52  C   UNL A   1      42.367  27.753  31.311  1.00  0.00     0.029 A 
ATOM     53  N   UNL A   1      41.369  29.374  32.460  1.00  0.00    -0.354 N 
ATOM     54  N   UNL A   1      41.020  31.189  34.740  1.00  0.00    -0.248 NA
ATOM     55  C   UNL A   1      41.613  31.887  36.888  1.00  0.00     0.031 C 
ATOM     56  C   UNL A   1      43.009  27.879  32.547  1.00  0.00     0.029 A 
ATOM     57  C   UNL A   1      42.402  28.903  33.254  1.00  0.00     0.049 A 
ATOM     58  H   UNL A   1      40.753  30.101  32.707  1.00  0.00     0.167 HD
ATOM     59  C   UNL A   1      42.094  30.430  35.185  1.00  0.00     0.074 A 
ATOM     60  C   UNL A   1      42.437  30.923  36.503  1.00  0.00     0.031 C 
ATOM     61  C   UNL A   1      42.737  29.414  34.559  1.00  0.00     0.037 A 
BRANCH  48  62
ATOM     62  C   UNL A   1      40.429  28.006  29.004  1.00  0.00     0.064 A 
ATOM     63  C   UNL A   1      39.696  26.811  28.935  1.00  0.00     0.173 A 
ATOM     64  C   UNL A   1      41.195  28.371  27.887  1.00  0.00     0.173 A 
ATOM     65  F   UNL A   1      38.958  26.411  29.981  1.00  0.00    -0.203 F 
ATOM     66  C   UNL A   1      39.753  26.000  27.805  1.00  0.00     0.198 A 
ATOM     67  C   UNL A   1      41.226  27.572  26.747  1.00  0.00     0.198 A 
ATOM     68  F   UNL A   1      41.911  29.506  27.899  1.00  0.00    -0.203 F 
ATOM     69  F   UNL A   1      39.085  24.838  27.783  1.00  0.00    -0.200 F 
ATOM     70  C   UNL A   1      40.511  26.385  26.710  1.00  0.00     0.200 A 
ATOM     71  F   UNL A   1      41.949  27.951  25.684  1.00  0.00    -0.200 F 
ATOM     72  F   UNL A   1      40.559  25.605  25.621  1.00  0.00    -0.200 F 
ENDBRANCH  48  62
BRANCH  49  73
ATOM     73  C   UNL A   1      39.576  33.988  36.954  1.00  0.00     0.064 A 
ATOM     74  C   UNL A   1      38.802  33.586  38.051  1.00  0.00     0.173 A 
ATOM     75  C   UNL A   1      40.215  35.234  37.025  1.00  0.00     0.173 A 
ATOM     76  F   UNL A   1      38.156  32.412  38.020  1.00  0.00    -0.203 F 
ATOM     77  C   UNL A   1      38.657  34.406  39.168  1.00  0.00     0.198 A 
ATOM     78  C   UNL A   1      40.091  36.041  38.154  1.00  0.00     0.198 A 
ATOM     79  F   UNL A   1      40.971  35.661  36.004  1.00  0.00    -0.203 F 
ATOM     80  F   UNL A   1      37.877  34.016  40.185  1.00  0.00    -0.200 F 
ATOM     81  C   UNL A   1      39.306  35.630  39.221  1.00  0.00     0.200 A 
ATOM     82  F   UNL A   1      40.731  37.217  38.208  1.00  0.00    -0.200 F 
ATOM     83  F   UNL A   1      39.170  36.416  40.297  1.00  0.00    -0.200 F 
ENDBRANCH  49  73
BRANCH  61  84
ATOM     84  C   UNL A   1      43.902  28.794  35.272  1.00  0.00     0.064 A 
ATOM     85  C   UNL A   1      43.737  27.710  36.147  1.00  0.00     0.173 A 
ATOM     86  C   UNL A   1      45.203  29.267  35.046  1.00  0.00     0.173 A 
ATOM     87  F   UNL A   1      42.510  27.235  36.408  1.00  0.00    -0.203 F 
ATOM     88  C   UNL A   1      44.832  27.136  36.786  1.00  0.00     0.198 A 
ATOM     89  C   UNL A   1      46.298  28.672  35.665  1.00  0.00     0.198 A 
ATOM     90  F   UNL A   1      45.414  30.297  34.213  1.00  0.00    -0.203 F 
ATOM     91  F   UNL A   1      44.648  26.130  37.652  1.00  0.00    -0.200 F 
ATOM     92  C   UNL A   1      46.112  27.612  36.539  1.00  0.00     0.200 A 
ATOM     93  F   UNL A   1      47.535  29.124  35.416  1.00  0.00    -0.200 F 
ATOM     94  F   UNL A   1      47.165  27.053  37.151  1.00  0.00    -0.200 F 
ENDBRANCH  61  84
ENDBRANCH  35  36
ENDBRANCH  27  30
ENDBRANCH  25  26
ENDBRANCH  24  25
ENDBRANCH  23  24
ENDBRANCH   3  23
TORSDOF 16
ENDMDL
MODEL 2
REMARK VINA RESULT:     -11.2      0.769      2.134
REMARK SMILES CCN(CC)C(=O)C[N@@H+](C)[C@@H](C)c1ccc(C(=O)NCCCNC(=O)c2ccc(-c3c4nc(c(-c5c(F)c(F)c(F)c(F)c5F)c5ccc([nH]5)c(-c5c(F)c(F)c(F)c(F)c5F)c5nc(c(-c6c(F)c(F)c(F)c(F)c6F)c6ccc3[nH]6)C=C5)C=C4)cc2)o1
REMARK SMILES IDX 17 1 18 2 19 3 16 5 13 6 14 7 89 8 15 9 11 10 12 11 9 12
REMARK SMILES IDX 10 13 8 15 6 16 3 17 7 18 2 19 1 20 4 21 5 22 20 23 21 24
REMARK SMILES IDX 22 25 23 26 24 27 25 29 26 30 27 31 88 32 28 33 87 34 29 35
REMARK SMILES IDX 30 36 31 37 81 38 32 39 86 40 80 41 82 42 33 43 85 44 79 45
REMARK SMILES IDX 78 46 34 48 66 49 46 50 65 51 47 52 50 53 64 54 83 55 48 56
REMARK SMILES IDX 49 57 63 59 84 60 51 61 35 62 36 63 44 64 37 65 38 66 42 67
REMARK SMILES IDX 45 68 39 69 40 70 43 71 41 72 67 73 68 74 76 75 69 76 70 77
REMARK SMILES IDX 74 78 77 79 71 80 72 81 75 82 73 83 52 84 53 85 61 86 54 87
REMARK SMILES IDX 55 88 59 89 62 90 56 91 57 92 60 93 58 94
REMARK H PARENT 19 4 9 14 23 28 82 47 50 58
REMARK Flexibility Score: inf
ROOT
ATOM      1  C   UNL A   1      33.700  29.290  26.336  1.00  0.00     0.287 C 
ATOM      2  O   UNL A   1      34.790  29.115  26.886  1.00  0.00    -0.266 OA
ATOM      3  N   UNL A   1      32.890  30.284  26.882  1.00  0.00    -0.349 N 
ATOM      4  H   UNL A   1      33.227  30.663  27.726  1.00  0.00     0.163 HD
ENDROOT
BRANCH   1   5
ATOM      5  C   UNL A   1      33.203  28.464  25.255  1.00  0.00     0.191 A 
ATOM      6  C   UNL A   1      31.726  27.333  24.086  1.00  0.00     0.161 A 
ATOM      7  C   UNL A   1      32.408  28.194  23.275  1.00  0.00     0.053 A 
ATOM      8  O   UNL A   1      32.065  27.656  25.391  1.00  0.00    -0.450 OA
ATOM      9  C   UNL A   1      33.615  28.270  23.960  1.00  0.00     0.057 A 
BRANCH   6  10
ATOM     10  C   UNL A   1      30.838  26.181  23.738  1.00  0.00     0.248 C 
ATOM     11  C   UNL A   1      29.594  26.170  24.636  1.00  0.00     0.084 C 
BRANCH  10  12
ATOM     12  N   UNL A   1      31.611  24.882  23.717  1.00  0.00    -0.321 N 
ATOM     13  C   UNL A   1      30.728  23.786  23.294  1.00  0.00     0.333 C 
ATOM     14  H   UNL A   1      32.363  25.080  23.058  1.00  0.00     0.348 HD
BRANCH  12  15
ATOM     15  C   UNL A   1      32.315  24.457  24.972  1.00  0.00     0.364 C 
BRANCH  15  16
ATOM     16  C   UNL A   1      33.862  24.295  24.923  1.00  0.00     0.277 C 
ATOM     17  N   UNL A   1      34.449  23.072  24.564  1.00  0.00    -0.338 N 
ATOM     18  O   UNL A   1      34.574  25.245  25.274  1.00  0.00    -0.268 OA
BRANCH  17  19
ATOM     19  C   UNL A   1      35.917  22.939  24.604  1.00  0.00     0.116 C 
ATOM     20  C   UNL A   1      36.577  22.923  23.229  1.00  0.00     0.027 C 
ENDBRANCH  17  19
BRANCH  17  21
ATOM     21  C   UNL A   1      33.712  21.889  24.122  1.00  0.00     0.116 C 
ATOM     22  C   UNL A   1      33.948  20.709  25.048  1.00  0.00     0.027 C 
ENDBRANCH  17  21
ENDBRANCH  15  16
ENDBRANCH  12  15
ENDBRANCH  10  12
ENDBRANCH   6  10
ENDBRANCH   1   5
BRANCH   3  23
ATOM     23  C   UNL A   1      31.632  30.863  26.428  1.00  0.00     0.118 C 
BRANCH  23  24
ATOM     24  C   UNL A   1      31.469  32.356  26.645  1.00  0.00     0.042 C 
BRANCH  24  25
ATOM     25  C   UNL A   1      32.710  33.029  27.195  1.00  0.00     0.118 C 
BRANCH  25  26
ATOM     26  N   UNL A   1      32.448  34.365  27.724  1.00  0.00    -0.352 N 
ATOM     27  C   UNL A   1      33.028  35.073  28.747  1.00  0.00     0.251 C 
ATOM     28  H   UNL A   1      31.723  34.847  27.262  1.00  0.00     0.163 HD
ATOM     29  O   UNL A   1      32.537  36.149  29.081  1.00  0.00    -0.269 OA
BRANCH  27  30
ATOM     30  C   UNL A   1      34.208  34.553  29.472  1.00  0.00     0.039 A 
ATOM     31  C   UNL A   1      34.012  33.910  30.700  1.00  0.00     0.014 A 
ATOM     32  C   UNL A   1      35.503  34.709  28.977  1.00  0.00     0.014 A 
ATOM     33  C   UNL A   1      35.099  33.359  31.381  1.00  0.00     0.010 A 
ATOM     34  C   UNL A   1      36.567  34.065  29.596  1.00  0.00     0.010 A 
ATOM     35  C   UNL A   1      36.381  33.392  30.811  1.00  0.00    -0.014 A 
BRANCH  35  36
ATOM     36  C   UNL A   1      37.546  32.747  31.466  1.00  0.00     0.031 A 
ATOM     37  C   UNL A   1      38.234  31.586  30.801  1.00  0.00     0.074 A 
ATOM     38  C   UNL A   1      37.933  33.150  32.692  1.00  0.00     0.049 A 
ATOM     39  N   UNL A   1      39.189  30.816  31.259  1.00  0.00    -0.248 NA
ATOM     40  C   UNL A   1      37.763  31.221  29.456  1.00  0.00     0.031 C 
ATOM     41  C   UNL A   1      37.317  34.232  33.462  1.00  0.00     0.029 A 
ATOM     42  N   UNL A   1      38.929  32.685  33.512  1.00  0.00    -0.354 N 
ATOM     43  C   UNL A   1      39.413  29.867  30.271  1.00  0.00     0.074 A 
ATOM     44  C   UNL A   1      38.459  30.120  29.214  1.00  0.00     0.031 C 
ATOM     45  C   UNL A   1      37.966  34.364  34.630  1.00  0.00     0.029 A 
ATOM     46  C   UNL A   1      39.013  33.350  34.710  1.00  0.00     0.049 A 
ATOM     47  H   UNL A   1      39.528  31.944  33.266  1.00  0.00     0.167 HD
ATOM     48  C   UNL A   1      40.346  28.885  30.236  1.00  0.00     0.037 A 
ATOM     49  C   UNL A   1      39.835  33.159  35.758  1.00  0.00     0.037 A 
ATOM     50  C   UNL A   1      41.319  28.658  31.272  1.00  0.00     0.049 A 
ATOM     51  C   UNL A   1      40.866  32.066  35.694  1.00  0.00     0.074 A 
ATOM     52  C   UNL A   1      42.344  27.730  31.305  1.00  0.00     0.029 A 
ATOM     53  N   UNL A   1      41.388  29.373  32.459  1.00  0.00    -0.354 N 
ATOM     54  N   UNL A   1      41.104  31.209  34.731  1.00  0.00    -0.248 NA
ATOM     55  C   UNL A   1      41.746  31.916  36.862  1.00  0.00     0.031 C 
ATOM     56  C   UNL A   1      43.010  27.857  32.528  1.00  0.00     0.029 A 
ATOM     57  C   UNL A   1      42.429  28.895  33.238  1.00  0.00     0.049 A 
ATOM     58  H   UNL A   1      40.786  30.109  32.712  1.00  0.00     0.167 HD
ATOM     59  C   UNL A   1      42.176  30.440  35.161  1.00  0.00     0.074 A 
ATOM     60  C   UNL A   1      42.550  30.939  36.469  1.00  0.00     0.031 C 
ATOM     61  C   UNL A   1      42.795  29.411  34.532  1.00  0.00     0.037 A 
BRANCH  48  62
ATOM     62  C   UNL A   1      40.366  27.990  29.032  1.00  0.00     0.064 A 
ATOM     63  C   UNL A   1      41.142  28.296  27.902  1.00  0.00     0.173 A 
ATOM     64  C   UNL A   1      39.629  26.798  29.017  1.00  0.00     0.173 A 
ATOM     65  F   UNL A   1      41.855  29.432  27.860  1.00  0.00    -0.203 F 
ATOM     66  C   UNL A   1      41.153  27.456  26.793  1.00  0.00     0.198 A 
ATOM     67  C   UNL A   1      39.666  25.945  27.917  1.00  0.00     0.198 A 
ATOM     68  F   UNL A   1      38.875  26.456  30.074  1.00  0.00    -0.203 F 
ATOM     69  F   UNL A   1      41.860  27.795  25.705  1.00  0.00    -0.200 F 
ATOM     70  C   UNL A   1      40.422  26.278  26.804  1.00  0.00     0.200 A 
ATOM     71  F   UNL A   1      38.969  24.801  27.934  1.00  0.00    -0.200 F 
ATOM     72  F   UNL A   1      40.439  25.468  25.737  1.00  0.00    -0.200 F 
ENDBRANCH  48  62
BRANCH  49  73
ATOM     73  C   UNL A   1      39.737  34.043  36.949  1.00  0.00     0.064 A 
ATOM     74  C   UNL A   1      40.462  35.241  37.011  1.00  0.00     0.173 A 
ATOM     75  C   UNL A   1      38.923  33.713  38.042  1.00  0.00     0.173 A 
ATOM     76  F   UNL A   1      41.268  35.588  35.998  1.00  0.00    -0.203 F 
ATOM     77  C   UNL A   1      40.392  36.068  38.130  1.00  0.00     0.198 A 
ATOM     78  C   UNL A   1      38.834  34.554  39.150  1.00  0.00     0.198 A 
ATOM     79  F   UNL A   1      38.206  32.581  38.029  1.00  0.00    -0.203 F 
ATOM     80  F   UNL A   1      41.128  37.186  38.181  1.00  0.00    -0.200 F 
ATOM     81  C   UNL A   1      39.573  35.726  39.197  1.00  0.00     0.200 A 
ATOM     82  F   UNL A   1      38.031  34.228  40.172  1.00  0.00    -0.200 F 
ATOM     83  F   UNL A   1      39.503  36.523  40.271  1.00  0.00    -0.200 F 
ENDBRANCH  49  73
BRANCH  61  84
ATOM     84  C   UNL A   1      43.965  28.782  35.228  1.00  0.00     0.064 A 
ATOM     85  C   UNL A   1      45.275  29.240  35.026  1.00  0.00     0.173 A 
ATOM     86  C   UNL A   1      43.766  27.735  36.140  1.00  0.00     0.173 A 
ATOM     87  F   UNL A   1      45.517  30.228  34.151  1.00  0.00    -0.203 F 
ATOM     88  C   UNL A   1      46.347  28.655  35.695  1.00  0.00     0.198 A 
ATOM     89  C   UNL A   1      44.837  27.172  36.828  1.00  0.00     0.198 A 
ATOM     90  F   UNL A   1      42.531  27.265  36.373  1.00  0.00    -0.203 F 
ATOM     91  F   UNL A   1      47.595  29.079  35.454  1.00  0.00    -0.200 F 
ATOM     92  C   UNL A   1      46.126  27.628  36.601  1.00  0.00     0.200 A 
ATOM     93  F   UNL A   1      44.621  26.188  37.712  1.00  0.00    -0.200 F 
ATOM     94  F   UNL A   1      47.159  27.072  37.249  1.00  0.00    -0.200 F 
ENDBRANCH  61  84
ENDBRANCH  35  36
ENDBRANCH  27  30
ENDBRANCH  25  26
ENDBRANCH  24  25
ENDBRANCH  23  24
ENDBRANCH   3  23
TORSDOF 16
ENDMDL
MODEL 3
REMARK VINA RESULT:     -11.1      0.993      7.475
REMARK SMILES CCN(CC)C(=O)C[N@@H+](C)[C@@H](C)c1ccc(C(=O)NCCCNC(=O)c2ccc(-c3c4nc(c(-c5c(F)c(F)c(F)c(F)c5F)c5ccc([nH]5)c(-c5c(F)c(F)c(F)c(F)c5F)c5nc(c(-c6c(F)c(F)c(F)c(F)c6F)c6ccc3[nH]6)C=C5)C=C4)cc2)o1
REMARK SMILES IDX 17 1 18 2 19 3 16 5 13 6 14 7 89 8 15 9 11 10 12 11 9 12
REMARK SMILES IDX 10 13 8 15 6 16 3 17 7 18 2 19 1 20 4 21 5 22 20 23 21 24
REMARK SMILES IDX 22 25 23 26 24 27 25 29 26 30 27 31 88 32 28 33 87 34 29 35
REMARK SMILES IDX 30 36 31 37 81 38 32 39 86 40 80 41 82 42 33 43 85 44 79 45
REMARK SMILES IDX 78 46 34 48 66 49 46 50 65 51 47 52 50 53 64 54 83 55 48 56
REMARK SMILES IDX 49 57 63 59 84 60 51 61 35 62 36 63 44 64 37 65 38 66 42 67
REMARK SMILES IDX 45 68 39 69 40 70 43 71 41 72 67 73 68 74 76 75 69 76 70 77
REMARK SMILES IDX 74 78 77 79 71 80 72 81 75 82 73 83 52 84 53 85 61 86 54 87
REMARK SMILES IDX 55 88 59 89 62 90 56 91 57 92 60 93 58 94
REMARK H PARENT 19 4 9 14 23 28 82 47 50 58
REMARK Flexibility Score: inf
ROOT
ATOM      1  C   UNL A   1      33.275  28.831  26.579  1.00  0.00     0.287 C 
ATOM      2  O   UNL A   1      34.409  28.633  27.024  1.00  0.00    -0.266 OA
ATOM      3  N   UNL A   1      32.749  30.104  26.785  1.00  0.00    -0.349 N 
ATOM      4  H   UNL A   1      33.295  30.678  27.371  1.00  0.00     0.163 HD
ENDROOT
BRANCH   1   5
ATOM      5  C   UNL A   1      32.459  27.801  25.968  1.00  0.00     0.191 A 
ATOM      6  C   UNL A   1      31.950  26.188  24.567  1.00  0.00     0.161 A 
ATOM      7  C   UNL A   1      31.706  25.790  25.849  1.00  0.00     0.053 A 
ATOM      8  O   UNL A   1      32.645  27.386  24.642  1.00  0.00    -0.450 OA
ATOM      9  C   UNL A   1      31.433  27.020  26.438  1.00  0.00     0.057 A 
BRANCH   6  10
ATOM     10  C   UNL A   1      31.522  25.577  23.270  1.00  0.00     0.248 C 
ATOM     11  C   UNL A   1      30.507  24.452  23.515  1.00  0.00     0.084 C 
BRANCH  10  12
ATOM     12  N   UNL A   1      32.715  25.177  22.434  1.00  0.00    -0.321 N 
ATOM     13  C   UNL A   1      32.619  25.795  21.103  1.00  0.00     0.333 C 
ATOM     14  H   UNL A   1      33.501  25.517  22.987  1.00  0.00     0.348 HD
BRANCH  12  15
ATOM     15  C   UNL A   1      32.992  23.714  22.251  1.00  0.00     0.364 C 
BRANCH  15  16
ATOM     16  C   UNL A   1      34.139  23.077  23.088  1.00  0.00     0.277 C 
ATOM     17  N   UNL A   1      33.879  22.049  24.006  1.00  0.00    -0.338 N 
ATOM     18  O   UNL A   1      35.283  23.540  22.984  1.00  0.00    -0.268 OA
BRANCH  17  19
ATOM     19  C   UNL A   1      34.981  21.526  24.834  1.00  0.00     0.116 C 
ATOM     20  C   UNL A   1      34.970  22.028  26.274  1.00  0.00     0.027 C 
ENDBRANCH  17  19
BRANCH  17  21
ATOM     21  C   UNL A   1      32.575  21.417  24.206  1.00  0.00     0.116 C 
ATOM     22  C   UNL A   1      32.675  19.904  24.145  1.00  0.00     0.027 C 
ENDBRANCH  17  21
ENDBRANCH  15  16
ENDBRANCH  12  15
ENDBRANCH  10  12
ENDBRANCH   6  10
ENDBRANCH   1   5
BRANCH   3  23
ATOM     23  C   UNL A   1      31.535  30.740  26.290  1.00  0.00     0.118 C 
BRANCH  23  24
ATOM     24  C   UNL A   1      31.363  32.208  26.636  1.00  0.00     0.042 C 
BRANCH  24  25
ATOM     25  C   UNL A   1      32.662  32.907  26.983  1.00  0.00     0.118 C 
BRANCH  25  26
ATOM     26  N   UNL A   1      32.459  34.213  27.603  1.00  0.00    -0.352 N 
ATOM     27  C   UNL A   1      33.066  34.820  28.674  1.00  0.00     0.251 C 
ATOM     28  H   UNL A   1      31.759  34.759  27.175  1.00  0.00     0.163 HD
ATOM     29  O   UNL A   1      32.624  35.891  29.082  1.00  0.00    -0.269 OA
BRANCH  27  30
ATOM     30  C   UNL A   1      34.218  34.197  29.363  1.00  0.00     0.039 A 
ATOM     31  C   UNL A   1      33.971  33.336  30.438  1.00  0.00     0.014 A 
ATOM     32  C   UNL A   1      35.533  34.464  28.984  1.00  0.00     0.014 A 
ATOM     33  C   UNL A   1      35.033  32.688  31.073  1.00  0.00     0.010 A 
ATOM     34  C   UNL A   1      36.579  33.736  29.539  1.00  0.00     0.010 A 
ATOM     35  C   UNL A   1      36.343  32.848  30.597  1.00  0.00    -0.014 A 
BRANCH  35  36
ATOM     36  C   UNL A   1      37.487  32.114  31.193  1.00  0.00     0.031 A 
ATOM     37  C   UNL A   1      37.975  32.474  32.570  1.00  0.00     0.074 A 
ATOM     38  C   UNL A   1      38.139  31.185  30.467  1.00  0.00     0.049 A 
ATOM     39  N   UNL A   1      39.025  32.037  33.218  1.00  0.00    -0.248 NA
ATOM     40  C   UNL A   1      37.197  33.486  33.303  1.00  0.00     0.031 C 
ATOM     41  C   UNL A   1      37.794  30.780  29.104  1.00  0.00     0.029 A 
ATOM     42  N   UNL A   1      39.237  30.423  30.772  1.00  0.00    -0.354 N 
ATOM     43  C   UNL A   1      39.045  32.735  34.418  1.00  0.00     0.074 A 
ATOM     44  C   UNL A   1      37.937  33.665  34.388  1.00  0.00     0.031 C 
ATOM     45  C   UNL A   1      38.647  29.826  28.700  1.00  0.00     0.029 A 
ATOM     46  C   UNL A   1      39.624  29.583  29.757  1.00  0.00     0.049 A 
ATOM     47  H   UNL A   1      39.706  30.472  31.637  1.00  0.00     0.167 HD
ATOM     48  C   UNL A   1      39.896  32.598  35.463  1.00  0.00     0.037 A 
ATOM     49  C   UNL A   1      40.655  28.720  29.683  1.00  0.00     0.037 A 
ATOM     50  C   UNL A   1      40.975  31.646  35.508  1.00  0.00     0.049 A 
ATOM     51  C   UNL A   1      41.583  28.583  30.858  1.00  0.00     0.074 A 
ATOM     52  C   UNL A   1      41.855  31.388  36.543  1.00  0.00     0.029 A 
ATOM     53  N   UNL A   1      41.317  30.794  34.468  1.00  0.00    -0.354 N 
ATOM     54  N   UNL A   1      41.559  29.210  32.009  1.00  0.00    -0.248 NA
ATOM     55  C   UNL A   1      42.680  27.613  30.726  1.00  0.00     0.031 C 
ATOM     56  C   UNL A   1      42.754  30.404  36.117  1.00  0.00     0.029 A 
ATOM     57  C   UNL A   1      42.405  30.018  34.833  1.00  0.00     0.049 A 
ATOM     58  H   UNL A   1      40.855  30.746  33.600  1.00  0.00     0.167 HD
ATOM     59  C   UNL A   1      42.614  28.692  32.747  1.00  0.00     0.074 A 
ATOM     60  C   UNL A   1      43.253  27.691  31.919  1.00  0.00     0.031 C 
ATOM     61  C   UNL A   1      43.020  29.017  33.999  1.00  0.00     0.037 A 
BRANCH  48  62
ATOM     62  C   UNL A   1      39.686  33.492  36.650  1.00  0.00     0.064 A 
ATOM     63  C   UNL A   1      38.817  33.134  37.694  1.00  0.00     0.173 A 
ATOM     64  C   UNL A   1      40.383  34.703  36.764  1.00  0.00     0.173 A 
ATOM     65  F   UNL A   1      38.115  31.993  37.627  1.00  0.00    -0.203 F 
ATOM     66  C   UNL A   1      38.632  33.972  38.790  1.00  0.00     0.198 A 
ATOM     67  C   UNL A   1      40.219  35.523  37.877  1.00  0.00     0.198 A 
ATOM     68  F   UNL A   1      41.230  35.089  35.797  1.00  0.00    -0.203 F 
ATOM     69  F   UNL A   1      37.758  33.634  39.749  1.00  0.00    -0.200 F 
ATOM     70  C   UNL A   1      39.339  35.161  38.884  1.00  0.00     0.200 A 
ATOM     71  F   UNL A   1      40.912  36.666  37.972  1.00  0.00    -0.200 F 
ATOM     72  F   UNL A   1      39.164  35.962  39.944  1.00  0.00    -0.200 F 
ENDBRANCH  48  62
BRANCH  49  73
ATOM     73  C   UNL A   1      40.846  27.896  28.462  1.00  0.00     0.064 A 
ATOM     74  C   UNL A   1      41.635  28.364  27.401  1.00  0.00     0.173 A 
ATOM     75  C   UNL A   1      40.250  26.634  28.327  1.00  0.00     0.173 A 
ATOM     76  F   UNL A   1      42.208  29.573  27.476  1.00  0.00    -0.203 F 
ATOM     77  C   UNL A   1      41.805  27.607  26.243  1.00  0.00     0.198 A 
ATOM     78  C   UNL A   1      40.443  25.867  27.180  1.00  0.00     0.198 A 
ATOM     79  F   UNL A   1      39.490  26.141  29.316  1.00  0.00    -0.203 F 
ATOM     80  F   UNL A   1      42.529  28.095  25.228  1.00  0.00    -0.200 F 
ATOM     81  C   UNL A   1      41.214  26.357  26.136  1.00  0.00     0.200 A 
ATOM     82  F   UNL A   1      39.881  24.655  27.086  1.00  0.00    -0.200 F 
ATOM     83  F   UNL A   1      41.381  25.628  25.025  1.00  0.00    -0.200 F 
ENDBRANCH  49  73
BRANCH  61  84
ATOM     84  C   UNL A   1      44.183  28.258  34.564  1.00  0.00     0.064 A 
ATOM     85  C   UNL A   1      45.494  28.749  34.479  1.00  0.00     0.173 A 
ATOM     86  C   UNL A   1      43.977  27.043  35.236  1.00  0.00     0.173 A 
ATOM     87  F   UNL A   1      45.744  29.897  33.832  1.00  0.00    -0.203 F 
ATOM     88  C   UNL A   1      46.560  28.038  35.025  1.00  0.00     0.198 A 
ATOM     89  C   UNL A   1      45.041  26.351  35.805  1.00  0.00     0.198 A 
ATOM     90  F   UNL A   1      42.741  26.535  35.350  1.00  0.00    -0.203 F 
ATOM     91  F   UNL A   1      47.810  28.503  34.893  1.00  0.00    -0.200 F 
ATOM     92  C   UNL A   1      46.331  26.844  35.694  1.00  0.00     0.200 A 
ATOM     93  F   UNL A   1      44.817  25.204  36.462  1.00  0.00    -0.200 F 
ATOM     94  F   UNL A   1      47.358  26.166  36.226  1.00  0.00    -0.200 F 
ENDBRANCH  61  84
ENDBRANCH  35  36
ENDBRANCH  27  30
ENDBRANCH  25  26
ENDBRANCH  24  25
ENDBRANCH  23  24
ENDBRANCH   3  23
TORSDOF 16
ENDMDL
