MODEL 1
REMARK VINA RESULT:     -13.0      0.000      0.000
REMARK SMILES Cc1cc(C)c2c(c1)C=C(C(=O)NCCCNC(=O)c1ccc(-c3c4nc(c(-c5c(F)c(F)c(F)c(F)c5F)c5ccc([nH]5)c(-c5c(F)c(F)c(F)c(F)c5F)c5nc(c(-c6c(F)c(F)c(F)c(F)c6F)c6ccc3[nH]6)C=C5)C=C4)cc1)[C@@H](C(F)(F)F)O2
REMARK SMILES IDX 15 1 14 2 13 3 11 4 12 5 10 7 1 8 2 9 3 10 8 11 4 12 7 13
REMARK SMILES IDX 5 14 6 15 9 16 88 17 83 18 84 19 85 20 86 21 87 22 16 23
REMARK SMILES IDX 17 24 18 25 19 27 20 28 21 29 82 30 22 31 81 32 23 33 24 34
REMARK SMILES IDX 25 35 75 36 26 37 80 38 74 39 76 40 27 41 79 42 73 43 72 44
REMARK SMILES IDX 28 46 60 47 40 48 59 49 41 50 44 51 58 52 77 53 42 54 43 55
REMARK SMILES IDX 57 57 78 58 45 59 29 60 30 61 38 62 31 63 32 64 36 65 39 66
REMARK SMILES IDX 33 67 34 68 37 69 35 70 61 71 62 72 70 73 63 74 64 75 68 76
REMARK SMILES IDX 71 77 65 78 66 79 69 80 67 81 46 82 47 83 55 84 48 85 49 86
REMARK SMILES IDX 53 87 56 88 50 89 51 90 54 91 52 92
REMARK H PARENT 13 6 17 26 76 45 44 56
REMARK Flexibility Score: inf
ROOT
ATOM      1  C   UNL A   1      31.307  32.354  26.462  1.00  0.00     0.042 C 
ENDROOT
BRANCH   1   2
ATOM      2  C   UNL A   1      31.271  30.839  26.333  1.00  0.00     0.118 C 
BRANCH   2   3
ATOM      3  N   UNL A   1      31.146  30.417  24.947  1.00  0.00    -0.352 N 
ATOM      4  C   UNL A   1      31.316  29.276  24.238  1.00  0.00     0.251 C 
ATOM      5  O   UNL A   1      31.091  29.371  23.028  1.00  0.00    -0.270 OA
ATOM      6  H   UNL A   1      30.860  31.160  24.368  1.00  0.00     0.163 HD
BRANCH   4   7
ATOM      7  C   UNL A   1      31.747  27.971  24.815  1.00  0.00     0.067 C 
ATOM      8  C   UNL A   1      29.491  22.753  27.248  1.00  0.00     0.044 C 
ATOM      9  C   UNL A   1      30.529  23.679  26.687  1.00  0.00    -0.050 A 
ATOM     10  C   UNL A   1      31.882  23.316  26.714  1.00  0.00     0.010 A 
ATOM     11  C   UNL A   1      30.161  24.933  26.177  1.00  0.00     0.015 A 
ATOM     12  C   UNL A   1      32.865  24.174  26.210  1.00  0.00    -0.008 A 
ATOM     13  C   UNL A   1      31.132  25.802  25.675  1.00  0.00     0.018 A 
ATOM     14  C   UNL A   1      34.315  23.784  26.236  1.00  0.00     0.048 C 
ATOM     15  C   UNL A   1      32.474  25.414  25.694  1.00  0.00     0.130 A 
ATOM     16  C   UNL A   1      30.767  27.092  25.097  1.00  0.00     0.025 C 
ATOM     17  O   UNL A   1      33.461  26.203  25.172  1.00  0.00    -0.475 OA
ATOM     18  C   UNL A   1      33.176  27.619  25.105  1.00  0.00     0.314 C 
BRANCH  18  19
ATOM     19  C   UNL A   1      33.717  28.312  26.371  1.00  0.00     0.429 C 
ATOM     20  F   UNL A   1      34.839  27.683  26.807  1.00  0.00    -0.167 F 
ATOM     21  F   UNL A   1      34.068  29.603  26.150  1.00  0.00    -0.167 F 
ATOM     22  F   UNL A   1      32.832  28.318  27.391  1.00  0.00    -0.167 F 
ENDBRANCH  18  19
ENDBRANCH   4   7
ENDBRANCH   2   3
ENDBRANCH   1   2
BRANCH   1  23
ATOM     23  C   UNL A   1      32.557  32.830  27.188  1.00  0.00     0.118 C 
BRANCH  23  24
ATOM     24  N   UNL A   1      32.448  34.233  27.584  1.00  0.00    -0.352 N 
ATOM     25  C   UNL A   1      33.021  34.903  28.633  1.00  0.00     0.251 C 
ATOM     26  H   UNL A   1      31.873  34.784  27.005  1.00  0.00     0.163 HD
ATOM     27  O   UNL A   1      32.585  36.002  28.974  1.00  0.00    -0.269 OA
BRANCH  25  28
ATOM     28  C   UNL A   1      34.160  34.307  29.352  1.00  0.00     0.039 A 
ATOM     29  C   UNL A   1      33.925  33.487  30.457  1.00  0.00     0.014 A 
ATOM     30  C   UNL A   1      35.468  34.585  28.945  1.00  0.00     0.014 A 
ATOM     31  C   UNL A   1      35.003  32.896  31.114  1.00  0.00     0.010 A 
ATOM     32  C   UNL A   1      36.529  33.912  29.528  1.00  0.00     0.010 A 
ATOM     33  C   UNL A   1      36.309  33.078  30.632  1.00  0.00    -0.014 A 
BRANCH  33  34
ATOM     34  C   UNL A   1      37.473  32.441  31.288  1.00  0.00     0.031 A 
ATOM     35  C   UNL A   1      38.203  31.329  30.590  1.00  0.00     0.074 A 
ATOM     36  C   UNL A   1      37.826  32.820  32.530  1.00  0.00     0.049 A 
ATOM     37  N   UNL A   1      39.200  30.599  31.017  1.00  0.00    -0.248 NA
ATOM     38  C   UNL A   1      37.729  30.966  29.244  1.00  0.00     0.031 C 
ATOM     39  C   UNL A   1      37.157  33.856  33.318  1.00  0.00     0.029 A 
ATOM     40  N   UNL A   1      38.833  32.378  33.348  1.00  0.00    -0.354 N 
ATOM     41  C   UNL A   1      39.462  29.691  30.001  1.00  0.00     0.074 A 
ATOM     42  C   UNL A   1      38.475  29.909  28.969  1.00  0.00     0.031 C 
ATOM     43  C   UNL A   1      37.797  33.997  34.489  1.00  0.00     0.029 A 
ATOM     44  C   UNL A   1      38.892  33.034  34.552  1.00  0.00     0.049 A 
ATOM     45  H   UNL A   1      39.455  31.657  33.095  1.00  0.00     0.167 HD
ATOM     46  C   UNL A   1      40.462  28.783  29.920  1.00  0.00     0.037 A 
ATOM     47  C   UNL A   1      39.738  32.876  35.587  1.00  0.00     0.037 A 
ATOM     48  C   UNL A   1      41.455  28.594  30.943  1.00  0.00     0.049 A 
ATOM     49  C   UNL A   1      40.828  31.845  35.485  1.00  0.00     0.074 A 
ATOM     50  C   UNL A   1      42.541  27.739  30.942  1.00  0.00     0.029 A 
ATOM     51  N   UNL A   1      41.479  29.274  32.154  1.00  0.00    -0.354 N 
ATOM     52  N   UNL A   1      41.108  31.034  34.494  1.00  0.00    -0.248 NA
ATOM     53  C   UNL A   1      41.722  31.708  36.643  1.00  0.00     0.031 C 
ATOM     54  C   UNL A   1      43.192  27.862  32.172  1.00  0.00     0.029 A 
ATOM     55  C   UNL A   1      42.548  28.836  32.918  1.00  0.00     0.049 A 
ATOM     56  H   UNL A   1      40.834  29.966  32.426  1.00  0.00     0.167 HD
ATOM     57  C   UNL A   1      42.217  30.304  34.897  1.00  0.00     0.074 A 
ATOM     58  C   UNL A   1      42.571  30.783  36.218  1.00  0.00     0.031 C 
ATOM     59  C   UNL A   1      42.881  29.325  34.233  1.00  0.00     0.037 A 
BRANCH  46  60
ATOM     60  C   UNL A   1      40.536  27.938  28.682  1.00  0.00     0.064 A 
ATOM     61  C   UNL A   1      41.292  28.332  27.567  1.00  0.00     0.173 A 
ATOM     62  C   UNL A   1      39.873  26.703  28.618  1.00  0.00     0.173 A 
ATOM     63  F   UNL A   1      41.934  29.511  27.569  1.00  0.00    -0.203 F 
ATOM     64  C   UNL A   1      41.358  27.538  26.426  1.00  0.00     0.198 A 
ATOM     65  C   UNL A   1      39.969  25.895  27.488  1.00  0.00     0.198 A 
ATOM     66  F   UNL A   1      39.138  26.276  29.655  1.00  0.00    -0.203 F 
ATOM     67  F   UNL A   1      42.042  27.962  25.354  1.00  0.00    -0.200 F 
ATOM     68  C   UNL A   1      40.704  26.316  26.390  1.00  0.00     0.200 A 
ATOM     69  F   UNL A   1      39.346  24.709  27.461  1.00  0.00    -0.200 F 
ATOM     70  F   UNL A   1      40.776  25.547  25.296  1.00  0.00    -0.200 F 
ENDBRANCH  46  60
BRANCH  47  71
ATOM     71  C   UNL A   1      39.607  33.755  36.778  1.00  0.00     0.064 A 
ATOM     72  C   UNL A   1      40.236  35.007  36.813  1.00  0.00     0.173 A 
ATOM     73  C   UNL A   1      38.813  33.392  37.875  1.00  0.00     0.173 A 
ATOM     74  F   UNL A   1      41.018  35.393  35.795  1.00  0.00    -0.203 F 
ATOM     75  C   UNL A   1      40.075  35.863  37.902  1.00  0.00     0.198 A 
ATOM     76  C   UNL A   1      38.632  34.258  38.951  1.00  0.00     0.198 A 
ATOM     77  F   UNL A   1      38.184  32.208  37.886  1.00  0.00    -0.203 F 
ATOM     78  F   UNL A   1      40.706  37.045  37.920  1.00  0.00    -0.200 F 
ATOM     79  C   UNL A   1      39.266  35.492  38.964  1.00  0.00     0.200 A 
ATOM     80  F   UNL A   1      37.833  33.905  39.967  1.00  0.00    -0.200 F 
ATOM     81  F   UNL A   1      39.094  36.324  40.002  1.00  0.00    -0.200 F 
ENDBRANCH  47  71
BRANCH  59  82
ATOM     82  C   UNL A   1      44.065  28.704  34.915  1.00  0.00     0.064 A 
ATOM     83  C   UNL A   1      45.346  29.265  34.811  1.00  0.00     0.173 A 
ATOM     84  C   UNL A   1      43.900  27.590  35.751  1.00  0.00     0.173 A 
ATOM     85  F   UNL A   1      45.557  30.324  34.014  1.00  0.00    -0.203 F 
ATOM     86  C   UNL A   1      46.422  28.724  35.511  1.00  0.00     0.198 A 
ATOM     87  C   UNL A   1      44.970  27.072  36.475  1.00  0.00     0.198 A 
ATOM     88  F   UNL A   1      42.692  27.023  35.893  1.00  0.00    -0.203 F 
ATOM     89  F   UNL A   1      47.644  29.256  35.371  1.00  0.00    -0.200 F 
ATOM     90  C   UNL A   1      46.230  27.637  36.351  1.00  0.00     0.200 A 
ATOM     91  F   UNL A   1      44.780  26.035  37.301  1.00  0.00    -0.200 F 
ATOM     92  F   UNL A   1      47.263  27.133  37.041  1.00  0.00    -0.200 F 
ENDBRANCH  59  82
ENDBRANCH  33  34
ENDBRANCH  25  28
ENDBRANCH  23  24
ENDBRANCH   1  23
TORSDOF 11
ENDMDL
MODEL 2
REMARK VINA RESULT:     -13.0      1.186      2.089
REMARK SMILES Cc1cc(C)c2c(c1)C=C(C(=O)NCCCNC(=O)c1ccc(-c3c4nc(c(-c5c(F)c(F)c(F)c(F)c5F)c5ccc([nH]5)c(-c5c(F)c(F)c(F)c(F)c5F)c5nc(c(-c6c(F)c(F)c(F)c(F)c6F)c6ccc3[nH]6)C=C5)C=C4)cc1)[C@@H](C(F)(F)F)O2
REMARK SMILES IDX 15 1 14 2 13 3 11 4 12 5 10 7 1 8 2 9 3 10 8 11 4 12 7 13
REMARK SMILES IDX 5 14 6 15 9 16 88 17 83 18 84 19 85 20 86 21 87 22 16 23
REMARK SMILES IDX 17 24 18 25 19 27 20 28 21 29 82 30 22 31 81 32 23 33 24 34
REMARK SMILES IDX 25 35 75 36 26 37 80 38 74 39 76 40 27 41 79 42 73 43 72 44
REMARK SMILES IDX 28 46 60 47 40 48 59 49 41 50 44 51 58 52 77 53 42 54 43 55
REMARK SMILES IDX 57 57 78 58 45 59 29 60 30 61 38 62 31 63 32 64 36 65 39 66
REMARK SMILES IDX 33 67 34 68 37 69 35 70 61 71 62 72 70 73 63 74 64 75 68 76
REMARK SMILES IDX 71 77 65 78 66 79 69 80 67 81 46 82 47 83 55 84 48 85 49 86
REMARK SMILES IDX 53 87 56 88 50 89 51 90 54 91 52 92
REMARK H PARENT 13 6 17 26 76 45 44 56
REMARK Flexibility Score: inf
ROOT
ATOM      1  C   UNL A   1      31.385  32.191  26.680  1.00  0.00     0.042 C 
ENDROOT
BRANCH   1   2
ATOM      2  C   UNL A   1      31.518  30.701  26.405  1.00  0.00     0.118 C 
BRANCH   2   3
ATOM      3  N   UNL A   1      31.253  30.382  25.011  1.00  0.00    -0.352 N 
ATOM      4  C   UNL A   1      31.219  29.272  24.237  1.00  0.00     0.251 C 
ATOM      5  O   UNL A   1      30.938  29.467  23.051  1.00  0.00    -0.270 OA
ATOM      6  H   UNL A   1      31.042  31.190  24.491  1.00  0.00     0.163 HD
BRANCH   4   7
ATOM      7  C   UNL A   1      31.495  27.888  24.719  1.00  0.00     0.067 C 
ATOM      8  C   UNL A   1      36.133  23.910  25.671  1.00  0.00     0.044 C 
ATOM      9  C   UNL A   1      34.731  24.439  25.739  1.00  0.00    -0.050 A 
ATOM     10  C   UNL A   1      33.700  23.634  26.244  1.00  0.00     0.010 A 
ATOM     11  C   UNL A   1      34.430  25.720  25.254  1.00  0.00     0.015 A 
ATOM     12  C   UNL A   1      32.384  24.103  26.300  1.00  0.00    -0.008 A 
ATOM     13  C   UNL A   1      33.120  26.201  25.299  1.00  0.00     0.018 A 
ATOM     14  C   UNL A   1      31.282  23.243  26.845  1.00  0.00     0.048 C 
ATOM     15  C   UNL A   1      32.110  25.390  25.823  1.00  0.00     0.130 A 
ATOM     16  C   UNL A   1      32.792  27.548  24.842  1.00  0.00     0.025 C 
ATOM     17  O   UNL A   1      30.819  25.826  25.937  1.00  0.00    -0.475 OA
ATOM     18  C   UNL A   1      30.424  26.887  25.037  1.00  0.00     0.314 C 
BRANCH  18  19
ATOM     19  C   UNL A   1      29.782  26.278  23.776  1.00  0.00     0.429 C 
ATOM     20  F   UNL A   1      30.595  26.456  22.702  1.00  0.00    -0.167 F 
ATOM     21  F   UNL A   1      29.585  24.941  23.884  1.00  0.00    -0.167 F 
ATOM     22  F   UNL A   1      28.585  26.826  23.473  1.00  0.00    -0.167 F 
ENDBRANCH  18  19
ENDBRANCH   4   7
ENDBRANCH   2   3
ENDBRANCH   1   2
BRANCH   1  23
ATOM     23  C   UNL A   1      32.706  32.806  27.120  1.00  0.00     0.118 C 
BRANCH  23  24
ATOM     24  N   UNL A   1      32.534  34.186  27.570  1.00  0.00    -0.352 N 
ATOM     25  C   UNL A   1      33.054  34.832  28.661  1.00  0.00     0.251 C 
ATOM     26  H   UNL A   1      31.953  34.739  26.999  1.00  0.00     0.163 HD
ATOM     27  O   UNL A   1      32.568  35.898  29.035  1.00  0.00    -0.269 OA
BRANCH  25  28
ATOM     28  C   UNL A   1      34.197  34.249  29.384  1.00  0.00     0.039 A 
ATOM     29  C   UNL A   1      33.968  33.457  30.512  1.00  0.00     0.014 A 
ATOM     30  C   UNL A   1      35.502  34.510  28.959  1.00  0.00     0.014 A 
ATOM     31  C   UNL A   1      35.048  32.878  31.174  1.00  0.00     0.010 A 
ATOM     32  C   UNL A   1      36.565  33.846  29.550  1.00  0.00     0.010 A 
ATOM     33  C   UNL A   1      36.351  33.042  30.676  1.00  0.00    -0.014 A 
BRANCH  33  34
ATOM     34  C   UNL A   1      37.518  32.415  31.338  1.00  0.00     0.031 A 
ATOM     35  C   UNL A   1      38.259  31.308  30.645  1.00  0.00     0.074 A 
ATOM     36  C   UNL A   1      37.863  32.800  32.580  1.00  0.00     0.049 A 
ATOM     37  N   UNL A   1      39.261  30.587  31.077  1.00  0.00    -0.248 NA
ATOM     38  C   UNL A   1      37.794  30.938  29.298  1.00  0.00     0.031 C 
ATOM     39  C   UNL A   1      37.183  33.833  33.363  1.00  0.00     0.029 A 
ATOM     40  N   UNL A   1      38.872  32.368  33.403  1.00  0.00    -0.354 N 
ATOM     41  C   UNL A   1      39.534  29.679  30.064  1.00  0.00     0.074 A 
ATOM     42  C   UNL A   1      38.549  29.887  29.028  1.00  0.00     0.031 C 
ATOM     43  C   UNL A   1      37.818  33.982  34.537  1.00  0.00     0.029 A 
ATOM     44  C   UNL A   1      38.921  33.028  34.605  1.00  0.00     0.049 A 
ATOM     45  H   UNL A   1      39.500  31.652  33.154  1.00  0.00     0.167 HD
ATOM     46  C   UNL A   1      40.542  28.779  29.989  1.00  0.00     0.037 A 
ATOM     47  C   UNL A   1      39.764  32.879  35.643  1.00  0.00     0.037 A 
ATOM     48  C   UNL A   1      41.533  28.601  31.016  1.00  0.00     0.049 A 
ATOM     49  C   UNL A   1      40.863  31.857  35.548  1.00  0.00     0.074 A 
ATOM     50  C   UNL A   1      42.626  27.755  31.021  1.00  0.00     0.029 A 
ATOM     51  N   UNL A   1      41.547  29.284  32.225  1.00  0.00    -0.354 N 
ATOM     52  N   UNL A   1      41.153  31.046  34.560  1.00  0.00    -0.248 NA
ATOM     53  C   UNL A   1      41.753  31.730  36.709  1.00  0.00     0.031 C 
ATOM     54  C   UNL A   1      43.271  27.886  32.252  1.00  0.00     0.029 A 
ATOM     55  C   UNL A   1      42.616  28.856  32.994  1.00  0.00     0.049 A 
ATOM     56  H   UNL A   1      40.895  29.971  32.494  1.00  0.00     0.167 HD
ATOM     57  C   UNL A   1      42.266  30.326  34.968  1.00  0.00     0.074 A 
ATOM     58  C   UNL A   1      42.611  30.810  36.289  1.00  0.00     0.031 C 
ATOM     59  C   UNL A   1      42.941  29.351  34.309  1.00  0.00     0.037 A 
BRANCH  46  60
ATOM     60  C   UNL A   1      40.627  27.932  28.753  1.00  0.00     0.064 A 
ATOM     61  C   UNL A   1      39.918  26.726  28.637  1.00  0.00     0.173 A 
ATOM     62  C   UNL A   1      41.398  28.344  27.655  1.00  0.00     0.173 A 
ATOM     63  F   UNL A   1      39.178  26.277  29.663  1.00  0.00    -0.203 F 
ATOM     64  C   UNL A   1      40.000  25.952  27.484  1.00  0.00     0.198 A 
ATOM     65  C   UNL A   1      41.450  27.585  26.489  1.00  0.00     0.198 A 
ATOM     66  F   UNL A   1      42.094  29.489  27.710  1.00  0.00    -0.203 F 
ATOM     67  F   UNL A   1      39.357  24.778  27.419  1.00  0.00    -0.200 F 
ATOM     68  C   UNL A   1      40.759  26.386  26.407  1.00  0.00     0.200 A 
ATOM     69  F   UNL A   1      42.173  28.012  25.445  1.00  0.00    -0.200 F 
ATOM     70  F   UNL A   1      40.829  25.645  25.293  1.00  0.00    -0.200 F 
ENDBRANCH  46  60
BRANCH  47  71
ATOM     71  C   UNL A   1      39.622  33.760  36.832  1.00  0.00     0.064 A 
ATOM     72  C   UNL A   1      40.236  35.019  36.864  1.00  0.00     0.173 A 
ATOM     73  C   UNL A   1      38.831  33.391  37.929  1.00  0.00     0.173 A 
ATOM     74  F   UNL A   1      41.015  35.411  35.846  1.00  0.00    -0.203 F 
ATOM     75  C   UNL A   1      40.064  35.876  37.951  1.00  0.00     0.198 A 
ATOM     76  C   UNL A   1      38.638  34.258  39.003  1.00  0.00     0.198 A 
ATOM     77  F   UNL A   1      38.215  32.199  37.943  1.00  0.00    -0.203 F 
ATOM     78  F   UNL A   1      40.681  37.065  37.967  1.00  0.00    -0.200 F 
ATOM     79  C   UNL A   1      39.258  35.499  39.013  1.00  0.00     0.200 A 
ATOM     80  F   UNL A   1      37.842  33.898  40.019  1.00  0.00    -0.200 F 
ATOM     81  F   UNL A   1      39.076  36.331  40.048  1.00  0.00    -0.200 F 
ENDBRANCH  47  71
BRANCH  59  82
ATOM     82  C   UNL A   1      44.127  28.741  34.997  1.00  0.00     0.064 A 
ATOM     83  C   UNL A   1      45.406  29.308  34.890  1.00  0.00     0.173 A 
ATOM     84  C   UNL A   1      43.967  27.632  35.842  1.00  0.00     0.173 A 
ATOM     85  F   UNL A   1      45.612  30.362  34.085  1.00  0.00    -0.203 F 
ATOM     86  C   UNL A   1      46.483  28.778  35.594  1.00  0.00     0.198 A 
ATOM     87  C   UNL A   1      45.040  27.126  36.570  1.00  0.00     0.198 A 
ATOM     88  F   UNL A   1      42.762  27.061  35.987  1.00  0.00    -0.203 F 
ATOM     89  F   UNL A   1      47.703  29.314  35.451  1.00  0.00    -0.200 F 
ATOM     90  C   UNL A   1      46.297  27.696  36.443  1.00  0.00     0.200 A 
ATOM     91  F   UNL A   1      44.854  26.094  37.404  1.00  0.00    -0.200 F 
ATOM     92  F   UNL A   1      47.331  27.203  37.137  1.00  0.00    -0.200 F 
ENDBRANCH  59  82
ENDBRANCH  33  34
ENDBRANCH  25  28
ENDBRANCH  23  24
ENDBRANCH   1  23
TORSDOF 11
ENDMDL
MODEL 3
REMARK VINA RESULT:     -13.0      2.431      3.813
REMARK SMILES Cc1cc(C)c2c(c1)C=C(C(=O)NCCCNC(=O)c1ccc(-c3c4nc(c(-c5c(F)c(F)c(F)c(F)c5F)c5ccc([nH]5)c(-c5c(F)c(F)c(F)c(F)c5F)c5nc(c(-c6c(F)c(F)c(F)c(F)c6F)c6ccc3[nH]6)C=C5)C=C4)cc1)[C@@H](C(F)(F)F)O2
REMARK SMILES IDX 15 1 14 2 13 3 11 4 12 5 10 7 1 8 2 9 3 10 8 11 4 12 7 13
REMARK SMILES IDX 5 14 6 15 9 16 88 17 83 18 84 19 85 20 86 21 87 22 16 23
REMARK SMILES IDX 17 24 18 25 19 27 20 28 21 29 82 30 22 31 81 32 23 33 24 34
REMARK SMILES IDX 25 35 75 36 26 37 80 38 74 39 76 40 27 41 79 42 73 43 72 44
REMARK SMILES IDX 28 46 60 47 40 48 59 49 41 50 44 51 58 52 77 53 42 54 43 55
REMARK SMILES IDX 57 57 78 58 45 59 29 60 30 61 38 62 31 63 32 64 36 65 39 66
REMARK SMILES IDX 33 67 34 68 37 69 35 70 61 71 62 72 70 73 63 74 64 75 68 76
REMARK SMILES IDX 71 77 65 78 66 79 69 80 67 81 46 82 47 83 55 84 48 85 49 86
REMARK SMILES IDX 53 87 56 88 50 89 51 90 54 91 52 92
REMARK H PARENT 13 6 17 26 76 45 44 56
REMARK Flexibility Score: inf
ROOT
ATOM      1  C   UNL A   1      33.578  28.726  23.632  1.00  0.00     0.042 C 
ENDROOT
BRANCH   1   2
ATOM      2  C   UNL A   1      32.300  28.099  23.098  1.00  0.00     0.118 C 
BRANCH   2   3
ATOM      3  N   UNL A   1      32.565  27.183  22.000  1.00  0.00    -0.352 N 
ATOM      4  C   UNL A   1      32.946  25.892  21.855  1.00  0.00     0.251 C 
ATOM      5  O   UNL A   1      33.055  25.505  20.687  1.00  0.00    -0.270 OA
ATOM      6  H   UNL A   1      32.430  27.619  21.128  1.00  0.00     0.163 HD
BRANCH   4   7
ATOM      7  C   UNL A   1      33.235  24.958  22.979  1.00  0.00     0.067 C 
ATOM      8  C   UNL A   1      37.402  20.814  24.905  1.00  0.00     0.044 C 
ATOM      9  C   UNL A   1      36.208  21.717  24.997  1.00  0.00    -0.050 A 
ATOM     10  C   UNL A   1      35.378  21.671  26.126  1.00  0.00     0.010 A 
ATOM     11  C   UNL A   1      35.884  22.577  23.938  1.00  0.00     0.015 A 
ATOM     12  C   UNL A   1      34.251  22.494  26.222  1.00  0.00    -0.008 A 
ATOM     13  C   UNL A   1      34.759  23.401  24.017  1.00  0.00     0.018 A 
ATOM     14  C   UNL A   1      33.364  22.447  27.432  1.00  0.00     0.048 C 
ATOM     15  C   UNL A   1      33.955  23.354  25.158  1.00  0.00     0.130 A 
ATOM     16  C   UNL A   1      34.429  24.337  22.946  1.00  0.00     0.025 C 
ATOM     17  O   UNL A   1      32.870  24.172  25.312  1.00  0.00    -0.475 OA
ATOM     18  C   UNL A   1      32.272  24.672  24.094  1.00  0.00     0.314 C 
BRANCH  18  19
ATOM     19  C   UNL A   1      31.122  23.740  23.666  1.00  0.00     0.429 C 
ATOM     20  F   UNL A   1      30.636  23.070  24.743  1.00  0.00    -0.167 F 
ATOM     21  F   UNL A   1      30.073  24.415  23.135  1.00  0.00    -0.167 F 
ATOM     22  F   UNL A   1      31.498  22.820  22.752  1.00  0.00    -0.167 F 
ENDBRANCH  18  19
ENDBRANCH   4   7
ENDBRANCH   2   3
ENDBRANCH   1   2
BRANCH   1  23
ATOM     23  C   UNL A   1      33.564  28.836  25.151  1.00  0.00     0.118 C 
BRANCH  23  24
ATOM     24  N   UNL A   1      33.023  30.120  25.592  1.00  0.00    -0.352 N 
ATOM     25  C   UNL A   1      33.320  30.870  26.700  1.00  0.00     0.251 C 
ATOM     26  H   UNL A   1      32.339  30.508  25.001  1.00  0.00     0.163 HD
ATOM     27  O   UNL A   1      32.561  31.771  27.055  1.00  0.00    -0.269 OA
BRANCH  25  28
ATOM     28  C   UNL A   1      34.549  30.599  27.465  1.00  0.00     0.039 A 
ATOM     29  C   UNL A   1      35.499  31.610  27.626  1.00  0.00     0.014 A 
ATOM     30  C   UNL A   1      34.773  29.328  28.001  1.00  0.00     0.014 A 
ATOM     31  C   UNL A   1      36.644  31.361  28.380  1.00  0.00     0.010 A 
ATOM     32  C   UNL A   1      35.855  29.115  28.840  1.00  0.00     0.010 A 
ATOM     33  C   UNL A   1      36.812  30.122  29.019  1.00  0.00    -0.014 A 
BRANCH  33  34
ATOM     34  C   UNL A   1      38.003  29.835  29.852  1.00  0.00     0.031 A 
ATOM     35  C   UNL A   1      39.070  28.916  29.330  1.00  0.00     0.074 A 
ATOM     36  C   UNL A   1      38.087  30.351  31.092  1.00  0.00     0.049 A 
ATOM     37  N   UNL A   1      40.154  28.487  29.924  1.00  0.00    -0.248 NA
ATOM     38  C   UNL A   1      38.880  28.381  27.972  1.00  0.00     0.031 C 
ATOM     39  C   UNL A   1      37.085  31.217  31.715  1.00  0.00     0.029 A 
ATOM     40  N   UNL A   1      39.058  30.221  32.051  1.00  0.00    -0.354 N 
ATOM     41  C   UNL A   1      40.762  27.630  29.018  1.00  0.00     0.074 A 
ATOM     42  C   UNL A   1      39.894  27.539  27.867  1.00  0.00     0.031 C 
ATOM     43  C   UNL A   1      37.512  31.572  32.937  1.00  0.00     0.029 A 
ATOM     44  C   UNL A   1      38.795  30.927  33.198  1.00  0.00     0.049 A 
ATOM     45  H   UNL A   1      39.866  29.673  31.928  1.00  0.00     0.167 HD
ATOM     46  C   UNL A   1      41.959  27.006  29.123  1.00  0.00     0.037 A 
ATOM     47  C   UNL A   1      39.512  31.039  34.332  1.00  0.00     0.037 A 
ATOM     48  C   UNL A   1      42.826  27.126  30.264  1.00  0.00     0.049 A 
ATOM     49  C   UNL A   1      40.828  30.319  34.436  1.00  0.00     0.074 A 
ATOM     50  C   UNL A   1      44.082  26.579  30.452  1.00  0.00     0.029 A 
ATOM     51  N   UNL A   1      42.523  27.846  31.412  1.00  0.00    -0.354 N 
ATOM     52  N   UNL A   1      41.426  29.560  33.549  1.00  0.00    -0.248 NA
ATOM     53  C   UNL A   1      41.569  30.470  35.694  1.00  0.00     0.031 C 
ATOM     54  C   UNL A   1      44.516  26.923  31.735  1.00  0.00     0.029 A 
ATOM     55  C   UNL A   1      43.559  27.733  32.325  1.00  0.00     0.049 A 
ATOM     56  H   UNL A   1      41.696  28.361  31.554  1.00  0.00     0.167 HD
ATOM     57  C   UNL A   1      42.620  29.159  34.131  1.00  0.00     0.074 A 
ATOM     58  C   UNL A   1      42.669  29.774  35.442  1.00  0.00     0.031 C 
ATOM     59  C   UNL A   1      43.587  28.353  33.626  1.00  0.00     0.037 A 
BRANCH  46  60
ATOM     60  C   UNL A   1      42.400  26.151  27.971  1.00  0.00     0.064 A 
ATOM     61  C   UNL A   1      41.956  24.827  27.825  1.00  0.00     0.173 A 
ATOM     62  C   UNL A   1      43.249  26.668  26.981  1.00  0.00     0.173 A 
ATOM     63  F   UNL A   1      41.155  24.278  28.751  1.00  0.00    -0.203 F 
ATOM     64  C   UNL A   1      42.368  24.045  26.750  1.00  0.00     0.198 A 
ATOM     65  C   UNL A   1      43.631  25.894  25.888  1.00  0.00     0.198 A 
ATOM     66  F   UNL A   1      43.702  27.927  27.068  1.00  0.00    -0.203 F 
ATOM     67  F   UNL A   1      41.973  22.768  26.662  1.00  0.00    -0.200 F 
ATOM     68  C   UNL A   1      43.197  24.582  25.777  1.00  0.00     0.200 A 
ATOM     69  F   UNL A   1      44.422  26.419  24.942  1.00  0.00    -0.200 F 
ATOM     70  F   UNL A   1      43.584  23.833  24.736  1.00  0.00    -0.200 F 
ENDBRANCH  46  60
BRANCH  47  71
ATOM     71  C   UNL A   1      39.013  31.911  35.427  1.00  0.00     0.064 A 
ATOM     72  C   UNL A   1      38.251  31.375  36.474  1.00  0.00     0.173 A 
ATOM     73  C   UNL A   1      39.329  33.276  35.482  1.00  0.00     0.173 A 
ATOM     74  F   UNL A   1      37.910  30.078  36.459  1.00  0.00    -0.203 F 
ATOM     75  C   UNL A   1      37.825  32.172  37.535  1.00  0.00     0.198 A 
ATOM     76  C   UNL A   1      38.924  34.066  36.556  1.00  0.00     0.198 A 
ATOM     77  F   UNL A   1      40.063  33.835  34.508  1.00  0.00    -0.203 F 
ATOM     78  F   UNL A   1      37.078  31.639  38.512  1.00  0.00    -0.200 F 
ATOM     79  C   UNL A   1      38.170  33.514  37.580  1.00  0.00     0.200 A 
ATOM     80  F   UNL A   1      39.278  35.358  36.606  1.00  0.00    -0.200 F 
ATOM     81  F   UNL A   1      37.778  34.276  38.611  1.00  0.00    -0.200 F 
ENDBRANCH  47  71
BRANCH  59  82
ATOM     82  C   UNL A   1      44.789  28.089  34.485  1.00  0.00     0.064 A 
ATOM     83  C   UNL A   1      45.890  28.958  34.488  1.00  0.00     0.173 A 
ATOM     84  C   UNL A   1      44.802  27.006  35.377  1.00  0.00     0.173 A 
ATOM     85  F   UNL A   1      45.931  30.000  33.644  1.00  0.00    -0.203 F 
ATOM     86  C   UNL A   1      46.966  28.744  35.345  1.00  0.00     0.198 A 
ATOM     87  C   UNL A   1      45.864  26.815  36.256  1.00  0.00     0.198 A 
ATOM     88  F   UNL A   1      43.767  26.153  35.421  1.00  0.00    -0.203 F 
ATOM     89  F   UNL A   1      48.023  29.567  35.308  1.00  0.00    -0.200 F 
ATOM     90  C   UNL A   1      46.946  27.681  36.237  1.00  0.00     0.200 A 
ATOM     91  F   UNL A   1      45.835  25.799  37.129  1.00  0.00    -0.200 F 
ATOM     92  F   UNL A   1      47.973  27.491  37.076  1.00  0.00    -0.200 F 
ENDBRANCH  59  82
ENDBRANCH  33  34
ENDBRANCH  25  28
ENDBRANCH  23  24
ENDBRANCH   1  23
TORSDOF 11
ENDMDL
