MODEL 1
REMARK VINA RESULT:     -12.2      0.000      0.000
REMARK SMILES O=C(/C=C/c1ccc(NC(=O)NC2CCCC2)c(F)c1)NCCCNC(=O)c1ccc(-c2c3nc(c(-c4c(F)c(F)c(F)c(F)c4F)c4ccc([nH]4)c(-c4c(F)c(F)c(F)c(F)c4F)c4nc(c(-c5c(F)c(F)c(F)c(F)c5F)c5ccc2[nH]5)C=C4)C=C3)cc1
REMARK SMILES IDX 22 1 21 2 1 3 2 4 3 6 4 7 5 8 6 9 20 10 7 11 18 12 8 13
REMARK SMILES IDX 19 14 9 15 10 16 11 18 12 19 13 21 14 22 17 23 15 24 16 25
REMARK SMILES IDX 23 26 24 27 25 28 26 29 27 31 28 32 29 33 90 34 30 35 89 36
REMARK SMILES IDX 31 37 32 38 33 39 83 40 34 41 88 42 82 43 84 44 35 45 87 46
REMARK SMILES IDX 81 47 80 48 36 50 68 51 48 52 67 53 49 54 52 55 66 56 85 57
REMARK SMILES IDX 50 58 51 59 65 61 86 62 53 63 37 64 38 65 46 66 39 67 40 68
REMARK SMILES IDX 44 69 47 70 41 71 42 72 45 73 43 74 69 75 70 76 78 77 71 78
REMARK SMILES IDX 72 79 76 80 79 81 73 82 74 83 77 84 75 85 54 86 55 87 63 88
REMARK SMILES IDX 56 89 57 90 61 91 64 92 58 93 59 94 62 95 60 96
REMARK H PARENT 21 5 9 17 12 20 25 30 84 49 52 60
REMARK Flexibility Score: inf
ROOT
ATOM      1  C   UNL A   1      34.292  33.687  29.012  1.00  0.00     0.118 C 
ENDROOT
BRANCH   1   2
ATOM      2  N   UNL A   1      34.059  32.341  28.525  1.00  0.00    -0.352 N 
ATOM      3  O   UNL A   1      36.220  31.993  27.830  1.00  0.00    -0.270 OA
ATOM      4  C   UNL A   1      35.065  31.609  27.954  1.00  0.00     0.244 C 
ATOM      5  H   UNL A   1      33.159  31.948  28.606  1.00  0.00     0.163 HD
BRANCH   4   6
ATOM      6  C   UNL A   1      34.710  30.224  27.562  1.00  0.00     0.072 C 
ATOM      7  C   UNL A   1      33.485  29.810  27.199  1.00  0.00     0.014 C 
BRANCH   7   8
ATOM      8  C   UNL A   1      33.150  28.415  26.850  1.00  0.00    -0.022 A 
ATOM      9  C   UNL A   1      31.936  27.810  27.210  1.00  0.00     0.010 A 
ATOM     10  C   UNL A   1      34.048  27.675  26.069  1.00  0.00     0.049 A 
ATOM     11  C   UNL A   1      31.548  26.589  26.653  1.00  0.00     0.030 A 
ATOM     12  C   UNL A   1      33.662  26.447  25.533  1.00  0.00     0.147 A 
ATOM     13  C   UNL A   1      32.364  25.970  25.716  1.00  0.00     0.078 A 
ATOM     14  F   UNL A   1      34.500  25.808  24.701  1.00  0.00    -0.205 F 
BRANCH  13  15
ATOM     15  N   UNL A   1      31.909  24.926  24.902  1.00  0.00    -0.305 N 
ATOM     16  C   UNL A   1      30.809  24.815  24.122  1.00  0.00     0.319 C 
ATOM     17  H   UNL A   1      32.492  24.132  24.896  1.00  0.00     0.171 HD
ATOM     18  O   UNL A   1      30.434  23.693  23.775  1.00  0.00    -0.248 OA
ATOM     19  N   UNL A   1      30.172  25.880  23.584  1.00  0.00    -0.335 N 
ATOM     20  H   UNL A   1      29.354  25.632  23.095  1.00  0.00     0.165 HD
BRANCH  19  21
ATOM     21  C   UNL A   1      30.433  27.308  23.573  1.00  0.00     0.083 C 
ATOM     22  C   UNL A   1      31.502  27.787  22.595  1.00  0.00     0.025 C 
ATOM     23  C   UNL A   1      29.235  28.145  23.115  1.00  0.00     0.025 C 
ATOM     24  C   UNL A   1      31.336  29.301  22.645  1.00  0.00     0.002 C 
ATOM     25  C   UNL A   1      29.837  29.529  22.848  1.00  0.00     0.002 C 
ENDBRANCH  19  21
ENDBRANCH  13  15
ENDBRANCH   7   8
ENDBRANCH   4   6
ENDBRANCH   1   2
BRANCH   1  26
ATOM     26  C   UNL A   1      33.057  34.572  28.887  1.00  0.00     0.042 C 
BRANCH  26  27
ATOM     27  C   UNL A   1      33.228  35.969  29.478  1.00  0.00     0.118 C 
BRANCH  27  28
ATOM     28  N   UNL A   1      32.450  36.171  30.691  1.00  0.00    -0.352 N 
ATOM     29  C   UNL A   1      32.637  35.697  31.965  1.00  0.00     0.251 C 
ATOM     30  H   UNL A   1      31.657  36.742  30.579  1.00  0.00     0.163 HD
ATOM     31  O   UNL A   1      31.761  35.890  32.804  1.00  0.00    -0.269 OA
BRANCH  29  32
ATOM     32  C   UNL A   1      33.858  34.950  32.347  1.00  0.00     0.039 A 
ATOM     33  C   UNL A   1      35.093  35.596  32.213  1.00  0.00     0.014 A 
ATOM     34  C   UNL A   1      33.819  33.616  32.761  1.00  0.00     0.014 A 
ATOM     35  C   UNL A   1      36.275  34.920  32.521  1.00  0.00     0.010 A 
ATOM     36  C   UNL A   1      34.996  32.963  33.135  1.00  0.00     0.010 A 
ATOM     37  C   UNL A   1      36.237  33.603  33.003  1.00  0.00    -0.014 A 
BRANCH  37  38
ATOM     38  C   UNL A   1      37.494  32.884  33.340  1.00  0.00     0.031 A 
ATOM     39  C   UNL A   1      38.209  33.165  34.633  1.00  0.00     0.074 A 
ATOM     40  C   UNL A   1      38.001  31.985  32.475  1.00  0.00     0.049 A 
ATOM     41  N   UNL A   1      39.314  32.637  35.100  1.00  0.00    -0.248 NA
ATOM     42  C   UNL A   1      37.619  34.187  35.512  1.00  0.00     0.031 C 
ATOM     43  C   UNL A   1      37.426  31.652  31.173  1.00  0.00     0.029 A 
ATOM     44  N   UNL A   1      39.112  31.184  32.564  1.00  0.00    -0.354 N 
ATOM     45  C   UNL A   1      39.553  33.267  36.313  1.00  0.00     0.074 A 
ATOM     46  C   UNL A   1      38.509  34.254  36.491  1.00  0.00     0.031 C 
ATOM     47  C   UNL A   1      38.166  30.689  30.599  1.00  0.00     0.029 A 
ATOM     48  C   UNL A   1      39.283  30.358  31.480  1.00  0.00     0.049 A 
ATOM     49  H   UNL A   1      39.728  31.200  33.332  1.00  0.00     0.167 HD
ATOM     50  C   UNL A   1      40.538  33.028  37.212  1.00  0.00     0.037 A 
ATOM     51  C   UNL A   1      40.226  29.429  31.229  1.00  0.00     0.037 A 
ATOM     52  C   UNL A   1      41.561  32.028  37.050  1.00  0.00     0.049 A 
ATOM     53  C   UNL A   1      41.295  29.166  32.254  1.00  0.00     0.074 A 
ATOM     54  C   UNL A   1      42.585  31.693  37.920  1.00  0.00     0.029 A 
ATOM     55  N   UNL A   1      41.683  31.195  35.948  1.00  0.00    -0.354 N 
ATOM     56  N   UNL A   1      41.486  29.739  33.417  1.00  0.00    -0.248 NA
ATOM     57  C   UNL A   1      42.272  28.114  31.937  1.00  0.00     0.031 C 
ATOM     58  C   UNL A   1      43.346  30.678  37.331  1.00  0.00     0.029 A 
ATOM     59  C   UNL A   1      42.768  30.349  36.116  1.00  0.00     0.049 A 
ATOM     60  H   UNL A   1      41.089  31.204  35.165  1.00  0.00     0.167 HD
ATOM     61  C   UNL A   1      42.579  29.099  33.984  1.00  0.00     0.074 A 
ATOM     62  C   UNL A   1      43.006  28.087  33.042  1.00  0.00     0.031 C 
ATOM     63  C   UNL A   1      43.171  29.330  35.181  1.00  0.00     0.037 A 
BRANCH  50  64
ATOM     64  C   UNL A   1      40.554  33.852  38.467  1.00  0.00     0.064 A 
ATOM     65  C   UNL A   1      39.763  33.492  39.568  1.00  0.00     0.173 A 
ATOM     66  C   UNL A   1      41.307  35.032  38.556  1.00  0.00     0.173 A 
ATOM     67  F   UNL A   1      39.019  32.376  39.532  1.00  0.00    -0.203 F 
ATOM     68  C   UNL A   1      39.716  34.291  40.707  1.00  0.00     0.198 A 
ATOM     69  C   UNL A   1      41.279  35.814  39.708  1.00  0.00     0.198 A 
ATOM     70  F   UNL A   1      42.090  35.412  37.536  1.00  0.00    -0.203 F 
ATOM     71  F   UNL A   1      38.930  33.943  41.736  1.00  0.00    -0.200 F 
ATOM     72  C   UNL A   1      40.477  35.448  40.779  1.00  0.00     0.200 A 
ATOM     73  F   UNL A   1      42.036  36.917  39.785  1.00  0.00    -0.200 F 
ATOM     74  F   UNL A   1      40.442  36.209  41.881  1.00  0.00    -0.200 F 
ENDBRANCH  50  64
BRANCH  51  75
ATOM     75  C   UNL A   1      40.158  28.637  29.976  1.00  0.00     0.064 A 
ATOM     76  C   UNL A   1      39.501  27.399  29.926  1.00  0.00     0.173 A 
ATOM     77  C   UNL A   1      40.776  29.096  28.803  1.00  0.00     0.173 A 
ATOM     78  F   UNL A   1      38.901  26.915  31.023  1.00  0.00    -0.203 F 
ATOM     79  C   UNL A   1      39.477  26.645  28.755  1.00  0.00     0.198 A 
ATOM     80  C   UNL A   1      40.729  28.353  27.627  1.00  0.00     0.198 A 
ATOM     81  F   UNL A   1      41.400  30.284  28.798  1.00  0.00    -0.203 F 
ATOM     82  F   UNL A   1      38.867  25.451  28.742  1.00  0.00    -0.200 F 
ATOM     83  C   UNL A   1      40.087  27.124  27.605  1.00  0.00     0.200 A 
ATOM     84  F   UNL A   1      41.301  28.830  26.513  1.00  0.00    -0.200 F 
ATOM     85  F   UNL A   1      40.053  26.404  26.476  1.00  0.00    -0.200 F 
ENDBRANCH  51  75
BRANCH  63  86
ATOM     86  C   UNL A   1      44.320  28.449  35.571  1.00  0.00     0.064 A 
ATOM     87  C   UNL A   1      44.093  27.282  36.316  1.00  0.00     0.173 A 
ATOM     88  C   UNL A   1      45.647  28.786  35.265  1.00  0.00     0.173 A 
ATOM     89  F   UNL A   1      42.843  26.920  36.642  1.00  0.00    -0.203 F 
ATOM     90  C   UNL A   1      45.153  26.489  36.749  1.00  0.00     0.198 A 
ATOM     91  C   UNL A   1      46.702  27.976  35.676  1.00  0.00     0.198 A 
ATOM     92  F   UNL A   1      45.915  29.886  34.545  1.00  0.00    -0.203 F 
ATOM     93  F   UNL A   1      44.914  25.394  37.483  1.00  0.00    -0.200 F 
ATOM     94  C   UNL A   1      46.456  26.835  36.424  1.00  0.00     0.200 A 
ATOM     95  F   UNL A   1      47.960  28.298  35.342  1.00  0.00    -0.200 F 
ATOM     96  F   UNL A   1      47.475  26.064  36.829  1.00  0.00    -0.200 F 
ENDBRANCH  63  86
ENDBRANCH  37  38
ENDBRANCH  29  32
ENDBRANCH  27  28
ENDBRANCH  26  27
ENDBRANCH   1  26
TORSDOF 13
ENDMDL
MODEL 2
REMARK VINA RESULT:     -12.0      6.035     11.081
REMARK SMILES O=C(/C=C/c1ccc(NC(=O)NC2CCCC2)c(F)c1)NCCCNC(=O)c1ccc(-c2c3nc(c(-c4c(F)c(F)c(F)c(F)c4F)c4ccc([nH]4)c(-c4c(F)c(F)c(F)c(F)c4F)c4nc(c(-c5c(F)c(F)c(F)c(F)c5F)c5ccc2[nH]5)C=C4)C=C3)cc1
REMARK SMILES IDX 22 1 21 2 1 3 2 4 3 6 4 7 5 8 6 9 20 10 7 11 18 12 8 13
REMARK SMILES IDX 19 14 9 15 10 16 11 18 12 19 13 21 14 22 17 23 15 24 16 25
REMARK SMILES IDX 23 26 24 27 25 28 26 29 27 31 28 32 29 33 90 34 30 35 89 36
REMARK SMILES IDX 31 37 32 38 33 39 83 40 34 41 88 42 82 43 84 44 35 45 87 46
REMARK SMILES IDX 81 47 80 48 36 50 68 51 48 52 67 53 49 54 52 55 66 56 85 57
REMARK SMILES IDX 50 58 51 59 65 61 86 62 53 63 37 64 38 65 46 66 39 67 40 68
REMARK SMILES IDX 44 69 47 70 41 71 42 72 45 73 43 74 69 75 70 76 78 77 71 78
REMARK SMILES IDX 72 79 76 80 79 81 73 82 74 83 77 84 75 85 54 86 55 87 63 88
REMARK SMILES IDX 56 89 57 90 61 91 64 92 58 93 59 94 62 95 60 96
REMARK H PARENT 21 5 9 17 12 20 25 30 84 49 52 60
REMARK Flexibility Score: inf
ROOT
ATOM      1  C   UNL A   1      38.557  21.855  25.789  1.00  0.00     0.118 C 
ENDROOT
BRANCH   1   2
ATOM      2  N   UNL A   1      37.601  22.522  24.925  1.00  0.00    -0.352 N 
ATOM      3  O   UNL A   1      35.743  21.728  26.017  1.00  0.00    -0.270 OA
ATOM      4  C   UNL A   1      36.253  22.381  25.117  1.00  0.00     0.244 C 
ATOM      5  H   UNL A   1      37.929  23.085  24.186  1.00  0.00     0.163 HD
BRANCH   4   6
ATOM      6  C   UNL A   1      35.389  23.170  24.207  1.00  0.00     0.072 C 
ATOM      7  C   UNL A   1      34.390  23.980  24.593  1.00  0.00     0.014 C 
BRANCH   7   8
ATOM      8  C   UNL A   1      33.519  24.726  23.662  1.00  0.00    -0.022 A 
ATOM      9  C   UNL A   1      32.151  24.451  23.513  1.00  0.00     0.010 A 
ATOM     10  C   UNL A   1      34.057  25.800  22.940  1.00  0.00     0.049 A 
ATOM     11  C   UNL A   1      31.313  25.329  22.823  1.00  0.00     0.030 A 
ATOM     12  C   UNL A   1      33.216  26.661  22.236  1.00  0.00     0.147 A 
ATOM     13  C   UNL A   1      31.831  26.501  22.290  1.00  0.00     0.078 A 
ATOM     14  F   UNL A   1      33.743  27.743  21.642  1.00  0.00    -0.205 F 
BRANCH  13  15
ATOM     15  N   UNL A   1      31.014  27.555  21.864  1.00  0.00    -0.305 N 
ATOM     16  C   UNL A   1      30.336  28.496  22.560  1.00  0.00     0.319 C 
ATOM     17  H   UNL A   1      30.916  27.624  20.887  1.00  0.00     0.171 HD
ATOM     18  O   UNL A   1      29.415  29.100  22.005  1.00  0.00    -0.248 OA
ATOM     19  N   UNL A   1      30.701  28.913  23.794  1.00  0.00    -0.335 N 
ATOM     20  H   UNL A   1      30.067  29.556  24.187  1.00  0.00     0.165 HD
BRANCH  19  21
ATOM     21  C   UNL A   1      31.825  28.616  24.664  1.00  0.00     0.083 C 
ATOM     22  C   UNL A   1      32.354  29.781  25.498  1.00  0.00     0.025 C 
ATOM     23  C   UNL A   1      31.496  27.606  25.766  1.00  0.00     0.025 C 
ATOM     24  C   UNL A   1      33.312  29.086  26.458  1.00  0.00     0.002 C 
ATOM     25  C   UNL A   1      32.677  27.722  26.734  1.00  0.00     0.002 C 
ENDBRANCH  19  21
ENDBRANCH  13  15
ENDBRANCH   7   8
ENDBRANCH   4   6
ENDBRANCH   1   2
BRANCH   1  26
ATOM     26  C   UNL A   1      39.081  20.558  25.184  1.00  0.00     0.042 C 
BRANCH  26  27
ATOM     27  C   UNL A   1      39.476  19.503  26.214  1.00  0.00     0.118 C 
BRANCH  27  28
ATOM     28  N   UNL A   1      40.745  18.861  25.909  1.00  0.00    -0.352 N 
ATOM     29  C   UNL A   1      42.024  19.359  25.903  1.00  0.00     0.251 C 
ATOM     30  H   UNL A   1      40.675  17.910  25.665  1.00  0.00     0.163 HD
ATOM     31  O   UNL A   1      42.933  18.654  25.471  1.00  0.00    -0.269 OA
BRANCH  29  32
ATOM     32  C   UNL A   1      42.331  20.724  26.391  1.00  0.00     0.039 A 
ATOM     33  C   UNL A   1      42.674  21.698  25.446  1.00  0.00     0.014 A 
ATOM     34  C   UNL A   1      42.361  21.043  27.751  1.00  0.00     0.014 A 
ATOM     35  C   UNL A   1      43.012  22.988  25.858  1.00  0.00     0.010 A 
ATOM     36  C   UNL A   1      42.632  22.351  28.159  1.00  0.00     0.010 A 
ATOM     37  C   UNL A   1      42.977  23.332  27.218  1.00  0.00    -0.014 A 
BRANCH  37  38
ATOM     38  C   UNL A   1      43.328  24.707  27.659  1.00  0.00     0.031 A 
ATOM     39  C   UNL A   1      44.767  25.140  27.733  1.00  0.00     0.074 A 
ATOM     40  C   UNL A   1      42.351  25.566  28.007  1.00  0.00     0.049 A 
ATOM     41  N   UNL A   1      45.266  26.297  28.094  1.00  0.00    -0.248 NA
ATOM     42  C   UNL A   1      45.783  24.138  27.376  1.00  0.00     0.031 C 
ATOM     43  C   UNL A   1      40.922  25.257  28.016  1.00  0.00     0.029 A 
ATOM     44  N   UNL A   1      42.412  26.876  28.415  1.00  0.00    -0.354 N 
ATOM     45  C   UNL A   1      46.645  26.157  28.015  1.00  0.00     0.074 A 
ATOM     46  C   UNL A   1      46.909  24.789  27.624  1.00  0.00     0.031 C 
ATOM     47  C   UNL A   1      40.238  26.356  28.375  1.00  0.00     0.029 A 
ATOM     48  C   UNL A   1      41.180  27.437  28.647  1.00  0.00     0.049 A 
ATOM     49  H   UNL A   1      43.258  27.365  28.530  1.00  0.00     0.167 HD
ATOM     50  C   UNL A   1      47.604  27.090  28.225  1.00  0.00     0.037 A 
ATOM     51  C   UNL A   1      40.847  28.687  29.024  1.00  0.00     0.037 A 
ATOM     52  C   UNL A   1      47.341  28.459  28.586  1.00  0.00     0.049 A 
ATOM     53  C   UNL A   1      41.929  29.711  29.227  1.00  0.00     0.074 A 
ATOM     54  C   UNL A   1      48.247  29.486  28.792  1.00  0.00     0.029 A 
ATOM     55  N   UNL A   1      46.077  28.993  28.787  1.00  0.00    -0.354 N 
ATOM     56  N   UNL A   1      43.227  29.578  29.109  1.00  0.00    -0.248 NA
ATOM     57  C   UNL A   1      41.498  31.067  29.601  1.00  0.00     0.031 C 
ATOM     58  C   UNL A   1      47.534  30.635  29.149  1.00  0.00     0.029 A 
ATOM     59  C   UNL A   1      46.181  30.336  29.117  1.00  0.00     0.049 A 
ATOM     60  H   UNL A   1      45.233  28.495  28.707  1.00  0.00     0.167 HD
ATOM     61  C   UNL A   1      43.765  30.833  29.360  1.00  0.00     0.074 A 
ATOM     62  C   UNL A   1      42.653  31.718  29.630  1.00  0.00     0.031 C 
ATOM     63  C   UNL A   1      45.066  31.213  29.363  1.00  0.00     0.037 A 
BRANCH  50  64
ATOM     64  C   UNL A   1      49.035  26.672  28.053  1.00  0.00     0.064 A 
ATOM     65  C   UNL A   1      49.832  26.375  29.168  1.00  0.00     0.173 A 
ATOM     66  C   UNL A   1      49.635  26.625  26.785  1.00  0.00     0.173 A 
ATOM     67  F   UNL A   1      49.309  26.411  30.403  1.00  0.00    -0.203 F 
ATOM     68  C   UNL A   1      51.180  26.058  29.022  1.00  0.00     0.198 A 
ATOM     69  C   UNL A   1      50.976  26.280  26.640  1.00  0.00     0.198 A 
ATOM     70  F   UNL A   1      48.912  26.887  25.687  1.00  0.00    -0.203 F 
ATOM     71  F   UNL A   1      51.929  25.806  30.104  1.00  0.00    -0.200 F 
ATOM     72  C   UNL A   1      51.749  26.006  27.759  1.00  0.00     0.200 A 
ATOM     73  F   UNL A   1      51.517  26.205  25.417  1.00  0.00    -0.200 F 
ATOM     74  F   UNL A   1      53.043  25.687  27.617  1.00  0.00    -0.200 F 
ENDBRANCH  50  64
BRANCH  51  75
ATOM     75  C   UNL A   1      39.415  29.050  29.171  1.00  0.00     0.064 A 
ATOM     76  C   UNL A   1      38.648  29.467  28.074  1.00  0.00     0.173 A 
ATOM     77  C   UNL A   1      38.791  29.009  30.427  1.00  0.00     0.173 A 
ATOM     78  F   UNL A   1      39.202  29.527  26.854  1.00  0.00    -0.203 F 
ATOM     79  C   UNL A   1      37.316  29.843  28.229  1.00  0.00     0.198 A 
ATOM     80  C   UNL A   1      37.452  29.362  30.577  1.00  0.00     0.198 A 
ATOM     81  F   UNL A   1      39.480  28.599  31.502  1.00  0.00    -0.203 F 
ATOM     82  F   UNL A   1      36.613  30.266  27.169  1.00  0.00    -0.200 F 
ATOM     83  C   UNL A   1      36.717  29.786  29.480  1.00  0.00     0.200 A 
ATOM     84  F   UNL A   1      36.872  29.284  31.781  1.00  0.00    -0.200 F 
ATOM     85  F   UNL A   1      35.433  30.136  29.626  1.00  0.00    -0.200 F 
ENDBRANCH  51  75
BRANCH  63  86
ATOM     86  C   UNL A   1      45.367  32.659  29.622  1.00  0.00     0.064 A 
ATOM     87  C   UNL A   1      45.595  33.110  30.932  1.00  0.00     0.173 A 
ATOM     88  C   UNL A   1      45.368  33.610  28.591  1.00  0.00     0.173 A 
ATOM     89  F   UNL A   1      45.596  32.241  31.955  1.00  0.00    -0.203 F 
ATOM     90  C   UNL A   1      45.804  34.460  31.200  1.00  0.00     0.198 A 
ATOM     91  C   UNL A   1      45.605  34.955  28.859  1.00  0.00     0.198 A 
ATOM     92  F   UNL A   1      45.166  33.227  27.320  1.00  0.00    -0.203 F 
ATOM     93  F   UNL A   1      45.992  34.870  32.461  1.00  0.00    -0.200 F 
ATOM     94  C   UNL A   1      45.814  35.380  30.163  1.00  0.00     0.200 A 
ATOM     95  F   UNL A   1      45.638  35.841  27.853  1.00  0.00    -0.200 F 
ATOM     96  F   UNL A   1      46.030  36.678  30.419  1.00  0.00    -0.200 F 
ENDBRANCH  63  86
ENDBRANCH  37  38
ENDBRANCH  29  32
ENDBRANCH  27  28
ENDBRANCH  26  27
ENDBRANCH   1  26
TORSDOF 13
ENDMDL
MODEL 3
REMARK VINA RESULT:     -12.0      5.782     10.772
REMARK SMILES O=C(/C=C/c1ccc(NC(=O)NC2CCCC2)c(F)c1)NCCCNC(=O)c1ccc(-c2c3nc(c(-c4c(F)c(F)c(F)c(F)c4F)c4ccc([nH]4)c(-c4c(F)c(F)c(F)c(F)c4F)c4nc(c(-c5c(F)c(F)c(F)c(F)c5F)c5ccc2[nH]5)C=C4)C=C3)cc1
REMARK SMILES IDX 22 1 21 2 1 3 2 4 3 6 4 7 5 8 6 9 20 10 7 11 18 12 8 13
REMARK SMILES IDX 19 14 9 15 10 16 11 18 12 19 13 21 14 22 17 23 15 24 16 25
REMARK SMILES IDX 23 26 24 27 25 28 26 29 27 31 28 32 29 33 90 34 30 35 89 36
REMARK SMILES IDX 31 37 32 38 33 39 83 40 34 41 88 42 82 43 84 44 35 45 87 46
REMARK SMILES IDX 81 47 80 48 36 50 68 51 48 52 67 53 49 54 52 55 66 56 85 57
REMARK SMILES IDX 50 58 51 59 65 61 86 62 53 63 37 64 38 65 46 66 39 67 40 68
REMARK SMILES IDX 44 69 47 70 41 71 42 72 45 73 43 74 69 75 70 76 78 77 71 78
REMARK SMILES IDX 72 79 76 80 79 81 73 82 74 83 77 84 75 85 54 86 55 87 63 88
REMARK SMILES IDX 56 89 57 90 61 91 64 92 58 93 59 94 62 95 60 96
REMARK H PARENT 21 5 9 17 12 20 25 30 84 49 52 60
REMARK Flexibility Score: inf
ROOT
ATOM      1  C   UNL A   1      38.731  21.993  25.835  1.00  0.00     0.118 C 
ENDROOT
BRANCH   1   2
ATOM      2  N   UNL A   1      37.784  22.697  24.992  1.00  0.00    -0.352 N 
ATOM      3  O   UNL A   1      35.921  21.982  26.130  1.00  0.00    -0.270 OA
ATOM      4  C   UNL A   1      36.435  22.612  25.216  1.00  0.00     0.244 C 
ATOM      5  H   UNL A   1      38.117  23.245  24.244  1.00  0.00     0.163 HD
BRANCH   4   6
ATOM      6  C   UNL A   1      35.583  23.434  24.325  1.00  0.00     0.072 C 
ATOM      7  C   UNL A   1      34.290  23.726  24.540  1.00  0.00     0.014 C 
BRANCH   7   8
ATOM      8  C   UNL A   1      33.453  24.517  23.616  1.00  0.00    -0.022 A 
ATOM      9  C   UNL A   1      32.080  24.283  23.442  1.00  0.00     0.010 A 
ATOM     10  C   UNL A   1      34.030  25.592  22.926  1.00  0.00     0.049 A 
ATOM     11  C   UNL A   1      31.275  25.199  22.761  1.00  0.00     0.030 A 
ATOM     12  C   UNL A   1      33.222  26.493  22.232  1.00  0.00     0.147 A 
ATOM     13  C   UNL A   1      31.833  26.369  22.263  1.00  0.00     0.078 A 
ATOM     14  F   UNL A   1      33.786  27.574  21.671  1.00  0.00    -0.205 F 
BRANCH  13  15
ATOM     15  N   UNL A   1      31.050  27.454  21.852  1.00  0.00    -0.305 N 
ATOM     16  C   UNL A   1      30.372  28.386  22.561  1.00  0.00     0.319 C 
ATOM     17  H   UNL A   1      30.982  27.559  20.875  1.00  0.00     0.171 HD
ATOM     18  O   UNL A   1      29.480  29.028  22.001  1.00  0.00    -0.248 OA
ATOM     19  N   UNL A   1      30.710  28.752  23.818  1.00  0.00    -0.335 N 
ATOM     20  H   UNL A   1      30.078  29.395  24.215  1.00  0.00     0.165 HD
BRANCH  19  21
ATOM     21  C   UNL A   1      31.801  28.401  24.709  1.00  0.00     0.083 C 
ATOM     22  C   UNL A   1      32.369  29.538  25.555  1.00  0.00     0.025 C 
ATOM     23  C   UNL A   1      31.404  27.406  25.803  1.00  0.00     0.025 C 
ATOM     24  C   UNL A   1      33.275  28.797  26.532  1.00  0.00     0.002 C 
ATOM     25  C   UNL A   1      32.571  27.465  26.793  1.00  0.00     0.002 C 
ENDBRANCH  19  21
ENDBRANCH  13  15
ENDBRANCH   7   8
ENDBRANCH   4   6
ENDBRANCH   1   2
BRANCH   1  26
ATOM     26  C   UNL A   1      38.966  20.559  25.373  1.00  0.00     0.042 C 
BRANCH  26  27
ATOM     27  C   UNL A   1      39.643  19.671  26.413  1.00  0.00     0.118 C 
BRANCH  27  28
ATOM     28  N   UNL A   1      40.879  19.075  25.931  1.00  0.00    -0.352 N 
ATOM     29  C   UNL A   1      42.131  19.612  25.771  1.00  0.00     0.251 C 
ATOM     30  H   UNL A   1      40.805  18.127  25.678  1.00  0.00     0.163 HD
ATOM     31  O   UNL A   1      42.995  18.945  25.208  1.00  0.00    -0.269 OA
BRANCH  29  32
ATOM     32  C   UNL A   1      42.459  20.977  26.244  1.00  0.00     0.039 A 
ATOM     33  C   UNL A   1      42.489  21.205  27.625  1.00  0.00     0.014 A 
ATOM     34  C   UNL A   1      42.665  22.044  25.365  1.00  0.00     0.014 A 
ATOM     35  C   UNL A   1      42.753  22.484  28.120  1.00  0.00     0.010 A 
ATOM     36  C   UNL A   1      42.996  23.307  25.861  1.00  0.00     0.010 A 
ATOM     37  C   UNL A   1      43.027  23.544  27.243  1.00  0.00    -0.014 A 
BRANCH  37  38
ATOM     38  C   UNL A   1      43.318  24.904  27.767  1.00  0.00     0.031 A 
ATOM     39  C   UNL A   1      44.738  25.355  27.973  1.00  0.00     0.074 A 
ATOM     40  C   UNL A   1      42.301  25.732  28.072  1.00  0.00     0.049 A 
ATOM     41  N   UNL A   1      45.186  26.503  28.419  1.00  0.00    -0.248 NA
ATOM     42  C   UNL A   1      45.797  24.383  27.656  1.00  0.00     0.031 C 
ATOM     43  C   UNL A   1      40.881  25.402  27.955  1.00  0.00     0.029 A 
ATOM     44  N   UNL A   1      42.306  27.024  28.537  1.00  0.00    -0.354 N 
ATOM     45  C   UNL A   1      46.569  26.386  28.444  1.00  0.00     0.074 A 
ATOM     46  C   UNL A   1      46.888  25.041  28.019  1.00  0.00     0.031 C 
ATOM     47  C   UNL A   1      40.151  26.474  28.303  1.00  0.00     0.029 A 
ATOM     48  C   UNL A   1      41.049  27.557  28.693  1.00  0.00     0.049 A 
ATOM     49  H   UNL A   1      43.131  27.521  28.738  1.00  0.00     0.167 HD
ATOM     50  C   UNL A   1      47.491  27.324  28.767  1.00  0.00     0.037 A 
ATOM     51  C   UNL A   1      40.665  28.785  29.094  1.00  0.00     0.037 A 
ATOM     52  C   UNL A   1      47.176  28.672  29.163  1.00  0.00     0.049 A 
ATOM     53  C   UNL A   1      41.709  29.815  29.424  1.00  0.00     0.074 A 
ATOM     54  C   UNL A   1      48.045  29.702  29.482  1.00  0.00     0.029 A 
ATOM     55  N   UNL A   1      45.891  29.179  29.284  1.00  0.00    -0.354 N 
ATOM     56  N   UNL A   1      43.014  29.706  29.403  1.00  0.00    -0.248 NA
ATOM     57  C   UNL A   1      41.225  31.147  29.818  1.00  0.00     0.031 C 
ATOM     58  C   UNL A   1      47.285  30.824  29.827  1.00  0.00     0.029 A 
ATOM     59  C   UNL A   1      45.944  30.507  29.677  1.00  0.00     0.049 A 
ATOM     60  H   UNL A   1      45.065  28.672  29.118  1.00  0.00     0.167 HD
ATOM     61  C   UNL A   1      43.508  30.957  29.748  1.00  0.00     0.074 A 
ATOM     62  C   UNL A   1      42.362  31.813  29.965  1.00  0.00     0.031 C 
ATOM     63  C   UNL A   1      44.798  31.357  29.870  1.00  0.00     0.037 A 
BRANCH  50  64
ATOM     64  C   UNL A   1      48.939  26.935  28.692  1.00  0.00     0.064 A 
ATOM     65  C   UNL A   1      49.592  26.389  29.807  1.00  0.00     0.173 A 
ATOM     66  C   UNL A   1      49.696  27.160  27.532  1.00  0.00     0.173 A 
ATOM     67  F   UNL A   1      48.915  26.160  30.943  1.00  0.00    -0.203 F 
ATOM     68  C   UNL A   1      50.952  26.095  29.768  1.00  0.00     0.198 A 
ATOM     69  C   UNL A   1      51.050  26.837  27.487  1.00  0.00     0.198 A 
ATOM     70  F   UNL A   1      49.116  27.666  26.435  1.00  0.00    -0.203 F 
ATOM     71  F   UNL A   1      51.561  25.602  30.855  1.00  0.00    -0.200 F 
ATOM     72  C   UNL A   1      51.679  26.314  28.608  1.00  0.00     0.200 A 
ATOM     73  F   UNL A   1      51.744  27.026  26.356  1.00  0.00    -0.200 F 
ATOM     74  F   UNL A   1      52.985  26.017  28.566  1.00  0.00    -0.200 F 
ENDBRANCH  50  64
BRANCH  51  75
ATOM     75  C   UNL A   1      39.219  29.119  29.142  1.00  0.00     0.064 A 
ATOM     76  C   UNL A   1      38.503  29.098  30.347  1.00  0.00     0.173 A 
ATOM     77  C   UNL A   1      38.519  29.442  27.971  1.00  0.00     0.173 A 
ATOM     78  F   UNL A   1      39.127  28.790  31.493  1.00  0.00    -0.203 F 
ATOM     79  C   UNL A   1      37.138  29.375  30.376  1.00  0.00     0.198 A 
ATOM     80  C   UNL A   1      37.159  29.742  28.005  1.00  0.00     0.198 A 
ATOM     81  F   UNL A   1      39.167  29.492  26.797  1.00  0.00    -0.203 F 
ATOM     82  F   UNL A   1      36.469  29.320  31.537  1.00  0.00    -0.200 F 
ATOM     83  C   UNL A   1      36.467  29.700  29.206  1.00  0.00     0.200 A 
ATOM     84  F   UNL A   1      36.521  30.078  26.876  1.00  0.00    -0.200 F 
ATOM     85  F   UNL A   1      35.157  29.978  29.236  1.00  0.00    -0.200 F 
ENDBRANCH  51  75
BRANCH  63  86
ATOM     86  C   UNL A   1      45.051  32.795  30.211  1.00  0.00     0.064 A 
ATOM     87  C   UNL A   1      45.132  33.198  31.553  1.00  0.00     0.173 A 
ATOM     88  C   UNL A   1      45.149  33.783  29.220  1.00  0.00     0.173 A 
ATOM     89  F   UNL A   1      45.035  32.293  32.538  1.00  0.00    -0.203 F 
ATOM     90  C   UNL A   1      45.295  34.539  31.890  1.00  0.00     0.198 A 
ATOM     91  C   UNL A   1      45.339  35.119  29.561  1.00  0.00     0.198 A 
ATOM     92  F   UNL A   1      45.089  33.446  27.923  1.00  0.00    -0.203 F 
ATOM     93  F   UNL A   1      45.342  34.905  33.178  1.00  0.00    -0.200 F 
ATOM     94  C   UNL A   1      45.403  35.498  30.894  1.00  0.00     0.200 A 
ATOM     95  F   UNL A   1      45.468  36.041  28.597  1.00  0.00    -0.200 F 
ATOM     96  F   UNL A   1      45.574  36.786  31.218  1.00  0.00    -0.200 F 
ENDBRANCH  63  86
ENDBRANCH  37  38
ENDBRANCH  29  32
ENDBRANCH  27  28
ENDBRANCH  26  27
ENDBRANCH   1  26
TORSDOF 13
ENDMDL
