MODEL 1
REMARK VINA RESULT:     -10.7      0.000      0.000
REMARK SMILES N#C[C@@]1([C@@H](O)C(=O)NCCCNC(=O)c2ccc(-c3c4nc(c(-c5c(F)c(F)c(F)c(F)c5F)c5ccc([nH]5)c(-c5c(F)c(F)c(F)c(F)c5F)c5nc(c(-c6c(F)c(F)c(F)c(F)c6F)c6ccc3[nH]6)C=C5)C=C4)cc2)CCCc2ccccc21
REMARK SMILES IDX 10 1 9 2 8 3 6 4 7 5 4 7 3 8 78 9 86 10 79 11 81 12 85 13
REMARK SMILES IDX 80 14 82 15 84 16 83 17 2 18 1 19 5 20 11 22 12 23 13 24
REMARK SMILES IDX 14 26 15 27 16 28 77 29 17 30 76 31 18 32 19 33 20 34 70 35
REMARK SMILES IDX 21 36 75 37 69 38 71 39 22 40 74 41 68 42 67 43 23 45 55 46
REMARK SMILES IDX 35 47 54 48 36 49 39 50 53 51 72 52 37 53 38 54 52 56 73 57
REMARK SMILES IDX 40 58 24 59 25 60 33 61 26 62 27 63 31 64 34 65 28 66 29 67
REMARK SMILES IDX 32 68 30 69 56 70 57 71 65 72 58 73 59 74 63 75 66 76 60 77
REMARK SMILES IDX 61 78 64 79 62 80 41 81 42 82 50 83 43 84 44 85 48 86 51 87
REMARK SMILES IDX 45 88 46 89 49 90 47 91
REMARK H PARENT 8 6 5 21 12 25 71 44 39 55
REMARK Flexibility Score: inf
ROOT
ATOM      1  C   UNL A   1      34.711  34.249  28.785  1.00  0.00     0.042 C 
ENDROOT
BRANCH   1   2
ATOM      2  C   UNL A   1      34.227  33.880  30.195  1.00  0.00     0.117 C 
BRANCH   2   3
ATOM      3  N   UNL A   1      34.586  34.847  31.229  1.00  0.00    -0.354 N 
ATOM      4  C   UNL A   1      35.124  34.713  32.481  1.00  0.00     0.250 C 
ATOM      5  O   UNL A   1      35.403  35.761  33.076  1.00  0.00    -0.272 OA
ATOM      6  H   UNL A   1      34.406  35.782  30.976  1.00  0.00     0.163 HD
BRANCH   4   7
ATOM      7  C   UNL A   1      35.357  33.351  33.164  1.00  0.00     0.227 C 
BRANCH   7   8
ATOM      8  C   UNL A   1      36.810  32.737  33.135  1.00  0.00     0.117 C 
ATOM      9  C   UNL A   1      37.583  32.814  34.464  1.00  0.00     0.031 C 
ATOM     10  C   UNL A   1      37.718  33.346  32.041  1.00  0.00    -0.021 A 
ATOM     11  C   UNL A   1      38.108  34.207  34.796  1.00  0.00     0.007 C 
ATOM     12  C   UNL A   1      38.806  34.193  32.360  1.00  0.00    -0.043 A 
ATOM     13  C   UNL A   1      37.556  32.950  30.696  1.00  0.00     0.006 A 
ATOM     14  C   UNL A   1      39.141  34.627  33.767  1.00  0.00     0.036 C 
ATOM     15  C   UNL A   1      39.712  34.577  31.356  1.00  0.00     0.004 A 
ATOM     16  C   UNL A   1      38.483  33.317  29.719  1.00  0.00     0.000 A 
ATOM     17  C   UNL A   1      39.562  34.125  30.050  1.00  0.00     0.000 A 
BRANCH   8  18
ATOM     18  C   UNL A   1      36.651  31.264  32.873  1.00  0.00     0.077 C 
ATOM     19  N   UNL A   1      36.515  30.131  32.680  1.00  0.00    -0.197 NA
ENDBRANCH   8  18
ENDBRANCH   7   8
BRANCH   7  20
ATOM     20  O   UNL A   1      34.813  33.448  34.493  1.00  0.00    -0.381 OA
ATOM     21  H   UNL A   1      34.651  34.381  34.710  1.00  0.00     0.211 HD
ENDBRANCH   7  20
ENDBRANCH   4   7
ENDBRANCH   2   3
ENDBRANCH   1   2
BRANCH   1  22
ATOM     22  C   UNL A   1      35.362  33.122  28.002  1.00  0.00     0.118 C 
BRANCH  22  23
ATOM     23  N   UNL A   1      34.422  32.049  27.742  1.00  0.00    -0.352 N 
ATOM     24  C   UNL A   1      34.661  30.700  27.600  1.00  0.00     0.251 C 
ATOM     25  H   UNL A   1      33.480  32.323  27.655  1.00  0.00     0.163 HD
ATOM     26  O   UNL A   1      33.814  29.988  27.070  1.00  0.00    -0.269 OA
BRANCH  24  27
ATOM     27  C   UNL A   1      35.942  30.108  28.058  1.00  0.00     0.039 A 
ATOM     28  C   UNL A   1      36.025  29.409  29.264  1.00  0.00     0.014 A 
ATOM     29  C   UNL A   1      37.078  30.225  27.252  1.00  0.00     0.014 A 
ATOM     30  C   UNL A   1      37.263  28.997  29.746  1.00  0.00     0.010 A 
ATOM     31  C   UNL A   1      38.303  29.703  27.685  1.00  0.00     0.010 A 
ATOM     32  C   UNL A   1      38.419  29.126  28.960  1.00  0.00    -0.014 A 
BRANCH  32  33
ATOM     33  C   UNL A   1      39.726  28.640  29.484  1.00  0.00     0.031 A 
ATOM     34  C   UNL A   1      40.420  29.354  30.614  1.00  0.00     0.074 A 
ATOM     35  C   UNL A   1      40.274  27.521  28.967  1.00  0.00     0.049 A 
ATOM     36  N   UNL A   1      41.560  29.070  31.196  1.00  0.00    -0.248 NA
ATOM     37  C   UNL A   1      39.755  30.547  31.161  1.00  0.00     0.031 C 
ATOM     38  C   UNL A   1      39.701  26.732  27.876  1.00  0.00     0.029 A 
ATOM     39  N   UNL A   1      41.422  26.842  29.297  1.00  0.00    -0.354 N 
ATOM     40  C   UNL A   1      41.752  30.051  32.161  1.00  0.00     0.074 A 
ATOM     41  C   UNL A   1      40.636  30.964  32.060  1.00  0.00     0.031 C 
ATOM     42  C   UNL A   1      40.465  25.651  27.663  1.00  0.00     0.029 A 
ATOM     43  C   UNL A   1      41.625  25.709  28.547  1.00  0.00     0.049 A 
ATOM     44  H   UNL A   1      42.039  27.138  30.006  1.00  0.00     0.167 HD
ATOM     45  C   UNL A   1      42.758  30.167  33.061  1.00  0.00     0.037 A 
ATOM     46  C   UNL A   1      42.639  24.822  28.550  1.00  0.00     0.037 A 
ATOM     47  C   UNL A   1      43.859  29.245  33.171  1.00  0.00     0.049 A 
ATOM     48  C   UNL A   1      43.776  25.011  29.516  1.00  0.00     0.074 A 
ATOM     49  C   UNL A   1      44.910  29.265  34.072  1.00  0.00     0.029 A 
ATOM     50  N   UNL A   1      44.055  28.141  32.354  1.00  0.00    -0.354 N 
ATOM     51  N   UNL A   1      43.927  25.925  30.442  1.00  0.00    -0.248 NA
ATOM     52  C   UNL A   1      44.884  24.051  29.433  1.00  0.00     0.031 C 
ATOM     53  C   UNL A   1      45.776  28.214  33.758  1.00  0.00     0.029 A 
ATOM     54  C   UNL A   1      45.230  27.495  32.708  1.00  0.00     0.049 A 
ATOM     55  H   UNL A   1      43.451  27.858  31.630  1.00  0.00     0.167 HD
ATOM     56  C   UNL A   1      45.135  25.641  31.064  1.00  0.00     0.074 A 
ATOM     57  C   UNL A   1      45.666  24.456  30.425  1.00  0.00     0.031 C 
ATOM     58  C   UNL A   1      45.749  26.310  32.070  1.00  0.00     0.037 A 
BRANCH  45  59
ATOM     59  C   UNL A   1      42.730  31.336  34.006  1.00  0.00     0.064 A 
ATOM     60  C   UNL A   1      43.363  32.550  33.697  1.00  0.00     0.173 A 
ATOM     61  C   UNL A   1      41.992  31.269  35.198  1.00  0.00     0.173 A 
ATOM     62  F   UNL A   1      44.088  32.666  32.574  1.00  0.00    -0.203 F 
ATOM     63  C   UNL A   1      43.273  33.644  34.552  1.00  0.00     0.198 A 
ATOM     64  C   UNL A   1      41.875  32.377  36.035  1.00  0.00     0.198 A 
ATOM     65  F   UNL A   1      41.358  30.138  35.540  1.00  0.00    -0.203 F 
ATOM     66  F   UNL A   1      43.917  34.781  34.253  1.00  0.00    -0.200 F 
ATOM     67  C   UNL A   1      42.521  33.562  35.714  1.00  0.00     0.200 A 
ATOM     68  F   UNL A   1      41.131  32.301  37.147  1.00  0.00    -0.200 F 
ATOM     69  F   UNL A   1      42.416  34.623  36.525  1.00  0.00    -0.200 F 
ENDBRANCH  45  59
BRANCH  46  70
ATOM     70  C   UNL A   1      42.613  23.675  27.604  1.00  0.00     0.064 A 
ATOM     71  C   UNL A   1      43.101  23.805  26.298  1.00  0.00     0.173 A 
ATOM     72  C   UNL A   1      42.134  22.415  27.997  1.00  0.00     0.173 A 
ATOM     73  F   UNL A   1      43.551  24.993  25.867  1.00  0.00    -0.203 F 
ATOM     74  C   UNL A   1      43.106  22.724  25.419  1.00  0.00     0.198 A 
ATOM     75  C   UNL A   1      42.172  21.325  27.130  1.00  0.00     0.198 A 
ATOM     76  F   UNL A   1      41.658  22.234  29.238  1.00  0.00    -0.203 F 
ATOM     77  F   UNL A   1      43.546  22.885  24.164  1.00  0.00    -0.200 F 
ATOM     78  C   UNL A   1      42.652  21.482  25.839  1.00  0.00     0.200 A 
ATOM     79  F   UNL A   1      41.752  20.123  27.549  1.00  0.00    -0.200 F 
ATOM     80  F   UNL A   1      42.677  20.437  25.001  1.00  0.00    -0.200 F 
ENDBRANCH  46  70
BRANCH  58  81
ATOM     81  C   UNL A   1      47.063  25.777  32.567  1.00  0.00     0.064 A 
ATOM     82  C   UNL A   1      47.129  24.859  33.626  1.00  0.00     0.173 A 
ATOM     83  C   UNL A   1      48.261  26.118  31.919  1.00  0.00     0.173 A 
ATOM     84  F   UNL A   1      46.015  24.511  34.287  1.00  0.00    -0.203 F 
ATOM     85  C   UNL A   1      48.345  24.313  34.024  1.00  0.00     0.198 A 
ATOM     86  C   UNL A   1      49.470  25.542  32.298  1.00  0.00     0.198 A 
ATOM     87  F   UNL A   1      48.254  26.984  30.896  1.00  0.00    -0.203 F 
ATOM     88  F   UNL A   1      48.389  23.466  35.062  1.00  0.00    -0.200 F 
ATOM     89  C   UNL A   1      49.513  24.644  33.353  1.00  0.00     0.200 A 
ATOM     90  F   UNL A   1      50.594  25.847  31.632  1.00  0.00    -0.200 F 
ATOM     91  F   UNL A   1      50.678  24.096  33.721  1.00  0.00    -0.200 F 
ENDBRANCH  58  81
ENDBRANCH  32  33
ENDBRANCH  24  27
ENDBRANCH  22  23
ENDBRANCH   1  22
TORSDOF 13
ENDMDL
MODEL 2
REMARK VINA RESULT:     -10.6      5.215      9.943
REMARK SMILES N#C[C@@]1([C@@H](O)C(=O)NCCCNC(=O)c2ccc(-c3c4nc(c(-c5c(F)c(F)c(F)c(F)c5F)c5ccc([nH]5)c(-c5c(F)c(F)c(F)c(F)c5F)c5nc(c(-c6c(F)c(F)c(F)c(F)c6F)c6ccc3[nH]6)C=C5)C=C4)cc2)CCCc2ccccc21
REMARK SMILES IDX 10 1 9 2 8 3 6 4 7 5 4 7 3 8 78 9 86 10 79 11 81 12 85 13
REMARK SMILES IDX 80 14 82 15 84 16 83 17 2 18 1 19 5 20 11 22 12 23 13 24
REMARK SMILES IDX 14 26 15 27 16 28 77 29 17 30 76 31 18 32 19 33 20 34 70 35
REMARK SMILES IDX 21 36 75 37 69 38 71 39 22 40 74 41 68 42 67 43 23 45 55 46
REMARK SMILES IDX 35 47 54 48 36 49 39 50 53 51 72 52 37 53 38 54 52 56 73 57
REMARK SMILES IDX 40 58 24 59 25 60 33 61 26 62 27 63 31 64 34 65 28 66 29 67
REMARK SMILES IDX 32 68 30 69 56 70 57 71 65 72 58 73 59 74 63 75 66 76 60 77
REMARK SMILES IDX 61 78 64 79 62 80 41 81 42 82 50 83 43 84 44 85 48 86 51 87
REMARK SMILES IDX 45 88 46 89 49 90 47 91
REMARK H PARENT 8 6 5 21 12 25 71 44 39 55
REMARK Flexibility Score: inf
ROOT
ATOM      1  C   UNL A   1      37.996  19.709  25.005  1.00  0.00     0.042 C 
ENDROOT
BRANCH   1   2
ATOM      2  C   UNL A   1      36.851  20.707  24.777  1.00  0.00     0.117 C 
BRANCH   2   3
ATOM      3  N   UNL A   1      35.572  20.302  25.357  1.00  0.00    -0.354 N 
ATOM      4  C   UNL A   1      34.491  21.009  25.808  1.00  0.00     0.250 C 
ATOM      5  O   UNL A   1      33.506  20.347  26.155  1.00  0.00    -0.272 OA
ATOM      6  H   UNL A   1      35.467  19.327  25.438  1.00  0.00     0.163 HD
BRANCH   4   7
ATOM      7  C   UNL A   1      34.469  22.546  25.925  1.00  0.00     0.227 C 
BRANCH   7   8
ATOM      8  C   UNL A   1      33.208  23.321  25.379  1.00  0.00     0.117 C 
ATOM      9  C   UNL A   1      32.431  22.605  24.259  1.00  0.00     0.031 C 
ATOM     10  C   UNL A   1      33.526  24.748  24.877  1.00  0.00    -0.021 A 
ATOM     11  C   UNL A   1      33.124  22.646  22.901  1.00  0.00     0.007 C 
ATOM     12  C   UNL A   1      33.491  25.080  23.501  1.00  0.00    -0.043 A 
ATOM     13  C   UNL A   1      33.725  25.791  25.807  1.00  0.00     0.006 A 
ATOM     14  C   UNL A   1      33.207  24.078  22.407  1.00  0.00     0.036 C 
ATOM     15  C   UNL A   1      33.608  26.423  23.102  1.00  0.00     0.004 A 
ATOM     16  C   UNL A   1      33.809  27.121  25.393  1.00  0.00     0.000 A 
ATOM     17  C   UNL A   1      33.745  27.437  24.043  1.00  0.00     0.000 A 
BRANCH   8  18
ATOM     18  C   UNL A   1      32.230  23.412  26.520  1.00  0.00     0.077 C 
ATOM     19  N   UNL A   1      31.489  23.492  27.406  1.00  0.00    -0.197 NA
ENDBRANCH   8  18
ENDBRANCH   7   8
BRANCH   7  20
ATOM     20  O   UNL A   1      34.780  22.869  27.293  1.00  0.00    -0.381 OA
ATOM     21  H   UNL A   1      35.580  22.390  27.565  1.00  0.00     0.211 HD
ENDBRANCH   7  20
ENDBRANCH   4   7
ENDBRANCH   2   3
ENDBRANCH   1   2
BRANCH   1  22
ATOM     22  C   UNL A   1      39.125  20.202  25.893  1.00  0.00     0.118 C 
BRANCH  22  23
ATOM     23  N   UNL A   1      40.191  19.223  25.984  1.00  0.00    -0.352 N 
ATOM     24  C   UNL A   1      41.551  19.425  26.064  1.00  0.00     0.251 C 
ATOM     25  H   UNL A   1      39.902  18.282  25.991  1.00  0.00     0.163 HD
ATOM     26  O   UNL A   1      42.315  18.499  25.813  1.00  0.00    -0.269 OA
BRANCH  24  27
ATOM     27  C   UNL A   1      42.097  20.755  26.428  1.00  0.00     0.039 A 
ATOM     28  C   UNL A   1      42.247  21.136  27.762  1.00  0.00     0.014 A 
ATOM     29  C   UNL A   1      42.498  21.631  25.414  1.00  0.00     0.014 A 
ATOM     30  C   UNL A   1      42.615  22.441  28.078  1.00  0.00     0.010 A 
ATOM     31  C   UNL A   1      42.982  22.904  25.737  1.00  0.00     0.010 A 
ATOM     32  C   UNL A   1      43.000  23.341  27.071  1.00  0.00    -0.014 A 
BRANCH  32  33
ATOM     33  C   UNL A   1      43.428  24.720  27.439  1.00  0.00     0.031 A 
ATOM     34  C   UNL A   1      42.417  25.764  27.832  1.00  0.00     0.074 A 
ATOM     35  C   UNL A   1      44.742  25.024  27.460  1.00  0.00     0.049 A 
ATOM     36  N   UNL A   1      42.611  27.013  28.184  1.00  0.00    -0.248 NA
ATOM     37  C   UNL A   1      41.001  25.362  27.826  1.00  0.00     0.031 C 
ATOM     38  C   UNL A   1      45.823  24.102  27.109  1.00  0.00     0.029 A 
ATOM     39  N   UNL A   1      45.396  26.181  27.807  1.00  0.00    -0.354 N 
ATOM     40  C   UNL A   1      41.349  27.542  28.424  1.00  0.00     0.074 A 
ATOM     41  C   UNL A   1      40.392  26.498  28.138  1.00  0.00     0.031 C 
ATOM     42  C   UNL A   1      47.002  24.707  27.308  1.00  0.00     0.029 A 
ATOM     43  C   UNL A   1      46.764  26.084  27.727  1.00  0.00     0.049 A 
ATOM     44  H   UNL A   1      44.928  27.001  28.088  1.00  0.00     0.167 HD
ATOM     45  C   UNL A   1      41.023  28.782  28.862  1.00  0.00     0.037 A 
ATOM     46  C   UNL A   1      47.725  27.004  27.944  1.00  0.00     0.037 A 
ATOM     47  C   UNL A   1      41.980  29.815  29.165  1.00  0.00     0.049 A 
ATOM     48  C   UNL A   1      47.330  28.391  28.366  1.00  0.00     0.074 A 
ATOM     49  C   UNL A   1      41.744  31.093  29.643  1.00  0.00     0.029 A 
ATOM     50  N   UNL A   1      43.354  29.693  29.016  1.00  0.00    -0.354 N 
ATOM     51  N   UNL A   1      46.136  28.868  28.620  1.00  0.00    -0.248 NA
ATOM     52  C   UNL A   1      48.414  29.369  28.528  1.00  0.00     0.031 C 
ATOM     53  C   UNL A   1      42.966  31.765  29.719  1.00  0.00     0.029 A 
ATOM     54  C   UNL A   1      43.973  30.885  29.358  1.00  0.00     0.049 A 
ATOM     55  H   UNL A   1      43.820  28.881  28.713  1.00  0.00     0.167 HD
ATOM     56  C   UNL A   1      46.325  30.193  28.987  1.00  0.00     0.074 A 
ATOM     57  C   UNL A   1      47.750  30.439  28.947  1.00  0.00     0.031 C 
ATOM     58  C   UNL A   1      45.395  31.121  29.321  1.00  0.00     0.037 A 
BRANCH  45  59
ATOM     59  C   UNL A   1      39.565  29.107  29.043  1.00  0.00     0.064 A 
ATOM     60  C   UNL A   1      38.747  29.453  27.956  1.00  0.00     0.173 A 
ATOM     61  C   UNL A   1      38.961  28.991  30.304  1.00  0.00     0.173 A 
ATOM     62  F   UNL A   1      39.274  29.586  26.729  1.00  0.00    -0.203 F 
ATOM     63  C   UNL A   1      37.386  29.687  28.129  1.00  0.00     0.198 A 
ATOM     64  C   UNL A   1      37.592  29.192  30.468  1.00  0.00     0.198 A 
ATOM     65  F   UNL A   1      39.692  28.654  31.377  1.00  0.00    -0.203 F 
ATOM     66  F   UNL A   1      36.632  30.052  27.082  1.00  0.00    -0.200 F 
ATOM     67  C   UNL A   1      36.807  29.546  29.381  1.00  0.00     0.200 A 
ATOM     68  F   UNL A   1      37.032  29.034  31.675  1.00  0.00    -0.200 F 
ATOM     69  F   UNL A   1      35.492  29.748  29.541  1.00  0.00    -0.200 F 
ENDBRANCH  45  59
BRANCH  46  70
ATOM     70  C   UNL A   1      49.153  26.629  27.765  1.00  0.00     0.064 A 
ATOM     71  C   UNL A   1      49.971  26.355  28.868  1.00  0.00     0.173 A 
ATOM     72  C   UNL A   1      49.720  26.502  26.486  1.00  0.00     0.173 A 
ATOM     73  F   UNL A   1      49.483  26.480  30.111  1.00  0.00    -0.203 F 
ATOM     74  C   UNL A   1      51.301  25.974  28.702  1.00  0.00     0.198 A 
ATOM     75  C   UNL A   1      51.039  26.087  26.320  1.00  0.00     0.198 A 
ATOM     76  F   UNL A   1      48.980  26.750  25.395  1.00  0.00    -0.203 F 
ATOM     77  F   UNL A   1      52.071  25.751  29.776  1.00  0.00    -0.200 F 
ATOM     78  C   UNL A   1      51.831  25.829  27.428  1.00  0.00     0.200 A 
ATOM     79  F   UNL A   1      51.539  25.928  25.087  1.00  0.00    -0.200 F 
ATOM     80  F   UNL A   1      53.103  25.442  27.269  1.00  0.00    -0.200 F 
ENDBRANCH  46  70
BRANCH  58  81
ATOM     81  C   UNL A   1      45.878  32.495  29.689  1.00  0.00     0.064 A 
ATOM     82  C   UNL A   1      45.972  33.521  28.737  1.00  0.00     0.173 A 
ATOM     83  C   UNL A   1      46.164  32.815  31.027  1.00  0.00     0.173 A 
ATOM     84  F   UNL A   1      45.722  33.265  27.444  1.00  0.00    -0.203 F 
ATOM     85  C   UNL A   1      46.344  34.810  29.108  1.00  0.00     0.198 A 
ATOM     86  C   UNL A   1      46.502  34.113  31.398  1.00  0.00     0.198 A 
ATOM     87  F   UNL A   1      46.083  31.874  31.979  1.00  0.00    -0.203 F 
ATOM     88  F   UNL A   1      46.462  35.765  28.174  1.00  0.00    -0.200 F 
ATOM     89  C   UNL A   1      46.596  35.108  30.438  1.00  0.00     0.200 A 
ATOM     90  F   UNL A   1      46.724  34.403  32.688  1.00  0.00    -0.200 F 
ATOM     91  F   UNL A   1      46.929  36.355  30.796  1.00  0.00    -0.200 F 
ENDBRANCH  58  81
ENDBRANCH  32  33
ENDBRANCH  24  27
ENDBRANCH  22  23
ENDBRANCH   1  22
TORSDOF 13
ENDMDL
MODEL 3
REMARK VINA RESULT:     -10.6      5.210      9.814
REMARK SMILES N#C[C@@]1([C@@H](O)C(=O)NCCCNC(=O)c2ccc(-c3c4nc(c(-c5c(F)c(F)c(F)c(F)c5F)c5ccc([nH]5)c(-c5c(F)c(F)c(F)c(F)c5F)c5nc(c(-c6c(F)c(F)c(F)c(F)c6F)c6ccc3[nH]6)C=C5)C=C4)cc2)CCCc2ccccc21
REMARK SMILES IDX 10 1 9 2 8 3 6 4 7 5 4 7 3 8 78 9 86 10 79 11 81 12 85 13
REMARK SMILES IDX 80 14 82 15 84 16 83 17 2 18 1 19 5 20 11 22 12 23 13 24
REMARK SMILES IDX 14 26 15 27 16 28 77 29 17 30 76 31 18 32 19 33 20 34 70 35
REMARK SMILES IDX 21 36 75 37 69 38 71 39 22 40 74 41 68 42 67 43 23 45 55 46
REMARK SMILES IDX 35 47 54 48 36 49 39 50 53 51 72 52 37 53 38 54 52 56 73 57
REMARK SMILES IDX 40 58 24 59 25 60 33 61 26 62 27 63 31 64 34 65 28 66 29 67
REMARK SMILES IDX 32 68 30 69 56 70 57 71 65 72 58 73 59 74 63 75 66 76 60 77
REMARK SMILES IDX 61 78 64 79 62 80 41 81 42 82 50 83 43 84 44 85 48 86 51 87
REMARK SMILES IDX 45 88 46 89 49 90 47 91
REMARK H PARENT 8 6 5 21 12 25 71 44 39 55
REMARK Flexibility Score: inf
ROOT
ATOM      1  C   UNL A   1      37.953  19.693  24.999  1.00  0.00     0.042 C 
ENDROOT
BRANCH   1   2
ATOM      2  C   UNL A   1      36.807  20.691  24.773  1.00  0.00     0.117 C 
BRANCH   2   3
ATOM      3  N   UNL A   1      35.538  20.302  25.385  1.00  0.00    -0.354 N 
ATOM      4  C   UNL A   1      34.472  21.023  25.852  1.00  0.00     0.250 C 
ATOM      5  O   UNL A   1      33.490  20.373  26.227  1.00  0.00    -0.272 OA
ATOM      6  H   UNL A   1      35.427  19.329  25.478  1.00  0.00     0.163 HD
BRANCH   4   7
ATOM      7  C   UNL A   1      34.465  22.561  25.954  1.00  0.00     0.227 C 
BRANCH   7   8
ATOM      8  C   UNL A   1      33.209  23.342  25.406  1.00  0.00     0.117 C 
ATOM      9  C   UNL A   1      32.432  22.633  24.282  1.00  0.00     0.031 C 
ATOM     10  C   UNL A   1      33.535  24.769  24.907  1.00  0.00    -0.021 A 
ATOM     11  C   UNL A   1      33.130  22.674  22.926  1.00  0.00     0.007 C 
ATOM     12  C   UNL A   1      33.505  25.105  23.532  1.00  0.00    -0.043 A 
ATOM     13  C   UNL A   1      33.735  25.809  25.840  1.00  0.00     0.006 A 
ATOM     14  C   UNL A   1      33.220  24.106  22.435  1.00  0.00     0.036 C 
ATOM     15  C   UNL A   1      33.628  26.448  23.137  1.00  0.00     0.004 A 
ATOM     16  C   UNL A   1      33.826  27.139  25.431  1.00  0.00     0.000 A 
ATOM     17  C   UNL A   1      33.767  27.460  24.081  1.00  0.00     0.000 A 
BRANCH   8  18
ATOM     18  C   UNL A   1      32.229  23.435  26.544  1.00  0.00     0.077 C 
ATOM     19  N   UNL A   1      31.471  23.522  27.415  1.00  0.00    -0.197 NA
ENDBRANCH   8  18
ENDBRANCH   7   8
BRANCH   7  20
ATOM     20  O   UNL A   1      34.786  22.894  27.317  1.00  0.00    -0.381 OA
ATOM     21  H   UNL A   1      34.960  22.080  27.817  1.00  0.00     0.211 HD
ENDBRANCH   7  20
ENDBRANCH   4   7
ENDBRANCH   2   3
ENDBRANCH   1   2
BRANCH   1  22
ATOM     22  C   UNL A   1      39.095  20.195  25.865  1.00  0.00     0.118 C 
BRANCH  22  23
ATOM     23  N   UNL A   1      40.148  19.205  25.977  1.00  0.00    -0.352 N 
ATOM     24  C   UNL A   1      41.509  19.392  26.076  1.00  0.00     0.251 C 
ATOM     25  H   UNL A   1      39.849  18.267  25.983  1.00  0.00     0.163 HD
ATOM     26  O   UNL A   1      42.267  18.457  25.840  1.00  0.00    -0.269 OA
BRANCH  24  27
ATOM     27  C   UNL A   1      42.065  20.718  26.442  1.00  0.00     0.039 A 
ATOM     28  C   UNL A   1      42.225  21.092  27.777  1.00  0.00     0.014 A 
ATOM     29  C   UNL A   1      42.463  21.596  25.430  1.00  0.00     0.014 A 
ATOM     30  C   UNL A   1      42.602  22.393  28.097  1.00  0.00     0.010 A 
ATOM     31  C   UNL A   1      42.956  22.866  25.756  1.00  0.00     0.010 A 
ATOM     32  C   UNL A   1      42.985  23.296  27.092  1.00  0.00    -0.014 A 
BRANCH  32  33
ATOM     33  C   UNL A   1      43.422  24.671  27.464  1.00  0.00     0.031 A 
ATOM     34  C   UNL A   1      42.417  25.725  27.847  1.00  0.00     0.074 A 
ATOM     35  C   UNL A   1      44.738  24.962  27.497  1.00  0.00     0.049 A 
ATOM     36  N   UNL A   1      42.620  26.972  28.200  1.00  0.00    -0.248 NA
ATOM     37  C   UNL A   1      40.998  25.336  27.828  1.00  0.00     0.031 C 
ATOM     38  C   UNL A   1      45.814  24.030  27.156  1.00  0.00     0.029 A 
ATOM     39  N   UNL A   1      45.400  26.114  27.850  1.00  0.00    -0.354 N 
ATOM     40  C   UNL A   1      41.361  27.513  28.429  1.00  0.00     0.074 A 
ATOM     41  C   UNL A   1      40.397  26.477  28.134  1.00  0.00     0.031 C 
ATOM     42  C   UNL A   1      46.997  24.625  27.366  1.00  0.00     0.029 A 
ATOM     43  C   UNL A   1      46.768  26.004  27.782  1.00  0.00     0.049 A 
ATOM     44  H   UNL A   1      44.938  26.938  28.126  1.00  0.00     0.167 HD
ATOM     45  C   UNL A   1      41.042  28.756  28.864  1.00  0.00     0.037 A 
ATOM     46  C   UNL A   1      47.735  26.914  28.008  1.00  0.00     0.037 A 
ATOM     47  C   UNL A   1      42.006  29.780  29.175  1.00  0.00     0.049 A 
ATOM     48  C   UNL A   1      47.350  28.306  28.427  1.00  0.00     0.074 A 
ATOM     49  C   UNL A   1      41.777  31.060  29.650  1.00  0.00     0.029 A 
ATOM     50  N   UNL A   1      43.380  29.645  29.039  1.00  0.00    -0.354 N 
ATOM     51  N   UNL A   1      46.158  28.793  28.669  1.00  0.00    -0.248 NA
ATOM     52  C   UNL A   1      48.441  29.274  28.598  1.00  0.00     0.031 C 
ATOM     53  C   UNL A   1      43.005  31.721  29.738  1.00  0.00     0.029 A 
ATOM     54  C   UNL A   1      44.007  30.832  29.387  1.00  0.00     0.049 A 
ATOM     55  H   UNL A   1      43.841  28.829  28.740  1.00  0.00     0.167 HD
ATOM     56  C   UNL A   1      46.356  30.117  29.038  1.00  0.00     0.074 A 
ATOM     57  C   UNL A   1      47.784  30.350  29.011  1.00  0.00     0.031 C 
ATOM     58  C   UNL A   1      45.432  31.054  29.363  1.00  0.00     0.037 A 
BRANCH  45  59
ATOM     59  C   UNL A   1      39.586  29.095  29.031  1.00  0.00     0.064 A 
ATOM     60  C   UNL A   1      38.785  29.462  27.938  1.00  0.00     0.173 A 
ATOM     61  C   UNL A   1      38.966  28.970  30.283  1.00  0.00     0.173 A 
ATOM     62  F   UNL A   1      39.328  29.604  26.720  1.00  0.00    -0.203 F 
ATOM     63  C   UNL A   1      37.424  29.709  28.098  1.00  0.00     0.198 A 
ATOM     64  C   UNL A   1      37.597  29.184  30.433  1.00  0.00     0.198 A 
ATOM     65  F   UNL A   1      39.680  28.612  31.360  1.00  0.00    -0.203 F 
ATOM     66  F   UNL A   1      36.688  30.095  27.046  1.00  0.00    -0.200 F 
ATOM     67  C   UNL A   1      36.829  29.559  29.341  1.00  0.00     0.200 A 
ATOM     68  F   UNL A   1      37.020  29.018  31.631  1.00  0.00    -0.200 F 
ATOM     69  F   UNL A   1      35.514  29.774  29.488  1.00  0.00    -0.200 F 
ENDBRANCH  45  59
BRANCH  46  70
ATOM     70  C   UNL A   1      49.161  26.526  27.843  1.00  0.00     0.064 A 
ATOM     71  C   UNL A   1      49.736  26.414  26.570  1.00  0.00     0.173 A 
ATOM     72  C   UNL A   1      49.988  26.294  28.953  1.00  0.00     0.173 A 
ATOM     73  F   UNL A   1      48.984  26.606  25.476  1.00  0.00    -0.203 F 
ATOM     74  C   UNL A   1      51.080  26.080  26.413  1.00  0.00     0.198 A 
ATOM     75  C   UNL A   1      51.340  25.994  28.797  1.00  0.00     0.198 A 
ATOM     76  F   UNL A   1      49.490  26.390  30.194  1.00  0.00    -0.203 F 
ATOM     77  F   UNL A   1      51.595  25.945  25.184  1.00  0.00    -0.200 F 
ATOM     78  C   UNL A   1      51.883  25.882  27.526  1.00  0.00     0.200 A 
ATOM     79  F   UNL A   1      52.116  25.825  29.876  1.00  0.00    -0.200 F 
ATOM     80  F   UNL A   1      53.180  25.581  27.375  1.00  0.00    -0.200 F 
ENDBRANCH  46  70
BRANCH  58  81
ATOM     81  C   UNL A   1      45.924  32.423  29.736  1.00  0.00     0.064 A 
ATOM     82  C   UNL A   1      46.308  32.733  31.049  1.00  0.00     0.173 A 
ATOM     83  C   UNL A   1      46.099  33.410  28.751  1.00  0.00     0.173 A 
ATOM     84  F   UNL A   1      46.149  31.831  32.029  1.00  0.00    -0.203 F 
ATOM     85  C   UNL A   1      46.836  33.982  31.364  1.00  0.00     0.198 A 
ATOM     86  C   UNL A   1      46.661  34.644  29.065  1.00  0.00     0.198 A 
ATOM     87  F   UNL A   1      45.756  33.164  27.479  1.00  0.00    -0.203 F 
ATOM     88  F   UNL A   1      47.162  34.268  32.633  1.00  0.00    -0.200 F 
ATOM     89  C   UNL A   1      47.025  34.931  30.371  1.00  0.00     0.200 A 
ATOM     90  F   UNL A   1      46.862  35.552  28.099  1.00  0.00    -0.200 F 
ATOM     91  F   UNL A   1      47.558  36.122  30.673  1.00  0.00    -0.200 F 
ENDBRANCH  58  81
ENDBRANCH  32  33
ENDBRANCH  24  27
ENDBRANCH  22  23
ENDBRANCH   1  22
TORSDOF 13
ENDMDL
