MODEL 1
REMARK VINA RESULT:     -12.6      0.000      0.000
REMARK SMILES O=C(C[N@@H+]1CCC[C@@H]1c1ccccc1Cl)NCCCNC(=O)c1ccc(-c2c3nc(c(-c4c(F)c(F)c(F)c(F)c4F)c4ccc([nH]4)c(-c4c(F)c(F)c(F)c(F)c4F)c4nc(c(-c5c(F)c(F)c(F)c(F)c5F)c5ccc2[nH]5)C=C4)C=C3)cc1
REMARK SMILES IDX 18 1 17 2 16 3 1 4 2 5 3 7 4 8 5 9 8 10 6 12 7 13 9 14 10 15
REMARK SMILES IDX 14 16 11 17 13 18 15 19 12 20 19 21 20 22 21 23 22 25 23 26
REMARK SMILES IDX 24 27 85 28 25 29 84 30 26 31 27 32 28 33 78 34 29 35 83 36
REMARK SMILES IDX 77 37 79 38 30 39 82 40 76 41 75 42 31 44 63 45 43 46 62 47
REMARK SMILES IDX 44 48 47 49 61 50 80 51 45 52 46 53 60 55 81 56 48 57 32 58
REMARK SMILES IDX 33 59 41 60 34 61 35 62 39 63 42 64 36 65 37 66 40 67 38 68
REMARK SMILES IDX 64 69 65 70 73 71 66 72 67 73 71 74 74 75 68 76 69 77 72 78
REMARK SMILES IDX 70 79 49 80 50 81 58 82 51 83 52 84 56 85 59 86 53 87 54 88
REMARK SMILES IDX 57 89 55 90
REMARK H PARENT 16 6 4 11 20 24 79 43 47 54
REMARK Flexibility Score: inf
ROOT
ATOM      1  C   UNL A   1      31.608  32.002  26.758  1.00  0.00     0.042 C 
ENDROOT
BRANCH   1   2
ATOM      2  C   UNL A   1      31.746  30.496  26.924  1.00  0.00     0.118 C 
BRANCH   2   3
ATOM      3  N   UNL A   1      31.817  29.808  25.651  1.00  0.00    -0.351 N 
ATOM      4  O   UNL A   1      33.955  29.052  25.965  1.00  0.00    -0.269 OA
ATOM      5  C   UNL A   1      32.928  29.080  25.291  1.00  0.00     0.275 C 
ATOM      6  H   UNL A   1      31.053  29.861  25.031  1.00  0.00     0.163 HD
BRANCH   5   7
ATOM      7  C   UNL A   1      32.854  28.381  23.935  1.00  0.00     0.364 C 
BRANCH   7   8
ATOM      8  N   UNL A   1      32.282  27.003  23.892  1.00  0.00    -0.321 N 
ATOM      9  C   UNL A   1      33.220  26.005  23.323  1.00  0.00     0.263 C 
ATOM     10  C   UNL A   1      31.084  26.891  22.946  1.00  0.00     0.217 C 
ATOM     11  H   UNL A   1      32.047  26.825  24.868  1.00  0.00     0.349 HD
ATOM     12  C   UNL A   1      33.199  26.269  21.841  1.00  0.00     0.068 C 
ATOM     13  C   UNL A   1      31.723  26.474  21.589  1.00  0.00     0.076 C 
BRANCH  10  14
ATOM     14  C   UNL A   1      30.063  28.031  22.790  1.00  0.00     0.028 A 
ATOM     15  C   UNL A   1      30.415  29.296  22.289  1.00  0.00     0.011 A 
ATOM     16  C   UNL A   1      28.702  27.876  23.144  1.00  0.00     0.050 A 
ATOM     17  C   UNL A   1      29.450  30.225  21.881  1.00  0.00     0.001 A 
ATOM     18  C   UNL A   1      27.732  28.807  22.748  1.00  0.00     0.021 A 
ATOM     19  Cl  UNL A   1      28.128  26.599  24.168  1.00  0.00    -0.084 Cl
ATOM     20  C   UNL A   1      28.102  29.958  22.064  1.00  0.00     0.002 A 
ENDBRANCH  10  14
ENDBRANCH   7   8
ENDBRANCH   5   7
ENDBRANCH   2   3
ENDBRANCH   1   2
BRANCH   1  21
ATOM     21  C   UNL A   1      32.827  32.784  27.230  1.00  0.00     0.118 C 
BRANCH  21  22
ATOM     22  N   UNL A   1      32.508  34.155  27.607  1.00  0.00    -0.352 N 
ATOM     23  C   UNL A   1      33.023  34.948  28.606  1.00  0.00     0.251 C 
ATOM     24  H   UNL A   1      31.812  34.584  27.059  1.00  0.00     0.163 HD
ATOM     25  O   UNL A   1      32.487  36.013  28.880  1.00  0.00    -0.269 OA
BRANCH  23  26
ATOM     26  C   UNL A   1      34.208  34.503  29.368  1.00  0.00     0.039 A 
ATOM     27  C   UNL A   1      34.024  33.960  30.643  1.00  0.00     0.014 A 
ATOM     28  C   UNL A   1      35.493  34.620  28.835  1.00  0.00     0.014 A 
ATOM     29  C   UNL A   1      35.121  33.452  31.342  1.00  0.00     0.010 A 
ATOM     30  C   UNL A   1      36.571  34.040  29.495  1.00  0.00     0.010 A 
ATOM     31  C   UNL A   1      36.395  33.441  30.751  1.00  0.00    -0.014 A 
BRANCH  31  32
ATOM     32  C   UNL A   1      37.547  32.778  31.413  1.00  0.00     0.031 A 
ATOM     33  C   UNL A   1      38.232  31.612  30.759  1.00  0.00     0.074 A 
ATOM     34  C   UNL A   1      37.924  33.180  32.642  1.00  0.00     0.049 A 
ATOM     35  N   UNL A   1      39.191  30.850  31.220  1.00  0.00    -0.248 NA
ATOM     36  C   UNL A   1      37.760  31.237  29.417  1.00  0.00     0.031 C 
ATOM     37  C   UNL A   1      37.310  34.272  33.399  1.00  0.00     0.029 A 
ATOM     38  N   UNL A   1      38.904  32.708  33.479  1.00  0.00    -0.354 N 
ATOM     39  C   UNL A   1      39.430  29.903  30.234  1.00  0.00     0.074 A 
ATOM     40  C   UNL A   1      38.479  30.151  29.171  1.00  0.00     0.031 C 
ATOM     41  C   UNL A   1      37.938  34.399  34.579  1.00  0.00     0.029 A 
ATOM     42  C   UNL A   1      38.965  33.368  34.684  1.00  0.00     0.049 A 
ATOM     43  H   UNL A   1      39.505  31.966  33.240  1.00  0.00     0.167 HD
ATOM     44  C   UNL A   1      40.370  28.929  30.208  1.00  0.00     0.037 A 
ATOM     45  C   UNL A   1      39.748  33.153  35.758  1.00  0.00     0.037 A 
ATOM     46  C   UNL A   1      41.321  28.693  31.264  1.00  0.00     0.049 A 
ATOM     47  C   UNL A   1      40.759  32.040  35.717  1.00  0.00     0.074 A 
ATOM     48  C   UNL A   1      42.350  27.769  31.308  1.00  0.00     0.029 A 
ATOM     49  N   UNL A   1      41.352  29.382  32.469  1.00  0.00    -0.354 N 
ATOM     50  N   UNL A   1      41.024  31.196  34.750  1.00  0.00    -0.248 NA
ATOM     51  C   UNL A   1      41.581  31.850  36.921  1.00  0.00     0.031 C 
ATOM     52  C   UNL A   1      42.964  27.857  32.562  1.00  0.00     0.029 A 
ATOM     53  C   UNL A   1      42.360  28.877  33.277  1.00  0.00     0.049 A 
ATOM     54  H   UNL A   1      40.748  30.119  32.714  1.00  0.00     0.167 HD
ATOM     55  C   UNL A   1      42.057  30.393  35.216  1.00  0.00     0.074 A 
ATOM     56  C   UNL A   1      42.384  30.866  36.545  1.00  0.00     0.031 C 
ATOM     57  C   UNL A   1      42.675  29.356  34.599  1.00  0.00     0.037 A 
BRANCH  44  58
ATOM     58  C   UNL A   1      40.416  28.036  29.001  1.00  0.00     0.064 A 
ATOM     59  C   UNL A   1      39.689  26.837  28.941  1.00  0.00     0.173 A 
ATOM     60  C   UNL A   1      41.165  28.404  27.871  1.00  0.00     0.173 A 
ATOM     61  F   UNL A   1      38.966  26.433  29.996  1.00  0.00    -0.203 F 
ATOM     62  C   UNL A   1      39.735  26.027  27.809  1.00  0.00     0.198 A 
ATOM     63  C   UNL A   1      41.180  27.608  26.729  1.00  0.00     0.198 A 
ATOM     64  F   UNL A   1      41.873  29.544  27.872  1.00  0.00    -0.203 F 
ATOM     65  F   UNL A   1      39.074  24.860  27.796  1.00  0.00    -0.200 F 
ATOM     66  C   UNL A   1      40.473  26.416  26.702  1.00  0.00     0.200 A 
ATOM     67  F   UNL A   1      41.882  27.994  25.654  1.00  0.00    -0.200 F 
ATOM     68  F   UNL A   1      40.508  25.640  25.610  1.00  0.00    -0.200 F 
ENDBRANCH  44  58
BRANCH  45  69
ATOM     69  C   UNL A   1      39.610  34.014  36.963  1.00  0.00     0.064 A 
ATOM     70  C   UNL A   1      38.821  33.611  38.050  1.00  0.00     0.173 A 
ATOM     71  C   UNL A   1      40.251  35.258  37.051  1.00  0.00     0.173 A 
ATOM     72  F   UNL A   1      38.171  32.439  38.006  1.00  0.00    -0.203 F 
ATOM     73  C   UNL A   1      38.659  34.429  39.166  1.00  0.00     0.198 A 
ATOM     74  C   UNL A   1      40.115  36.062  38.181  1.00  0.00     0.198 A 
ATOM     75  F   UNL A   1      41.021  35.691  36.040  1.00  0.00    -0.203 F 
ATOM     76  F   UNL A   1      37.857  34.042  40.167  1.00  0.00    -0.200 F 
ATOM     77  C   UNL A   1      39.312  35.650  39.233  1.00  0.00     0.200 A 
ATOM     78  F   UNL A   1      40.761  37.234  38.249  1.00  0.00    -0.200 F 
ATOM     79  F   UNL A   1      39.158  36.436  40.308  1.00  0.00    -0.200 F 
ENDBRANCH  45  69
BRANCH  57  80
ATOM     80  C   UNL A   1      43.788  28.676  35.346  1.00  0.00     0.064 A 
ATOM     81  C   UNL A   1      45.126  29.065  35.188  1.00  0.00     0.173 A 
ATOM     82  C   UNL A   1      43.507  27.646  36.256  1.00  0.00     0.173 A 
ATOM     83  F   UNL A   1      45.451  30.033  34.318  1.00  0.00    -0.203 F 
ATOM     84  C   UNL A   1      46.145  28.428  35.893  1.00  0.00     0.198 A 
ATOM     85  C   UNL A   1      44.524  27.036  36.986  1.00  0.00     0.198 A 
ATOM     86  F   UNL A   1      42.243  27.240  36.450  1.00  0.00    -0.203 F 
ATOM     87  F   UNL A   1      47.421  28.780  35.686  1.00  0.00    -0.200 F 
ATOM     88  C   UNL A   1      45.842  27.421  36.797  1.00  0.00     0.200 A 
ATOM     89  F   UNL A   1      44.228  26.074  37.871  1.00  0.00    -0.200 F 
ATOM     90  F   UNL A   1      46.823  26.817  37.482  1.00  0.00    -0.200 F 
ENDBRANCH  57  80
ENDBRANCH  31  32
ENDBRANCH  23  26
ENDBRANCH  21  22
ENDBRANCH   1  21
TORSDOF 12
ENDMDL
MODEL 2
REMARK VINA RESULT:     -12.6      0.057      1.630
REMARK SMILES O=C(C[N@@H+]1CCC[C@@H]1c1ccccc1Cl)NCCCNC(=O)c1ccc(-c2c3nc(c(-c4c(F)c(F)c(F)c(F)c4F)c4ccc([nH]4)c(-c4c(F)c(F)c(F)c(F)c4F)c4nc(c(-c5c(F)c(F)c(F)c(F)c5F)c5ccc2[nH]5)C=C4)C=C3)cc1
REMARK SMILES IDX 18 1 17 2 16 3 1 4 2 5 3 7 4 8 5 9 8 10 6 12 7 13 9 14 10 15
REMARK SMILES IDX 14 16 11 17 13 18 15 19 12 20 19 21 20 22 21 23 22 25 23 26
REMARK SMILES IDX 24 27 85 28 25 29 84 30 26 31 27 32 28 33 78 34 29 35 83 36
REMARK SMILES IDX 77 37 79 38 30 39 82 40 76 41 75 42 31 44 63 45 43 46 62 47
REMARK SMILES IDX 44 48 47 49 61 50 80 51 45 52 46 53 60 55 81 56 48 57 32 58
REMARK SMILES IDX 33 59 41 60 34 61 35 62 39 63 42 64 36 65 37 66 40 67 38 68
REMARK SMILES IDX 64 69 65 70 73 71 66 72 67 73 71 74 74 75 68 76 69 77 72 78
REMARK SMILES IDX 70 79 49 80 50 81 58 82 51 83 52 84 56 85 59 86 53 87 54 88
REMARK SMILES IDX 57 89 55 90
REMARK H PARENT 16 6 4 11 20 24 79 43 47 54
REMARK Flexibility Score: inf
ROOT
ATOM      1  C   UNL A   1      31.599  31.959  26.766  1.00  0.00     0.042 C 
ENDROOT
BRANCH   1   2
ATOM      2  C   UNL A   1      31.746  30.453  26.929  1.00  0.00     0.118 C 
BRANCH   2   3
ATOM      3  N   UNL A   1      31.809  29.767  25.654  1.00  0.00    -0.351 N 
ATOM      4  O   UNL A   1      33.976  29.075  25.921  1.00  0.00    -0.269 OA
ATOM      5  C   UNL A   1      32.934  29.073  25.269  1.00  0.00     0.275 C 
ATOM      6  H   UNL A   1      31.031  29.798  25.051  1.00  0.00     0.163 HD
BRANCH   5   7
ATOM      7  C   UNL A   1      32.851  28.372  23.915  1.00  0.00     0.364 C 
BRANCH   7   8
ATOM      8  N   UNL A   1      32.273  26.996  23.877  1.00  0.00    -0.321 N 
ATOM      9  C   UNL A   1      33.205  25.993  23.304  1.00  0.00     0.263 C 
ATOM     10  C   UNL A   1      31.070  26.886  22.938  1.00  0.00     0.217 C 
ATOM     11  H   UNL A   1      32.044  26.819  24.855  1.00  0.00     0.349 HD
ATOM     12  C   UNL A   1      33.176  26.255  21.822  1.00  0.00     0.068 C 
ATOM     13  C   UNL A   1      31.700  26.465  21.578  1.00  0.00     0.076 C 
BRANCH  10  14
ATOM     14  C   UNL A   1      30.052  28.029  22.787  1.00  0.00     0.028 A 
ATOM     15  C   UNL A   1      30.406  29.294  22.288  1.00  0.00     0.011 A 
ATOM     16  C   UNL A   1      28.691  27.876  23.142  1.00  0.00     0.050 A 
ATOM     17  C   UNL A   1      29.444  30.227  21.884  1.00  0.00     0.001 A 
ATOM     18  C   UNL A   1      27.723  28.811  22.750  1.00  0.00     0.021 A 
ATOM     19  Cl  UNL A   1      28.115  26.599  24.163  1.00  0.00    -0.084 Cl
ATOM     20  C   UNL A   1      28.095  29.963  22.069  1.00  0.00     0.002 A 
ENDBRANCH  10  14
ENDBRANCH   7   8
ENDBRANCH   5   7
ENDBRANCH   2   3
ENDBRANCH   1   2
BRANCH   1  21
ATOM     21  C   UNL A   1      32.819  32.746  27.225  1.00  0.00     0.118 C 
BRANCH  21  22
ATOM     22  N   UNL A   1      32.501  34.121  27.590  1.00  0.00    -0.352 N 
ATOM     23  C   UNL A   1      33.014  34.921  28.584  1.00  0.00     0.251 C 
ATOM     24  H   UNL A   1      31.806  34.546  27.038  1.00  0.00     0.163 HD
ATOM     25  O   UNL A   1      32.479  35.989  28.848  1.00  0.00    -0.269 OA
BRANCH  23  26
ATOM     26  C   UNL A   1      34.198  34.481  29.352  1.00  0.00     0.039 A 
ATOM     27  C   UNL A   1      34.009  33.915  30.615  1.00  0.00     0.014 A 
ATOM     28  C   UNL A   1      35.487  34.626  28.833  1.00  0.00     0.014 A 
ATOM     29  C   UNL A   1      35.105  33.412  31.318  1.00  0.00     0.010 A 
ATOM     30  C   UNL A   1      36.566  34.050  29.496  1.00  0.00     0.010 A 
ATOM     31  C   UNL A   1      36.385  33.429  30.740  1.00  0.00    -0.014 A 
BRANCH  31  32
ATOM     32  C   UNL A   1      37.540  32.772  31.404  1.00  0.00     0.031 A 
ATOM     33  C   UNL A   1      38.225  31.602  30.757  1.00  0.00     0.074 A 
ATOM     34  C   UNL A   1      37.921  33.185  32.629  1.00  0.00     0.049 A 
ATOM     35  N   UNL A   1      39.186  30.845  31.221  1.00  0.00    -0.248 NA
ATOM     36  C   UNL A   1      37.749  31.216  29.419  1.00  0.00     0.031 C 
ATOM     37  C   UNL A   1      37.308  34.282  33.379  1.00  0.00     0.029 A 
ATOM     38  N   UNL A   1      38.904  32.720  33.466  1.00  0.00    -0.354 N 
ATOM     39  C   UNL A   1      39.423  29.890  30.242  1.00  0.00     0.074 A 
ATOM     40  C   UNL A   1      38.468  30.129  29.180  1.00  0.00     0.031 C 
ATOM     41  C   UNL A   1      37.940  34.419  34.556  1.00  0.00     0.029 A 
ATOM     42  C   UNL A   1      38.968  33.389  34.666  1.00  0.00     0.049 A 
ATOM     43  H   UNL A   1      39.505  31.977  33.231  1.00  0.00     0.167 HD
ATOM     44  C   UNL A   1      40.363  28.916  30.221  1.00  0.00     0.037 A 
ATOM     45  C   UNL A   1      39.755  33.184  35.739  1.00  0.00     0.037 A 
ATOM     46  C   UNL A   1      41.318  28.690  31.276  1.00  0.00     0.049 A 
ATOM     47  C   UNL A   1      40.766  32.071  35.704  1.00  0.00     0.074 A 
ATOM     48  C   UNL A   1      42.348  27.767  31.324  1.00  0.00     0.029 A 
ATOM     49  N   UNL A   1      41.352  29.388  32.475  1.00  0.00    -0.354 N 
ATOM     50  N   UNL A   1      41.030  31.219  34.742  1.00  0.00    -0.248 NA
ATOM     51  C   UNL A   1      41.592  31.891  36.906  1.00  0.00     0.031 C 
ATOM     52  C   UNL A   1      42.966  27.865  32.575  1.00  0.00     0.029 A 
ATOM     53  C   UNL A   1      42.363  28.891  33.284  1.00  0.00     0.049 A 
ATOM     54  H   UNL A   1      40.748  30.127  32.716  1.00  0.00     0.167 HD
ATOM     55  C   UNL A   1      42.064  30.422  35.212  1.00  0.00     0.074 A 
ATOM     56  C   UNL A   1      42.396  30.905  36.535  1.00  0.00     0.031 C 
ATOM     57  C   UNL A   1      42.682  29.381  34.601  1.00  0.00     0.037 A 
BRANCH  44  58
ATOM     58  C   UNL A   1      40.407  28.015  29.020  1.00  0.00     0.064 A 
ATOM     59  C   UNL A   1      39.677  26.817  28.969  1.00  0.00     0.173 A 
ATOM     60  C   UNL A   1      41.157  28.372  27.888  1.00  0.00     0.173 A 
ATOM     61  F   UNL A   1      38.952  26.423  30.028  1.00  0.00    -0.203 F 
ATOM     62  C   UNL A   1      39.720  25.998  27.844  1.00  0.00     0.198 A 
ATOM     63  C   UNL A   1      41.169  27.566  26.752  1.00  0.00     0.198 A 
ATOM     64  F   UNL A   1      41.868  29.509  27.879  1.00  0.00    -0.203 F 
ATOM     65  F   UNL A   1      39.055  24.833  27.840  1.00  0.00    -0.200 F 
ATOM     66  C   UNL A   1      40.459  26.376  26.734  1.00  0.00     0.200 A 
ATOM     67  F   UNL A   1      41.872  27.943  25.674  1.00  0.00    -0.200 F 
ATOM     68  F   UNL A   1      40.491  25.592  25.648  1.00  0.00    -0.200 F 
ENDBRANCH  44  58
BRANCH  45  69
ATOM     69  C   UNL A   1      39.619  34.054  36.937  1.00  0.00     0.064 A 
ATOM     70  C   UNL A   1      40.289  35.283  37.015  1.00  0.00     0.173 A 
ATOM     71  C   UNL A   1      38.830  33.673  38.033  1.00  0.00     0.173 A 
ATOM     72  F   UNL A   1      41.073  35.683  36.003  1.00  0.00    -0.203 F 
ATOM     73  C   UNL A   1      40.195  36.085  38.151  1.00  0.00     0.198 A 
ATOM     74  C   UNL A   1      38.710  34.491  39.154  1.00  0.00     0.198 A 
ATOM     75  F   UNL A   1      38.164  32.508  38.009  1.00  0.00    -0.203 F 
ATOM     76  F   UNL A   1      40.887  37.230  38.219  1.00  0.00    -0.200 F 
ATOM     77  C   UNL A   1      39.400  35.691  39.216  1.00  0.00     0.200 A 
ATOM     78  F   UNL A   1      37.927  34.114  40.175  1.00  0.00    -0.200 F 
ATOM     79  F   UNL A   1      39.307  36.464  40.307  1.00  0.00    -0.200 F 
ENDBRANCH  45  69
BRANCH  57  80
ATOM     80  C   UNL A   1      43.798  28.707  35.349  1.00  0.00     0.064 A 
ATOM     81  C   UNL A   1      43.556  27.645  36.232  1.00  0.00     0.173 A 
ATOM     82  C   UNL A   1      45.128  29.107  35.152  1.00  0.00     0.173 A 
ATOM     83  F   UNL A   1      42.302  27.234  36.469  1.00  0.00    -0.203 F 
ATOM     84  C   UNL A   1      44.603  27.027  36.913  1.00  0.00     0.198 A 
ATOM     85  C   UNL A   1      46.176  28.464  35.807  1.00  0.00     0.198 A 
ATOM     86  F   UNL A   1      45.415  30.114  34.313  1.00  0.00    -0.203 F 
ATOM     87  F   UNL A   1      44.344  26.050  37.792  1.00  0.00    -0.200 F 
ATOM     88  C   UNL A   1      45.912  27.431  36.693  1.00  0.00     0.200 A 
ATOM     89  F   UNL A   1      47.440  28.845  35.580  1.00  0.00    -0.200 F 
ATOM     90  F   UNL A   1      46.918  26.828  37.340  1.00  0.00    -0.200 F 
ENDBRANCH  57  80
ENDBRANCH  31  32
ENDBRANCH  23  26
ENDBRANCH  21  22
ENDBRANCH   1  21
TORSDOF 12
ENDMDL
MODEL 3
REMARK VINA RESULT:     -12.4      4.555     10.474
REMARK SMILES O=C(C[N@@H+]1CCC[C@@H]1c1ccccc1Cl)NCCCNC(=O)c1ccc(-c2c3nc(c(-c4c(F)c(F)c(F)c(F)c4F)c4ccc([nH]4)c(-c4c(F)c(F)c(F)c(F)c4F)c4nc(c(-c5c(F)c(F)c(F)c(F)c5F)c5ccc2[nH]5)C=C4)C=C3)cc1
REMARK SMILES IDX 18 1 17 2 16 3 1 4 2 5 3 7 4 8 5 9 8 10 6 12 7 13 9 14 10 15
REMARK SMILES IDX 14 16 11 17 13 18 15 19 12 20 19 21 20 22 21 23 22 25 23 26
REMARK SMILES IDX 24 27 85 28 25 29 84 30 26 31 27 32 28 33 78 34 29 35 83 36
REMARK SMILES IDX 77 37 79 38 30 39 82 40 76 41 75 42 31 44 63 45 43 46 62 47
REMARK SMILES IDX 44 48 47 49 61 50 80 51 45 52 46 53 60 55 81 56 48 57 32 58
REMARK SMILES IDX 33 59 41 60 34 61 35 62 39 63 42 64 36 65 37 66 40 67 38 68
REMARK SMILES IDX 64 69 65 70 73 71 66 72 67 73 71 74 74 75 68 76 69 77 72 78
REMARK SMILES IDX 70 79 49 80 50 81 58 82 51 83 52 84 56 85 59 86 53 87 54 88
REMARK SMILES IDX 57 89 55 90
REMARK H PARENT 16 6 4 11 20 24 79 43 47 54
REMARK Flexibility Score: inf
ROOT
ATOM      1  C   UNL A   1      33.459  33.544  27.970  1.00  0.00     0.042 C 
ENDROOT
BRANCH   1   2
ATOM      2  C   UNL A   1      33.939  34.915  28.420  1.00  0.00     0.118 C 
BRANCH   2   3
ATOM      3  N   UNL A   1      34.654  34.860  29.679  1.00  0.00    -0.351 N 
ATOM      4  O   UNL A   1      32.786  35.160  30.970  1.00  0.00    -0.269 OA
ATOM      5  C   UNL A   1      33.992  34.938  30.883  1.00  0.00     0.275 C 
ATOM      6  H   UNL A   1      35.634  34.764  29.673  1.00  0.00     0.163 HD
BRANCH   5   7
ATOM      7  C   UNL A   1      34.867  34.835  32.130  1.00  0.00     0.364 C 
BRANCH   7   8
ATOM      8  N   UNL A   1      35.073  33.482  32.728  1.00  0.00    -0.321 N 
ATOM      9  C   UNL A   1      34.775  33.440  34.181  1.00  0.00     0.263 C 
ATOM     10  C   UNL A   1      36.536  33.037  32.690  1.00  0.00     0.217 C 
ATOM     11  H   UNL A   1      34.453  32.893  32.172  1.00  0.00     0.349 HD
ATOM     12  C   UNL A   1      35.953  34.118  34.827  1.00  0.00     0.068 C 
ATOM     13  C   UNL A   1      37.108  33.527  34.052  1.00  0.00     0.076 C 
BRANCH  10  14
ATOM     14  C   UNL A   1      37.458  33.379  31.507  1.00  0.00     0.028 A 
ATOM     15  C   UNL A   1      37.277  32.829  30.226  1.00  0.00     0.011 A 
ATOM     16  C   UNL A   1      38.548  34.271  31.636  1.00  0.00     0.050 A 
ATOM     17  C   UNL A   1      37.923  33.350  29.098  1.00  0.00     0.001 A 
ATOM     18  C   UNL A   1      39.207  34.789  30.512  1.00  0.00     0.021 A 
ATOM     19  Cl  UNL A   1      39.230  34.721  33.165  1.00  0.00    -0.084 Cl
ATOM     20  C   UNL A   1      38.854  34.369  29.236  1.00  0.00     0.002 A 
ENDBRANCH  10  14
ENDBRANCH   7   8
ENDBRANCH   5   7
ENDBRANCH   2   3
ENDBRANCH   1   2
BRANCH   1  21
ATOM     21  C   UNL A   1      34.456  32.426  28.243  1.00  0.00     0.118 C 
BRANCH  21  22
ATOM     22  N   UNL A   1      33.916  31.103  27.954  1.00  0.00    -0.352 N 
ATOM     23  C   UNL A   1      34.546  29.883  27.865  1.00  0.00     0.251 C 
ATOM     24  H   UNL A   1      32.945  31.077  27.795  1.00  0.00     0.163 HD
ATOM     25  O   UNL A   1      33.942  28.914  27.425  1.00  0.00    -0.269 OA
BRANCH  23  26
ATOM     26  C   UNL A   1      35.958  29.747  28.277  1.00  0.00     0.039 A 
ATOM     27  C   UNL A   1      36.242  29.339  29.582  1.00  0.00     0.014 A 
ATOM     28  C   UNL A   1      36.998  30.020  27.385  1.00  0.00     0.014 A 
ATOM     29  C   UNL A   1      37.567  29.117  29.964  1.00  0.00     0.010 A 
ATOM     30  C   UNL A   1      38.309  29.719  27.740  1.00  0.00     0.010 A 
ATOM     31  C   UNL A   1      38.606  29.256  29.030  1.00  0.00    -0.014 A 
BRANCH  31  32
ATOM     32  C   UNL A   1      40.004  28.888  29.370  1.00  0.00     0.031 A 
ATOM     33  C   UNL A   1      40.870  29.831  30.155  1.00  0.00     0.074 A 
ATOM     34  C   UNL A   1      40.516  27.733  28.902  1.00  0.00     0.049 A 
ATOM     35  N   UNL A   1      42.136  29.726  30.469  1.00  0.00    -0.248 NA
ATOM     36  C   UNL A   1      40.234  31.070  30.631  1.00  0.00     0.031 C 
ATOM     37  C   UNL A   1      39.789  26.754  28.092  1.00  0.00     0.029 A 
ATOM     38  N   UNL A   1      41.772  27.194  29.023  1.00  0.00    -0.354 N 
ATOM     39  C   UNL A   1      42.450  30.884  31.167  1.00  0.00     0.074 A 
ATOM     40  C   UNL A   1      41.258  31.703  31.185  1.00  0.00     0.031 C 
ATOM     41  C   UNL A   1      40.603  25.725  27.807  1.00  0.00     0.029 A 
ATOM     42  C   UNL A   1      41.923  25.994  28.369  1.00  0.00     0.049 A 
ATOM     43  H   UNL A   1      42.497  27.625  29.531  1.00  0.00     0.167 HD
ATOM     44  C   UNL A   1      43.621  31.223  31.757  1.00  0.00     0.037 A 
ATOM     45  C   UNL A   1      43.007  25.209  28.223  1.00  0.00     0.037 A 
ATOM     46  C   UNL A   1      44.802  30.398  31.746  1.00  0.00     0.049 A 
ATOM     47  C   UNL A   1      44.305  25.628  28.857  1.00  0.00     0.074 A 
ATOM     48  C   UNL A   1      46.019  30.626  32.363  1.00  0.00     0.029 A 
ATOM     49  N   UNL A   1      44.917  29.190  31.072  1.00  0.00    -0.354 N 
ATOM     50  N   UNL A   1      44.572  26.692  29.576  1.00  0.00    -0.248 NA
ATOM     51  C   UNL A   1      45.455  24.735  28.659  1.00  0.00     0.031 C 
ATOM     52  C   UNL A   1      46.889  29.588  32.014  1.00  0.00     0.029 A 
ATOM     53  C   UNL A   1      46.197  28.680  31.230  1.00  0.00     0.049 A 
ATOM     54  H   UNL A   1      44.196  28.759  30.559  1.00  0.00     0.167 HD
ATOM     55  C   UNL A   1      45.908  26.584  29.936  1.00  0.00     0.074 A 
ATOM     56  C   UNL A   1      46.392  25.340  29.375  1.00  0.00     0.031 C 
ATOM     57  C   UNL A   1      46.666  27.440  30.665  1.00  0.00     0.037 A 
BRANCH  44  58
ATOM     58  C   UNL A   1      43.688  32.547  32.463  1.00  0.00     0.064 A 
ATOM     59  C   UNL A   1      44.040  33.727  31.789  1.00  0.00     0.173 A 
ATOM     60  C   UNL A   1      43.357  32.646  33.825  1.00  0.00     0.173 A 
ATOM     61  F   UNL A   1      44.375  33.687  30.491  1.00  0.00    -0.203 F 
ATOM     62  C   UNL A   1      44.086  34.948  32.456  1.00  0.00     0.198 A 
ATOM     63  C   UNL A   1      43.372  33.875  34.479  1.00  0.00     0.198 A 
ATOM     64  F   UNL A   1      43.007  31.551  34.517  1.00  0.00    -0.203 F 
ATOM     65  F   UNL A   1      44.475  36.052  31.802  1.00  0.00    -0.200 F 
ATOM     66  C   UNL A   1      43.745  35.023  33.798  1.00  0.00     0.200 A 
ATOM     67  F   UNL A   1      43.026  33.947  35.773  1.00  0.00    -0.200 F 
ATOM     68  F   UNL A   1      43.781  36.200  34.436  1.00  0.00    -0.200 F 
ENDBRANCH  44  58
BRANCH  45  69
ATOM     69  C   UNL A   1      42.911  23.945  27.446  1.00  0.00     0.064 A 
ATOM     70  C   UNL A   1      42.504  22.752  28.059  1.00  0.00     0.173 A 
ATOM     71  C   UNL A   1      43.234  23.899  26.081  1.00  0.00     0.173 A 
ATOM     72  F   UNL A   1      42.205  22.739  29.366  1.00  0.00    -0.203 F 
ATOM     73  C   UNL A   1      42.447  21.557  27.343  1.00  0.00     0.198 A 
ATOM     74  C   UNL A   1      43.146  22.711  25.359  1.00  0.00     0.198 A 
ATOM     75  F   UNL A   1      43.626  25.013  25.445  1.00  0.00    -0.203 F 
ATOM     76  F   UNL A   1      42.105  20.421  27.967  1.00  0.00    -0.200 F 
ATOM     77  C   UNL A   1      42.762  21.539  25.993  1.00  0.00     0.200 A 
ATOM     78  F   UNL A   1      43.434  22.701  24.051  1.00  0.00    -0.200 F 
ATOM     79  F   UNL A   1      42.704  20.390  25.305  1.00  0.00    -0.200 F 
ENDBRANCH  45  69
BRANCH  57  80
ATOM     80  C   UNL A   1      48.095  27.049  30.918  1.00  0.00     0.064 A 
ATOM     81  C   UNL A   1      48.448  26.180  31.960  1.00  0.00     0.173 A 
ATOM     82  C   UNL A   1      49.120  27.523  30.084  1.00  0.00     0.173 A 
ATOM     83  F   UNL A   1      47.509  25.712  32.797  1.00  0.00    -0.203 F 
ATOM     84  C   UNL A   1      49.776  25.823  32.177  1.00  0.00     0.198 A 
ATOM     85  C   UNL A   1      50.443  27.136  30.281  1.00  0.00     0.198 A 
ATOM     86  F   UNL A   1      48.837  28.352  29.068  1.00  0.00    -0.203 F 
ATOM     87  F   UNL A   1      50.096  25.034  33.212  1.00  0.00    -0.200 F 
ATOM     88  C   UNL A   1      50.771  26.294  31.332  1.00  0.00     0.200 A 
ATOM     89  F   UNL A   1      51.400  27.578  29.454  1.00  0.00    -0.200 F 
ATOM     90  F   UNL A   1      52.047  25.940  31.536  1.00  0.00    -0.200 F 
ENDBRANCH  57  80
ENDBRANCH  31  32
ENDBRANCH  23  26
ENDBRANCH  21  22
ENDBRANCH   1  21
TORSDOF 12
ENDMDL
