MODEL 1
REMARK VINA RESULT:     -12.2      0.000      0.000
REMARK SMILES O=C(C[N@@H+]1CCC[C@@H]1C(=O)NCCCNC(=O)c1ccc(-c2c3nc(c(-c4c(F)c(F)c(F)c(F)c4F)c4ccc([nH]4)c(-c4c(F)c(F)c(F)c(F)c4F)c4nc(c(-c5c(F)c(F)c(F)c(F)c5F)c5ccc2[nH]5)C=C4)C=C3)cc1)NCc1ccc(Cl)cc1
REMARK SMILES IDX 12 1 11 2 9 3 10 4 8 6 4 7 5 8 6 10 7 11 3 12 2 13 1 14
REMARK SMILES IDX 81 15 82 17 83 18 84 19 89 20 85 21 88 22 86 23 87 24 13 25
REMARK SMILES IDX 14 26 15 27 16 28 17 30 18 31 19 32 80 33 20 34 79 35 21 36
REMARK SMILES IDX 22 37 23 38 73 39 24 40 78 41 72 42 74 43 25 44 77 45 71 46
REMARK SMILES IDX 70 47 26 49 58 50 38 51 57 52 39 53 42 54 56 55 75 56 40 57
REMARK SMILES IDX 41 58 55 60 76 61 43 62 27 63 28 64 36 65 29 66 30 67 34 68
REMARK SMILES IDX 37 69 31 70 32 71 35 72 33 73 59 74 60 75 68 76 61 77 62 78
REMARK SMILES IDX 66 79 69 80 63 81 64 82 67 83 65 84 44 85 45 86 53 87 46 88
REMARK SMILES IDX 47 89 51 90 54 91 48 92 49 93 52 94 50 95
REMARK H PARENT 11 5 4 9 81 16 15 29 74 48 42 59
REMARK Flexibility Score: inf
ROOT
ATOM      1  C   UNL A   1      32.547  26.712  26.354  1.00  0.00     0.118 C 
ENDROOT
BRANCH   1   2
ATOM      2  N   UNL A   1      31.595  25.659  26.635  1.00  0.00    -0.351 N 
ATOM      3  C   UNL A   1      31.802  24.327  26.841  1.00  0.00     0.278 C 
ATOM      4  O   UNL A   1      30.835  23.674  27.248  1.00  0.00    -0.268 OA
ATOM      5  H   UNL A   1      30.654  25.949  26.685  1.00  0.00     0.163 HD
BRANCH   3   6
ATOM      6  C   UNL A   1      33.157  23.642  26.581  1.00  0.00     0.274 C 
ATOM      7  N   UNL A   1      33.505  23.325  25.170  1.00  0.00    -0.317 N 
ATOM      8  C   UNL A   1      34.126  21.993  25.160  1.00  0.00     0.263 C 
ATOM      9  H   UNL A   1      34.158  24.045  24.859  1.00  0.00     0.349 HD
ATOM     10  C   UNL A   1      33.762  21.298  26.463  1.00  0.00     0.068 C 
ATOM     11  C   UNL A   1      33.415  22.406  27.436  1.00  0.00     0.081 C 
BRANCH   7  12
ATOM     12  C   UNL A   1      32.456  23.487  24.159  1.00  0.00     0.364 C 
BRANCH  12  13
ATOM     13  C   UNL A   1      32.769  24.600  23.163  1.00  0.00     0.275 C 
ATOM     14  O   UNL A   1      33.686  24.515  22.351  1.00  0.00    -0.268 OA
ATOM     15  N   UNL A   1      31.869  25.633  23.200  1.00  0.00    -0.347 N 
ATOM     16  H   UNL A   1      31.263  25.707  23.972  1.00  0.00     0.164 HD
BRANCH  15  17
ATOM     17  C   UNL A   1      31.775  26.614  22.149  1.00  0.00     0.151 C 
BRANCH  17  18
ATOM     18  C   UNL A   1      30.753  27.657  22.529  1.00  0.00    -0.029 A 
ATOM     19  C   UNL A   1      29.499  27.265  23.023  1.00  0.00     0.007 A 
ATOM     20  C   UNL A   1      31.013  29.022  22.335  1.00  0.00     0.007 A 
ATOM     21  C   UNL A   1      28.527  28.220  23.326  1.00  0.00     0.021 A 
ATOM     22  C   UNL A   1      30.041  29.978  22.646  1.00  0.00     0.021 A 
ATOM     23  C   UNL A   1      28.804  29.572  23.140  1.00  0.00     0.041 A 
ATOM     24  Cl  UNL A   1      27.605  30.748  23.517  1.00  0.00    -0.084 Cl
ENDBRANCH  17  18
ENDBRANCH  15  17
ENDBRANCH  12  13
ENDBRANCH   7  12
ENDBRANCH   3   6
ENDBRANCH   1   2
BRANCH   1  25
ATOM     25  C   UNL A   1      31.904  28.046  26.057  1.00  0.00     0.042 C 
BRANCH  25  26
ATOM     26  C   UNL A   1      32.920  29.106  25.672  1.00  0.00     0.118 C 
BRANCH  26  27
ATOM     27  N   UNL A   1      32.509  30.456  26.052  1.00  0.00    -0.352 N 
ATOM     28  C   UNL A   1      33.075  31.330  26.948  1.00  0.00     0.251 C 
ATOM     29  H   UNL A   1      31.702  30.790  25.597  1.00  0.00     0.163 HD
ATOM     30  O   UNL A   1      32.494  32.365  27.258  1.00  0.00    -0.269 OA
BRANCH  28  31
ATOM     31  C   UNL A   1      34.376  30.999  27.557  1.00  0.00     0.039 A 
ATOM     32  C   UNL A   1      35.320  32.011  27.753  1.00  0.00     0.014 A 
ATOM     33  C   UNL A   1      34.644  29.693  27.970  1.00  0.00     0.014 A 
ATOM     34  C   UNL A   1      36.498  31.724  28.443  1.00  0.00     0.010 A 
ATOM     35  C   UNL A   1      35.753  29.440  28.761  1.00  0.00     0.010 A 
ATOM     36  C   UNL A   1      36.699  30.448  28.993  1.00  0.00    -0.014 A 
BRANCH  36  37
ATOM     37  C   UNL A   1      37.905  30.124  29.792  1.00  0.00     0.031 A 
ATOM     38  C   UNL A   1      38.941  29.191  29.227  1.00  0.00     0.074 A 
ATOM     39  C   UNL A   1      38.020  30.592  31.049  1.00  0.00     0.049 A 
ATOM     40  N   UNL A   1      40.014  28.703  29.793  1.00  0.00    -0.248 NA
ATOM     41  C   UNL A   1      38.715  28.705  27.856  1.00  0.00     0.031 C 
ATOM     42  C   UNL A   1      37.047  31.451  31.728  1.00  0.00     0.029 A 
ATOM     43  N   UNL A   1      39.006  30.406  31.983  1.00  0.00    -0.354 N 
ATOM     44  C   UNL A   1      40.565  27.831  28.864  1.00  0.00     0.074 A 
ATOM     45  C   UNL A   1      39.676  27.805  27.725  1.00  0.00     0.031 C 
ATOM     46  C   UNL A   1      37.506  31.751  32.954  1.00  0.00     0.029 A 
ATOM     47  C   UNL A   1      38.782  31.076  33.162  1.00  0.00     0.049 A 
ATOM     48  H   UNL A   1      39.800  29.846  31.825  1.00  0.00     0.167 HD
ATOM     49  C   UNL A   1      41.724  27.137  28.943  1.00  0.00     0.037 A 
ATOM     50  C   UNL A   1      39.530  31.137  34.279  1.00  0.00     0.037 A 
ATOM     51  C   UNL A   1      42.630  27.215  30.055  1.00  0.00     0.049 A 
ATOM     52  C   UNL A   1      40.829  30.381  34.330  1.00  0.00     0.074 A 
ATOM     53  C   UNL A   1      43.877  26.635  30.196  1.00  0.00     0.029 A 
ATOM     54  N   UNL A   1      42.383  27.926  31.221  1.00  0.00    -0.354 N 
ATOM     55  N   UNL A   1      41.384  29.626  33.412  1.00  0.00    -0.248 NA
ATOM     56  C   UNL A   1      41.607  30.489  35.570  1.00  0.00     0.031 C 
ATOM     57  C   UNL A   1      44.369  26.962  31.465  1.00  0.00     0.029 A 
ATOM     58  C   UNL A   1      43.446  27.781  32.097  1.00  0.00     0.049 A 
ATOM     59  H   UNL A   1      41.572  28.456  31.398  1.00  0.00     0.167 HD
ATOM     60  C   UNL A   1      42.587  29.194  33.950  1.00  0.00     0.074 A 
ATOM     61  C   UNL A   1      42.687  29.781  35.271  1.00  0.00     0.031 C 
ATOM     62  C   UNL A   1      43.526  28.385  33.402  1.00  0.00     0.037 A 
BRANCH  49  63
ATOM     63  C   UNL A   1      42.074  26.242  27.788  1.00  0.00     0.064 A 
ATOM     64  C   UNL A   1      41.522  24.959  27.653  1.00  0.00     0.173 A 
ATOM     65  C   UNL A   1      42.969  26.678  26.799  1.00  0.00     0.173 A 
ATOM     66  F   UNL A   1      40.673  24.488  28.578  1.00  0.00    -0.203 F 
ATOM     67  C   UNL A   1      41.884  24.130  26.594  1.00  0.00     0.198 A 
ATOM     68  C   UNL A   1      43.302  25.859  25.723  1.00  0.00     0.198 A 
ATOM     69  F   UNL A   1      43.522  27.897  26.877  1.00  0.00    -0.203 F 
ATOM     70  F   UNL A   1      41.392  22.885  26.522  1.00  0.00    -0.200 F 
ATOM     71  C   UNL A   1      42.769  24.583  25.627  1.00  0.00     0.200 A 
ATOM     72  F   UNL A   1      44.150  26.301  24.784  1.00  0.00    -0.200 F 
ATOM     73  F   UNL A   1      43.116  23.784  24.609  1.00  0.00    -0.200 F 
ENDBRANCH  49  63
BRANCH  50  74
ATOM     74  C   UNL A   1      39.097  31.989  35.417  1.00  0.00     0.064 A 
ATOM     75  C   UNL A   1      38.328  31.449  36.459  1.00  0.00     0.173 A 
ATOM     76  C   UNL A   1      39.440  33.346  35.495  1.00  0.00     0.173 A 
ATOM     77  F   UNL A   1      37.961  30.160  36.419  1.00  0.00    -0.203 F 
ATOM     78  C   UNL A   1      37.904  32.238  37.526  1.00  0.00     0.198 A 
ATOM     79  C   UNL A   1      39.036  34.128  36.575  1.00  0.00     0.198 A 
ATOM     80  F   UNL A   1      40.179  33.909  34.528  1.00  0.00    -0.203 F 
ATOM     81  F   UNL A   1      37.136  31.706  38.485  1.00  0.00    -0.200 F 
ATOM     82  C   UNL A   1      38.262  33.576  37.586  1.00  0.00     0.200 A 
ATOM     83  F   UNL A   1      39.395  35.418  36.638  1.00  0.00    -0.200 F 
ATOM     84  F   UNL A   1      37.857  34.335  38.614  1.00  0.00    -0.200 F 
ENDBRANCH  50  74
BRANCH  62  85
ATOM     85  C   UNL A   1      44.758  28.117  34.215  1.00  0.00     0.064 A 
ATOM     86  C   UNL A   1      44.833  27.029  35.096  1.00  0.00     0.173 A 
ATOM     87  C   UNL A   1      45.890  28.934  34.076  1.00  0.00     0.173 A 
ATOM     88  F   UNL A   1      43.771  26.230  35.273  1.00  0.00    -0.203 F 
ATOM     89  C   UNL A   1      45.990  26.784  35.828  1.00  0.00     0.198 A 
ATOM     90  C   UNL A   1      47.055  28.667  34.789  1.00  0.00     0.198 A 
ATOM     91  F   UNL A   1      45.869  29.982  33.240  1.00  0.00    -0.203 F 
ATOM     92  F   UNL A   1      46.026  25.766  36.700  1.00  0.00    -0.200 F 
ATOM     93  C   UNL A   1      47.103  27.597  35.669  1.00  0.00     0.200 A 
ATOM     94  F   UNL A   1      48.133  29.447  34.623  1.00  0.00    -0.200 F 
ATOM     95  F   UNL A   1      48.219  27.354  36.369  1.00  0.00    -0.200 F 
ENDBRANCH  62  85
ENDBRANCH  36  37
ENDBRANCH  28  31
ENDBRANCH  26  27
ENDBRANCH  25  26
ENDBRANCH   1  25
TORSDOF 14
ENDMDL
MODEL 2
REMARK VINA RESULT:     -12.1      2.454      4.420
REMARK SMILES O=C(C[N@@H+]1CCC[C@@H]1C(=O)NCCCNC(=O)c1ccc(-c2c3nc(c(-c4c(F)c(F)c(F)c(F)c4F)c4ccc([nH]4)c(-c4c(F)c(F)c(F)c(F)c4F)c4nc(c(-c5c(F)c(F)c(F)c(F)c5F)c5ccc2[nH]5)C=C4)C=C3)cc1)NCc1ccc(Cl)cc1
REMARK SMILES IDX 12 1 11 2 9 3 10 4 8 6 4 7 5 8 6 10 7 11 3 12 2 13 1 14
REMARK SMILES IDX 81 15 82 17 83 18 84 19 89 20 85 21 88 22 86 23 87 24 13 25
REMARK SMILES IDX 14 26 15 27 16 28 17 30 18 31 19 32 80 33 20 34 79 35 21 36
REMARK SMILES IDX 22 37 23 38 73 39 24 40 78 41 72 42 74 43 25 44 77 45 71 46
REMARK SMILES IDX 70 47 26 49 58 50 38 51 57 52 39 53 42 54 56 55 75 56 40 57
REMARK SMILES IDX 41 58 55 60 76 61 43 62 27 63 28 64 36 65 29 66 30 67 34 68
REMARK SMILES IDX 37 69 31 70 32 71 35 72 33 73 59 74 60 75 68 76 61 77 62 78
REMARK SMILES IDX 66 79 69 80 63 81 64 82 67 83 65 84 44 85 45 86 53 87 46 88
REMARK SMILES IDX 47 89 51 90 54 91 48 92 49 93 52 94 50 95
REMARK H PARENT 11 5 4 9 81 16 15 29 74 48 42 59
REMARK Flexibility Score: inf
ROOT
ATOM      1  C   UNL A   1      31.871  30.518  26.617  1.00  0.00     0.118 C 
ENDROOT
BRANCH   1   2
ATOM      2  N   UNL A   1      32.392  30.128  25.325  1.00  0.00    -0.351 N 
ATOM      3  C   UNL A   1      32.047  29.078  24.526  1.00  0.00     0.278 C 
ATOM      4  O   UNL A   1      32.516  29.075  23.383  1.00  0.00    -0.268 OA
ATOM      5  H   UNL A   1      33.104  30.707  24.969  1.00  0.00     0.163 HD
BRANCH   3   6
ATOM      6  C   UNL A   1      31.127  27.935  24.998  1.00  0.00     0.274 C 
ATOM      7  N   UNL A   1      31.768  26.769  25.662  1.00  0.00    -0.317 N 
ATOM      8  C   UNL A   1      31.104  25.558  25.159  1.00  0.00     0.263 C 
ATOM      9  H   UNL A   1      31.624  26.886  26.666  1.00  0.00     0.349 HD
ATOM     10  C   UNL A   1      30.378  25.923  23.874  1.00  0.00     0.068 C 
ATOM     11  C   UNL A   1      30.161  27.421  23.936  1.00  0.00     0.081 C 
BRANCH   7  12
ATOM     12  C   UNL A   1      33.231  26.689  25.629  1.00  0.00     0.364 C 
BRANCH  12  13
ATOM     13  C   UNL A   1      33.741  25.725  24.562  1.00  0.00     0.275 C 
ATOM     14  O   UNL A   1      33.777  26.024  23.371  1.00  0.00    -0.268 OA
ATOM     15  N   UNL A   1      34.245  24.559  25.076  1.00  0.00    -0.347 N 
ATOM     16  H   UNL A   1      34.041  24.326  26.010  1.00  0.00     0.164 HD
BRANCH  15  17
ATOM     17  C   UNL A   1      35.064  23.663  24.302  1.00  0.00     0.151 C 
BRANCH  17  18
ATOM     18  C   UNL A   1      34.403  22.307  24.243  1.00  0.00    -0.029 A 
ATOM     19  C   UNL A   1      33.145  22.164  23.637  1.00  0.00     0.007 A 
ATOM     20  C   UNL A   1      35.000  21.190  24.846  1.00  0.00     0.007 A 
ATOM     21  C   UNL A   1      32.501  20.926  23.625  1.00  0.00     0.021 A 
ATOM     22  C   UNL A   1      34.358  19.949  24.827  1.00  0.00     0.021 A 
ATOM     23  C   UNL A   1      33.112  19.823  24.217  1.00  0.00     0.041 A 
ATOM     24  Cl  UNL A   1      32.318  18.296  24.198  1.00  0.00    -0.084 Cl
ENDBRANCH  17  18
ENDBRANCH  15  17
ENDBRANCH  12  13
ENDBRANCH   7  12
ENDBRANCH   3   6
ENDBRANCH   1   2
BRANCH   1  25
ATOM     25  C   UNL A   1      31.608  32.001  26.740  1.00  0.00     0.042 C 
BRANCH  25  26
ATOM     26  C   UNL A   1      32.795  32.755  27.311  1.00  0.00     0.118 C 
BRANCH  26  27
ATOM     27  N   UNL A   1      32.490  34.151  27.619  1.00  0.00    -0.352 N 
ATOM     28  C   UNL A   1      33.011  34.973  28.589  1.00  0.00     0.251 C 
ATOM     29  H   UNL A   1      31.806  34.566  27.045  1.00  0.00     0.163 HD
ATOM     30  O   UNL A   1      32.514  36.073  28.803  1.00  0.00    -0.269 OA
BRANCH  28  31
ATOM     31  C   UNL A   1      34.158  34.508  29.392  1.00  0.00     0.039 A 
ATOM     32  C   UNL A   1      33.932  33.953  30.653  1.00  0.00     0.014 A 
ATOM     33  C   UNL A   1      35.452  34.587  28.875  1.00  0.00     0.014 A 
ATOM     34  C   UNL A   1      35.000  33.398  31.358  1.00  0.00     0.010 A 
ATOM     35  C   UNL A   1      36.487  33.927  29.518  1.00  0.00     0.010 A 
ATOM     36  C   UNL A   1      36.276  33.340  30.774  1.00  0.00    -0.014 A 
BRANCH  36  37
ATOM     37  C   UNL A   1      37.420  32.696  31.461  1.00  0.00     0.031 A 
ATOM     38  C   UNL A   1      38.141  31.557  30.791  1.00  0.00     0.074 A 
ATOM     39  C   UNL A   1      37.749  33.071  32.711  1.00  0.00     0.049 A 
ATOM     40  N   UNL A   1      39.098  30.796  31.255  1.00  0.00    -0.248 NA
ATOM     41  C   UNL A   1      37.692  31.196  29.436  1.00  0.00     0.031 C 
ATOM     42  C   UNL A   1      37.079  34.117  33.486  1.00  0.00     0.029 A 
ATOM     43  N   UNL A   1      38.727  32.609  33.554  1.00  0.00    -0.354 N 
ATOM     44  C   UNL A   1      39.338  29.850  30.266  1.00  0.00     0.074 A 
ATOM     45  C   UNL A   1      38.384  30.091  29.207  1.00  0.00     0.031 C 
ATOM     46  C   UNL A   1      37.693  34.246  34.674  1.00  0.00     0.029 A 
ATOM     47  C   UNL A   1      38.771  33.267  34.759  1.00  0.00     0.049 A 
ATOM     48  H   UNL A   1      39.339  31.876  33.318  1.00  0.00     0.167 HD
ATOM     49  C   UNL A   1      40.287  28.887  30.232  1.00  0.00     0.037 A 
ATOM     50  C   UNL A   1      39.596  33.097  35.809  1.00  0.00     0.037 A 
ATOM     51  C   UNL A   1      41.269  28.694  31.264  1.00  0.00     0.049 A 
ATOM     52  C   UNL A   1      40.663  32.040  35.734  1.00  0.00     0.074 A 
ATOM     53  C   UNL A   1      42.337  27.817  31.286  1.00  0.00     0.029 A 
ATOM     54  N   UNL A   1      41.301  29.399  32.459  1.00  0.00    -0.354 N 
ATOM     55  N   UNL A   1      40.937  31.207  34.758  1.00  0.00    -0.248 NA
ATOM     56  C   UNL A   1      41.538  31.902  36.904  1.00  0.00     0.031 C 
ATOM     57  C   UNL A   1      42.993  27.961  32.514  1.00  0.00     0.029 A 
ATOM     58  C   UNL A   1      42.359  28.960  33.237  1.00  0.00     0.049 A 
ATOM     59  H   UNL A   1      40.666  30.106  32.714  1.00  0.00     0.167 HD
ATOM     60  C   UNL A   1      42.031  30.469  35.183  1.00  0.00     0.074 A 
ATOM     61  C   UNL A   1      42.379  30.960  36.500  1.00  0.00     0.031 C 
ATOM     62  C   UNL A   1      42.691  29.473  34.541  1.00  0.00     0.037 A 
BRANCH  49  63
ATOM     63  C   UNL A   1      40.309  27.980  29.036  1.00  0.00     0.064 A 
ATOM     64  C   UNL A   1      41.051  28.290  27.885  1.00  0.00     0.173 A 
ATOM     65  C   UNL A   1      39.583  26.779  29.043  1.00  0.00     0.173 A 
ATOM     66  F   UNL A   1      41.750  29.432  27.821  1.00  0.00    -0.203 F 
ATOM     67  C   UNL A   1      41.033  27.453  26.772  1.00  0.00     0.198 A 
ATOM     68  C   UNL A   1      39.594  25.928  27.940  1.00  0.00     0.198 A 
ATOM     69  F   UNL A   1      38.860  26.431  30.117  1.00  0.00    -0.203 F 
ATOM     70  F   UNL A   1      41.698  27.803  25.663  1.00  0.00    -0.200 F 
ATOM     71  C   UNL A   1      40.310  26.270  26.803  1.00  0.00     0.200 A 
ATOM     72  F   UNL A   1      38.903  24.780  27.974  1.00  0.00    -0.200 F 
ATOM     73  F   UNL A   1      40.293  25.466  25.732  1.00  0.00    -0.200 F 
ENDBRANCH  49  63
BRANCH  50  74
ATOM     74  C   UNL A   1      39.482  33.984  36.995  1.00  0.00     0.064 A 
ATOM     75  C   UNL A   1      38.744  33.581  38.118  1.00  0.00     0.173 A 
ATOM     76  C   UNL A   1      40.103  35.240  37.038  1.00  0.00     0.173 A 
ATOM     77  F   UNL A   1      38.118  32.396  38.115  1.00  0.00    -0.203 F 
ATOM     78  C   UNL A   1      38.618  34.408  39.232  1.00  0.00     0.198 A 
ATOM     79  C   UNL A   1      39.996  36.056  38.163  1.00  0.00     0.198 A 
ATOM     80  F   UNL A   1      40.825  35.670  35.993  1.00  0.00    -0.203 F 
ATOM     81  F   UNL A   1      37.874  34.015  40.273  1.00  0.00    -0.200 F 
ATOM     82  C   UNL A   1      39.247  35.643  39.256  1.00  0.00     0.200 A 
ATOM     83  F   UNL A   1      40.618  37.243  38.190  1.00  0.00    -0.200 F 
ATOM     84  F   UNL A   1      39.129  36.437  40.329  1.00  0.00    -0.200 F 
ENDBRANCH  50  74
BRANCH  62  85
ATOM     85  C   UNL A   1      43.875  28.875  35.241  1.00  0.00     0.064 A 
ATOM     86  C   UNL A   1      45.171  29.377  35.049  1.00  0.00     0.173 A 
ATOM     87  C   UNL A   1      43.703  27.817  36.145  1.00  0.00     0.173 A 
ATOM     88  F   UNL A   1      45.387  30.377  34.183  1.00  0.00    -0.203 F 
ATOM     89  C   UNL A   1      46.256  28.822  35.722  1.00  0.00     0.198 A 
ATOM     90  C   UNL A   1      44.787  27.284  36.837  1.00  0.00     0.198 A 
ATOM     91  F   UNL A   1      42.483  27.308  36.367  1.00  0.00    -0.203 F 
ATOM     92  F   UNL A   1      47.492  29.284  35.490  1.00  0.00    -0.200 F 
ATOM     93  C   UNL A   1      46.063  27.783  36.620  1.00  0.00     0.200 A 
ATOM     94  F   UNL A   1      44.597  26.290  37.714  1.00  0.00    -0.200 F 
ATOM     95  F   UNL A   1      47.108  27.255  37.272  1.00  0.00    -0.200 F 
ENDBRANCH  62  85
ENDBRANCH  36  37
ENDBRANCH  28  31
ENDBRANCH  26  27
ENDBRANCH  25  26
ENDBRANCH   1  25
TORSDOF 14
ENDMDL
MODEL 3
REMARK VINA RESULT:     -12.1      4.792      9.829
REMARK SMILES O=C(C[N@@H+]1CCC[C@@H]1C(=O)NCCCNC(=O)c1ccc(-c2c3nc(c(-c4c(F)c(F)c(F)c(F)c4F)c4ccc([nH]4)c(-c4c(F)c(F)c(F)c(F)c4F)c4nc(c(-c5c(F)c(F)c(F)c(F)c5F)c5ccc2[nH]5)C=C4)C=C3)cc1)NCc1ccc(Cl)cc1
REMARK SMILES IDX 12 1 11 2 9 3 10 4 8 6 4 7 5 8 6 10 7 11 3 12 2 13 1 14
REMARK SMILES IDX 81 15 82 17 83 18 84 19 89 20 85 21 88 22 86 23 87 24 13 25
REMARK SMILES IDX 14 26 15 27 16 28 17 30 18 31 19 32 80 33 20 34 79 35 21 36
REMARK SMILES IDX 22 37 23 38 73 39 24 40 78 41 72 42 74 43 25 44 77 45 71 46
REMARK SMILES IDX 70 47 26 49 58 50 38 51 57 52 39 53 42 54 56 55 75 56 40 57
REMARK SMILES IDX 41 58 55 60 76 61 43 62 27 63 28 64 36 65 29 66 30 67 34 68
REMARK SMILES IDX 37 69 31 70 32 71 35 72 33 73 59 74 60 75 68 76 61 77 62 78
REMARK SMILES IDX 66 79 69 80 63 81 64 82 67 83 65 84 44 85 45 86 53 87 46 88
REMARK SMILES IDX 47 89 51 90 54 91 48 92 49 93 52 94 50 95
REMARK H PARENT 11 5 4 9 81 16 15 29 74 48 42 59
REMARK Flexibility Score: inf
ROOT
ATOM      1  C   UNL A   1      37.563  21.658  24.980  1.00  0.00     0.118 C 
ENDROOT
BRANCH   1   2
ATOM      2  N   UNL A   1      36.535  21.782  25.990  1.00  0.00    -0.351 N 
ATOM      3  C   UNL A   1      35.213  21.452  25.936  1.00  0.00     0.278 C 
ATOM      4  O   UNL A   1      34.591  21.486  27.003  1.00  0.00    -0.268 OA
ATOM      5  H   UNL A   1      36.836  22.164  26.847  1.00  0.00     0.163 HD
BRANCH   3   6
ATOM      6  C   UNL A   1      34.503  21.060  24.626  1.00  0.00     0.274 C 
ATOM      7  N   UNL A   1      33.768  22.128  23.898  1.00  0.00    -0.317 N 
ATOM      8  C   UNL A   1      32.509  21.545  23.415  1.00  0.00     0.263 C 
ATOM      9  H   UNL A   1      34.365  22.423  23.125  1.00  0.00     0.349 HD
ATOM     10  C   UNL A   1      32.248  20.274  24.209  1.00  0.00     0.068 C 
ATOM     11  C   UNL A   1      33.598  19.837  24.740  1.00  0.00     0.081 C 
BRANCH   7  12
ATOM     12  C   UNL A   1      33.591  23.414  24.579  1.00  0.00     0.364 C 
BRANCH  12  13
ATOM     13  C   UNL A   1      33.873  24.604  23.667  1.00  0.00     0.275 C 
ATOM     14  O   UNL A   1      34.402  24.476  22.566  1.00  0.00    -0.268 OA
ATOM     15  N   UNL A   1      33.385  25.790  24.151  1.00  0.00    -0.347 N 
ATOM     16  H   UNL A   1      33.119  25.842  25.097  1.00  0.00     0.164 HD
BRANCH  15  17
ATOM     17  C   UNL A   1      33.246  26.963  23.326  1.00  0.00     0.151 C 
BRANCH  17  18
ATOM     18  C   UNL A   1      31.800  27.394  23.311  1.00  0.00    -0.029 A 
ATOM     19  C   UNL A   1      30.804  26.534  23.802  1.00  0.00     0.007 A 
ATOM     20  C   UNL A   1      31.422  28.623  22.750  1.00  0.00     0.007 A 
ATOM     21  C   UNL A   1      29.459  26.901  23.742  1.00  0.00     0.021 A 
ATOM     22  C   UNL A   1      30.075  28.993  22.699  1.00  0.00     0.021 A 
ATOM     23  C   UNL A   1      29.101  28.130  23.195  1.00  0.00     0.041 A 
ATOM     24  Cl  UNL A   1      27.441  28.582  23.125  1.00  0.00    -0.084 Cl
ENDBRANCH  17  18
ENDBRANCH  15  17
ENDBRANCH  12  13
ENDBRANCH   7  12
ENDBRANCH   3   6
ENDBRANCH   1   2
BRANCH   1  25
ATOM     25  C   UNL A   1      38.328  20.357  25.051  1.00  0.00     0.042 C 
BRANCH  25  26
ATOM     26  C   UNL A   1      39.277  20.307  26.234  1.00  0.00     0.118 C 
BRANCH  26  27
ATOM     27  N   UNL A   1      40.273  19.243  26.124  1.00  0.00    -0.352 N 
ATOM     28  C   UNL A   1      41.644  19.321  26.080  1.00  0.00     0.251 C 
ATOM     29  H   UNL A   1      39.906  18.331  26.070  1.00  0.00     0.163 HD
ATOM     30  O   UNL A   1      42.315  18.328  25.820  1.00  0.00    -0.269 OA
BRANCH  28  31
ATOM     31  C   UNL A   1      42.303  20.618  26.321  1.00  0.00     0.039 A 
ATOM     32  C   UNL A   1      42.681  21.408  25.234  1.00  0.00     0.014 A 
ATOM     33  C   UNL A   1      42.509  21.067  27.627  1.00  0.00     0.014 A 
ATOM     34  C   UNL A   1      43.187  22.689  25.460  1.00  0.00     0.010 A 
ATOM     35  C   UNL A   1      42.893  22.380  27.846  1.00  0.00     0.010 A 
ATOM     36  C   UNL A   1      43.252  23.199  26.767  1.00  0.00    -0.014 A 
BRANCH  36  37
ATOM     37  C   UNL A   1      43.717  24.579  27.043  1.00  0.00     0.031 A 
ATOM     38  C   UNL A   1      42.744  25.597  27.573  1.00  0.00     0.074 A 
ATOM     39  C   UNL A   1      44.977  24.936  26.733  1.00  0.00     0.049 A 
ATOM     40  N   UNL A   1      42.918  26.875  27.789  1.00  0.00    -0.248 NA
ATOM     41  C   UNL A   1      41.379  25.123  27.853  1.00  0.00     0.031 C 
ATOM     42  C   UNL A   1      45.991  24.053  26.152  1.00  0.00     0.029 A 
ATOM     43  N   UNL A   1      45.621  26.140  26.859  1.00  0.00    -0.354 N 
ATOM     44  C   UNL A   1      41.681  27.359  28.194  1.00  0.00     0.074 A 
ATOM     45  C   UNL A   1      40.751  26.254  28.131  1.00  0.00     0.031 C 
ATOM     46  C   UNL A   1      47.140  24.734  26.012  1.00  0.00     0.029 A 
ATOM     47  C   UNL A   1      46.933  26.108  26.454  1.00  0.00     0.049 A 
ATOM     48  H   UNL A   1      45.184  26.951  27.206  1.00  0.00     0.167 HD
ATOM     49  C   UNL A   1      41.357  28.605  28.609  1.00  0.00     0.037 A 
ATOM     50  C   UNL A   1      47.862  27.083  26.448  1.00  0.00     0.037 A 
ATOM     51  C   UNL A   1      42.303  29.681  28.725  1.00  0.00     0.049 A 
ATOM     52  C   UNL A   1      47.485  28.452  26.944  1.00  0.00     0.074 A 
ATOM     53  C   UNL A   1      42.106  30.954  29.230  1.00  0.00     0.029 A 
ATOM     54  N   UNL A   1      43.631  29.605  28.333  1.00  0.00    -0.354 N 
ATOM     55  N   UNL A   1      46.333  28.878  27.406  1.00  0.00    -0.248 NA
ATOM     56  C   UNL A   1      48.538  29.475  26.921  1.00  0.00     0.031 C 
ATOM     57  C   UNL A   1      43.306  31.662  29.104  1.00  0.00     0.029 A 
ATOM     58  C   UNL A   1      44.262  30.816  28.562  1.00  0.00     0.049 A 
ATOM     59  H   UNL A   1      44.061  28.807  27.948  1.00  0.00     0.167 HD
ATOM     60  C   UNL A   1      46.531  30.205  27.756  1.00  0.00     0.074 A 
ATOM     61  C   UNL A   1      47.916  30.511  27.464  1.00  0.00     0.031 C 
ATOM     62  C   UNL A   1      45.646  31.092  28.273  1.00  0.00     0.037 A 
BRANCH  49  63
ATOM     63  C   UNL A   1      39.923  28.862  28.975  1.00  0.00     0.064 A 
ATOM     64  C   UNL A   1      39.446  28.662  30.280  1.00  0.00     0.173 A 
ATOM     65  C   UNL A   1      39.015  29.319  28.008  1.00  0.00     0.173 A 
ATOM     66  F   UNL A   1      40.268  28.211  31.238  1.00  0.00    -0.203 F 
ATOM     67  C   UNL A   1      38.105  28.873  30.594  1.00  0.00     0.198 A 
ATOM     68  C   UNL A   1      37.683  29.561  28.334  1.00  0.00     0.198 A 
ATOM     69  F   UNL A   1      39.419  29.530  26.747  1.00  0.00    -0.203 F 
ATOM     70  F   UNL A   1      37.660  28.615  31.831  1.00  0.00    -0.200 F 
ATOM     71  C   UNL A   1      37.227  29.328  29.622  1.00  0.00     0.200 A 
ATOM     72  F   UNL A   1      36.836  30.010  27.397  1.00  0.00    -0.200 F 
ATOM     73  F   UNL A   1      35.937  29.530  29.925  1.00  0.00    -0.200 F 
ENDBRANCH  49  63
BRANCH  50  74
ATOM     74  C   UNL A   1      49.250  26.784  26.011  1.00  0.00     0.064 A 
ATOM     75  C   UNL A   1      49.638  26.994  24.679  1.00  0.00     0.173 A 
ATOM     76  C   UNL A   1      50.213  26.291  26.902  1.00  0.00     0.173 A 
ATOM     77  F   UNL A   1      48.746  27.447  23.787  1.00  0.00    -0.203 F 
ATOM     78  C   UNL A   1      50.932  26.706  24.252  1.00  0.00     0.198 A 
ATOM     79  C   UNL A   1      51.515  26.028  26.478  1.00  0.00     0.198 A 
ATOM     80  F   UNL A   1      49.895  26.080  28.187  1.00  0.00    -0.203 F 
ATOM     81  F   UNL A   1      51.263  26.878  22.966  1.00  0.00    -0.200 F 
ATOM     82  C   UNL A   1      51.871  26.227  25.152  1.00  0.00     0.200 A 
ATOM     83  F   UNL A   1      52.424  25.579  27.354  1.00  0.00    -0.200 F 
ATOM     84  F   UNL A   1      53.117  25.954  24.743  1.00  0.00    -0.200 F 
ENDBRANCH  50  74
BRANCH  62  85
ATOM     85  C   UNL A   1      46.159  32.466  28.589  1.00  0.00     0.064 A 
ATOM     86  C   UNL A   1      46.090  33.508  27.653  1.00  0.00     0.173 A 
ATOM     87  C   UNL A   1      46.685  32.751  29.858  1.00  0.00     0.173 A 
ATOM     88  F   UNL A   1      45.609  33.279  26.422  1.00  0.00    -0.203 F 
ATOM     89  C   UNL A   1      46.553  34.782  27.970  1.00  0.00     0.198 A 
ATOM     90  C   UNL A   1      47.120  34.033  30.180  1.00  0.00     0.198 A 
ATOM     91  F   UNL A   1      46.765  31.789  30.789  1.00  0.00    -0.203 F 
ATOM     92  F   UNL A   1      46.522  35.752  27.046  1.00  0.00    -0.200 F 
ATOM     93  C   UNL A   1      47.060  35.046  29.234  1.00  0.00     0.200 A 
ATOM     94  F   UNL A   1      47.596  34.289  31.406  1.00  0.00    -0.200 F 
ATOM     95  F   UNL A   1      47.498  36.274  29.539  1.00  0.00    -0.200 F 
ENDBRANCH  62  85
ENDBRANCH  36  37
ENDBRANCH  28  31
ENDBRANCH  26  27
ENDBRANCH  25  26
ENDBRANCH   1  25
TORSDOF 14
ENDMDL
