MODEL 1
REMARK VINA RESULT:     -12.4      0.000      0.000
REMARK SMILES CC(=O)Nc1ccc2sc(C(=O)NCCCNC(=O)c3ccc(-c4c5nc(c(-c6c(F)c(F)c(F)c(F)c6F)c6ccc([nH]6)c(-c6c(F)c(F)c(F)c(F)c6F)c6nc(c(-c7c(F)c(F)c(F)c(F)c7F)c7ccc4[nH]7)C=C6)C=C5)cc3)cc2c1
REMARK SMILES IDX 15 1 14 2 13 3 11 4 12 5 10 7 5 8 6 9 85 10 7 11 84 12 8 13
REMARK SMILES IDX 83 14 9 15 4 16 1 17 2 18 3 19 16 21 17 22 18 23 19 25 20 26
REMARK SMILES IDX 21 27 82 28 22 29 81 30 23 31 24 32 25 33 75 34 26 35 80 36
REMARK SMILES IDX 74 37 76 38 27 39 79 40 73 41 72 42 28 44 60 45 40 46 59 47
REMARK SMILES IDX 41 48 44 49 58 50 77 51 42 52 43 53 57 55 78 56 45 57 29 58
REMARK SMILES IDX 30 59 38 60 31 61 32 62 36 63 39 64 33 65 34 66 37 67 35 68
REMARK SMILES IDX 61 69 62 70 70 71 63 72 64 73 68 74 71 75 65 76 66 77 69 78
REMARK SMILES IDX 67 79 46 80 47 81 55 82 48 83 49 84 53 85 56 86 50 87 51 88
REMARK SMILES IDX 54 89 52 90
REMARK H PARENT 13 6 4 20 17 24 76 43 44 54
REMARK Flexibility Score: inf
ROOT
ATOM      1  C   UNL A   1      32.691  28.001  26.611  1.00  0.00     0.042 C 
ENDROOT
BRANCH   1   2
ATOM      2  C   UNL A   1      32.736  26.481  26.463  1.00  0.00     0.118 C 
BRANCH   2   3
ATOM      3  N   UNL A   1      33.311  26.087  25.191  1.00  0.00    -0.351 N 
ATOM      4  C   UNL A   1      32.910  26.257  23.889  1.00  0.00     0.261 C 
ATOM      5  O   UNL A   1      33.715  25.847  23.044  1.00  0.00    -0.268 OA
ATOM      6  H   UNL A   1      34.164  25.600  25.279  1.00  0.00     0.163 HD
BRANCH   4   7
ATOM      7  C   UNL A   1      31.676  26.919  23.493  1.00  0.00     0.093 A 
ATOM      8  C   UNL A   1      28.518  30.127  21.923  1.00  0.00     0.041 A 
ATOM      9  C   UNL A   1      27.616  29.369  22.662  1.00  0.00     0.027 A 
ATOM     10  C   UNL A   1      29.840  29.687  21.783  1.00  0.00     0.035 A 
ATOM     11  C   UNL A   1      28.019  28.190  23.298  1.00  0.00     0.022 A 
ATOM     12  C   UNL A   1      30.294  28.546  22.486  1.00  0.00    -0.005 A 
ATOM     13  C   UNL A   1      29.368  27.806  23.216  1.00  0.00     0.035 A 
ATOM     14  C   UNL A   1      31.609  27.998  22.627  1.00  0.00     0.034 A 
ATOM     15  S   UNL A   1      30.104  26.428  23.927  1.00  0.00    -0.130 S 
BRANCH   8  16
ATOM     16  N   UNL A   1      28.160  31.311  21.263  1.00  0.00    -0.326 N 
ATOM     17  C   UNL A   1      28.826  32.954  23.004  1.00  0.00     0.114 C 
ATOM     18  C   UNL A   1      28.124  32.598  21.720  1.00  0.00     0.221 C 
ATOM     19  O   UNL A   1      27.588  33.468  21.029  1.00  0.00    -0.275 OA
ATOM     20  H   UNL A   1      27.892  31.197  20.322  1.00  0.00     0.169 HD
ENDBRANCH   8  16
ENDBRANCH   4   7
ENDBRANCH   2   3
ENDBRANCH   1   2
BRANCH   1  21
ATOM     21  C   UNL A   1      34.049  28.617  26.952  1.00  0.00     0.118 C 
BRANCH  21  22
ATOM     22  N   UNL A   1      33.923  29.963  27.495  1.00  0.00    -0.352 N 
ATOM     23  C   UNL A   1      34.754  30.665  28.326  1.00  0.00     0.251 C 
ATOM     24  H   UNL A   1      33.109  30.445  27.222  1.00  0.00     0.163 HD
ATOM     25  O   UNL A   1      34.353  31.712  28.840  1.00  0.00    -0.269 OA
BRANCH  23  26
ATOM     26  C   UNL A   1      36.121  30.189  28.623  1.00  0.00     0.039 A 
ATOM     27  C   UNL A   1      37.113  30.343  27.649  1.00  0.00     0.014 A 
ATOM     28  C   UNL A   1      36.421  29.542  29.825  1.00  0.00     0.014 A 
ATOM     29  C   UNL A   1      38.413  29.900  27.899  1.00  0.00     0.010 A 
ATOM     30  C   UNL A   1      37.732  29.157  30.100  1.00  0.00     0.010 A 
ATOM     31  C   UNL A   1      38.740  29.330  29.140  1.00  0.00    -0.014 A 
BRANCH  31  32
ATOM     32  C   UNL A   1      40.130  28.912  29.451  1.00  0.00     0.031 A 
ATOM     33  C   UNL A   1      41.035  29.815  30.241  1.00  0.00     0.074 A 
ATOM     34  C   UNL A   1      40.598  27.747  28.963  1.00  0.00     0.049 A 
ATOM     35  N   UNL A   1      42.303  29.666  30.537  1.00  0.00    -0.248 NA
ATOM     36  C   UNL A   1      40.445  31.066  30.742  1.00  0.00     0.031 C 
ATOM     37  C   UNL A   1      39.829  26.804  28.148  1.00  0.00     0.029 A 
ATOM     38  N   UNL A   1      41.836  27.165  29.067  1.00  0.00    -0.354 N 
ATOM     39  C   UNL A   1      42.663  30.807  31.240  1.00  0.00     0.074 A 
ATOM     40  C   UNL A   1      41.496  31.660  31.290  1.00  0.00     0.031 C 
ATOM     41  C   UNL A   1      40.608  25.755  27.839  1.00  0.00     0.029 A 
ATOM     42  C   UNL A   1      41.938  25.967  28.403  1.00  0.00     0.049 A 
ATOM     43  H   UNL A   1      42.580  27.566  29.572  1.00  0.00     0.167 HD
ATOM     44  C   UNL A   1      43.857  31.107  31.807  1.00  0.00     0.037 A 
ATOM     45  C   UNL A   1      42.989  25.139  28.255  1.00  0.00     0.037 A 
ATOM     46  C   UNL A   1      45.008  30.243  31.780  1.00  0.00     0.049 A 
ATOM     47  C   UNL A   1      44.301  25.494  28.899  1.00  0.00     0.074 A 
ATOM     48  C   UNL A   1      46.241  30.429  32.380  1.00  0.00     0.029 A 
ATOM     49  N   UNL A   1      45.065  29.026  31.118  1.00  0.00    -0.354 N 
ATOM     50  N   UNL A   1      44.613  26.548  29.613  1.00  0.00    -0.248 NA
ATOM     51  C   UNL A   1      45.405  24.539  28.722  1.00  0.00     0.031 C 
ATOM     52  C   UNL A   1      47.058  29.343  32.049  1.00  0.00     0.029 A 
ATOM     53  C   UNL A   1      46.319  28.459  31.278  1.00  0.00     0.049 A 
ATOM     54  H   UNL A   1      44.324  28.624  30.608  1.00  0.00     0.167 HD
ATOM     55  C   UNL A   1      45.937  26.374  29.990  1.00  0.00     0.074 A 
ATOM     56  C   UNL A   1      46.366  25.105  29.438  1.00  0.00     0.031 C 
ATOM     57  C   UNL A   1      46.727  27.192  30.727  1.00  0.00     0.037 A 
BRANCH  44  58
ATOM     58  C   UNL A   1      43.978  32.427  32.511  1.00  0.00     0.064 A 
ATOM     59  C   UNL A   1      44.399  33.584  31.837  1.00  0.00     0.173 A 
ATOM     60  C   UNL A   1      43.629  32.547  33.865  1.00  0.00     0.173 A 
ATOM     61  F   UNL A   1      44.753  33.521  30.545  1.00  0.00    -0.203 F 
ATOM     62  C   UNL A   1      44.494  34.805  32.501  1.00  0.00     0.198 A 
ATOM     63  C   UNL A   1      43.699  33.775  34.517  1.00  0.00     0.198 A 
ATOM     64  F   UNL A   1      43.214  31.473  34.554  1.00  0.00    -0.203 F 
ATOM     65  F   UNL A   1      44.944  35.886  31.847  1.00  0.00    -0.200 F 
ATOM     66  C   UNL A   1      44.138  34.900  33.837  1.00  0.00     0.200 A 
ATOM     67  F   UNL A   1      43.344  33.870  35.806  1.00  0.00    -0.200 F 
ATOM     68  F   UNL A   1      44.224  36.079  34.472  1.00  0.00    -0.200 F 
ENDBRANCH  44  58
BRANCH  45  69
ATOM     69  C   UNL A   1      42.836  23.880  27.481  1.00  0.00     0.064 A 
ATOM     70  C   UNL A   1      42.404  22.702  28.106  1.00  0.00     0.173 A 
ATOM     71  C   UNL A   1      43.114  23.828  26.108  1.00  0.00     0.173 A 
ATOM     72  F   UNL A   1      42.145  22.700  29.422  1.00  0.00    -0.203 F 
ATOM     73  C   UNL A   1      42.272  21.516  27.390  1.00  0.00     0.198 A 
ATOM     74  C   UNL A   1      42.956  22.646  25.387  1.00  0.00     0.198 A 
ATOM     75  F   UNL A   1      43.525  24.930  25.463  1.00  0.00    -0.203 F 
ATOM     76  F   UNL A   1      41.895  20.394  28.019  1.00  0.00    -0.200 F 
ATOM     77  C   UNL A   1      42.541  21.490  26.030  1.00  0.00     0.200 A 
ATOM     78  F   UNL A   1      43.204  22.628  24.071  1.00  0.00    -0.200 F 
ATOM     79  F   UNL A   1      42.409  20.348  25.340  1.00  0.00    -0.200 F 
ENDBRANCH  45  69
BRANCH  57  80
ATOM     80  C   UNL A   1      48.126  26.726  31.004  1.00  0.00     0.064 A 
ATOM     81  C   UNL A   1      48.419  25.889  32.090  1.00  0.00     0.173 A 
ATOM     82  C   UNL A   1      49.177  27.092  30.151  1.00  0.00     0.173 A 
ATOM     83  F   UNL A   1      47.450  25.525  32.943  1.00  0.00    -0.203 F 
ATOM     84  C   UNL A   1      49.721  25.453  32.325  1.00  0.00     0.198 A 
ATOM     85  C   UNL A   1      50.473  26.632  30.373  1.00  0.00     0.198 A 
ATOM     86  F   UNL A   1      48.947  27.887  29.095  1.00  0.00    -0.203 F 
ATOM     87  F   UNL A   1      49.986  24.689  33.392  1.00  0.00    -0.200 F 
ATOM     88  C   UNL A   1      50.744  25.818  31.462  1.00  0.00     0.200 A 
ATOM     89  F   UNL A   1      51.458  26.977  29.533  1.00  0.00    -0.200 F 
ATOM     90  F   UNL A   1      51.994  25.393  31.687  1.00  0.00    -0.200 F 
ENDBRANCH  57  80
ENDBRANCH  31  32
ENDBRANCH  23  26
ENDBRANCH  21  22
ENDBRANCH   1  21
TORSDOF 11
ENDMDL
MODEL 2
REMARK VINA RESULT:     -12.4      4.065      7.953
REMARK SMILES CC(=O)Nc1ccc2sc(C(=O)NCCCNC(=O)c3ccc(-c4c5nc(c(-c6c(F)c(F)c(F)c(F)c6F)c6ccc([nH]6)c(-c6c(F)c(F)c(F)c(F)c6F)c6nc(c(-c7c(F)c(F)c(F)c(F)c7F)c7ccc4[nH]7)C=C6)C=C5)cc3)cc2c1
REMARK SMILES IDX 15 1 14 2 13 3 11 4 12 5 10 7 5 8 6 9 85 10 7 11 84 12 8 13
REMARK SMILES IDX 83 14 9 15 4 16 1 17 2 18 3 19 16 21 17 22 18 23 19 25 20 26
REMARK SMILES IDX 21 27 82 28 22 29 81 30 23 31 24 32 25 33 75 34 26 35 80 36
REMARK SMILES IDX 74 37 76 38 27 39 79 40 73 41 72 42 28 44 60 45 40 46 59 47
REMARK SMILES IDX 41 48 44 49 58 50 77 51 42 52 43 53 57 55 78 56 45 57 29 58
REMARK SMILES IDX 30 59 38 60 31 61 32 62 36 63 39 64 33 65 34 66 37 67 35 68
REMARK SMILES IDX 61 69 62 70 70 71 63 72 64 73 68 74 71 75 65 76 66 77 69 78
REMARK SMILES IDX 67 79 46 80 47 81 55 82 48 83 49 84 53 85 56 86 50 87 51 88
REMARK SMILES IDX 54 89 52 90
REMARK H PARENT 13 6 4 20 17 24 76 43 44 54
REMARK Flexibility Score: inf
ROOT
ATOM      1  C   UNL A   1      37.803  19.648  24.811  1.00  0.00     0.042 C 
ENDROOT
BRANCH   1   2
ATOM      2  C   UNL A   1      36.474  20.377  25.007  1.00  0.00     0.118 C 
BRANCH   2   3
ATOM      3  N   UNL A   1      35.356  19.452  25.010  1.00  0.00    -0.351 N 
ATOM      4  C   UNL A   1      33.997  19.625  24.916  1.00  0.00     0.261 C 
ATOM      5  O   UNL A   1      33.346  18.574  24.872  1.00  0.00    -0.268 OA
ATOM      6  H   UNL A   1      35.627  18.508  25.094  1.00  0.00     0.163 HD
BRANCH   4   7
ATOM      7  C   UNL A   1      33.343  20.921  24.808  1.00  0.00     0.093 A 
ATOM      8  C   UNL A   1      31.255  25.080  25.846  1.00  0.00     0.041 A 
ATOM      9  C   UNL A   1      30.716  24.948  24.570  1.00  0.00     0.027 A 
ATOM     10  C   UNL A   1      32.209  24.157  26.293  1.00  0.00     0.035 A 
ATOM     11  C   UNL A   1      31.086  23.885  23.740  1.00  0.00     0.022 A 
ATOM     12  C   UNL A   1      32.536  23.026  25.507  1.00  0.00    -0.005 A 
ATOM     13  C   UNL A   1      31.982  22.922  24.233  1.00  0.00     0.035 A 
ATOM     14  C   UNL A   1      33.346  21.884  25.804  1.00  0.00     0.034 A 
ATOM     15  S   UNL A   1      32.562  21.526  23.422  1.00  0.00    -0.130 S 
BRANCH   8  16
ATOM     16  N   UNL A   1      30.921  26.130  26.712  1.00  0.00    -0.326 N 
ATOM     17  C   UNL A   1      32.622  27.793  25.996  1.00  0.00     0.114 C 
ATOM     18  C   UNL A   1      31.562  27.313  26.951  1.00  0.00     0.221 C 
ATOM     19  O   UNL A   1      31.203  28.012  27.902  1.00  0.00    -0.275 OA
ATOM     20  H   UNL A   1      30.094  25.994  27.230  1.00  0.00     0.169 HD
ENDBRANCH   8  16
ENDBRANCH   4   7
ENDBRANCH   2   3
ENDBRANCH   1   2
BRANCH   1  21
ATOM     21  C   UNL A   1      38.914  20.160  25.728  1.00  0.00     0.118 C 
BRANCH  21  22
ATOM     22  N   UNL A   1      39.992  19.191  25.881  1.00  0.00    -0.352 N 
ATOM     23  C   UNL A   1      41.333  19.381  26.082  1.00  0.00     0.251 C 
ATOM     24  H   UNL A   1      39.711  18.249  25.832  1.00  0.00     0.163 HD
ATOM     25  O   UNL A   1      42.103  18.424  25.968  1.00  0.00    -0.269 OA
BRANCH  23  26
ATOM     26  C   UNL A   1      41.875  20.711  26.429  1.00  0.00     0.039 A 
ATOM     27  C   UNL A   1      42.112  21.629  25.401  1.00  0.00     0.014 A 
ATOM     28  C   UNL A   1      42.206  21.041  27.746  1.00  0.00     0.014 A 
ATOM     29  C   UNL A   1      42.627  22.892  25.696  1.00  0.00     0.010 A 
ATOM     30  C   UNL A   1      42.661  22.323  28.049  1.00  0.00     0.010 A 
ATOM     31  C   UNL A   1      42.879  23.260  27.028  1.00  0.00    -0.014 A 
BRANCH  31  32
ATOM     32  C   UNL A   1      43.364  24.620  27.372  1.00  0.00     0.031 A 
ATOM     33  C   UNL A   1      42.422  25.641  27.945  1.00  0.00     0.074 A 
ATOM     34  C   UNL A   1      44.641  24.956  27.102  1.00  0.00     0.049 A 
ATOM     35  N   UNL A   1      42.636  26.902  28.225  1.00  0.00    -0.248 NA
ATOM     36  C   UNL A   1      41.047  25.191  28.214  1.00  0.00     0.031 C 
ATOM     37  C   UNL A   1      45.640  24.067  26.507  1.00  0.00     0.029 A 
ATOM     38  N   UNL A   1      45.311  26.140  27.279  1.00  0.00    -0.354 N 
ATOM     39  C   UNL A   1      41.424  27.398  28.684  1.00  0.00     0.074 A 
ATOM     40  C   UNL A   1      40.466  26.317  28.606  1.00  0.00     0.031 C 
ATOM     41  C   UNL A   1      46.800  24.732  26.383  1.00  0.00     0.029 A 
ATOM     42  C   UNL A   1      46.617  26.101  26.854  1.00  0.00     0.049 A 
ATOM     43  H   UNL A   1      44.897  26.941  27.674  1.00  0.00     0.167 HD
ATOM     44  C   UNL A   1      41.141  28.640  29.146  1.00  0.00     0.037 A 
ATOM     45  C   UNL A   1      47.557  27.064  26.835  1.00  0.00     0.037 A 
ATOM     46  C   UNL A   1      42.103  29.706  29.251  1.00  0.00     0.049 A 
ATOM     47  C   UNL A   1      47.217  28.433  27.359  1.00  0.00     0.074 A 
ATOM     48  C   UNL A   1      41.929  30.979  29.766  1.00  0.00     0.029 A 
ATOM     49  N   UNL A   1      43.423  29.621  28.834  1.00  0.00    -0.354 N 
ATOM     50  N   UNL A   1      46.084  28.874  27.848  1.00  0.00    -0.248 NA
ATOM     51  C   UNL A   1      48.292  29.436  27.335  1.00  0.00     0.031 C 
ATOM     52  C   UNL A   1      43.133  31.677  29.625  1.00  0.00     0.029 A 
ATOM     53  C   UNL A   1      44.070  30.825  29.062  1.00  0.00     0.049 A 
ATOM     54  H   UNL A   1      43.839  28.823  28.434  1.00  0.00     0.167 HD
ATOM     55  C   UNL A   1      46.312  30.193  28.211  1.00  0.00     0.074 A 
ATOM     56  C   UNL A   1      47.698  30.479  27.900  1.00  0.00     0.031 C 
ATOM     57  C   UNL A   1      45.451  31.089  28.752  1.00  0.00     0.037 A 
BRANCH  44  58
ATOM     58  C   UNL A   1      39.730  28.915  29.580  1.00  0.00     0.064 A 
ATOM     59  C   UNL A   1      38.766  29.399  28.683  1.00  0.00     0.173 A 
ATOM     60  C   UNL A   1      39.326  28.650  30.897  1.00  0.00     0.173 A 
ATOM     61  F   UNL A   1      39.105  29.677  27.415  1.00  0.00    -0.203 F 
ATOM     62  C   UNL A   1      37.458  29.637  29.096  1.00  0.00     0.198 A 
ATOM     63  C   UNL A   1      38.009  28.863  31.299  1.00  0.00     0.198 A 
ATOM     64  F   UNL A   1      40.206  28.179  31.794  1.00  0.00    -0.203 F 
ATOM     65  F   UNL A   1      36.567  30.144  28.232  1.00  0.00    -0.200 F 
ATOM     66  C   UNL A   1      37.079  29.362  30.401  1.00  0.00     0.200 A 
ATOM     67  F   UNL A   1      37.641  28.586  32.558  1.00  0.00    -0.200 F 
ATOM     68  F   UNL A   1      35.817  29.585  30.795  1.00  0.00    -0.200 F 
ENDBRANCH  44  58
BRANCH  45  69
ATOM     69  C   UNL A   1      48.917  26.761  26.324  1.00  0.00     0.064 A 
ATOM     70  C   UNL A   1      49.255  27.016  24.987  1.00  0.00     0.173 A 
ATOM     71  C   UNL A   1      49.906  26.217  27.156  1.00  0.00     0.173 A 
ATOM     72  F   UNL A   1      48.335  27.517  24.150  1.00  0.00    -0.203 F 
ATOM     73  C   UNL A   1      50.525  26.720  24.498  1.00  0.00     0.198 A 
ATOM     74  C   UNL A   1      51.184  25.946  26.671  1.00  0.00     0.198 A 
ATOM     75  F   UNL A   1      49.635  25.961  28.444  1.00  0.00    -0.203 F 
ATOM     76  F   UNL A   1      50.809  26.936  23.206  1.00  0.00    -0.200 F 
ATOM     77  C   UNL A   1      51.491  26.193  25.341  1.00  0.00     0.200 A 
ATOM     78  F   UNL A   1      52.119  25.449  27.492  1.00  0.00    -0.200 F 
ATOM     79  F   UNL A   1      52.714  25.914  24.871  1.00  0.00    -0.200 F 
ENDBRANCH  45  69
BRANCH  57  80
ATOM     80  C   UNL A   1      45.991  32.451  29.070  1.00  0.00     0.064 A 
ATOM     81  C   UNL A   1      46.605  32.729  30.300  1.00  0.00     0.173 A 
ATOM     82  C   UNL A   1      45.927  33.480  28.119  1.00  0.00     0.173 A 
ATOM     83  F   UNL A   1      46.676  31.783  31.248  1.00  0.00    -0.203 F 
ATOM     84  C   UNL A   1      47.115  33.995  30.575  1.00  0.00     0.198 A 
ATOM     85  C   UNL A   1      46.463  34.737  28.386  1.00  0.00     0.198 A 
ATOM     86  F   UNL A   1      45.355  33.263  26.926  1.00  0.00    -0.203 F 
ATOM     87  F   UNL A   1      47.659  34.251  31.772  1.00  0.00    -0.200 F 
ATOM     88  C   UNL A   1      47.050  34.995  29.615  1.00  0.00     0.200 A 
ATOM     89  F   UNL A   1      46.409  35.700  27.455  1.00  0.00    -0.200 F 
ATOM     90  F   UNL A   1      47.547  36.211  29.880  1.00  0.00    -0.200 F 
ENDBRANCH  57  80
ENDBRANCH  31  32
ENDBRANCH  23  26
ENDBRANCH  21  22
ENDBRANCH   1  21
TORSDOF 11
ENDMDL
MODEL 3
REMARK VINA RESULT:     -12.3      3.397      8.962
REMARK SMILES CC(=O)Nc1ccc2sc(C(=O)NCCCNC(=O)c3ccc(-c4c5nc(c(-c6c(F)c(F)c(F)c(F)c6F)c6ccc([nH]6)c(-c6c(F)c(F)c(F)c(F)c6F)c6nc(c(-c7c(F)c(F)c(F)c(F)c7F)c7ccc4[nH]7)C=C6)C=C5)cc3)cc2c1
REMARK SMILES IDX 15 1 14 2 13 3 11 4 12 5 10 7 5 8 6 9 85 10 7 11 84 12 8 13
REMARK SMILES IDX 83 14 9 15 4 16 1 17 2 18 3 19 16 21 17 22 18 23 19 25 20 26
REMARK SMILES IDX 21 27 82 28 22 29 81 30 23 31 24 32 25 33 75 34 26 35 80 36
REMARK SMILES IDX 74 37 76 38 27 39 79 40 73 41 72 42 28 44 60 45 40 46 59 47
REMARK SMILES IDX 41 48 44 49 58 50 77 51 42 52 43 53 57 55 78 56 45 57 29 58
REMARK SMILES IDX 30 59 38 60 31 61 32 62 36 63 39 64 33 65 34 66 37 67 35 68
REMARK SMILES IDX 61 69 62 70 70 71 63 72 64 73 68 74 71 75 65 76 66 77 69 78
REMARK SMILES IDX 67 79 46 80 47 81 55 82 48 83 49 84 53 85 56 86 50 87 51 88
REMARK SMILES IDX 54 89 52 90
REMARK H PARENT 13 6 4 20 17 24 76 43 44 54
REMARK Flexibility Score: inf
ROOT
ATOM      1  C   UNL A   1      33.228  29.059  23.711  1.00  0.00     0.042 C 
ENDROOT
BRANCH   1   2
ATOM      2  C   UNL A   1      31.778  28.774  23.321  1.00  0.00     0.118 C 
BRANCH   2   3
ATOM      3  N   UNL A   1      31.696  27.765  22.281  1.00  0.00    -0.351 N 
ATOM      4  C   UNL A   1      32.086  26.450  22.219  1.00  0.00     0.261 C 
ATOM      5  O   UNL A   1      31.773  25.869  21.173  1.00  0.00    -0.268 OA
ATOM      6  H   UNL A   1      31.274  28.089  21.452  1.00  0.00     0.163 HD
BRANCH   4   7
ATOM      7  C   UNL A   1      32.755  25.744  23.301  1.00  0.00     0.093 A 
ATOM      8  C   UNL A   1      35.741  22.984  25.792  1.00  0.00     0.041 A 
ATOM      9  C   UNL A   1      34.702  22.964  26.716  1.00  0.00     0.027 A 
ATOM     10  C   UNL A   1      35.645  23.804  24.660  1.00  0.00     0.035 A 
ATOM     11  C   UNL A   1      33.545  23.724  26.514  1.00  0.00     0.022 A 
ATOM     12  C   UNL A   1      34.452  24.515  24.389  1.00  0.00    -0.005 A 
ATOM     13  C   UNL A   1      33.430  24.477  25.334  1.00  0.00     0.035 A 
ATOM     14  C   UNL A   1      34.060  25.280  23.245  1.00  0.00     0.034 A 
ATOM     15  S   UNL A   1      32.108  25.460  24.851  1.00  0.00    -0.130 S 
BRANCH   8  16
ATOM     16  N   UNL A   1      36.922  22.246  25.953  1.00  0.00    -0.326 N 
ATOM     17  C   UNL A   1      38.479  24.102  26.507  1.00  0.00     0.114 C 
ATOM     18  C   UNL A   1      38.210  22.670  26.126  1.00  0.00     0.221 C 
ATOM     19  O   UNL A   1      39.129  21.851  26.049  1.00  0.00    -0.275 OA
ATOM     20  H   UNL A   1      36.805  21.268  25.939  1.00  0.00     0.169 HD
ENDBRANCH   8  16
ENDBRANCH   4   7
ENDBRANCH   2   3
ENDBRANCH   1   2
BRANCH   1  21
ATOM     21  C   UNL A   1      33.433  29.192  25.221  1.00  0.00     0.118 C 
BRANCH  21  22
ATOM     22  N   UNL A   1      32.919  30.453  25.739  1.00  0.00    -0.352 N 
ATOM     23  C   UNL A   1      33.294  31.180  26.835  1.00  0.00     0.251 C 
ATOM     24  H   UNL A   1      32.181  30.844  25.217  1.00  0.00     0.163 HD
ATOM     25  O   UNL A   1      32.582  32.112  27.217  1.00  0.00    -0.269 OA
BRANCH  23  26
ATOM     26  C   UNL A   1      34.536  30.867  27.574  1.00  0.00     0.039 A 
ATOM     27  C   UNL A   1      35.494  31.873  27.735  1.00  0.00     0.014 A 
ATOM     28  C   UNL A   1      34.790  29.581  28.056  1.00  0.00     0.014 A 
ATOM     29  C   UNL A   1      36.679  31.607  28.424  1.00  0.00     0.010 A 
ATOM     30  C   UNL A   1      35.943  29.331  28.800  1.00  0.00     0.010 A 
ATOM     31  C   UNL A   1      36.899  30.340  28.988  1.00  0.00    -0.014 A 
BRANCH  31  32
ATOM     32  C   UNL A   1      38.121  30.054  29.781  1.00  0.00     0.031 A 
ATOM     33  C   UNL A   1      39.178  29.131  29.240  1.00  0.00     0.074 A 
ATOM     34  C   UNL A   1      38.246  30.572  31.018  1.00  0.00     0.049 A 
ATOM     35  N   UNL A   1      40.268  28.691  29.818  1.00  0.00    -0.248 NA
ATOM     36  C   UNL A   1      38.968  28.613  27.880  1.00  0.00     0.031 C 
ATOM     37  C   UNL A   1      37.269  31.446  31.669  1.00  0.00     0.029 A 
ATOM     38  N   UNL A   1      39.238  30.425  31.954  1.00  0.00    -0.354 N 
ATOM     39  C   UNL A   1      40.861  27.834  28.901  1.00  0.00     0.074 A 
ATOM     40  C   UNL A   1      39.991  27.781  27.747  1.00  0.00     0.031 C 
ATOM     41  C   UNL A   1      37.717  31.771  32.892  1.00  0.00     0.029 A 
ATOM     42  C   UNL A   1      38.993  31.101  33.125  1.00  0.00     0.049 A 
ATOM     43  H   UNL A   1      40.049  29.890  31.801  1.00  0.00     0.167 HD
ATOM     44  C   UNL A   1      42.035  27.166  29.007  1.00  0.00     0.037 A 
ATOM     45  C   UNL A   1      39.710  31.162  34.262  1.00  0.00     0.037 A 
ATOM     46  C   UNL A   1      42.914  27.245  30.145  1.00  0.00     0.049 A 
ATOM     47  C   UNL A   1      41.013  30.415  34.351  1.00  0.00     0.074 A 
ATOM     48  C   UNL A   1      44.154  26.657  30.321  1.00  0.00     0.029 A 
ATOM     49  N   UNL A   1      42.643  27.959  31.303  1.00  0.00    -0.354 N 
ATOM     50  N   UNL A   1      41.594  29.656  33.455  1.00  0.00    -0.248 NA
ATOM     51  C   UNL A   1      41.763  30.540  35.610  1.00  0.00     0.031 C 
ATOM     52  C   UNL A   1      44.617  26.984  31.600  1.00  0.00     0.029 A 
ATOM     53  C   UNL A   1      43.684  27.811  32.205  1.00  0.00     0.049 A 
ATOM     54  H   UNL A   1      41.830  28.492  31.461  1.00  0.00     0.167 HD
ATOM     55  C   UNL A   1      42.784  29.233  34.027  1.00  0.00     0.074 A 
ATOM     56  C   UNL A   1      42.851  29.831  35.345  1.00  0.00     0.031 C 
ATOM     57  C   UNL A   1      43.737  28.420  33.509  1.00  0.00     0.037 A 
BRANCH  44  58
ATOM     58  C   UNL A   1      42.443  26.292  27.857  1.00  0.00     0.064 A 
ATOM     59  C   UNL A   1      41.945  24.988  27.712  1.00  0.00     0.173 A 
ATOM     60  C   UNL A   1      43.309  26.778  26.866  1.00  0.00     0.173 A 
ATOM     61  F   UNL A   1      41.122  24.474  28.638  1.00  0.00    -0.203 F 
ATOM     62  C   UNL A   1      42.322  24.193  26.633  1.00  0.00     0.198 A 
ATOM     63  C   UNL A   1      43.661  25.989  25.773  1.00  0.00     0.198 A 
ATOM     64  F   UNL A   1      43.809  28.020  26.952  1.00  0.00    -0.203 F 
ATOM     65  F   UNL A   1      41.869  22.935  26.540  1.00  0.00    -0.200 F 
ATOM     66  C   UNL A   1      43.173  24.697  25.661  1.00  0.00     0.200 A 
ATOM     67  F   UNL A   1      44.475  26.480  24.828  1.00  0.00    -0.200 F 
ATOM     68  F   UNL A   1      43.529  23.932  24.619  1.00  0.00    -0.200 F 
ENDBRANCH  44  58
BRANCH  45  69
ATOM     69  C   UNL A   1      39.223  31.982  35.401  1.00  0.00     0.064 A 
ATOM     70  C   UNL A   1      39.561  33.338  35.506  1.00  0.00     0.173 A 
ATOM     71  C   UNL A   1      38.410  31.431  36.402  1.00  0.00     0.173 A 
ATOM     72  F   UNL A   1      40.353  33.902  34.582  1.00  0.00    -0.203 F 
ATOM     73  C   UNL A   1      39.119  34.108  36.579  1.00  0.00     0.198 A 
ATOM     74  C   UNL A   1      37.947  32.209  37.461  1.00  0.00     0.198 A 
ATOM     75  F   UNL A   1      38.054  30.139  36.344  1.00  0.00    -0.203 F 
ATOM     76  F   UNL A   1      39.490  35.392  36.676  1.00  0.00    -0.200 F 
ATOM     77  C   UNL A   1      38.307  33.545  37.551  1.00  0.00     0.200 A 
ATOM     78  F   UNL A   1      37.151  31.666  38.392  1.00  0.00    -0.200 F 
ATOM     79  F   UNL A   1      37.877  34.289  38.581  1.00  0.00    -0.200 F 
ENDBRANCH  45  69
BRANCH  57  80
ATOM     80  C   UNL A   1      44.946  28.155  34.356  1.00  0.00     0.064 A 
ATOM     81  C   UNL A   1      46.071  28.993  34.312  1.00  0.00     0.173 A 
ATOM     82  C   UNL A   1      44.965  27.073  35.248  1.00  0.00     0.173 A 
ATOM     83  F   UNL A   1      46.107  30.030  33.463  1.00  0.00    -0.203 F 
ATOM     84  C   UNL A   1      47.180  28.742  35.116  1.00  0.00     0.198 A 
ATOM     85  C   UNL A   1      46.065  26.842  36.071  1.00  0.00     0.198 A 
ATOM     86  F   UNL A   1      43.912  26.247  35.332  1.00  0.00    -0.203 F 
ATOM     87  F   UNL A   1      48.260  29.529  35.027  1.00  0.00    -0.200 F 
ATOM     88  C   UNL A   1      47.172  27.673  35.999  1.00  0.00     0.200 A 
ATOM     89  F   UNL A   1      46.052  25.815  36.931  1.00  0.00    -0.200 F 
ATOM     90  F   UNL A   1      48.239  27.437  36.776  1.00  0.00    -0.200 F 
ENDBRANCH  57  80
ENDBRANCH  31  32
ENDBRANCH  23  26
ENDBRANCH  21  22
ENDBRANCH   1  21
TORSDOF 11
ENDMDL
