MODEL 1
REMARK VINA RESULT:     -13.9      0.000      0.000
REMARK SMILES Cc1ccc([N+](=O)[O-])c(N[C@H]2[C@@H]3CC[C@@H](C3)[C@@H]2C(=O)NCCCNC(=O)c2ccc(-c3c4nc(c(-c5c(F)c(F)c(F)c(F)c5F)c5ccc([nH]5)c(-c5c(F)c(F)c(F)c(F)c5F)c5nc(c(-c6c(F)c(F)c(F)c(F)c6F)c6ccc3[nH]6)C=C5)C=C4)cc2)c1
REMARK SMILES IDX 21 1 20 2 18 3 19 4 17 6 11 7 12 8 13 9 16 10 15 11 14 12
REMARK SMILES IDX 10 13 9 15 1 16 2 17 3 18 90 19 4 20 5 21 6 22 7 23 8 24
REMARK SMILES IDX 22 25 23 26 24 27 25 28 26 30 27 31 28 32 89 33 29 34 88 35
REMARK SMILES IDX 30 36 31 37 32 38 82 39 33 40 87 41 81 42 83 43 34 44 86 45
REMARK SMILES IDX 80 46 79 47 35 49 67 50 47 51 66 52 48 53 51 54 65 55 84 56
REMARK SMILES IDX 49 57 50 58 64 60 85 61 52 62 36 63 37 64 45 65 38 66 39 67
REMARK SMILES IDX 43 68 46 69 40 70 41 71 44 72 42 73 68 74 69 75 77 76 70 77
REMARK SMILES IDX 71 78 75 79 78 80 72 81 73 82 76 83 74 84 53 85 54 86 62 87
REMARK SMILES IDX 55 88 56 89 60 90 63 91 57 92 58 93 61 94 59 95
REMARK H PARENT 20 5 10 14 24 29 83 48 51 59
REMARK Flexibility Score: inf
ROOT
ATOM      1  C   UNL A   1      37.811  23.178  25.772  1.00  0.00     0.117 C 
ENDROOT
BRANCH   1   2
ATOM      2  N   UNL A   1      37.407  23.119  24.369  1.00  0.00    -0.356 N 
ATOM      3  C   UNL A   1      36.266  23.168  23.643  1.00  0.00     0.225 C 
ATOM      4  O   UNL A   1      36.453  22.987  22.429  1.00  0.00    -0.275 OA
ATOM      5  H   UNL A   1      38.191  23.015  23.784  1.00  0.00     0.163 HD
BRANCH   3   6
ATOM      6  C   UNL A   1      34.820  23.360  24.117  1.00  0.00     0.104 C 
ATOM      7  C   UNL A   1      34.475  24.113  25.392  1.00  0.00     0.095 C 
ATOM      8  C   UNL A   1      33.589  23.125  26.184  1.00  0.00     0.012 C 
ATOM      9  C   UNL A   1      34.466  21.923  26.637  1.00  0.00     0.006 C 
ATOM     10  C   UNL A   1      32.789  22.437  25.095  1.00  0.00     0.010 C 
ATOM     11  C   UNL A   1      34.028  22.029  24.289  1.00  0.00     0.004 C 
ATOM     12  C   UNL A   1      34.703  21.137  25.331  1.00  0.00     0.005 C 
BRANCH   7  13
ATOM     13  N   UNL A   1      33.975  25.483  25.188  1.00  0.00    -0.376 N 
ATOM     14  H   UNL A   1      34.235  25.814  24.297  1.00  0.00     0.161 HD
BRANCH  13  15
ATOM     15  C   UNL A   1      33.252  26.443  25.866  1.00  0.00     0.114 A 
ATOM     16  C   UNL A   1      34.264  29.946  27.133  1.00  0.00     0.044 C 
ATOM     17  C   UNL A   1      33.481  28.679  26.953  1.00  0.00    -0.049 A 
ATOM     18  C   UNL A   1      32.208  28.571  27.501  1.00  0.00     0.010 A 
ATOM     19  C   UNL A   1      33.996  27.604  26.200  1.00  0.00     0.036 A 
ATOM     20  C   UNL A   1      31.425  27.473  27.179  1.00  0.00     0.088 A 
ATOM     21  C   UNL A   1      31.922  26.464  26.319  1.00  0.00     0.292 A 
BRANCH  21  22
ATOM     22  N   UNL A   1      30.857  25.717  25.668  1.00  0.00     0.064 N 
ATOM     23  O   UNL A   1      31.003  25.448  24.465  1.00  0.00    -0.258 OA
ATOM     24  O   UNL A   1      29.949  25.278  26.387  1.00  0.00    -0.258 OA
ENDBRANCH  21  22
ENDBRANCH  13  15
ENDBRANCH   7  13
ENDBRANCH   3   6
ENDBRANCH   1   2
BRANCH   1  25
ATOM     25  C   UNL A   1      38.907  22.173  26.107  1.00  0.00     0.042 C 
BRANCH  25  26
ATOM     26  C   UNL A   1      39.855  22.632  27.206  1.00  0.00     0.118 C 
BRANCH  26  27
ATOM     27  N   UNL A   1      41.157  23.063  26.689  1.00  0.00    -0.352 N 
ATOM     28  C   UNL A   1      41.606  24.348  26.422  1.00  0.00     0.251 C 
ATOM     29  H   UNL A   1      41.800  22.341  26.505  1.00  0.00     0.163 HD
ATOM     30  O   UNL A   1      42.746  24.561  26.050  1.00  0.00    -0.269 OA
BRANCH  28  31
ATOM     31  C   UNL A   1      40.693  25.464  26.743  1.00  0.00     0.039 A 
ATOM     32  C   UNL A   1      40.929  26.672  26.081  1.00  0.00     0.014 A 
ATOM     33  C   UNL A   1      39.964  25.411  27.926  1.00  0.00     0.014 A 
ATOM     34  C   UNL A   1      40.693  27.857  26.762  1.00  0.00     0.010 A 
ATOM     35  C   UNL A   1      39.832  26.582  28.643  1.00  0.00     0.010 A 
ATOM     36  C   UNL A   1      40.285  27.790  28.093  1.00  0.00    -0.014 A 
BRANCH  36  37
ATOM     37  C   UNL A   1      40.421  28.916  29.008  1.00  0.00     0.031 A 
ATOM     38  C   UNL A   1      39.385  29.967  29.018  1.00  0.00     0.074 A 
ATOM     39  C   UNL A   1      41.467  28.976  29.866  1.00  0.00     0.049 A 
ATOM     40  N   UNL A   1      39.554  31.141  29.524  1.00  0.00    -0.248 NA
ATOM     41  C   UNL A   1      38.090  29.809  28.361  1.00  0.00     0.031 C 
ATOM     42  C   UNL A   1      41.621  29.869  31.014  1.00  0.00     0.029 A 
ATOM     43  N   UNL A   1      42.732  28.371  29.729  1.00  0.00    -0.354 N 
ATOM     44  C   UNL A   1      38.328  31.760  29.544  1.00  0.00     0.074 A 
ATOM     45  C   UNL A   1      37.500  30.964  28.680  1.00  0.00     0.031 C 
ATOM     46  C   UNL A   1      42.929  30.010  31.281  1.00  0.00     0.029 A 
ATOM     47  C   UNL A   1      43.654  29.324  30.229  1.00  0.00     0.049 A 
ATOM     48  H   UNL A   1      42.932  27.478  29.364  1.00  0.00     0.167 HD
ATOM     49  C   UNL A   1      38.137  32.782  30.424  1.00  0.00     0.037 A 
ATOM     50  C   UNL A   1      44.606  29.896  29.437  1.00  0.00     0.037 A 
ATOM     51  C   UNL A   1      39.427  33.309  30.882  1.00  0.00     0.049 A 
ATOM     52  C   UNL A   1      44.525  31.404  29.366  1.00  0.00     0.074 A 
ATOM     53  C   UNL A   1      40.120  33.248  32.078  1.00  0.00     0.029 A 
ATOM     54  N   UNL A   1      40.325  33.799  29.933  1.00  0.00    -0.354 N 
ATOM     55  N   UNL A   1      43.474  32.091  29.718  1.00  0.00    -0.248 NA
ATOM     56  C   UNL A   1      45.598  32.250  28.850  1.00  0.00     0.031 C 
ATOM     57  C   UNL A   1      41.472  33.605  31.816  1.00  0.00     0.029 A 
ATOM     58  C   UNL A   1      41.589  33.924  30.473  1.00  0.00     0.049 A 
ATOM     59  H   UNL A   1      40.089  34.025  29.004  1.00  0.00     0.167 HD
ATOM     60  C   UNL A   1      43.684  33.417  29.450  1.00  0.00     0.074 A 
ATOM     61  C   UNL A   1      45.039  33.469  28.931  1.00  0.00     0.031 C 
ATOM     62  C   UNL A   1      42.713  34.356  29.651  1.00  0.00     0.037 A 
BRANCH  49  63
ATOM     63  C   UNL A   1      36.799  33.146  31.052  1.00  0.00     0.064 A 
ATOM     64  C   UNL A   1      35.845  33.876  30.307  1.00  0.00     0.173 A 
ATOM     65  C   UNL A   1      36.442  32.950  32.407  1.00  0.00     0.173 A 
ATOM     66  F   UNL A   1      36.029  34.134  29.005  1.00  0.00    -0.203 F 
ATOM     67  C   UNL A   1      34.673  34.395  30.878  1.00  0.00     0.198 A 
ATOM     68  C   UNL A   1      35.254  33.432  32.964  1.00  0.00     0.198 A 
ATOM     69  F   UNL A   1      37.236  32.330  33.282  1.00  0.00    -0.203 F 
ATOM     70  F   UNL A   1      33.840  35.133  30.132  1.00  0.00    -0.200 F 
ATOM     71  C   UNL A   1      34.378  34.171  32.206  1.00  0.00     0.200 A 
ATOM     72  F   UNL A   1      34.990  33.196  34.258  1.00  0.00    -0.200 F 
ATOM     73  F   UNL A   1      33.264  34.673  32.757  1.00  0.00    -0.200 F 
ENDBRANCH  49  63
BRANCH  50  74
ATOM     74  C   UNL A   1      45.060  29.013  28.331  1.00  0.00     0.064 A 
ATOM     75  C   UNL A   1      45.975  27.985  28.634  1.00  0.00     0.173 A 
ATOM     76  C   UNL A   1      44.350  28.914  27.130  1.00  0.00     0.173 A 
ATOM     77  F   UNL A   1      46.683  28.033  29.774  1.00  0.00    -0.203 F 
ATOM     78  C   UNL A   1      46.075  26.847  27.839  1.00  0.00     0.198 A 
ATOM     79  C   UNL A   1      44.467  27.777  26.325  1.00  0.00     0.198 A 
ATOM     80  F   UNL A   1      43.450  29.849  26.794  1.00  0.00    -0.203 F 
ATOM     81  F   UNL A   1      46.859  25.829  28.224  1.00  0.00    -0.200 F 
ATOM     82  C   UNL A   1      45.298  26.731  26.700  1.00  0.00     0.200 A 
ATOM     83  F   UNL A   1      43.691  27.649  25.240  1.00  0.00    -0.200 F 
ATOM     84  F   UNL A   1      45.312  25.594  25.990  1.00  0.00    -0.200 F 
ENDBRANCH  50  74
BRANCH  62  85
ATOM     85  C   UNL A   1      42.764  35.782  29.157  1.00  0.00     0.064 A 
ATOM     86  C   UNL A   1      42.093  36.240  28.010  1.00  0.00     0.173 A 
ATOM     87  C   UNL A   1      43.399  36.783  29.931  1.00  0.00     0.173 A 
ATOM     88  F   UNL A   1      41.349  35.415  27.262  1.00  0.00    -0.203 F 
ATOM     89  C   UNL A   1      42.115  37.585  27.626  1.00  0.00     0.198 A 
ATOM     90  C   UNL A   1      43.370  38.132  29.576  1.00  0.00     0.198 A 
ATOM     91  F   UNL A   1      44.042  36.482  31.068  1.00  0.00    -0.203 F 
ATOM     92  F   UNL A   1      41.496  37.964  26.499  1.00  0.00    -0.200 F 
ATOM     93  C   UNL A   1      42.745  38.531  28.413  1.00  0.00     0.200 A 
ATOM     94  F   UNL A   1      43.938  39.043  30.377  1.00  0.00    -0.200 F 
ATOM     95  F   UNL A   1      42.728  39.824  28.064  1.00  0.00    -0.200 F 
ENDBRANCH  62  85
ENDBRANCH  36  37
ENDBRANCH  28  31
ENDBRANCH  26  27
ENDBRANCH  25  26
ENDBRANCH   1  25
TORSDOF 13
ENDMDL
MODEL 2
REMARK VINA RESULT:     -13.9      1.293      1.575
REMARK SMILES Cc1ccc([N+](=O)[O-])c(N[C@H]2[C@@H]3CC[C@@H](C3)[C@@H]2C(=O)NCCCNC(=O)c2ccc(-c3c4nc(c(-c5c(F)c(F)c(F)c(F)c5F)c5ccc([nH]5)c(-c5c(F)c(F)c(F)c(F)c5F)c5nc(c(-c6c(F)c(F)c(F)c(F)c6F)c6ccc3[nH]6)C=C5)C=C4)cc2)c1
REMARK SMILES IDX 21 1 20 2 18 3 19 4 17 6 11 7 12 8 13 9 16 10 15 11 14 12
REMARK SMILES IDX 10 13 9 15 1 16 2 17 3 18 90 19 4 20 5 21 6 22 7 23 8 24
REMARK SMILES IDX 22 25 23 26 24 27 25 28 26 30 27 31 28 32 89 33 29 34 88 35
REMARK SMILES IDX 30 36 31 37 32 38 82 39 33 40 87 41 81 42 83 43 34 44 86 45
REMARK SMILES IDX 80 46 79 47 35 49 67 50 47 51 66 52 48 53 51 54 65 55 84 56
REMARK SMILES IDX 49 57 50 58 64 60 85 61 52 62 36 63 37 64 45 65 38 66 39 67
REMARK SMILES IDX 43 68 46 69 40 70 41 71 44 72 42 73 68 74 69 75 77 76 70 77
REMARK SMILES IDX 71 78 75 79 78 80 72 81 73 82 76 83 74 84 53 85 54 86 62 87
REMARK SMILES IDX 55 88 56 89 60 90 63 91 57 92 58 93 61 94 59 95
REMARK H PARENT 20 5 10 14 24 29 83 48 51 59
REMARK Flexibility Score: inf
ROOT
ATOM      1  C   UNL A   1      37.140  21.239  25.104  1.00  0.00     0.117 C 
ENDROOT
BRANCH   1   2
ATOM      2  N   UNL A   1      36.187  21.729  26.096  1.00  0.00    -0.356 N 
ATOM      3  C   UNL A   1      34.995  22.369  26.123  1.00  0.00     0.225 C 
ATOM      4  O   UNL A   1      34.615  22.644  27.273  1.00  0.00    -0.275 OA
ATOM      5  H   UNL A   1      36.503  21.539  27.008  1.00  0.00     0.163 HD
BRANCH   3   6
ATOM      6  C   UNL A   1      34.111  22.827  24.955  1.00  0.00     0.104 C 
ATOM      7  C   UNL A   1      33.077  23.931  25.102  1.00  0.00     0.095 C 
ATOM      8  C   UNL A   1      31.768  23.291  24.586  1.00  0.00     0.012 C 
ATOM      9  C   UNL A   1      31.331  22.180  25.582  1.00  0.00     0.006 C 
ATOM     10  C   UNL A   1      32.245  22.413  23.446  1.00  0.00     0.010 C 
ATOM     11  C   UNL A   1      33.286  21.679  24.300  1.00  0.00     0.004 C 
ATOM     12  C   UNL A   1      32.345  21.045  25.325  1.00  0.00     0.005 C 
BRANCH   7  13
ATOM     13  N   UNL A   1      33.479  25.234  24.546  1.00  0.00    -0.376 N 
ATOM     14  H   UNL A   1      34.354  25.163  24.102  1.00  0.00     0.161 HD
BRANCH  13  15
ATOM     15  C   UNL A   1      32.999  26.525  24.460  1.00  0.00     0.114 A 
ATOM     16  C   UNL A   1      31.756  28.951  27.193  1.00  0.00     0.044 C 
ATOM     17  C   UNL A   1      32.010  28.356  25.839  1.00  0.00    -0.049 A 
ATOM     18  C   UNL A   1      31.703  29.086  24.697  1.00  0.00     0.010 A 
ATOM     19  C   UNL A   1      32.595  27.082  25.701  1.00  0.00     0.036 A 
ATOM     20  C   UNL A   1      32.105  28.605  23.460  1.00  0.00     0.088 A 
ATOM     21  C   UNL A   1      32.802  27.377  23.360  1.00  0.00     0.292 A 
BRANCH  21  22
ATOM     22  N   UNL A   1      33.599  27.291  22.145  1.00  0.00     0.064 N 
ATOM     23  O   UNL A   1      34.188  28.320  21.776  1.00  0.00    -0.258 OA
ATOM     24  O   UNL A   1      33.751  26.169  21.644  1.00  0.00    -0.258 OA
ENDBRANCH  21  22
ENDBRANCH  13  15
ENDBRANCH   7  13
ENDBRANCH   3   6
ENDBRANCH   1   2
BRANCH   1  25
ATOM     25  C   UNL A   1      38.587  21.378  25.565  1.00  0.00     0.042 C 
BRANCH  25  26
ATOM     26  C   UNL A   1      38.922  22.740  26.158  1.00  0.00     0.118 C 
BRANCH  26  27
ATOM     27  N   UNL A   1      40.355  22.914  26.405  1.00  0.00    -0.352 N 
ATOM     28  C   UNL A   1      41.049  24.069  26.734  1.00  0.00     0.251 C 
ATOM     29  H   UNL A   1      40.901  22.098  26.329  1.00  0.00     0.163 HD
ATOM     30  O   UNL A   1      42.243  24.050  26.975  1.00  0.00    -0.269 OA
BRANCH  28  31
ATOM     31  C   UNL A   1      40.258  25.303  26.920  1.00  0.00     0.039 A 
ATOM     32  C   UNL A   1      40.729  26.448  26.274  1.00  0.00     0.014 A 
ATOM     33  C   UNL A   1      39.390  25.382  28.005  1.00  0.00     0.014 A 
ATOM     34  C   UNL A   1      40.570  27.675  26.902  1.00  0.00     0.010 A 
ATOM     35  C   UNL A   1      39.327  26.583  28.681  1.00  0.00     0.010 A 
ATOM     36  C   UNL A   1      39.999  27.703  28.172  1.00  0.00    -0.014 A 
BRANCH  36  37
ATOM     37  C   UNL A   1      40.169  28.832  29.079  1.00  0.00     0.031 A 
ATOM     38  C   UNL A   1      39.168  29.917  29.078  1.00  0.00     0.074 A 
ATOM     39  C   UNL A   1      41.214  28.864  29.940  1.00  0.00     0.049 A 
ATOM     40  N   UNL A   1      39.375  31.089  29.575  1.00  0.00    -0.248 NA
ATOM     41  C   UNL A   1      37.870  29.797  28.417  1.00  0.00     0.031 C 
ATOM     42  C   UNL A   1      41.395  29.760  31.081  1.00  0.00     0.029 A 
ATOM     43  N   UNL A   1      42.458  28.216  29.811  1.00  0.00    -0.354 N 
ATOM     44  C   UNL A   1      38.170  31.748  29.586  1.00  0.00     0.074 A 
ATOM     45  C   UNL A   1      37.318  30.973  28.726  1.00  0.00     0.031 C 
ATOM     46  C   UNL A   1      42.705  29.860  31.351  1.00  0.00     0.029 A 
ATOM     47  C   UNL A   1      43.411  29.142  30.306  1.00  0.00     0.049 A 
ATOM     48  H   UNL A   1      42.630  27.315  29.454  1.00  0.00     0.167 HD
ATOM     49  C   UNL A   1      38.010  32.783  30.458  1.00  0.00     0.037 A 
ATOM     50  C   UNL A   1      44.383  29.676  29.513  1.00  0.00     0.037 A 
ATOM     51  C   UNL A   1      39.315  33.270  30.915  1.00  0.00     0.049 A 
ATOM     52  C   UNL A   1      44.352  31.185  29.431  1.00  0.00     0.074 A 
ATOM     53  C   UNL A   1      40.003  33.195  32.114  1.00  0.00     0.029 A 
ATOM     54  N   UNL A   1      40.233  33.722  29.965  1.00  0.00    -0.354 N 
ATOM     55  N   UNL A   1      43.323  31.909  29.774  1.00  0.00    -0.248 NA
ATOM     56  C   UNL A   1      45.454  31.991  28.911  1.00  0.00     0.031 C 
ATOM     57  C   UNL A   1      41.366  33.505  31.853  1.00  0.00     0.029 A 
ATOM     58  C   UNL A   1      41.498  33.810  30.508  1.00  0.00     0.049 A 
ATOM     59  H   UNL A   1      40.006  33.948  29.034  1.00  0.00     0.167 HD
ATOM     60  C   UNL A   1      43.578  33.226  29.496  1.00  0.00     0.074 A 
ATOM     61  C   UNL A   1      44.935  33.229  28.981  1.00  0.00     0.031 C 
ATOM     62  C   UNL A   1      42.638  34.198  29.686  1.00  0.00     0.037 A 
BRANCH  49  63
ATOM     63  C   UNL A   1      36.684  33.195  31.078  1.00  0.00     0.064 A 
ATOM     64  C   UNL A   1      35.758  33.955  30.327  1.00  0.00     0.173 A 
ATOM     65  C   UNL A   1      36.315  33.018  32.432  1.00  0.00     0.173 A 
ATOM     66  F   UNL A   1      35.956  34.201  29.024  1.00  0.00    -0.203 F 
ATOM     67  C   UNL A   1      34.603  34.517  30.891  1.00  0.00     0.198 A 
ATOM     68  C   UNL A   1      35.142  33.543  32.983  1.00  0.00     0.198 A 
ATOM     69  F   UNL A   1      37.083  32.374  33.314  1.00  0.00    -0.203 F 
ATOM     70  F   UNL A   1      33.799  35.280  30.138  1.00  0.00    -0.200 F 
ATOM     71  C   UNL A   1      34.294  34.309  32.218  1.00  0.00     0.200 A 
ATOM     72  F   UNL A   1      34.865  33.323  34.277  1.00  0.00    -0.200 F 
ATOM     73  F   UNL A   1      33.197  34.851  32.762  1.00  0.00    -0.200 F 
ENDBRANCH  49  63
BRANCH  50  74
ATOM     74  C   UNL A   1      44.810  28.770  28.416  1.00  0.00     0.064 A 
ATOM     75  C   UNL A   1      45.585  27.641  28.749  1.00  0.00     0.173 A 
ATOM     76  C   UNL A   1      44.175  28.773  27.169  1.00  0.00     0.173 A 
ATOM     77  F   UNL A   1      46.217  27.588  29.933  1.00  0.00    -0.203 F 
ATOM     78  C   UNL A   1      45.614  26.515  27.932  1.00  0.00     0.198 A 
ATOM     79  C   UNL A   1      44.222  27.646  26.344  1.00  0.00     0.198 A 
ATOM     80  F   UNL A   1      43.407  29.809  26.801  1.00  0.00    -0.203 F 
ATOM     81  F   UNL A   1      46.255  25.409  28.339  1.00  0.00    -0.200 F 
ATOM     82  C   UNL A   1      44.907  26.508  26.743  1.00  0.00     0.200 A 
ATOM     83  F   UNL A   1      43.510  27.625  25.208  1.00  0.00    -0.200 F 
ATOM     84  F   UNL A   1      44.844  25.390  26.006  1.00  0.00    -0.200 F 
ENDBRANCH  50  74
BRANCH  62  85
ATOM     85  C   UNL A   1      42.738  35.618  29.182  1.00  0.00     0.064 A 
ATOM     86  C   UNL A   1      42.043  36.102  28.060  1.00  0.00     0.173 A 
ATOM     87  C   UNL A   1      43.451  36.590  29.923  1.00  0.00     0.173 A 
ATOM     88  F   UNL A   1      41.230  35.311  27.348  1.00  0.00    -0.203 F 
ATOM     89  C   UNL A   1      42.115  37.443  27.667  1.00  0.00     0.198 A 
ATOM     90  C   UNL A   1      43.474  37.937  29.560  1.00  0.00     0.198 A 
ATOM     91  F   UNL A   1      44.125  36.263  31.035  1.00  0.00    -0.203 F 
ATOM     92  F   UNL A   1      41.469  37.846  26.563  1.00  0.00    -0.200 F 
ATOM     93  C   UNL A   1      42.821  38.361  28.422  1.00  0.00     0.200 A 
ATOM     94  F   UNL A   1      44.116  38.823  30.333  1.00  0.00    -0.200 F 
ATOM     95  F   UNL A   1      42.852  39.652  28.065  1.00  0.00    -0.200 F 
ENDBRANCH  62  85
ENDBRANCH  36  37
ENDBRANCH  28  31
ENDBRANCH  26  27
ENDBRANCH  25  26
ENDBRANCH   1  25
TORSDOF 13
ENDMDL
MODEL 3
REMARK VINA RESULT:     -13.7      1.283      1.937
REMARK SMILES Cc1ccc([N+](=O)[O-])c(N[C@H]2[C@@H]3CC[C@@H](C3)[C@@H]2C(=O)NCCCNC(=O)c2ccc(-c3c4nc(c(-c5c(F)c(F)c(F)c(F)c5F)c5ccc([nH]5)c(-c5c(F)c(F)c(F)c(F)c5F)c5nc(c(-c6c(F)c(F)c(F)c(F)c6F)c6ccc3[nH]6)C=C5)C=C4)cc2)c1
REMARK SMILES IDX 21 1 20 2 18 3 19 4 17 6 11 7 12 8 13 9 16 10 15 11 14 12
REMARK SMILES IDX 10 13 9 15 1 16 2 17 3 18 90 19 4 20 5 21 6 22 7 23 8 24
REMARK SMILES IDX 22 25 23 26 24 27 25 28 26 30 27 31 28 32 89 33 29 34 88 35
REMARK SMILES IDX 30 36 31 37 32 38 82 39 33 40 87 41 81 42 83 43 34 44 86 45
REMARK SMILES IDX 80 46 79 47 35 49 67 50 47 51 66 52 48 53 51 54 65 55 84 56
REMARK SMILES IDX 49 57 50 58 64 60 85 61 52 62 36 63 37 64 45 65 38 66 39 67
REMARK SMILES IDX 43 68 46 69 40 70 41 71 44 72 42 73 68 74 69 75 77 76 70 77
REMARK SMILES IDX 71 78 75 79 78 80 72 81 73 82 76 83 74 84 53 85 54 86 62 87
REMARK SMILES IDX 55 88 56 89 60 90 63 91 57 92 58 93 61 94 59 95
REMARK H PARENT 20 5 10 14 24 29 83 48 51 59
REMARK Flexibility Score: inf
ROOT
ATOM      1  C   UNL A   1      37.271  21.272  25.260  1.00  0.00     0.117 C 
ENDROOT
BRANCH   1   2
ATOM      2  N   UNL A   1      36.291  21.912  26.135  1.00  0.00    -0.356 N 
ATOM      3  C   UNL A   1      35.073  22.493  26.034  1.00  0.00     0.225 C 
ATOM      4  O   UNL A   1      34.674  22.978  27.105  1.00  0.00    -0.275 OA
ATOM      5  H   UNL A   1      36.609  21.924  27.066  1.00  0.00     0.163 HD
BRANCH   3   6
ATOM      6  C   UNL A   1      34.179  22.667  24.800  1.00  0.00     0.104 C 
ATOM      7  C   UNL A   1      32.974  23.594  24.793  1.00  0.00     0.095 C 
ATOM      8  C   UNL A   1      31.810  22.693  24.321  1.00  0.00     0.012 C 
ATOM      9  C   UNL A   1      31.515  21.641  25.428  1.00  0.00     0.006 C 
ATOM     10  C   UNL A   1      32.471  21.787  23.302  1.00  0.00     0.010 C 
ATOM     11  C   UNL A   1      33.579  21.334  24.261  1.00  0.00     0.004 C 
ATOM     12  C   UNL A   1      32.709  20.669  25.328  1.00  0.00     0.005 C 
BRANCH   7  13
ATOM     13  N   UNL A   1      33.183  24.877  24.101  1.00  0.00    -0.376 N 
ATOM     14  H   UNL A   1      33.741  24.748  23.300  1.00  0.00     0.161 HD
BRANCH  13  15
ATOM     15  C   UNL A   1      32.833  26.205  24.235  1.00  0.00     0.114 A 
ATOM     16  C   UNL A   1      31.757  28.237  27.336  1.00  0.00     0.044 C 
ATOM     17  C   UNL A   1      31.989  27.861  25.902  1.00  0.00    -0.049 A 
ATOM     18  C   UNL A   1      31.785  28.803  24.900  1.00  0.00     0.010 A 
ATOM     19  C   UNL A   1      32.451  26.577  25.551  1.00  0.00     0.036 A 
ATOM     20  C   UNL A   1      32.172  28.505  23.603  1.00  0.00     0.088 A 
ATOM     21  C   UNL A   1      32.749  27.248  23.298  1.00  0.00     0.292 A 
BRANCH  21  22
ATOM     22  N   UNL A   1      33.566  27.293  22.095  1.00  0.00     0.064 N 
ATOM     23  O   UNL A   1      34.308  28.277  21.946  1.00  0.00    -0.258 OA
ATOM     24  O   UNL A   1      33.574  26.285  21.375  1.00  0.00    -0.258 OA
ENDBRANCH  21  22
ENDBRANCH  13  15
ENDBRANCH   7  13
ENDBRANCH   3   6
ENDBRANCH   1   2
BRANCH   1  25
ATOM     25  C   UNL A   1      38.703  21.472  25.743  1.00  0.00     0.042 C 
BRANCH  25  26
ATOM     26  C   UNL A   1      39.033  22.907  26.131  1.00  0.00     0.118 C 
BRANCH  26  27
ATOM     27  N   UNL A   1      40.462  23.110  26.386  1.00  0.00    -0.352 N 
ATOM     28  C   UNL A   1      41.126  24.275  26.743  1.00  0.00     0.251 C 
ATOM     29  H   UNL A   1      41.028  22.311  26.291  1.00  0.00     0.163 HD
ATOM     30  O   UNL A   1      42.319  24.280  26.986  1.00  0.00    -0.269 OA
BRANCH  28  31
ATOM     31  C   UNL A   1      40.304  25.484  26.956  1.00  0.00     0.039 A 
ATOM     32  C   UNL A   1      40.734  26.650  26.319  1.00  0.00     0.014 A 
ATOM     33  C   UNL A   1      39.448  25.524  28.052  1.00  0.00     0.014 A 
ATOM     34  C   UNL A   1      40.550  27.863  26.966  1.00  0.00     0.010 A 
ATOM     35  C   UNL A   1      39.361  26.713  28.746  1.00  0.00     0.010 A 
ATOM     36  C   UNL A   1      39.994  27.859  28.244  1.00  0.00    -0.014 A 
BRANCH  36  37
ATOM     37  C   UNL A   1      40.145  28.979  29.164  1.00  0.00     0.031 A 
ATOM     38  C   UNL A   1      39.136  30.057  29.163  1.00  0.00     0.074 A 
ATOM     39  C   UNL A   1      41.180  29.011  30.037  1.00  0.00     0.049 A 
ATOM     40  N   UNL A   1      39.327  31.225  29.674  1.00  0.00    -0.248 NA
ATOM     41  C   UNL A   1      37.847  29.933  28.487  1.00  0.00     0.031 C 
ATOM     42  C   UNL A   1      41.341  29.897  31.190  1.00  0.00     0.029 A 
ATOM     43  N   UNL A   1      42.432  28.375  29.915  1.00  0.00    -0.354 N 
ATOM     44  C   UNL A   1      38.117  31.874  29.678  1.00  0.00     0.074 A 
ATOM     45  C   UNL A   1      37.281  31.101  28.801  1.00  0.00     0.031 C 
ATOM     46  C   UNL A   1      42.648  30.005  31.475  1.00  0.00     0.029 A 
ATOM     47  C   UNL A   1      43.371  29.303  30.431  1.00  0.00     0.049 A 
ATOM     48  H   UNL A   1      42.614  27.478  29.551  1.00  0.00     0.167 HD
ATOM     49  C   UNL A   1      37.939  32.899  30.559  1.00  0.00     0.037 A 
ATOM     50  C   UNL A   1      44.347  29.854  29.654  1.00  0.00     0.037 A 
ATOM     51  C   UNL A   1      39.236  33.391  31.036  1.00  0.00     0.049 A 
ATOM     52  C   UNL A   1      44.305  31.363  29.586  1.00  0.00     0.074 A 
ATOM     53  C   UNL A   1      39.910  33.310  32.241  1.00  0.00     0.029 A 
ATOM     54  N   UNL A   1      40.159  33.861  30.101  1.00  0.00    -0.354 N 
ATOM     55  N   UNL A   1      43.267  32.075  29.926  1.00  0.00    -0.248 NA
ATOM     56  C   UNL A   1      45.406  32.183  29.087  1.00  0.00     0.031 C 
ATOM     57  C   UNL A   1      41.274  33.634  31.999  1.00  0.00     0.029 A 
ATOM     58  C   UNL A   1      41.418  33.954  30.659  1.00  0.00     0.049 A 
ATOM     59  H   UNL A   1      39.942  34.095  29.170  1.00  0.00     0.167 HD
ATOM     60  C   UNL A   1      43.514  33.397  29.663  1.00  0.00     0.074 A 
ATOM     61  C   UNL A   1      44.877  33.416  29.164  1.00  0.00     0.031 C 
ATOM     62  C   UNL A   1      42.564  34.359  29.853  1.00  0.00     0.037 A 
BRANCH  49  63
ATOM     63  C   UNL A   1      36.603  33.294  31.169  1.00  0.00     0.064 A 
ATOM     64  C   UNL A   1      35.672  34.040  30.409  1.00  0.00     0.173 A 
ATOM     65  C   UNL A   1      36.226  33.115  32.520  1.00  0.00     0.173 A 
ATOM     66  F   UNL A   1      35.876  34.285  29.107  1.00  0.00    -0.203 F 
ATOM     67  C   UNL A   1      34.505  34.587  30.963  1.00  0.00     0.198 A 
ATOM     68  C   UNL A   1      35.042  33.625  33.061  1.00  0.00     0.198 A 
ATOM     69  F   UNL A   1      36.997  32.484  33.409  1.00  0.00    -0.203 F 
ATOM     70  F   UNL A   1      33.697  35.337  30.202  1.00  0.00    -0.200 F 
ATOM     71  C   UNL A   1      34.190  34.378  32.288  1.00  0.00     0.200 A 
ATOM     72  F   UNL A   1      34.759  33.403  34.353  1.00  0.00    -0.200 F 
ATOM     73  F   UNL A   1      33.081  34.906  32.823  1.00  0.00    -0.200 F 
ENDBRANCH  49  63
BRANCH  50  74
ATOM     74  C   UNL A   1      44.794  28.962  28.552  1.00  0.00     0.064 A 
ATOM     75  C   UNL A   1      45.601  27.854  28.880  1.00  0.00     0.173 A 
ATOM     76  C   UNL A   1      44.153  28.951  27.309  1.00  0.00     0.173 A 
ATOM     77  F   UNL A   1      46.240  27.815  30.060  1.00  0.00    -0.203 F 
ATOM     78  C   UNL A   1      45.657  26.730  28.059  1.00  0.00     0.198 A 
ATOM     79  C   UNL A   1      44.227  27.828  26.480  1.00  0.00     0.198 A 
ATOM     80  F   UNL A   1      43.356  29.966  26.947  1.00  0.00    -0.203 F 
ATOM     81  F   UNL A   1      46.330  25.642  28.461  1.00  0.00    -0.200 F 
ATOM     82  C   UNL A   1      44.945  26.707  26.873  1.00  0.00     0.200 A 
ATOM     83  F   UNL A   1      43.511  27.790  25.348  1.00  0.00    -0.200 F 
ATOM     84  F   UNL A   1      44.909  25.590  26.134  1.00  0.00    -0.200 F 
ENDBRANCH  50  74
BRANCH  62  85
ATOM     85  C   UNL A   1      42.658  35.785  29.364  1.00  0.00     0.064 A 
ATOM     86  C   UNL A   1      43.428  36.780  29.991  1.00  0.00     0.173 A 
ATOM     87  C   UNL A   1      42.066  36.157  28.135  1.00  0.00     0.173 A 
ATOM     88  F   UNL A   1      44.142  36.518  31.094  1.00  0.00    -0.203 F 
ATOM     89  C   UNL A   1      43.537  38.072  29.466  1.00  0.00     0.198 A 
ATOM     90  C   UNL A   1      42.225  37.430  27.584  1.00  0.00     0.198 A 
ATOM     91  F   UNL A   1      41.338  35.288  27.419  1.00  0.00    -0.203 F 
ATOM     92  F   UNL A   1      44.247  38.999  30.126  1.00  0.00    -0.200 F 
ATOM     93  C   UNL A   1      42.944  38.393  28.259  1.00  0.00     0.200 A 
ATOM     94  F   UNL A   1      41.690  37.709  26.388  1.00  0.00    -0.200 F 
ATOM     95  F   UNL A   1      43.087  39.620  27.739  1.00  0.00    -0.200 F 
ENDBRANCH  62  85
ENDBRANCH  36  37
ENDBRANCH  28  31
ENDBRANCH  26  27
ENDBRANCH  25  26
ENDBRANCH   1  25
TORSDOF 13
ENDMDL
