MODEL 1
REMARK VINA RESULT:     -12.8      0.000      0.000
REMARK SMILES O=C(NCCCNC(=O)c1ccc(-c2ccn(C(F)F)c(=O)c2)cc1O)c1ccc(-c2c3nc(c(-c4c(F)c(F)c(F)c(F)c4F)c4ccc([nH]4)c(-c4c(F)c(F)c(F)c(F)c4F)c4nc(c(-c5c(F)c(F)c(F)c(F)c5F)c5ccc2[nH]5)C=C4)C=C3)cc1
REMARK SMILES IDX 5 1 4 2 3 3 1 4 2 5 27 7 28 8 89 9 29 10 88 11 30 12 31 13
REMARK SMILES IDX 32 14 82 15 33 16 87 17 81 18 83 19 34 20 86 21 80 22 79 23
REMARK SMILES IDX 35 25 67 26 47 27 66 28 48 29 51 30 65 31 84 32 49 33 50 34
REMARK SMILES IDX 64 36 85 37 52 38 36 39 37 40 45 41 38 42 39 43 43 44 46 45
REMARK SMILES IDX 40 46 41 47 44 48 42 49 68 50 69 51 77 52 70 53 71 54 75 55
REMARK SMILES IDX 78 56 72 57 73 58 76 59 74 60 53 61 54 62 62 63 55 64 56 65
REMARK SMILES IDX 60 66 63 67 57 68 58 69 61 70 59 71 6 72 7 73 8 74 9 76
REMARK SMILES IDX 10 77 11 78 25 79 12 80 24 81 13 82 26 83 14 85 15 86 23 87
REMARK SMILES IDX 16 88 21 89 17 90 22 91 18 92 19 93 20 94
REMARK H PARENT 3 6 83 24 51 35 7 75 26 84
REMARK Flexibility Score: inf
ROOT
ATOM      1  C   UNL A   1      31.320  32.324  26.503  1.00  0.00     0.042 C 
ENDROOT
BRANCH   1   2
ATOM      2  C   UNL A   1      32.637  32.900  26.988  1.00  0.00     0.118 C 
BRANCH   2   3
ATOM      3  N   UNL A   1      32.485  34.193  27.642  1.00  0.00    -0.352 N 
ATOM      4  O   UNL A   1      32.738  35.778  29.218  1.00  0.00    -0.269 OA
ATOM      5  C   UNL A   1      33.143  34.729  28.720  1.00  0.00     0.251 C 
ATOM      6  H   UNL A   1      31.800  34.777  27.245  1.00  0.00     0.163 HD
BRANCH   5   7
ATOM      7  C   UNL A   1      34.319  34.047  29.302  1.00  0.00     0.039 A 
ATOM      8  C   UNL A   1      35.599  34.486  28.952  1.00  0.00     0.014 A 
ATOM      9  C   UNL A   1      34.175  32.960  30.166  1.00  0.00     0.014 A 
ATOM     10  C   UNL A   1      36.721  33.864  29.502  1.00  0.00     0.010 A 
ATOM     11  C   UNL A   1      35.284  32.431  30.814  1.00  0.00     0.010 A 
ATOM     12  C   UNL A   1      36.574  32.847  30.460  1.00  0.00    -0.014 A 
BRANCH  12  13
ATOM     13  C   UNL A   1      37.754  32.153  31.037  1.00  0.00     0.031 A 
ATOM     14  C   UNL A   1      38.211  32.498  32.432  1.00  0.00     0.074 A 
ATOM     15  C   UNL A   1      38.421  31.235  30.311  1.00  0.00     0.049 A 
ATOM     16  N   UNL A   1      39.229  32.024  33.107  1.00  0.00    -0.248 NA
ATOM     17  C   UNL A   1      37.449  33.529  33.158  1.00  0.00     0.031 C 
ATOM     18  C   UNL A   1      38.104  30.852  28.935  1.00  0.00     0.029 A 
ATOM     19  N   UNL A   1      39.500  30.448  30.633  1.00  0.00    -0.354 N 
ATOM     20  C   UNL A   1      39.227  32.707  34.318  1.00  0.00     0.074 A 
ATOM     21  C   UNL A   1      38.164  33.680  34.261  1.00  0.00     0.031 C 
ATOM     22  C   UNL A   1      38.934  29.870  28.549  1.00  0.00     0.029 A 
ATOM     23  C   UNL A   1      39.870  29.581  29.632  1.00  0.00     0.049 A 
ATOM     24  H   UNL A   1      39.965  30.500  31.498  1.00  0.00     0.167 HD
ATOM     25  C   UNL A   1      40.013  32.507  35.400  1.00  0.00     0.037 A 
ATOM     26  C   UNL A   1      40.849  28.656  29.597  1.00  0.00     0.037 A 
ATOM     27  C   UNL A   1      41.032  31.498  35.475  1.00  0.00     0.049 A 
ATOM     28  C   UNL A   1      41.718  28.462  30.813  1.00  0.00     0.074 A 
ATOM     29  C   UNL A   1      41.841  31.177  36.550  1.00  0.00     0.029 A 
ATOM     30  N   UNL A   1      41.373  30.642  34.440  1.00  0.00    -0.354 N 
ATOM     31  N   UNL A   1      41.658  29.068  31.974  1.00  0.00    -0.248 NA
ATOM     32  C   UNL A   1      42.788  27.458  30.717  1.00  0.00     0.031 C 
ATOM     33  C   UNL A   1      42.707  30.159  36.149  1.00  0.00     0.029 A 
ATOM     34  C   UNL A   1      42.398  29.807  34.845  1.00  0.00     0.049 A 
ATOM     35  H   UNL A   1      40.949  30.630  33.552  1.00  0.00     0.167 HD
ATOM     36  C   UNL A   1      42.655  28.498  32.754  1.00  0.00     0.074 A 
ATOM     37  C   UNL A   1      43.302  27.492  31.940  1.00  0.00     0.031 C 
ATOM     38  C   UNL A   1      43.006  28.788  34.029  1.00  0.00     0.037 A 
BRANCH  25  39
ATOM     39  C   UNL A   1      39.782  33.358  36.613  1.00  0.00     0.064 A 
ATOM     40  C   UNL A   1      40.443  34.585  36.780  1.00  0.00     0.173 A 
ATOM     41  C   UNL A   1      38.817  32.997  37.565  1.00  0.00     0.173 A 
ATOM     42  F   UNL A   1      41.383  34.970  35.904  1.00  0.00    -0.203 F 
ATOM     43  C   UNL A   1      40.150  35.414  37.858  1.00  0.00     0.198 A 
ATOM     44  C   UNL A   1      38.505  33.843  38.625  1.00  0.00     0.198 A 
ATOM     45  F   UNL A   1      38.154  31.836  37.448  1.00  0.00    -0.203 F 
ATOM     46  F   UNL A   1      40.811  36.570  38.011  1.00  0.00    -0.200 F 
ATOM     47  C   UNL A   1      39.171  35.051  38.771  1.00  0.00     0.200 A 
ATOM     48  F   UNL A   1      37.547  33.498  39.496  1.00  0.00    -0.200 F 
ATOM     49  F   UNL A   1      38.869  35.865  39.790  1.00  0.00    -0.200 F 
ENDBRANCH  25  39
BRANCH  26  50
ATOM     50  C   UNL A   1      41.032  27.812  28.385  1.00  0.00     0.064 A 
ATOM     51  C   UNL A   1      40.355  26.592  28.248  1.00  0.00     0.173 A 
ATOM     52  C   UNL A   1      41.879  28.207  27.338  1.00  0.00     0.173 A 
ATOM     53  F   UNL A   1      39.548  26.161  29.227  1.00  0.00    -0.203 F 
ATOM     54  C   UNL A   1      40.533  25.791  27.120  1.00  0.00     0.198 A 
ATOM     55  C   UNL A   1      42.032  27.420  26.198  1.00  0.00     0.198 A 
ATOM     56  F   UNL A   1      42.548  29.367  27.416  1.00  0.00    -0.203 F 
ATOM     57  F   UNL A   1      39.908  24.609  27.037  1.00  0.00    -0.200 F 
ATOM     58  C   UNL A   1      41.366  26.208  26.094  1.00  0.00     0.200 A 
ATOM     59  F   UNL A   1      42.825  27.835  25.201  1.00  0.00    -0.200 F 
ATOM     60  F   UNL A   1      41.530  25.442  25.007  1.00  0.00    -0.200 F 
ENDBRANCH  26  50
BRANCH  38  61
ATOM     61  C   UNL A   1      44.114  27.998  34.659  1.00  0.00     0.064 A 
ATOM     62  C   UNL A   1      43.868  26.766  35.280  1.00  0.00     0.173 A 
ATOM     63  C   UNL A   1      45.448  28.408  34.507  1.00  0.00     0.173 A 
ATOM     64  F   UNL A   1      42.609  26.338  35.455  1.00  0.00    -0.203 F 
ATOM     65  C   UNL A   1      44.920  25.968  35.719  1.00  0.00     0.198 A 
ATOM     66  C   UNL A   1      46.496  27.594  34.922  1.00  0.00     0.198 A 
ATOM     67  F   UNL A   1      45.733  29.574  33.907  1.00  0.00    -0.203 F 
ATOM     68  F   UNL A   1      44.664  24.797  36.319  1.00  0.00    -0.200 F 
ATOM     69  C   UNL A   1      46.232  26.374  35.525  1.00  0.00     0.200 A 
ATOM     70  F   UNL A   1      47.764  27.978  34.712  1.00  0.00    -0.200 F 
ATOM     71  F   UNL A   1      47.244  25.586  35.915  1.00  0.00    -0.200 F 
ENDBRANCH  38  61
ENDBRANCH  12  13
ENDBRANCH   5   7
ENDBRANCH   2   3
ENDBRANCH   1   2
BRANCH   1  72
ATOM     72  C   UNL A   1      31.420  30.881  26.046  1.00  0.00     0.118 C 
BRANCH  72  73
ATOM     73  N   UNL A   1      30.693  30.635  24.809  1.00  0.00    -0.352 N 
ATOM     74  C   UNL A   1      30.756  29.547  23.974  1.00  0.00     0.255 C 
ATOM     75  H   UNL A   1      30.073  31.348  24.532  1.00  0.00     0.163 HD
ATOM     76  O   UNL A   1      30.156  29.551  22.902  1.00  0.00    -0.269 OA
BRANCH  74  77
ATOM     77  C   UNL A   1      31.620  28.403  24.329  1.00  0.00     0.081 A 
ATOM     78  C   UNL A   1      31.007  27.286  24.911  1.00  0.00     0.018 A 
ATOM     79  C   UNL A   1      32.991  28.390  24.060  1.00  0.00     0.128 A 
ATOM     80  C   UNL A   1      31.750  26.125  25.139  1.00  0.00     0.010 A 
ATOM     81  C   UNL A   1      33.726  27.228  24.266  1.00  0.00     0.055 A 
ATOM     82  C   UNL A   1      33.105  26.082  24.786  1.00  0.00    -0.014 A 
BRANCH  79  83
ATOM     83  O   UNL A   1      33.613  29.497  23.552  1.00  0.00    -0.507 OA
ATOM     84  H   UNL A   1      34.518  29.653  23.739  1.00  0.00     0.293 HD
ENDBRANCH  79  83
BRANCH  82  85
ATOM     85  C   UNL A   1      33.908  24.853  24.906  1.00  0.00    -0.011 A 
ATOM     86  C   UNL A   1      34.567  24.244  23.769  1.00  0.00     0.027 A 
ATOM     87  C   UNL A   1      33.918  24.216  26.090  1.00  0.00     0.080 A 
ATOM     88  C   UNL A   1      35.115  23.029  23.873  1.00  0.00     0.095 A 
ATOM     89  C   UNL A   1      34.554  22.876  26.230  1.00  0.00     0.255 A 
ATOM     90  N   UNL A   1      35.097  22.343  25.073  1.00  0.00    -0.258 N 
ATOM     91  O   UNL A   1      34.527  22.329  27.328  1.00  0.00    -0.269 OA
BRANCH  90  92
ATOM     92  C   UNL A   1      35.625  21.006  25.155  1.00  0.00     0.451 C 
ATOM     93  F   UNL A   1      34.800  20.111  24.563  1.00  0.00    -0.185 F 
ATOM     94  F   UNL A   1      36.836  20.930  24.550  1.00  0.00    -0.185 F 
ENDBRANCH  90  92
ENDBRANCH  82  85
ENDBRANCH  74  77
ENDBRANCH  72  73
ENDBRANCH   1  72
TORSDOF 13
ENDMDL
MODEL 2
REMARK VINA RESULT:     -12.7      5.203     10.789
REMARK SMILES O=C(NCCCNC(=O)c1ccc(-c2ccn(C(F)F)c(=O)c2)cc1O)c1ccc(-c2c3nc(c(-c4c(F)c(F)c(F)c(F)c4F)c4ccc([nH]4)c(-c4c(F)c(F)c(F)c(F)c4F)c4nc(c(-c5c(F)c(F)c(F)c(F)c5F)c5ccc2[nH]5)C=C4)C=C3)cc1
REMARK SMILES IDX 5 1 4 2 3 3 1 4 2 5 27 7 28 8 89 9 29 10 88 11 30 12 31 13
REMARK SMILES IDX 32 14 82 15 33 16 87 17 81 18 83 19 34 20 86 21 80 22 79 23
REMARK SMILES IDX 35 25 67 26 47 27 66 28 48 29 51 30 65 31 84 32 49 33 50 34
REMARK SMILES IDX 64 36 85 37 52 38 36 39 37 40 45 41 38 42 39 43 43 44 46 45
REMARK SMILES IDX 40 46 41 47 44 48 42 49 68 50 69 51 77 52 70 53 71 54 75 55
REMARK SMILES IDX 78 56 72 57 73 58 76 59 74 60 53 61 54 62 62 63 55 64 56 65
REMARK SMILES IDX 60 66 63 67 57 68 58 69 61 70 59 71 6 72 7 73 8 74 9 76
REMARK SMILES IDX 10 77 11 78 25 79 12 80 24 81 13 82 26 83 14 85 15 86 23 87
REMARK SMILES IDX 16 88 21 89 17 90 22 91 18 92 19 93 20 94
REMARK H PARENT 3 6 83 24 51 35 7 75 26 84
REMARK Flexibility Score: inf
ROOT
ATOM      1  C   UNL A   1      38.153  19.318  25.035  1.00  0.00     0.042 C 
ENDROOT
BRANCH   1   2
ATOM      2  C   UNL A   1      39.228  19.735  26.021  1.00  0.00     0.118 C 
BRANCH   2   3
ATOM      3  N   UNL A   1      40.442  18.938  25.909  1.00  0.00    -0.352 N 
ATOM      4  O   UNL A   1      42.636  18.499  25.682  1.00  0.00    -0.269 OA
ATOM      5  C   UNL A   1      41.761  19.311  25.976  1.00  0.00     0.251 C 
ATOM      6  H   UNL A   1      40.292  17.977  25.760  1.00  0.00     0.163 HD
BRANCH   5   7
ATOM      7  C   UNL A   1      42.138  20.684  26.377  1.00  0.00     0.039 A 
ATOM      8  C   UNL A   1      42.275  20.979  27.736  1.00  0.00     0.014 A 
ATOM      9  C   UNL A   1      42.329  21.690  25.429  1.00  0.00     0.014 A 
ATOM     10  C   UNL A   1      42.644  22.265  28.133  1.00  0.00     0.010 A 
ATOM     11  C   UNL A   1      42.825  22.929  25.816  1.00  0.00     0.010 A 
ATOM     12  C   UNL A   1      42.949  23.247  27.174  1.00  0.00    -0.014 A 
BRANCH  12  13
ATOM     13  C   UNL A   1      43.317  24.630  27.575  1.00  0.00     0.031 A 
ATOM     14  C   UNL A   1      44.768  25.041  27.581  1.00  0.00     0.074 A 
ATOM     15  C   UNL A   1      42.362  25.503  27.947  1.00  0.00     0.049 A 
ATOM     16  N   UNL A   1      45.298  26.191  27.919  1.00  0.00    -0.248 NA
ATOM     17  C   UNL A   1      45.760  24.026  27.187  1.00  0.00     0.031 C 
ATOM     18  C   UNL A   1      40.930  25.208  28.028  1.00  0.00     0.029 A 
ATOM     19  N   UNL A   1      42.447  26.822  28.319  1.00  0.00    -0.354 N 
ATOM     20  C   UNL A   1      46.671  26.025  27.786  1.00  0.00     0.074 A 
ATOM     21  C   UNL A   1      46.905  24.650  27.416  1.00  0.00     0.031 C 
ATOM     22  C   UNL A   1      40.269  26.324  28.373  1.00  0.00     0.029 A 
ATOM     23  C   UNL A   1      41.230  27.404  28.580  1.00  0.00     0.049 A 
ATOM     24  H   UNL A   1      43.301  27.307  28.391  1.00  0.00     0.167 HD
ATOM     25  C   UNL A   1      47.648  26.950  27.916  1.00  0.00     0.037 A 
ATOM     26  C   UNL A   1      40.925  28.666  28.939  1.00  0.00     0.037 A 
ATOM     27  C   UNL A   1      47.409  28.332  28.227  1.00  0.00     0.049 A 
ATOM     28  C   UNL A   1      42.035  29.674  29.088  1.00  0.00     0.074 A 
ATOM     29  C   UNL A   1      48.329  29.360  28.320  1.00  0.00     0.029 A 
ATOM     30  N   UNL A   1      46.162  28.877  28.483  1.00  0.00    -0.354 N 
ATOM     31  N   UNL A   1      43.322  29.519  28.892  1.00  0.00    -0.248 NA
ATOM     32  C   UNL A   1      41.654  31.032  29.506  1.00  0.00     0.031 C 
ATOM     33  C   UNL A   1      47.644  30.520  28.683  1.00  0.00     0.029 A 
ATOM     34  C   UNL A   1      46.291  30.227  28.758  1.00  0.00     0.049 A 
ATOM     35  H   UNL A   1      45.312  28.380  28.471  1.00  0.00     0.167 HD
ATOM     36  C   UNL A   1      43.898  30.759  29.129  1.00  0.00     0.074 A 
ATOM     37  C   UNL A   1      42.821  31.662  29.476  1.00  0.00     0.031 C 
ATOM     38  C   UNL A   1      45.202  31.116  29.069  1.00  0.00     0.037 A 
BRANCH  25  39
ATOM     39  C   UNL A   1      49.067  26.524  27.678  1.00  0.00     0.064 A 
ATOM     40  C   UNL A   1      49.583  26.398  26.379  1.00  0.00     0.173 A 
ATOM     41  C   UNL A   1      49.947  26.340  28.755  1.00  0.00     0.173 A 
ATOM     42  F   UNL A   1      48.780  26.552  25.316  1.00  0.00    -0.203 F 
ATOM     43  C   UNL A   1      50.925  26.099  26.169  1.00  0.00     0.198 A 
ATOM     44  C   UNL A   1      51.295  26.071  28.540  1.00  0.00     0.198 A 
ATOM     45  F   UNL A   1      49.504  26.454  30.017  1.00  0.00    -0.203 F 
ATOM     46  F   UNL A   1      51.391  25.959  24.919  1.00  0.00    -0.200 F 
ATOM     47  C   UNL A   1      51.784  25.950  27.248  1.00  0.00     0.200 A 
ATOM     48  F   UNL A   1      52.127  25.946  29.584  1.00  0.00    -0.200 F 
ATOM     49  F   UNL A   1      53.082  25.693  27.042  1.00  0.00    -0.200 F 
ENDBRANCH  25  39
BRANCH  26  50
ATOM     50  C   UNL A   1      39.504  29.060  29.142  1.00  0.00     0.064 A 
ATOM     51  C   UNL A   1      38.912  28.991  30.412  1.00  0.00     0.173 A 
ATOM     52  C   UNL A   1      38.711  29.517  28.079  1.00  0.00     0.173 A 
ATOM     53  F   UNL A   1      39.622  28.544  31.457  1.00  0.00    -0.203 F 
ATOM     54  C   UNL A   1      37.577  29.346  30.606  1.00  0.00     0.198 A 
ATOM     55  C   UNL A   1      37.386  29.901  28.281  1.00  0.00     0.198 A 
ATOM     56  F   UNL A   1      39.228  29.607  26.845  1.00  0.00    -0.203 F 
ATOM     57  F   UNL A   1      37.026  29.227  31.821  1.00  0.00    -0.200 F 
ATOM     58  C   UNL A   1      36.818  29.807  29.542  1.00  0.00     0.200 A 
ATOM     59  F   UNL A   1      36.661  30.362  27.253  1.00  0.00    -0.200 F 
ATOM     60  F   UNL A   1      35.538  30.156  29.731  1.00  0.00    -0.200 F 
ENDBRANCH  26  50
BRANCH  38  61
ATOM     61  C   UNL A   1      45.564  32.545  29.347  1.00  0.00     0.064 A 
ATOM     62  C   UNL A   1      45.562  33.507  28.328  1.00  0.00     0.173 A 
ATOM     63  C   UNL A   1      45.764  32.977  30.667  1.00  0.00     0.173 A 
ATOM     64  F   UNL A   1      45.382  33.138  27.051  1.00  0.00    -0.203 F 
ATOM     65  C   UNL A   1      45.741  34.855  28.623  1.00  0.00     0.198 A 
ATOM     66  C   UNL A   1      45.915  34.329  30.959  1.00  0.00     0.198 A 
ATOM     67  F   UNL A   1      45.761  32.094  31.676  1.00  0.00    -0.203 F 
ATOM     68  F   UNL A   1      45.746  35.760  27.634  1.00  0.00    -0.200 F 
ATOM     69  C   UNL A   1      45.901  35.267  29.938  1.00  0.00     0.200 A 
ATOM     70  F   UNL A   1      46.045  34.726  32.233  1.00  0.00    -0.200 F 
ATOM     71  F   UNL A   1      46.035  36.570  30.222  1.00  0.00    -0.200 F 
ENDBRANCH  38  61
ENDBRANCH  12  13
ENDBRANCH   5   7
ENDBRANCH   2   3
ENDBRANCH   1   2
BRANCH   1  72
ATOM     72  C   UNL A   1      36.962  20.257  25.001  1.00  0.00     0.118 C 
BRANCH  72  73
ATOM     73  N   UNL A   1      35.693  19.547  24.935  1.00  0.00    -0.352 N 
ATOM     74  C   UNL A   1      34.418  20.053  25.002  1.00  0.00     0.255 C 
ATOM     75  H   UNL A   1      35.758  18.570  24.827  1.00  0.00     0.163 HD
ATOM     76  O   UNL A   1      33.452  19.297  25.046  1.00  0.00    -0.269 OA
BRANCH  74  77
ATOM     77  C   UNL A   1      34.216  21.511  25.111  1.00  0.00     0.081 A 
ATOM     78  C   UNL A   1      33.835  22.200  23.953  1.00  0.00     0.018 A 
ATOM     79  C   UNL A   1      34.345  22.195  26.323  1.00  0.00     0.128 A 
ATOM     80  C   UNL A   1      33.496  23.553  24.027  1.00  0.00     0.010 A 
ATOM     81  C   UNL A   1      33.986  23.536  26.403  1.00  0.00     0.055 A 
ATOM     82  C   UNL A   1      33.539  24.217  25.260  1.00  0.00    -0.014 A 
BRANCH  79  83
ATOM     83  O   UNL A   1      34.778  21.548  27.447  1.00  0.00    -0.507 OA
ATOM     84  H   UNL A   1      34.565  21.887  28.295  1.00  0.00     0.293 HD
ENDBRANCH  79  83
BRANCH  82  85
ATOM     85  C   UNL A   1      33.092  25.612  25.416  1.00  0.00    -0.011 A 
ATOM     86  C   UNL A   1      33.681  26.703  24.665  1.00  0.00     0.027 A 
ATOM     87  C   UNL A   1      32.196  25.886  26.380  1.00  0.00     0.080 A 
ATOM     88  C   UNL A   1      33.395  27.971  24.975  1.00  0.00     0.095 A 
ATOM     89  C   UNL A   1      31.842  27.294  26.714  1.00  0.00     0.255 A 
ATOM     90  N   UNL A   1      32.507  28.271  25.991  1.00  0.00    -0.258 N 
ATOM     91  O   UNL A   1      31.028  27.494  27.610  1.00  0.00    -0.269 OA
BRANCH  90  92
ATOM     92  C   UNL A   1      32.261  29.640  26.365  1.00  0.00     0.451 C 
ATOM     93  F   UNL A   1      33.385  30.388  26.267  1.00  0.00    -0.185 F 
ATOM     94  F   UNL A   1      31.315  30.192  25.566  1.00  0.00    -0.185 F 
ENDBRANCH  90  92
ENDBRANCH  82  85
ENDBRANCH  74  77
ENDBRANCH  72  73
ENDBRANCH   1  72
TORSDOF 13
ENDMDL
MODEL 3
REMARK VINA RESULT:     -12.7      0.697      1.844
REMARK SMILES O=C(NCCCNC(=O)c1ccc(-c2ccn(C(F)F)c(=O)c2)cc1O)c1ccc(-c2c3nc(c(-c4c(F)c(F)c(F)c(F)c4F)c4ccc([nH]4)c(-c4c(F)c(F)c(F)c(F)c4F)c4nc(c(-c5c(F)c(F)c(F)c(F)c5F)c5ccc2[nH]5)C=C4)C=C3)cc1
REMARK SMILES IDX 5 1 4 2 3 3 1 4 2 5 27 7 28 8 89 9 29 10 88 11 30 12 31 13
REMARK SMILES IDX 32 14 82 15 33 16 87 17 81 18 83 19 34 20 86 21 80 22 79 23
REMARK SMILES IDX 35 25 67 26 47 27 66 28 48 29 51 30 65 31 84 32 49 33 50 34
REMARK SMILES IDX 64 36 85 37 52 38 36 39 37 40 45 41 38 42 39 43 43 44 46 45
REMARK SMILES IDX 40 46 41 47 44 48 42 49 68 50 69 51 77 52 70 53 71 54 75 55
REMARK SMILES IDX 78 56 72 57 73 58 76 59 74 60 53 61 54 62 62 63 55 64 56 65
REMARK SMILES IDX 60 66 63 67 57 68 58 69 61 70 59 71 6 72 7 73 8 74 9 76
REMARK SMILES IDX 10 77 11 78 25 79 12 80 24 81 13 82 26 83 14 85 15 86 23 87
REMARK SMILES IDX 16 88 21 89 17 90 22 91 18 92 19 93 20 94
REMARK H PARENT 3 6 83 24 51 35 7 75 26 84
REMARK Flexibility Score: inf
ROOT
ATOM      1  C   UNL A   1      31.317  32.094  26.315  1.00  0.00     0.042 C 
ENDROOT
BRANCH   1   2
ATOM      2  C   UNL A   1      32.527  32.490  27.139  1.00  0.00     0.118 C 
BRANCH   2   3
ATOM      3  N   UNL A   1      32.452  33.857  27.637  1.00  0.00    -0.352 N 
ATOM      4  O   UNL A   1      32.843  35.609  28.993  1.00  0.00    -0.269 OA
ATOM      5  C   UNL A   1      33.187  34.494  28.606  1.00  0.00     0.251 C 
ATOM      6  H   UNL A   1      31.764  34.415  27.208  1.00  0.00     0.163 HD
BRANCH   5   7
ATOM      7  C   UNL A   1      34.373  33.843  29.203  1.00  0.00     0.039 A 
ATOM      8  C   UNL A   1      35.643  34.338  28.897  1.00  0.00     0.014 A 
ATOM      9  C   UNL A   1      34.248  32.732  30.039  1.00  0.00     0.014 A 
ATOM     10  C   UNL A   1      36.774  33.746  29.464  1.00  0.00     0.010 A 
ATOM     11  C   UNL A   1      35.359  32.229  30.705  1.00  0.00     0.010 A 
ATOM     12  C   UNL A   1      36.640  32.701  30.394  1.00  0.00    -0.014 A 
BRANCH  12  13
ATOM     13  C   UNL A   1      37.831  32.039  30.988  1.00  0.00     0.031 A 
ATOM     14  C   UNL A   1      38.277  32.416  32.378  1.00  0.00     0.074 A 
ATOM     15  C   UNL A   1      38.517  31.120  30.280  1.00  0.00     0.049 A 
ATOM     16  N   UNL A   1      39.300  31.973  33.064  1.00  0.00    -0.248 NA
ATOM     17  C   UNL A   1      37.494  33.446  33.082  1.00  0.00     0.031 C 
ATOM     18  C   UNL A   1      38.211  30.707  28.910  1.00  0.00     0.029 A 
ATOM     19  N   UNL A   1      39.608  30.358  30.619  1.00  0.00    -0.354 N 
ATOM     20  C   UNL A   1      39.282  32.676  34.262  1.00  0.00     0.074 A 
ATOM     21  C   UNL A   1      38.203  33.630  34.185  1.00  0.00     0.031 C 
ATOM     22  C   UNL A   1      39.059  29.733  28.544  1.00  0.00     0.029 A 
ATOM     23  C   UNL A   1      39.997  29.480  29.635  1.00  0.00     0.049 A 
ATOM     24  H   UNL A   1      40.069  30.434  31.485  1.00  0.00     0.167 HD
ATOM     25  C   UNL A   1      40.068  32.510  35.350  1.00  0.00     0.037 A 
ATOM     26  C   UNL A   1      40.992  28.572  29.619  1.00  0.00     0.037 A 
ATOM     27  C   UNL A   1      41.105  31.520  35.447  1.00  0.00     0.049 A 
ATOM     28  C   UNL A   1      41.860  28.416  30.841  1.00  0.00     0.074 A 
ATOM     29  C   UNL A   1      41.916  31.233  36.530  1.00  0.00     0.029 A 
ATOM     30  N   UNL A   1      41.464  30.653  34.428  1.00  0.00    -0.354 N 
ATOM     31  N   UNL A   1      41.786  29.040  31.991  1.00  0.00    -0.248 NA
ATOM     32  C   UNL A   1      42.948  27.429  30.766  1.00  0.00     0.031 C 
ATOM     33  C   UNL A   1      42.801  30.224  36.150  1.00  0.00     0.029 A 
ATOM     34  C   UNL A   1      42.503  29.843  34.851  1.00  0.00     0.049 A 
ATOM     35  H   UNL A   1      41.043  30.618  33.539  1.00  0.00     0.167 HD
ATOM     36  C   UNL A   1      42.790  28.503  32.784  1.00  0.00     0.074 A 
ATOM     37  C   UNL A   1      43.457  27.493  31.989  1.00  0.00     0.031 C 
ATOM     38  C   UNL A   1      43.131  28.821  34.055  1.00  0.00     0.037 A 
BRANCH  25  39
ATOM     39  C   UNL A   1      39.818  33.378  36.548  1.00  0.00     0.064 A 
ATOM     40  C   UNL A   1      40.462  34.615  36.699  1.00  0.00     0.173 A 
ATOM     41  C   UNL A   1      38.852  33.020  37.499  1.00  0.00     0.173 A 
ATOM     42  F   UNL A   1      41.403  34.999  35.823  1.00  0.00    -0.203 F 
ATOM     43  C   UNL A   1      40.151  35.459  37.760  1.00  0.00     0.198 A 
ATOM     44  C   UNL A   1      38.521  33.880  38.542  1.00  0.00     0.198 A 
ATOM     45  F   UNL A   1      38.203  31.850  37.397  1.00  0.00    -0.203 F 
ATOM     46  F   UNL A   1      40.797  36.625  37.898  1.00  0.00    -0.200 F 
ATOM     47  C   UNL A   1      39.171  35.098  38.673  1.00  0.00     0.200 A 
ATOM     48  F   UNL A   1      37.561  33.537  39.413  1.00  0.00    -0.200 F 
ATOM     49  F   UNL A   1      38.851  35.926  39.676  1.00  0.00    -0.200 F 
ENDBRANCH  25  39
BRANCH  26  50
ATOM     50  C   UNL A   1      41.194  27.711  28.423  1.00  0.00     0.064 A 
ATOM     51  C   UNL A   1      42.084  28.088  27.407  1.00  0.00     0.173 A 
ATOM     52  C   UNL A   1      40.513  26.494  28.271  1.00  0.00     0.173 A 
ATOM     53  F   UNL A   1      42.747  29.250  27.494  1.00  0.00    -0.203 F 
ATOM     54  C   UNL A   1      42.269  27.292  26.276  1.00  0.00     0.198 A 
ATOM     55  C   UNL A   1      40.722  25.684  27.156  1.00  0.00     0.198 A 
ATOM     56  F   UNL A   1      39.653  26.083  29.215  1.00  0.00    -0.203 F 
ATOM     57  F   UNL A   1      43.090  27.699  25.301  1.00  0.00    -0.200 F 
ATOM     58  C   UNL A   1      41.593  26.088  26.155  1.00  0.00     0.200 A 
ATOM     59  F   UNL A   1      40.079  24.513  27.051  1.00  0.00    -0.200 F 
ATOM     60  F   UNL A   1      41.777  25.319  25.074  1.00  0.00    -0.200 F 
ENDBRANCH  26  50
BRANCH  38  61
ATOM     61  C   UNL A   1      44.251  28.062  34.702  1.00  0.00     0.064 A 
ATOM     62  C   UNL A   1      45.554  28.577  34.736  1.00  0.00     0.173 A 
ATOM     63  C   UNL A   1      43.984  26.888  35.423  1.00  0.00     0.173 A 
ATOM     64  F   UNL A   1      45.858  29.692  34.055  1.00  0.00    -0.203 F 
ATOM     65  C   UNL A   1      46.550  27.945  35.475  1.00  0.00     0.198 A 
ATOM     66  C   UNL A   1      44.975  26.276  36.183  1.00  0.00     0.198 A 
ATOM     67  F   UNL A   1      42.748  26.366  35.431  1.00  0.00    -0.203 F 
ATOM     68  F   UNL A   1      47.793  28.446  35.487  1.00  0.00    -0.200 F 
ATOM     69  C   UNL A   1      46.256  26.806  36.210  1.00  0.00     0.200 A 
ATOM     70  F   UNL A   1      44.683  25.189  36.911  1.00  0.00    -0.200 F 
ATOM     71  F   UNL A   1      47.208  26.221  36.952  1.00  0.00    -0.200 F 
ENDBRANCH  38  61
ENDBRANCH  12  13
ENDBRANCH   5   7
ENDBRANCH   2   3
ENDBRANCH   1   2
BRANCH   1  72
ATOM     72  C   UNL A   1      31.321  30.637  25.891  1.00  0.00     0.118 C 
BRANCH  72  73
ATOM     73  N   UNL A   1      30.661  30.427  24.610  1.00  0.00    -0.352 N 
ATOM     74  C   UNL A   1      30.798  29.379  23.732  1.00  0.00     0.255 C 
ATOM     75  H   UNL A   1      30.032  31.132  24.336  1.00  0.00     0.163 HD
ATOM     76  O   UNL A   1      30.250  29.414  22.634  1.00  0.00    -0.269 OA
BRANCH  74  77
ATOM     77  C   UNL A   1      31.680  28.247  24.079  1.00  0.00     0.081 A 
ATOM     78  C   UNL A   1      31.077  27.088  24.584  1.00  0.00     0.018 A 
ATOM     79  C   UNL A   1      33.062  28.286  23.873  1.00  0.00     0.128 A 
ATOM     80  C   UNL A   1      31.845  25.941  24.797  1.00  0.00     0.010 A 
ATOM     81  C   UNL A   1      33.823  27.138  24.063  1.00  0.00     0.055 A 
ATOM     82  C   UNL A   1      33.215  25.953  24.506  1.00  0.00    -0.014 A 
BRANCH  79  83
ATOM     83  O   UNL A   1      33.671  29.432  23.441  1.00  0.00    -0.507 OA
ATOM     84  H   UNL A   1      34.607  29.481  23.408  1.00  0.00     0.293 HD
ENDBRANCH  79  83
BRANCH  82  85
ATOM     85  C   UNL A   1      34.050  24.744  24.610  1.00  0.00    -0.011 A 
ATOM     86  C   UNL A   1      34.260  24.054  25.867  1.00  0.00     0.027 A 
ATOM     87  C   UNL A   1      34.736  24.351  23.523  1.00  0.00     0.080 A 
ATOM     88  C   UNL A   1      35.178  23.087  25.965  1.00  0.00     0.095 A 
ATOM     89  C   UNL A   1      35.738  23.252  23.608  1.00  0.00     0.255 A 
ATOM     90  N   UNL A   1      35.920  22.700  24.865  1.00  0.00    -0.258 N 
ATOM     91  O   UNL A   1      36.347  22.938  22.591  1.00  0.00    -0.269 OA
BRANCH  90  92
ATOM     92  C   UNL A   1      36.957  21.709  24.998  1.00  0.00     0.451 C 
ATOM     93  F   UNL A   1      37.811  22.018  26.001  1.00  0.00    -0.185 F 
ATOM     94  F   UNL A   1      36.424  20.489  25.257  1.00  0.00    -0.185 F 
ENDBRANCH  90  92
ENDBRANCH  82  85
ENDBRANCH  74  77
ENDBRANCH  72  73
ENDBRANCH   1  72
TORSDOF 13
ENDMDL
