MODEL 1
REMARK VINA RESULT:     -12.8      0.000      0.000
REMARK SMILES COc1cccc([C@@H]2C[N@@H+](Cc3nccn3C)C[C@H]2C(=O)NCCCNC(=O)c2ccc(-c3c4nc(c(-c5c(F)c(F)c(F)c(F)c5F)c5ccc([nH]5)c(-c5c(F)c(F)c(F)c(F)c5F)c5nc(c(-c6c(F)c(F)c(F)c(F)c6F)c6ccc3[nH]6)C=C5)C=C4)cc2)c1
REMARK SMILES IDX 24 1 23 2 22 3 20 4 21 5 19 7 8 8 9 9 10 10 18 11 7 13 3 14
REMARK SMILES IDX 4 15 92 16 5 17 6 18 2 19 1 20 11 21 12 22 13 23 16 24 14 25
REMARK SMILES IDX 15 26 17 27 25 28 26 29 27 30 28 32 29 33 30 34 91 35 31 36
REMARK SMILES IDX 90 37 32 38 33 39 34 40 84 41 35 42 89 43 83 44 85 45 36 46
REMARK SMILES IDX 88 47 82 48 81 49 37 51 69 52 49 53 68 54 50 55 53 56 67 57
REMARK SMILES IDX 86 58 51 59 52 60 66 62 87 63 54 64 38 65 39 66 47 67 40 68
REMARK SMILES IDX 41 69 45 70 48 71 42 72 43 73 46 74 44 75 70 76 71 77 79 78
REMARK SMILES IDX 72 79 73 80 77 81 80 82 74 83 75 84 78 85 76 86 55 87 56 88
REMARK SMILES IDX 64 89 57 90 58 91 62 92 65 93 59 94 60 95 63 96 61 97
REMARK H PARENT 22 6 10 12 26 31 85 50 53 61
REMARK Flexibility Score: inf
ROOT
ATOM      1  C   UNL A   1      33.054  27.868  25.749  1.00  0.00     0.042 C 
ENDROOT
BRANCH   1   2
ATOM      2  C   UNL A   1      31.695  27.807  26.467  1.00  0.00     0.117 C 
BRANCH   2   3
ATOM      3  N   UNL A   1      31.208  26.443  26.736  1.00  0.00    -0.356 N 
ATOM      4  C   UNL A   1      31.035  25.206  26.232  1.00  0.00     0.229 C 
ATOM      5  O   UNL A   1      30.888  24.399  27.176  1.00  0.00    -0.275 OA
ATOM      6  H   UNL A   1      30.875  26.430  27.661  1.00  0.00     0.163 HD
BRANCH   4   7
ATOM      7  C   UNL A   1      30.902  24.581  24.817  1.00  0.00     0.146 C 
ATOM      8  C   UNL A   1      31.247  25.482  23.625  1.00  0.00     0.092 C 
ATOM      9  C   UNL A   1      31.319  24.505  22.428  1.00  0.00     0.271 C 
ATOM     10  N   UNL A   1      31.641  23.176  22.965  1.00  0.00    -0.327 N 
ATOM     11  C   UNL A   1      31.326  23.172  24.402  1.00  0.00     0.277 C 
ATOM     12  H   UNL A   1      31.049  22.452  22.556  1.00  0.00     0.348 HD
BRANCH   8  13
ATOM     13  C   UNL A   1      30.224  26.575  23.345  1.00  0.00    -0.035 A 
ATOM     14  C   UNL A   1      29.657  28.764  22.407  1.00  0.00     0.119 A 
ATOM     15  C   UNL A   1      28.376  28.648  22.938  1.00  0.00     0.046 A 
ATOM     16  C   UNL A   1      30.573  27.733  22.616  1.00  0.00     0.050 A 
ATOM     17  C   UNL A   1      28.004  27.503  23.645  1.00  0.00     0.004 A 
ATOM     18  C   UNL A   1      28.924  26.471  23.849  1.00  0.00     0.004 A 
BRANCH  14  19
ATOM     19  O   UNL A   1      29.920  29.933  21.747  1.00  0.00    -0.497 OA
ATOM     20  C   UNL A   1      28.785  30.644  21.264  1.00  0.00     0.278 C 
ENDBRANCH  14  19
ENDBRANCH   8  13
BRANCH  10  21
ATOM     21  C   UNL A   1      32.952  22.668  22.528  1.00  0.00     0.339 C 
BRANCH  21  22
ATOM     22  C   UNL A   1      34.051  23.043  23.465  1.00  0.00     0.164 A 
ATOM     23  N   UNL A   1      34.623  24.235  23.538  1.00  0.00    -0.236 NA
ATOM     24  N   UNL A   1      34.408  22.280  24.543  1.00  0.00    -0.333 N 
ATOM     25  C   UNL A   1      35.089  24.332  24.814  1.00  0.00     0.131 A 
ATOM     26  C   UNL A   1      34.883  23.151  25.476  1.00  0.00     0.107 A 
ATOM     27  C   UNL A   1      34.243  20.857  24.684  1.00  0.00     0.151 C 
ENDBRANCH  21  22
ENDBRANCH  10  21
ENDBRANCH   4   7
ENDBRANCH   2   3
ENDBRANCH   1   2
BRANCH   1  28
ATOM     28  C   UNL A   1      33.370  29.160  24.987  1.00  0.00     0.118 C 
BRANCH  28  29
ATOM     29  N   UNL A   1      32.825  30.362  25.629  1.00  0.00    -0.352 N 
ATOM     30  C   UNL A   1      33.179  31.081  26.755  1.00  0.00     0.251 C 
ATOM     31  H   UNL A   1      32.045  30.734  25.158  1.00  0.00     0.163 HD
ATOM     32  O   UNL A   1      32.413  31.956  27.149  1.00  0.00    -0.269 OA
BRANCH  30  33
ATOM     33  C   UNL A   1      34.429  30.829  27.522  1.00  0.00     0.039 A 
ATOM     34  C   UNL A   1      35.368  31.863  27.673  1.00  0.00     0.014 A 
ATOM     35  C   UNL A   1      34.740  29.574  28.035  1.00  0.00     0.014 A 
ATOM     36  C   UNL A   1      36.557  31.651  28.391  1.00  0.00     0.010 A 
ATOM     37  C   UNL A   1      35.850  29.399  28.858  1.00  0.00     0.010 A 
ATOM     38  C   UNL A   1      36.790  30.424  29.028  1.00  0.00    -0.014 A 
BRANCH  38  39
ATOM     39  C   UNL A   1      38.017  30.152  29.833  1.00  0.00     0.031 A 
ATOM     40  C   UNL A   1      39.093  29.248  29.282  1.00  0.00     0.074 A 
ATOM     41  C   UNL A   1      38.126  30.627  31.089  1.00  0.00     0.049 A 
ATOM     42  N   UNL A   1      40.156  28.758  29.871  1.00  0.00    -0.248 NA
ATOM     43  C   UNL A   1      38.919  28.787  27.895  1.00  0.00     0.031 C 
ATOM     44  C   UNL A   1      37.138  31.467  31.767  1.00  0.00     0.029 A 
ATOM     45  N   UNL A   1      39.114  30.459  32.028  1.00  0.00    -0.354 N 
ATOM     46  C   UNL A   1      40.740  27.900  28.946  1.00  0.00     0.074 A 
ATOM     47  C   UNL A   1      39.877  27.881  27.786  1.00  0.00     0.031 C 
ATOM     48  C   UNL A   1      37.587  31.774  32.993  1.00  0.00     0.029 A 
ATOM     49  C   UNL A   1      38.871  31.115  33.210  1.00  0.00     0.049 A 
ATOM     50  H   UNL A   1      39.922  29.917  31.869  1.00  0.00     0.167 HD
ATOM     51  C   UNL A   1      41.906  27.215  29.036  1.00  0.00     0.037 A 
ATOM     52  C   UNL A   1      39.599  31.177  34.341  1.00  0.00     0.037 A 
ATOM     53  C   UNL A   1      42.793  27.288  30.167  1.00  0.00     0.049 A 
ATOM     54  C   UNL A   1      40.899  30.424  34.419  1.00  0.00     0.074 A 
ATOM     55  C   UNL A   1      44.045  26.722  30.324  1.00  0.00     0.029 A 
ATOM     56  N   UNL A   1      42.516  27.981  31.339  1.00  0.00    -0.354 N 
ATOM     57  N   UNL A   1      41.477  29.675  33.511  1.00  0.00    -0.248 NA
ATOM     58  C   UNL A   1      41.647  30.524  35.680  1.00  0.00     0.031 C 
ATOM     59  C   UNL A   1      44.506  27.031  31.609  1.00  0.00     0.029 A 
ATOM     60  C   UNL A   1      43.561  27.830  32.236  1.00  0.00     0.049 A 
ATOM     61  H   UNL A   1      41.699  28.502  31.507  1.00  0.00     0.167 HD
ATOM     62  C   UNL A   1      42.661  29.227  34.082  1.00  0.00     0.074 A 
ATOM     63  C   UNL A   1      42.728  29.806  35.408  1.00  0.00     0.031 C 
ATOM     64  C   UNL A   1      43.605  28.408  33.556  1.00  0.00     0.037 A 
BRANCH  51  65
ATOM     65  C   UNL A   1      42.285  26.333  27.877  1.00  0.00     0.064 A 
ATOM     66  C   UNL A   1      43.207  26.746  26.901  1.00  0.00     0.173 A 
ATOM     67  C   UNL A   1      41.714  25.060  27.733  1.00  0.00     0.173 A 
ATOM     68  F   UNL A   1      43.780  27.956  26.983  1.00  0.00    -0.203 F 
ATOM     69  C   UNL A   1      43.495  25.946  25.797  1.00  0.00     0.198 A 
ATOM     70  C   UNL A   1      42.034  24.245  26.649  1.00  0.00     0.198 A 
ATOM     71  F   UNL A   1      40.835  24.605  28.640  1.00  0.00    -0.203 F 
ATOM     72  F   UNL A   1      44.315  26.399  24.840  1.00  0.00    -0.200 F 
ATOM     73  C   UNL A   1      42.912  24.695  25.675  1.00  0.00     0.200 A 
ATOM     74  F   UNL A   1      41.480  23.029  26.539  1.00  0.00    -0.200 F 
ATOM     75  F   UNL A   1      43.185  23.928  24.610  1.00  0.00    -0.200 F 
ENDBRANCH  51  65
BRANCH  52  76
ATOM     76  C   UNL A   1      39.134  32.025  35.471  1.00  0.00     0.064 A 
ATOM     77  C   UNL A   1      38.366  31.472  36.506  1.00  0.00     0.173 A 
ATOM     78  C   UNL A   1      39.472  33.383  35.564  1.00  0.00     0.173 A 
ATOM     79  F   UNL A   1      37.999  30.183  36.450  1.00  0.00    -0.203 F 
ATOM     80  C   UNL A   1      37.951  32.244  37.589  1.00  0.00     0.198 A 
ATOM     81  C   UNL A   1      39.076  34.149  36.660  1.00  0.00     0.198 A 
ATOM     82  F   UNL A   1      40.206  33.960  34.603  1.00  0.00    -0.203 F 
ATOM     83  F   UNL A   1      37.196  31.695  38.549  1.00  0.00    -0.200 F 
ATOM     84  C   UNL A   1      38.314  33.579  37.669  1.00  0.00     0.200 A 
ATOM     85  F   UNL A   1      39.442  35.436  36.742  1.00  0.00    -0.200 F 
ATOM     86  F   UNL A   1      37.929  34.318  38.719  1.00  0.00    -0.200 F 
ENDBRANCH  52  76
BRANCH  64  87
ATOM     87  C   UNL A   1      44.796  28.094  34.413  1.00  0.00     0.064 A 
ATOM     88  C   UNL A   1      44.821  26.964  35.242  1.00  0.00     0.173 A 
ATOM     89  C   UNL A   1      45.940  28.903  34.367  1.00  0.00     0.173 A 
ATOM     90  F   UNL A   1      43.746  26.167  35.332  1.00  0.00    -0.203 F 
ATOM     91  C   UNL A   1      45.944  26.666  36.010  1.00  0.00     0.198 A 
ATOM     92  C   UNL A   1      47.072  28.586  35.113  1.00  0.00     0.198 A 
ATOM     93  F   UNL A   1      45.968  29.992  33.584  1.00  0.00    -0.203 F 
ATOM     94  F   UNL A   1      45.932  25.604  36.828  1.00  0.00    -0.200 F 
ATOM     95  C   UNL A   1      47.071  27.472  35.938  1.00  0.00     0.200 A 
ATOM     96  F   UNL A   1      48.165  29.357  35.031  1.00  0.00    -0.200 F 
ATOM     97  F   UNL A   1      48.154  27.177  36.670  1.00  0.00    -0.200 F 
ENDBRANCH  64  87
ENDBRANCH  38  39
ENDBRANCH  30  33
ENDBRANCH  28  29
ENDBRANCH   1  28
TORSDOF 14
ENDMDL
MODEL 2
REMARK VINA RESULT:     -12.7      0.179      1.925
REMARK SMILES COc1cccc([C@@H]2C[N@@H+](Cc3nccn3C)C[C@H]2C(=O)NCCCNC(=O)c2ccc(-c3c4nc(c(-c5c(F)c(F)c(F)c(F)c5F)c5ccc([nH]5)c(-c5c(F)c(F)c(F)c(F)c5F)c5nc(c(-c6c(F)c(F)c(F)c(F)c6F)c6ccc3[nH]6)C=C5)C=C4)cc2)c1
REMARK SMILES IDX 24 1 23 2 22 3 20 4 21 5 19 7 8 8 9 9 10 10 18 11 7 13 3 14
REMARK SMILES IDX 4 15 92 16 5 17 6 18 2 19 1 20 11 21 12 22 13 23 16 24 14 25
REMARK SMILES IDX 15 26 17 27 25 28 26 29 27 30 28 32 29 33 30 34 91 35 31 36
REMARK SMILES IDX 90 37 32 38 33 39 34 40 84 41 35 42 89 43 83 44 85 45 36 46
REMARK SMILES IDX 88 47 82 48 81 49 37 51 69 52 49 53 68 54 50 55 53 56 67 57
REMARK SMILES IDX 86 58 51 59 52 60 66 62 87 63 54 64 38 65 39 66 47 67 40 68
REMARK SMILES IDX 41 69 45 70 48 71 42 72 43 73 46 74 44 75 70 76 71 77 79 78
REMARK SMILES IDX 72 79 73 80 77 81 80 82 74 83 75 84 78 85 76 86 55 87 56 88
REMARK SMILES IDX 64 89 57 90 58 91 62 92 65 93 59 94 60 95 63 96 61 97
REMARK H PARENT 22 6 10 12 26 31 85 50 53 61
REMARK Flexibility Score: inf
ROOT
ATOM      1  C   UNL A   1      33.120  27.857  25.862  1.00  0.00     0.042 C 
ENDROOT
BRANCH   1   2
ATOM      2  C   UNL A   1      31.714  27.764  26.483  1.00  0.00     0.117 C 
BRANCH   2   3
ATOM      3  N   UNL A   1      31.261  26.391  26.761  1.00  0.00    -0.356 N 
ATOM      4  C   UNL A   1      31.113  25.147  26.265  1.00  0.00     0.229 C 
ATOM      5  O   UNL A   1      30.990  24.342  27.214  1.00  0.00    -0.275 OA
ATOM      6  H   UNL A   1      30.934  26.375  27.689  1.00  0.00     0.163 HD
BRANCH   4   7
ATOM      7  C   UNL A   1      30.986  24.512  24.855  1.00  0.00     0.146 C 
ATOM      8  C   UNL A   1      31.345  25.401  23.658  1.00  0.00     0.092 C 
ATOM      9  C   UNL A   1      31.418  24.414  22.469  1.00  0.00     0.271 C 
ATOM     10  N   UNL A   1      31.729  23.087  23.019  1.00  0.00    -0.327 N 
ATOM     11  C   UNL A   1      31.404  23.097  24.454  1.00  0.00     0.277 C 
ATOM     12  H   UNL A   1      31.135  22.364  22.612  1.00  0.00     0.348 HD
BRANCH   8  13
ATOM     13  C   UNL A   1      30.330  26.498  23.362  1.00  0.00    -0.035 A 
ATOM     14  C   UNL A   1      29.776  28.668  22.375  1.00  0.00     0.119 A 
ATOM     15  C   UNL A   1      28.500  28.581  22.924  1.00  0.00     0.046 A 
ATOM     16  C   UNL A   1      30.683  27.633  22.600  1.00  0.00     0.050 A 
ATOM     17  C   UNL A   1      28.125  27.458  23.665  1.00  0.00     0.004 A 
ATOM     18  C   UNL A   1      29.035  26.421  23.884  1.00  0.00     0.004 A 
BRANCH  14  19
ATOM     19  O   UNL A   1      30.044  29.818  21.683  1.00  0.00    -0.497 OA
ATOM     20  C   UNL A   1      28.936  30.684  21.463  1.00  0.00     0.278 C 
ENDBRANCH  14  19
ENDBRANCH   8  13
BRANCH  10  21
ATOM     21  C   UNL A   1      33.039  22.568  22.595  1.00  0.00     0.339 C 
BRANCH  21  22
ATOM     22  C   UNL A   1      34.136  22.951  23.532  1.00  0.00     0.164 A 
ATOM     23  N   UNL A   1      34.698  24.147  23.606  1.00  0.00    -0.236 NA
ATOM     24  N   UNL A   1      34.499  22.189  24.609  1.00  0.00    -0.333 N 
ATOM     25  C   UNL A   1      35.163  24.246  24.883  1.00  0.00     0.131 A 
ATOM     26  C   UNL A   1      34.968  23.063  25.543  1.00  0.00     0.107 A 
ATOM     27  C   UNL A   1      34.345  20.765  24.749  1.00  0.00     0.151 C 
ENDBRANCH  21  22
ENDBRANCH  10  21
ENDBRANCH   4   7
ENDBRANCH   2   3
ENDBRANCH   1   2
BRANCH   1  28
ATOM     28  C   UNL A   1      33.436  29.130  25.071  1.00  0.00     0.118 C 
BRANCH  28  29
ATOM     29  N   UNL A   1      32.922  30.351  25.701  1.00  0.00    -0.352 N 
ATOM     30  C   UNL A   1      33.304  31.080  26.812  1.00  0.00     0.251 C 
ATOM     31  H   UNL A   1      32.143  30.732  25.234  1.00  0.00     0.163 HD
ATOM     32  O   UNL A   1      32.559  31.975  27.202  1.00  0.00    -0.269 OA
BRANCH  30  33
ATOM     33  C   UNL A   1      34.558  30.815  27.568  1.00  0.00     0.039 A 
ATOM     34  C   UNL A   1      35.516  31.835  27.696  1.00  0.00     0.014 A 
ATOM     35  C   UNL A   1      34.853  29.560  28.091  1.00  0.00     0.014 A 
ATOM     36  C   UNL A   1      36.709  31.611  28.403  1.00  0.00     0.010 A 
ATOM     37  C   UNL A   1      35.970  29.377  28.904  1.00  0.00     0.010 A 
ATOM     38  C   UNL A   1      36.929  30.387  29.052  1.00  0.00    -0.014 A 
BRANCH  38  39
ATOM     39  C   UNL A   1      38.161  30.104  29.845  1.00  0.00     0.031 A 
ATOM     40  C   UNL A   1      39.229  29.199  29.279  1.00  0.00     0.074 A 
ATOM     41  C   UNL A   1      38.281  30.567  31.104  1.00  0.00     0.049 A 
ATOM     42  N   UNL A   1      40.293  28.699  29.857  1.00  0.00    -0.248 NA
ATOM     43  C   UNL A   1      39.043  28.749  27.890  1.00  0.00     0.031 C 
ATOM     44  C   UNL A   1      37.301  31.406  31.795  1.00  0.00     0.029 A 
ATOM     45  N   UNL A   1      39.274  30.388  32.035  1.00  0.00    -0.354 N 
ATOM     46  C   UNL A   1      40.867  27.846  28.921  1.00  0.00     0.074 A 
ATOM     47  C   UNL A   1      39.995  27.840  27.767  1.00  0.00     0.031 C 
ATOM     48  C   UNL A   1      37.760  31.702  33.021  1.00  0.00     0.029 A 
ATOM     49  C   UNL A   1      39.043  31.036  33.223  1.00  0.00     0.049 A 
ATOM     50  H   UNL A   1      40.078  29.844  31.866  1.00  0.00     0.167 HD
ATOM     51  C   UNL A   1      42.030  27.155  28.998  1.00  0.00     0.037 A 
ATOM     52  C   UNL A   1      39.779  31.086  34.350  1.00  0.00     0.037 A 
ATOM     53  C   UNL A   1      42.925  27.216  30.123  1.00  0.00     0.049 A 
ATOM     54  C   UNL A   1      41.076  30.326  34.412  1.00  0.00     0.074 A 
ATOM     55  C   UNL A   1      44.176  26.643  30.266  1.00  0.00     0.029 A 
ATOM     56  N   UNL A   1      42.660  27.900  31.302  1.00  0.00    -0.354 N 
ATOM     57  N   UNL A   1      41.645  29.582  33.494  1.00  0.00    -0.248 NA
ATOM     58  C   UNL A   1      41.833  30.413  35.669  1.00  0.00     0.031 C 
ATOM     59  C   UNL A   1      44.647  26.939  31.551  1.00  0.00     0.029 A 
ATOM     60  C   UNL A   1      43.711  27.738  32.190  1.00  0.00     0.049 A 
ATOM     61  H   UNL A   1      41.847  28.424  31.480  1.00  0.00     0.167 HD
ATOM     62  C   UNL A   1      42.830  29.124  34.053  1.00  0.00     0.074 A 
ATOM     63  C   UNL A   1      42.909  29.693  35.384  1.00  0.00     0.031 C 
ATOM     64  C   UNL A   1      43.766  28.305  33.514  1.00  0.00     0.037 A 
BRANCH  51  65
ATOM     65  C   UNL A   1      42.397  26.281  27.829  1.00  0.00     0.064 A 
ATOM     66  C   UNL A   1      41.897  24.975  27.693  1.00  0.00     0.173 A 
ATOM     67  C   UNL A   1      43.269  26.750  26.834  1.00  0.00     0.173 A 
ATOM     68  F   UNL A   1      41.065  24.471  28.617  1.00  0.00    -0.203 F 
ATOM     69  C   UNL A   1      42.301  24.155  26.641  1.00  0.00     0.198 A 
ATOM     70  C   UNL A   1      43.640  25.940  25.762  1.00  0.00     0.198 A 
ATOM     71  F   UNL A   1      43.771  27.992  26.904  1.00  0.00    -0.203 F 
ATOM     72  F   UNL A   1      41.872  22.887  26.581  1.00  0.00    -0.200 F 
ATOM     73  C   UNL A   1      43.168  24.639  25.675  1.00  0.00     0.200 A 
ATOM     74  F   UNL A   1      44.468  26.414  24.821  1.00  0.00    -0.200 F 
ATOM     75  F   UNL A   1      43.561  23.848  24.667  1.00  0.00    -0.200 F 
ENDBRANCH  51  65
BRANCH  52  76
ATOM     76  C   UNL A   1      39.326  31.927  35.490  1.00  0.00     0.064 A 
ATOM     77  C   UNL A   1      39.728  33.267  35.588  1.00  0.00     0.173 A 
ATOM     78  C   UNL A   1      38.461  31.432  36.476  1.00  0.00     0.173 A 
ATOM     79  F   UNL A   1      40.572  33.780  34.681  1.00  0.00    -0.203 F 
ATOM     80  C   UNL A   1      39.286  34.078  36.631  1.00  0.00     0.198 A 
ATOM     81  C   UNL A   1      37.999  32.251  37.505  1.00  0.00     0.198 A 
ATOM     82  F   UNL A   1      38.044  30.159  36.426  1.00  0.00    -0.203 F 
ATOM     83  F   UNL A   1      39.708  35.347  36.714  1.00  0.00    -0.200 F 
ATOM     84  C   UNL A   1      38.414  33.572  37.583  1.00  0.00     0.200 A 
ATOM     85  F   UNL A   1      37.145  31.763  38.416  1.00  0.00    -0.200 F 
ATOM     86  F   UNL A   1      37.976  34.357  38.576  1.00  0.00    -0.200 F 
ENDBRANCH  52  76
BRANCH  64  87
ATOM     87  C   UNL A   1      44.962  27.979  34.360  1.00  0.00     0.064 A 
ATOM     88  C   UNL A   1      46.097  28.803  34.371  1.00  0.00     0.173 A 
ATOM     89  C   UNL A   1      44.954  26.858  35.204  1.00  0.00     0.173 A 
ATOM     90  F   UNL A   1      46.159  29.877  33.570  1.00  0.00    -0.203 F 
ATOM     91  C   UNL A   1      47.188  28.506  35.183  1.00  0.00     0.198 A 
ATOM     92  C   UNL A   1      46.035  26.581  36.036  1.00  0.00     0.198 A 
ATOM     93  F   UNL A   1      43.890  26.043  35.235  1.00  0.00    -0.203 F 
ATOM     94  F   UNL A   1      48.279  29.284  35.146  1.00  0.00    -0.200 F 
ATOM     95  C   UNL A   1      47.153  27.401  36.021  1.00  0.00     0.200 A 
ATOM     96  F   UNL A   1      45.993  25.522  36.856  1.00  0.00    -0.200 F 
ATOM     97  F   UNL A   1      48.200  27.123  36.810  1.00  0.00    -0.200 F 
ENDBRANCH  64  87
ENDBRANCH  38  39
ENDBRANCH  30  33
ENDBRANCH  28  29
ENDBRANCH   1  28
TORSDOF 14
ENDMDL
MODEL 3
REMARK VINA RESULT:     -12.7      0.983      7.385
REMARK SMILES COc1cccc([C@@H]2C[N@@H+](Cc3nccn3C)C[C@H]2C(=O)NCCCNC(=O)c2ccc(-c3c4nc(c(-c5c(F)c(F)c(F)c(F)c5F)c5ccc([nH]5)c(-c5c(F)c(F)c(F)c(F)c5F)c5nc(c(-c6c(F)c(F)c(F)c(F)c6F)c6ccc3[nH]6)C=C5)C=C4)cc2)c1
REMARK SMILES IDX 24 1 23 2 22 3 20 4 21 5 19 7 8 8 9 9 10 10 18 11 7 13 3 14
REMARK SMILES IDX 4 15 92 16 5 17 6 18 2 19 1 20 11 21 12 22 13 23 16 24 14 25
REMARK SMILES IDX 15 26 17 27 25 28 26 29 27 30 28 32 29 33 30 34 91 35 31 36
REMARK SMILES IDX 90 37 32 38 33 39 34 40 84 41 35 42 89 43 83 44 85 45 36 46
REMARK SMILES IDX 88 47 82 48 81 49 37 51 69 52 49 53 68 54 50 55 53 56 67 57
REMARK SMILES IDX 86 58 51 59 52 60 66 62 87 63 54 64 38 65 39 66 47 67 40 68
REMARK SMILES IDX 41 69 45 70 48 71 42 72 43 73 46 74 44 75 70 76 71 77 79 78
REMARK SMILES IDX 72 79 73 80 77 81 80 82 74 83 75 84 78 85 76 86 55 87 56 88
REMARK SMILES IDX 64 89 57 90 58 91 62 92 65 93 59 94 60 95 63 96 61 97
REMARK H PARENT 22 6 10 12 26 31 85 50 53 61
REMARK Flexibility Score: inf
ROOT
ATOM      1  C   UNL A   1      31.626  29.122  26.982  1.00  0.00     0.042 C 
ENDROOT
BRANCH   1   2
ATOM      2  C   UNL A   1      31.849  27.610  27.163  1.00  0.00     0.117 C 
BRANCH   2   3
ATOM      3  N   UNL A   1      30.702  26.774  26.771  1.00  0.00    -0.356 N 
ATOM      4  C   UNL A   1      30.170  26.000  25.806  1.00  0.00     0.229 C 
ATOM      5  O   UNL A   1      29.286  25.272  26.308  1.00  0.00    -0.275 OA
ATOM      6  H   UNL A   1      30.066  26.783  27.521  1.00  0.00     0.163 HD
BRANCH   4   7
ATOM      7  C   UNL A   1      30.331  25.857  24.269  1.00  0.00     0.146 C 
ATOM      8  C   UNL A   1      30.772  27.108  23.497  1.00  0.00     0.092 C 
ATOM      9  C   UNL A   1      31.134  26.571  22.093  1.00  0.00     0.271 C 
ATOM     10  N   UNL A   1      31.498  25.156  22.244  1.00  0.00    -0.327 N 
ATOM     11  C   UNL A   1      30.956  24.677  23.525  1.00  0.00     0.277 C 
ATOM     12  H   UNL A   1      31.055  24.576  21.530  1.00  0.00     0.348 HD
BRANCH   8  13
ATOM     13  C   UNL A   1      29.702  28.186  23.383  1.00  0.00    -0.035 A 
ATOM     14  C   UNL A   1      29.037  30.539  23.503  1.00  0.00     0.119 A 
ATOM     15  C   UNL A   1      27.712  30.164  23.301  1.00  0.00     0.046 A 
ATOM     16  C   UNL A   1      30.022  29.552  23.549  1.00  0.00     0.050 A 
ATOM     17  C   UNL A   1      27.378  28.821  23.116  1.00  0.00     0.004 A 
ATOM     18  C   UNL A   1      28.367  27.836  23.158  1.00  0.00     0.004 A 
BRANCH  14  19
ATOM     19  O   UNL A   1      29.251  31.877  23.690  1.00  0.00    -0.497 OA
ATOM     20  C   UNL A   1      28.679  32.741  22.714  1.00  0.00     0.278 C 
ENDBRANCH  14  19
ENDBRANCH   8  13
BRANCH  10  21
ATOM     21  C   UNL A   1      32.906  24.874  21.923  1.00  0.00     0.339 C 
BRANCH  21  22
ATOM     22  C   UNL A   1      33.610  24.151  23.022  1.00  0.00     0.164 A 
ATOM     23  N   UNL A   1      33.869  22.853  23.044  1.00  0.00    -0.236 NA
ATOM     24  N   UNL A   1      34.310  24.790  24.009  1.00  0.00    -0.333 N 
ATOM     25  C   UNL A   1      34.967  22.719  23.839  1.00  0.00     0.131 A 
ATOM     26  C   UNL A   1      35.302  23.932  24.378  1.00  0.00     0.107 A 
ATOM     27  C   UNL A   1      34.085  26.124  24.500  1.00  0.00     0.151 C 
ENDBRANCH  21  22
ENDBRANCH  10  21
ENDBRANCH   4   7
ENDBRANCH   2   3
ENDBRANCH   1   2
BRANCH   1  28
ATOM     28  C   UNL A   1      32.697  29.883  26.191  1.00  0.00     0.118 C 
BRANCH  28  29
ATOM     29  N   UNL A   1      32.745  31.315  26.505  1.00  0.00    -0.352 N 
ATOM     30  C   UNL A   1      33.541  32.078  27.339  1.00  0.00     0.251 C 
ATOM     31  H   UNL A   1      32.070  31.843  26.020  1.00  0.00     0.163 HD
ATOM     32  O   UNL A   1      33.223  33.249  27.531  1.00  0.00    -0.269 OA
BRANCH  30  33
ATOM     33  C   UNL A   1      34.746  31.543  28.030  1.00  0.00     0.039 A 
ATOM     34  C   UNL A   1      35.862  32.375  28.216  1.00  0.00     0.014 A 
ATOM     35  C   UNL A   1      34.835  30.215  28.433  1.00  0.00     0.014 A 
ATOM     36  C   UNL A   1      37.012  31.894  28.863  1.00  0.00     0.010 A 
ATOM     37  C   UNL A   1      35.918  29.776  29.191  1.00  0.00     0.010 A 
ATOM     38  C   UNL A   1      37.035  30.597  29.396  1.00  0.00    -0.014 A 
BRANCH  38  39
ATOM     39  C   UNL A   1      38.215  30.043  30.123  1.00  0.00     0.031 A 
ATOM     40  C   UNL A   1      38.490  30.467  31.546  1.00  0.00     0.074 A 
ATOM     41  C   UNL A   1      39.094  29.245  29.485  1.00  0.00     0.049 A 
ATOM     42  N   UNL A   1      39.535  30.233  32.301  1.00  0.00    -0.248 NA
ATOM     43  C   UNL A   1      37.476  31.320  32.187  1.00  0.00     0.031 C 
ATOM     44  C   UNL A   1      38.981  28.800  28.096  1.00  0.00     0.029 A 
ATOM     45  N   UNL A   1      40.266  28.676  29.919  1.00  0.00    -0.354 N 
ATOM     46  C   UNL A   1      39.322  30.946  33.475  1.00  0.00     0.074 A 
ATOM     47  C   UNL A   1      38.086  31.677  33.304  1.00  0.00     0.031 C 
ATOM     48  C   UNL A   1      40.015  27.996  27.805  1.00  0.00     0.029 A 
ATOM     49  C   UNL A   1      40.891  27.906  28.969  1.00  0.00     0.049 A 
ATOM     50  H   UNL A   1      40.625  28.808  30.826  1.00  0.00     0.167 HD
ATOM     51  C   UNL A   1      40.066  30.966  34.607  1.00  0.00     0.037 A 
ATOM     52  C   UNL A   1      42.041  27.208  29.027  1.00  0.00     0.037 A 
ATOM     53  C   UNL A   1      41.261  30.186  34.794  1.00  0.00     0.049 A 
ATOM     54  C   UNL A   1      42.847  27.228  30.297  1.00  0.00     0.074 A 
ATOM     55  C   UNL A   1      42.035  30.048  35.932  1.00  0.00     0.029 A 
ATOM     56  N   UNL A   1      41.851  29.404  33.811  1.00  0.00    -0.354 N 
ATOM     57  N   UNL A   1      42.598  27.847  31.426  1.00  0.00    -0.248 NA
ATOM     58  C   UNL A   1      44.096  26.453  30.300  1.00  0.00     0.031 C 
ATOM     59  C   UNL A   1      43.122  29.222  35.623  1.00  0.00     0.029 A 
ATOM     60  C   UNL A   1      42.998  28.805  34.306  1.00  0.00     0.049 A 
ATOM     61  H   UNL A   1      41.505  29.291  32.897  1.00  0.00     0.167 HD
ATOM     62  C   UNL A   1      43.646  27.527  32.277  1.00  0.00     0.074 A 
ATOM     63  C   UNL A   1      44.524  26.640  31.541  1.00  0.00     0.031 C 
ATOM     64  C   UNL A   1      43.863  27.932  33.553  1.00  0.00     0.037 A 
BRANCH  51  65
ATOM     65  C   UNL A   1      39.603  31.858  35.727  1.00  0.00     0.064 A 
ATOM     66  C   UNL A   1      38.612  31.454  36.637  1.00  0.00     0.173 A 
ATOM     67  C   UNL A   1      40.150  33.140  35.891  1.00  0.00     0.173 A 
ATOM     68  F   UNL A   1      38.048  30.241  36.525  1.00  0.00    -0.203 F 
ATOM     69  C   UNL A   1      38.145  32.317  37.626  1.00  0.00     0.198 A 
ATOM     70  C   UNL A   1      39.709  33.987  36.906  1.00  0.00     0.198 A 
ATOM     71  F   UNL A   1      41.108  33.578  35.060  1.00  0.00    -0.203 F 
ATOM     72  F   UNL A   1      37.142  31.935  38.426  1.00  0.00    -0.200 F 
ATOM     73  C   UNL A   1      38.697  33.581  37.762  1.00  0.00     0.200 A 
ATOM     74  F   UNL A   1      40.254  35.204  37.046  1.00  0.00    -0.200 F 
ATOM     75  F   UNL A   1      38.243  34.413  38.709  1.00  0.00    -0.200 F 
ENDBRANCH  51  65
BRANCH  52  76
ATOM     76  C   UNL A   1      42.468  26.392  27.859  1.00  0.00     0.064 A 
ATOM     77  C   UNL A   1      41.951  25.103  27.665  1.00  0.00     0.173 A 
ATOM     78  C   UNL A   1      43.362  26.887  26.899  1.00  0.00     0.173 A 
ATOM     79  F   UNL A   1      41.108  24.578  28.568  1.00  0.00    -0.203 F 
ATOM     80  C   UNL A   1      42.314  24.338  26.559  1.00  0.00     0.198 A 
ATOM     81  C   UNL A   1      43.707  26.130  25.780  1.00  0.00     0.198 A 
ATOM     82  F   UNL A   1      43.883  28.114  27.036  1.00  0.00    -0.203 F 
ATOM     83  F   UNL A   1      41.824  23.100  26.414  1.00  0.00    -0.200 F 
ATOM     84  C   UNL A   1      43.184  24.856  25.612  1.00  0.00     0.200 A 
ATOM     85  F   UNL A   1      44.537  26.640  24.859  1.00  0.00    -0.200 F 
ATOM     86  F   UNL A   1      43.521  24.127  24.540  1.00  0.00    -0.200 F 
ENDBRANCH  52  76
BRANCH  64  87
ATOM     87  C   UNL A   1      45.095  27.416  34.238  1.00  0.00     0.064 A 
ATOM     88  C   UNL A   1      46.301  28.131  34.209  1.00  0.00     0.173 A 
ATOM     89  C   UNL A   1      45.056  26.220  34.969  1.00  0.00     0.173 A 
ATOM     90  F   UNL A   1      46.393  29.273  33.511  1.00  0.00    -0.203 F 
ATOM     91  C   UNL A   1      47.429  27.657  34.874  1.00  0.00     0.198 A 
ATOM     92  C   UNL A   1      46.177  25.764  35.656  1.00  0.00     0.198 A 
ATOM     93  F   UNL A   1      43.924  25.502  35.032  1.00  0.00    -0.203 F 
ATOM     94  F   UNL A   1      48.582  28.336  34.799  1.00  0.00    -0.200 F 
ATOM     95  C   UNL A   1      47.364  26.479  35.603  1.00  0.00     0.200 A 
ATOM     96  F   UNL A   1      46.108  24.634  36.373  1.00  0.00    -0.200 F 
ATOM     97  F   UNL A   1      48.447  26.031  36.251  1.00  0.00    -0.200 F 
ENDBRANCH  64  87
ENDBRANCH  38  39
ENDBRANCH  30  33
ENDBRANCH  28  29
ENDBRANCH   1  28
TORSDOF 14
ENDMDL
