MODEL 1
REMARK VINA RESULT:     -12.1      0.000      0.000
REMARK SMILES C[C@@H]1[C@@H](C(=O)NCCCNC(=O)c2ccc(-c3c4nc(c(-c5c(F)c(F)c(F)c(F)c5F)c5ccc([nH]5)c(-c5c(F)c(F)c(F)c(F)c5F)c5nc(c(-c6c(F)c(F)c(F)c(F)c6F)c6ccc3[nH]6)C=C5)C=C4)cc2)CCN1C(=O)N(C)Cc1ccsc1
REMARK SMILES IDX 7 1 6 2 4 3 5 4 3 6 1 7 2 8 78 9 76 10 77 11 79 12 80 13
REMARK SMILES IDX 81 14 82 15 83 16 84 17 85 18 88 19 86 20 87 21 8 22 9 23
REMARK SMILES IDX 10 24 11 25 12 27 13 28 14 29 75 30 15 31 74 32 16 33 17 34
REMARK SMILES IDX 18 35 68 36 19 37 73 38 67 39 69 40 20 41 72 42 66 43 65 44
REMARK SMILES IDX 21 46 53 47 33 48 52 49 34 50 37 51 51 52 70 53 35 54 36 55
REMARK SMILES IDX 50 57 71 58 38 59 22 60 23 61 31 62 24 63 25 64 29 65 32 66
REMARK SMILES IDX 26 67 27 68 30 69 28 70 54 71 55 72 63 73 56 74 57 75 61 76
REMARK SMILES IDX 64 77 58 78 59 79 62 80 60 81 39 82 40 83 48 84 41 85 42 86
REMARK SMILES IDX 46 87 49 88 43 89 44 90 47 91 45 92
REMARK H PARENT 6 5 10 26 69 45 37 56
REMARK Flexibility Score: inf
ROOT
ATOM      1  C   UNL A   1      31.874  30.692  26.182  1.00  0.00     0.117 C 
ENDROOT
BRANCH   1   2
ATOM      2  N   UNL A   1      31.734  29.595  27.118  1.00  0.00    -0.356 N 
ATOM      3  C   UNL A   1      31.512  28.273  26.895  1.00  0.00     0.225 C 
ATOM      4  O   UNL A   1      31.355  27.565  27.890  1.00  0.00    -0.275 OA
ATOM      5  H   UNL A   1      31.812  29.847  28.067  1.00  0.00     0.163 HD
BRANCH   3   6
ATOM      6  C   UNL A   1      31.380  27.748  25.468  1.00  0.00     0.102 C 
ATOM      7  C   UNL A   1      29.926  26.164  24.134  1.00  0.00     0.032 C 
ATOM      8  C   UNL A   1      30.651  26.380  25.468  1.00  0.00     0.096 C 
ATOM      9  N   UNL A   1      31.735  25.406  25.670  1.00  0.00    -0.321 N 
ATOM     10  C   UNL A   1      32.711  27.386  24.810  1.00  0.00     0.037 C 
ATOM     11  C   UNL A   1      33.021  26.033  25.404  1.00  0.00     0.122 C 
BRANCH   9  12
ATOM     12  C   UNL A   1      31.799  24.141  26.186  1.00  0.00     0.320 C 
ATOM     13  O   UNL A   1      31.624  24.009  27.407  1.00  0.00    -0.248 OA
BRANCH  12  14
ATOM     14  N   UNL A   1      32.118  23.036  25.436  1.00  0.00    -0.323 N 
ATOM     15  C   UNL A   1      31.561  22.523  24.196  1.00  0.00     0.149 C 
BRANCH  14  16
ATOM     16  C   UNL A   1      33.199  22.212  25.981  1.00  0.00     0.157 C 
BRANCH  16  17
ATOM     17  C   UNL A   1      34.555  22.624  25.450  1.00  0.00    -0.018 A 
ATOM     18  C   UNL A   1      35.509  23.356  26.238  1.00  0.00     0.017 A 
ATOM     19  C   UNL A   1      35.054  22.418  24.174  1.00  0.00     0.070 A 
ATOM     20  C   UNL A   1      36.650  23.679  25.539  1.00  0.00     0.065 A 
ATOM     21  S   UNL A   1      36.605  23.097  23.935  1.00  0.00    -0.152 S 
ENDBRANCH  16  17
ENDBRANCH  14  16
ENDBRANCH  12  14
ENDBRANCH   9  12
ENDBRANCH   3   6
ENDBRANCH   1   2
BRANCH   1  22
ATOM     22  C   UNL A   1      31.540  32.034  26.803  1.00  0.00     0.042 C 
BRANCH  22  23
ATOM     23  C   UNL A   1      32.745  32.814  27.301  1.00  0.00     0.118 C 
BRANCH  23  24
ATOM     24  N   UNL A   1      32.439  34.195  27.650  1.00  0.00    -0.352 N 
ATOM     25  C   UNL A   1      32.987  35.012  28.613  1.00  0.00     0.251 C 
ATOM     26  H   UNL A   1      31.727  34.609  27.112  1.00  0.00     0.163 HD
ATOM     27  O   UNL A   1      32.484  36.101  28.850  1.00  0.00    -0.269 OA
BRANCH  25  28
ATOM     28  C   UNL A   1      34.159  34.555  29.391  1.00  0.00     0.039 A 
ATOM     29  C   UNL A   1      33.958  34.010  30.661  1.00  0.00     0.014 A 
ATOM     30  C   UNL A   1      35.449  34.642  28.868  1.00  0.00     0.014 A 
ATOM     31  C   UNL A   1      35.039  33.468  31.361  1.00  0.00     0.010 A 
ATOM     32  C   UNL A   1      36.499  33.996  29.507  1.00  0.00     0.010 A 
ATOM     33  C   UNL A   1      36.310  33.408  30.765  1.00  0.00    -0.014 A 
BRANCH  33  34
ATOM     34  C   UNL A   1      37.457  32.749  31.440  1.00  0.00     0.031 A 
ATOM     35  C   UNL A   1      38.160  31.597  30.776  1.00  0.00     0.074 A 
ATOM     36  C   UNL A   1      37.818  33.135  32.680  1.00  0.00     0.049 A 
ATOM     37  N   UNL A   1      39.116  30.830  31.237  1.00  0.00    -0.248 NA
ATOM     38  C   UNL A   1      37.704  31.234  29.424  1.00  0.00     0.031 C 
ATOM     39  C   UNL A   1      37.181  34.201  33.456  1.00  0.00     0.029 A 
ATOM     40  N   UNL A   1      38.804  32.665  33.513  1.00  0.00    -0.354 N 
ATOM     41  C   UNL A   1      39.356  29.888  30.245  1.00  0.00     0.074 A 
ATOM     42  C   UNL A   1      38.403  30.136  29.185  1.00  0.00     0.031 C 
ATOM     43  C   UNL A   1      37.811  34.327  34.635  1.00  0.00     0.029 A 
ATOM     44  C   UNL A   1      38.867  33.322  34.719  1.00  0.00     0.049 A 
ATOM     45  H   UNL A   1      39.408  31.929  33.270  1.00  0.00     0.167 HD
ATOM     46  C   UNL A   1      40.305  28.923  30.205  1.00  0.00     0.037 A 
ATOM     47  C   UNL A   1      39.680  33.129  35.775  1.00  0.00     0.037 A 
ATOM     48  C   UNL A   1      41.273  28.702  31.246  1.00  0.00     0.049 A 
ATOM     49  C   UNL A   1      40.725  32.048  35.707  1.00  0.00     0.074 A 
ATOM     50  C   UNL A   1      42.314  27.792  31.276  1.00  0.00     0.029 A 
ATOM     51  N   UNL A   1      41.318  29.403  32.442  1.00  0.00    -0.354 N 
ATOM     52  N   UNL A   1      40.985  31.209  34.736  1.00  0.00    -0.248 NA
ATOM     53  C   UNL A   1      41.592  31.893  36.883  1.00  0.00     0.031 C 
ATOM     54  C   UNL A   1      42.962  27.908  32.510  1.00  0.00     0.029 A 
ATOM     55  C   UNL A   1      42.357  28.930  33.227  1.00  0.00     0.049 A 
ATOM     56  H   UNL A   1      40.703  30.128  32.697  1.00  0.00     0.167 HD
ATOM     57  C   UNL A   1      42.064  30.449  35.167  1.00  0.00     0.074 A 
ATOM     58  C   UNL A   1      42.418  30.937  36.483  1.00  0.00     0.031 C 
ATOM     59  C   UNL A   1      42.704  29.436  34.531  1.00  0.00     0.037 A 
BRANCH  46  60
ATOM     60  C   UNL A   1      40.347  28.040  28.991  1.00  0.00     0.064 A 
ATOM     61  C   UNL A   1      41.114  28.374  27.864  1.00  0.00     0.173 A 
ATOM     62  C   UNL A   1      39.637  26.830  28.964  1.00  0.00     0.173 A 
ATOM     63  F   UNL A   1      41.801  29.526  27.833  1.00  0.00    -0.203 F 
ATOM     64  C   UNL A   1      41.142  27.547  26.744  1.00  0.00     0.198 A 
ATOM     65  C   UNL A   1      39.695  25.989  27.856  1.00  0.00     0.198 A 
ATOM     66  F   UNL A   1      38.891  26.459  30.016  1.00  0.00    -0.203 F 
ATOM     67  F   UNL A   1      41.837  27.915  25.660  1.00  0.00    -0.200 F 
ATOM     68  C   UNL A   1      40.439  26.352  26.744  1.00  0.00     0.200 A 
ATOM     69  F   UNL A   1      39.025  24.828  27.863  1.00  0.00    -0.200 F 
ATOM     70  F   UNL A   1      40.474  25.553  25.669  1.00  0.00    -0.200 F 
ENDBRANCH  46  60
BRANCH  47  71
ATOM     71  C   UNL A   1      39.559  33.997  36.977  1.00  0.00     0.064 A 
ATOM     72  C   UNL A   1      38.790  33.595  38.078  1.00  0.00     0.173 A 
ATOM     73  C   UNL A   1      40.196  35.243  37.048  1.00  0.00     0.173 A 
ATOM     74  F   UNL A   1      38.145  32.419  38.050  1.00  0.00    -0.203 F 
ATOM     75  C   UNL A   1      38.645  34.415  39.195  1.00  0.00     0.198 A 
ATOM     76  C   UNL A   1      40.075  36.051  38.177  1.00  0.00     0.198 A 
ATOM     77  F   UNL A   1      40.949  35.673  36.024  1.00  0.00    -0.203 F 
ATOM     78  F   UNL A   1      37.865  34.027  40.212  1.00  0.00    -0.200 F 
ATOM     79  C   UNL A   1      39.292  35.641  39.246  1.00  0.00     0.200 A 
ATOM     80  F   UNL A   1      40.715  37.227  38.229  1.00  0.00    -0.200 F 
ATOM     81  F   UNL A   1      39.155  36.429  40.320  1.00  0.00    -0.200 F 
ENDBRANCH  47  71
BRANCH  59  82
ATOM     82  C   UNL A   1      43.880  28.816  35.229  1.00  0.00     0.064 A 
ATOM     83  C   UNL A   1      45.186  29.288  35.032  1.00  0.00     0.173 A 
ATOM     84  C   UNL A   1      43.690  27.764  36.137  1.00  0.00     0.173 A 
ATOM     85  F   UNL A   1      45.422  30.282  34.163  1.00  0.00    -0.203 F 
ATOM     86  C   UNL A   1      46.262  28.710  35.701  1.00  0.00     0.198 A 
ATOM     87  C   UNL A   1      44.763  27.211  36.829  1.00  0.00     0.198 A 
ATOM     88  F   UNL A   1      42.459  27.282  36.366  1.00  0.00    -0.203 F 
ATOM     89  F   UNL A   1      47.508  29.143  35.461  1.00  0.00    -0.200 F 
ATOM     90  C   UNL A   1      46.049  27.679  36.604  1.00  0.00     0.200 A 
ATOM     91  F   UNL A   1      44.553  26.226  37.712  1.00  0.00    -0.200 F 
ATOM     92  F   UNL A   1      47.085  27.130  37.254  1.00  0.00    -0.200 F 
ENDBRANCH  59  82
ENDBRANCH  33  34
ENDBRANCH  25  28
ENDBRANCH  23  24
ENDBRANCH  22  23
ENDBRANCH   1  22
TORSDOF 14
ENDMDL
MODEL 2
REMARK VINA RESULT:     -12.1      0.422      1.684
REMARK SMILES C[C@@H]1[C@@H](C(=O)NCCCNC(=O)c2ccc(-c3c4nc(c(-c5c(F)c(F)c(F)c(F)c5F)c5ccc([nH]5)c(-c5c(F)c(F)c(F)c(F)c5F)c5nc(c(-c6c(F)c(F)c(F)c(F)c6F)c6ccc3[nH]6)C=C5)C=C4)cc2)CCN1C(=O)N(C)Cc1ccsc1
REMARK SMILES IDX 7 1 6 2 4 3 5 4 3 6 1 7 2 8 78 9 76 10 77 11 79 12 80 13
REMARK SMILES IDX 81 14 82 15 83 16 84 17 85 18 88 19 86 20 87 21 8 22 9 23
REMARK SMILES IDX 10 24 11 25 12 27 13 28 14 29 75 30 15 31 74 32 16 33 17 34
REMARK SMILES IDX 18 35 68 36 19 37 73 38 67 39 69 40 20 41 72 42 66 43 65 44
REMARK SMILES IDX 21 46 53 47 33 48 52 49 34 50 37 51 51 52 70 53 35 54 36 55
REMARK SMILES IDX 50 57 71 58 38 59 22 60 23 61 31 62 24 63 25 64 29 65 32 66
REMARK SMILES IDX 26 67 27 68 30 69 28 70 54 71 55 72 63 73 56 74 57 75 61 76
REMARK SMILES IDX 64 77 58 78 59 79 62 80 60 81 39 82 40 83 48 84 41 85 42 86
REMARK SMILES IDX 46 87 49 88 43 89 44 90 47 91 45 92
REMARK H PARENT 6 5 10 26 69 45 37 56
REMARK Flexibility Score: inf
ROOT
ATOM      1  C   UNL A   1      31.860  30.631  26.149  1.00  0.00     0.117 C 
ENDROOT
BRANCH   1   2
ATOM      2  N   UNL A   1      31.764  29.573  27.134  1.00  0.00    -0.356 N 
ATOM      3  C   UNL A   1      31.560  28.239  26.973  1.00  0.00     0.225 C 
ATOM      4  O   UNL A   1      31.442  27.571  28.001  1.00  0.00    -0.275 OA
ATOM      5  H   UNL A   1      31.861  29.867  28.069  1.00  0.00     0.163 HD
BRANCH   3   6
ATOM      6  C   UNL A   1      31.403  27.651  25.573  1.00  0.00     0.102 C 
ATOM      7  C   UNL A   1      29.948  25.983  24.346  1.00  0.00     0.032 C 
ATOM      8  C   UNL A   1      30.703  26.270  25.650  1.00  0.00     0.096 C 
ATOM      9  N   UNL A   1      31.812  25.327  25.864  1.00  0.00    -0.321 N 
ATOM     10  C   UNL A   1      32.724  27.287  24.895  1.00  0.00     0.037 C 
ATOM     11  C   UNL A   1      33.077  25.968  25.538  1.00  0.00     0.122 C 
BRANCH   9  12
ATOM     12  C   UNL A   1      31.915  24.087  26.431  1.00  0.00     0.320 C 
ATOM     13  O   UNL A   1      31.404  23.922  27.549  1.00  0.00    -0.248 OA
BRANCH  12  14
ATOM     14  N   UNL A   1      32.614  23.053  25.859  1.00  0.00    -0.323 N 
ATOM     15  C   UNL A   1      32.559  22.476  24.527  1.00  0.00     0.149 C 
BRANCH  14  16
ATOM     16  C   UNL A   1      33.578  22.396  26.745  1.00  0.00     0.157 C 
BRANCH  16  17
ATOM     17  C   UNL A   1      34.959  22.323  26.133  1.00  0.00    -0.018 A 
ATOM     18  C   UNL A   1      35.484  21.124  25.536  1.00  0.00     0.017 A 
ATOM     19  C   UNL A   1      35.913  23.327  26.091  1.00  0.00     0.070 A 
ATOM     20  C   UNL A   1      36.781  21.264  25.097  1.00  0.00     0.065 A 
ATOM     21  S   UNL A   1      37.385  22.836  25.377  1.00  0.00    -0.152 S 
ENDBRANCH  16  17
ENDBRANCH  14  16
ENDBRANCH  12  14
ENDBRANCH   9  12
ENDBRANCH   3   6
ENDBRANCH   1   2
BRANCH   1  22
ATOM     22  C   UNL A   1      31.534  31.995  26.725  1.00  0.00     0.042 C 
BRANCH  22  23
ATOM     23  C   UNL A   1      32.729  32.735  27.303  1.00  0.00     0.118 C 
BRANCH  23  24
ATOM     24  N   UNL A   1      32.449  34.127  27.626  1.00  0.00    -0.352 N 
ATOM     25  C   UNL A   1      33.010  34.952  28.574  1.00  0.00     0.251 C 
ATOM     26  H   UNL A   1      31.745  34.545  27.079  1.00  0.00     0.163 HD
ATOM     27  O   UNL A   1      32.528  36.055  28.791  1.00  0.00    -0.269 OA
BRANCH  25  28
ATOM     28  C   UNL A   1      34.173  34.488  29.363  1.00  0.00     0.039 A 
ATOM     29  C   UNL A   1      33.956  33.933  30.626  1.00  0.00     0.014 A 
ATOM     30  C   UNL A   1      35.469  34.579  28.855  1.00  0.00     0.014 A 
ATOM     31  C   UNL A   1      35.029  33.384  31.334  1.00  0.00     0.010 A 
ATOM     32  C   UNL A   1      36.511  33.926  29.502  1.00  0.00     0.010 A 
ATOM     33  C   UNL A   1      36.306  33.328  30.752  1.00  0.00    -0.014 A 
BRANCH  33  34
ATOM     34  C   UNL A   1      37.446  32.663  31.436  1.00  0.00     0.031 A 
ATOM     35  C   UNL A   1      38.150  31.510  30.774  1.00  0.00     0.074 A 
ATOM     36  C   UNL A   1      37.796  33.044  32.680  1.00  0.00     0.049 A 
ATOM     37  N   UNL A   1      39.098  30.738  31.241  1.00  0.00    -0.248 NA
ATOM     38  C   UNL A   1      37.704  31.152  29.417  1.00  0.00     0.031 C 
ATOM     39  C   UNL A   1      37.158  34.111  33.453  1.00  0.00     0.029 A 
ATOM     40  N   UNL A   1      38.773  32.568  33.520  1.00  0.00    -0.354 N 
ATOM     41  C   UNL A   1      39.343  29.798  30.249  1.00  0.00     0.074 A 
ATOM     42  C   UNL A   1      38.401  30.052  29.182  1.00  0.00     0.031 C 
ATOM     43  C   UNL A   1      37.778  34.231  34.638  1.00  0.00     0.029 A 
ATOM     44  C   UNL A   1      38.829  33.221  34.728  1.00  0.00     0.049 A 
ATOM     45  H   UNL A   1      39.377  31.830  33.280  1.00  0.00     0.167 HD
ATOM     46  C   UNL A   1      40.288  28.829  30.215  1.00  0.00     0.037 A 
ATOM     47  C   UNL A   1      39.632  33.022  35.791  1.00  0.00     0.037 A 
ATOM     48  C   UNL A   1      41.247  28.601  31.263  1.00  0.00     0.049 A 
ATOM     49  C   UNL A   1      40.673  31.937  35.729  1.00  0.00     0.074 A 
ATOM     50  C   UNL A   1      42.284  27.687  31.299  1.00  0.00     0.029 A 
ATOM     51  N   UNL A   1      41.284  29.298  32.462  1.00  0.00    -0.354 N 
ATOM     52  N   UNL A   1      40.939  31.099  34.757  1.00  0.00    -0.248 NA
ATOM     53  C   UNL A   1      41.530  31.775  36.911  1.00  0.00     0.031 C 
ATOM     54  C   UNL A   1      42.921  27.798  32.540  1.00  0.00     0.029 A 
ATOM     55  C   UNL A   1      42.315  28.819  33.254  1.00  0.00     0.049 A 
ATOM     56  H   UNL A   1      40.669  30.026  32.713  1.00  0.00     0.167 HD
ATOM     57  C   UNL A   1      42.011  30.334  35.196  1.00  0.00     0.074 A 
ATOM     58  C   UNL A   1      42.355  30.817  36.516  1.00  0.00     0.031 C 
ATOM     59  C   UNL A   1      42.652  29.321  34.563  1.00  0.00     0.037 A 
BRANCH  46  60
ATOM     60  C   UNL A   1      40.338  27.949  28.999  1.00  0.00     0.064 A 
ATOM     61  C   UNL A   1      39.622  26.744  28.933  1.00  0.00     0.173 A 
ATOM     62  C   UNL A   1      41.084  28.329  27.873  1.00  0.00     0.173 A 
ATOM     63  F   UNL A   1      38.903  26.327  29.987  1.00  0.00    -0.203 F 
ATOM     64  C   UNL A   1      39.679  25.935  27.800  1.00  0.00     0.198 A 
ATOM     65  C   UNL A   1      41.111  27.536  26.728  1.00  0.00     0.198 A 
ATOM     66  F   UNL A   1      41.783  29.474  27.879  1.00  0.00    -0.203 F 
ATOM     67  F   UNL A   1      39.032  24.763  27.783  1.00  0.00    -0.200 F 
ATOM     68  C   UNL A   1      40.416  26.336  26.696  1.00  0.00     0.200 A 
ATOM     69  F   UNL A   1      41.813  27.931  25.658  1.00  0.00    -0.200 F 
ATOM     70  F   UNL A   1      40.463  25.562  25.604  1.00  0.00    -0.200 F 
ENDBRANCH  46  60
BRANCH  47  71
ATOM     71  C   UNL A   1      39.504  33.888  36.993  1.00  0.00     0.064 A 
ATOM     72  C   UNL A   1      38.732  33.481  38.092  1.00  0.00     0.173 A 
ATOM     73  C   UNL A   1      40.137  35.136  37.069  1.00  0.00     0.173 A 
ATOM     74  F   UNL A   1      38.091  32.303  38.059  1.00  0.00    -0.203 F 
ATOM     75  C   UNL A   1      38.581  34.299  39.209  1.00  0.00     0.198 A 
ATOM     76  C   UNL A   1      40.010  35.941  38.199  1.00  0.00     0.198 A 
ATOM     77  F   UNL A   1      40.892  35.570  36.049  1.00  0.00    -0.203 F 
ATOM     78  F   UNL A   1      37.798  33.906  40.222  1.00  0.00    -0.200 F 
ATOM     79  C   UNL A   1      39.224  35.526  39.265  1.00  0.00     0.200 A 
ATOM     80  F   UNL A   1      40.645  37.119  38.256  1.00  0.00    -0.200 F 
ATOM     81  F   UNL A   1      39.080  36.311  40.340  1.00  0.00    -0.200 F 
ENDBRANCH  47  71
BRANCH  59  82
ATOM     82  C   UNL A   1      43.819  28.695  35.269  1.00  0.00     0.064 A 
ATOM     83  C   UNL A   1      43.663  27.581  36.108  1.00  0.00     0.173 A 
ATOM     84  C   UNL A   1      45.117  29.191  35.069  1.00  0.00     0.173 A 
ATOM     85  F   UNL A   1      42.441  27.080  36.343  1.00  0.00    -0.203 F 
ATOM     86  C   UNL A   1      44.760  27.004  36.741  1.00  0.00     0.198 A 
ATOM     87  C   UNL A   1      46.215  28.591  35.678  1.00  0.00     0.198 A 
ATOM     88  F   UNL A   1      45.321  30.249  34.270  1.00  0.00    -0.203 F 
ATOM     89  F   UNL A   1      44.582  25.972  37.578  1.00  0.00    -0.200 F 
ATOM     90  C   UNL A   1      46.035  27.504  36.520  1.00  0.00     0.200 A 
ATOM     91  F   UNL A   1      47.447  29.065  35.450  1.00  0.00    -0.200 F 
ATOM     92  F   UNL A   1      47.091  26.941  37.123  1.00  0.00    -0.200 F 
ENDBRANCH  59  82
ENDBRANCH  33  34
ENDBRANCH  25  28
ENDBRANCH  23  24
ENDBRANCH  22  23
ENDBRANCH   1  22
TORSDOF 14
ENDMDL
MODEL 3
REMARK VINA RESULT:     -12.0      5.783     11.336
REMARK SMILES C[C@@H]1[C@@H](C(=O)NCCCNC(=O)c2ccc(-c3c4nc(c(-c5c(F)c(F)c(F)c(F)c5F)c5ccc([nH]5)c(-c5c(F)c(F)c(F)c(F)c5F)c5nc(c(-c6c(F)c(F)c(F)c(F)c6F)c6ccc3[nH]6)C=C5)C=C4)cc2)CCN1C(=O)N(C)Cc1ccsc1
REMARK SMILES IDX 7 1 6 2 4 3 5 4 3 6 1 7 2 8 78 9 76 10 77 11 79 12 80 13
REMARK SMILES IDX 81 14 82 15 83 16 84 17 85 18 88 19 86 20 87 21 8 22 9 23
REMARK SMILES IDX 10 24 11 25 12 27 13 28 14 29 75 30 15 31 74 32 16 33 17 34
REMARK SMILES IDX 18 35 68 36 19 37 73 38 67 39 69 40 20 41 72 42 66 43 65 44
REMARK SMILES IDX 21 46 53 47 33 48 52 49 34 50 37 51 51 52 70 53 35 54 36 55
REMARK SMILES IDX 50 57 71 58 38 59 22 60 23 61 31 62 24 63 25 64 29 65 32 66
REMARK SMILES IDX 26 67 27 68 30 69 28 70 54 71 55 72 63 73 56 74 57 75 61 76
REMARK SMILES IDX 64 77 58 78 59 79 62 80 60 81 39 82 40 83 48 84 41 85 42 86
REMARK SMILES IDX 46 87 49 88 43 89 44 90 47 91 45 92
REMARK H PARENT 6 5 10 26 69 45 37 56
REMARK Flexibility Score: inf
ROOT
ATOM      1  C   UNL A   1      36.959  20.840  25.113  1.00  0.00     0.117 C 
ENDROOT
BRANCH   1   2
ATOM      2  N   UNL A   1      37.003  21.884  24.109  1.00  0.00    -0.356 N 
ATOM      3  C   UNL A   1      35.999  22.610  23.552  1.00  0.00     0.225 C 
ATOM      4  O   UNL A   1      36.315  23.389  22.652  1.00  0.00    -0.275 OA
ATOM      5  H   UNL A   1      37.905  22.101  23.776  1.00  0.00     0.163 HD
BRANCH   3   6
ATOM      6  C   UNL A   1      34.553  22.378  23.986  1.00  0.00     0.102 C 
ATOM      7  C   UNL A   1      32.250  22.179  22.956  1.00  0.00     0.032 C 
ATOM      8  C   UNL A   1      33.580  22.944  22.921  1.00  0.00     0.096 C 
ATOM      9  N   UNL A   1      33.415  24.353  23.309  1.00  0.00    -0.321 N 
ATOM     10  C   UNL A   1      34.140  23.167  25.228  1.00  0.00     0.037 C 
ATOM     11  C   UNL A   1      33.877  24.547  24.676  1.00  0.00     0.122 C 
BRANCH   9  12
ATOM     12  C   UNL A   1      33.086  25.498  22.637  1.00  0.00     0.320 C 
ATOM     13  O   UNL A   1      33.882  25.910  21.780  1.00  0.00    -0.248 OA
BRANCH  12  14
ATOM     14  N   UNL A   1      31.966  26.241  22.918  1.00  0.00    -0.323 N 
ATOM     15  C   UNL A   1      30.645  25.852  23.382  1.00  0.00     0.149 C 
BRANCH  14  16
ATOM     16  C   UNL A   1      32.112  27.682  22.699  1.00  0.00     0.157 C 
BRANCH  16  17
ATOM     17  C   UNL A   1      32.322  28.438  23.993  1.00  0.00    -0.018 A 
ATOM     18  C   UNL A   1      31.354  29.363  24.519  1.00  0.00     0.017 A 
ATOM     19  C   UNL A   1      33.438  28.404  24.813  1.00  0.00     0.070 A 
ATOM     20  C   UNL A   1      31.776  29.985  25.673  1.00  0.00     0.065 A 
ATOM     21  S   UNL A   1      33.327  29.459  26.154  1.00  0.00    -0.152 S 
ENDBRANCH  16  17
ENDBRANCH  14  16
ENDBRANCH  12  14
ENDBRANCH   9  12
ENDBRANCH   3   6
ENDBRANCH   1   2
BRANCH   1  22
ATOM     22  C   UNL A   1      38.110  19.861  24.988  1.00  0.00     0.042 C 
BRANCH  22  23
ATOM     23  C   UNL A   1      39.326  20.211  25.830  1.00  0.00     0.118 C 
BRANCH  23  24
ATOM     24  N   UNL A   1      40.309  19.139  25.903  1.00  0.00    -0.352 N 
ATOM     25  C   UNL A   1      41.671  19.191  26.096  1.00  0.00     0.251 C 
ATOM     26  H   UNL A   1      39.941  18.232  25.796  1.00  0.00     0.163 HD
ATOM     27  O   UNL A   1      42.346  18.179  25.975  1.00  0.00    -0.269 OA
BRANCH  25  28
ATOM     28  C   UNL A   1      42.324  20.481  26.409  1.00  0.00     0.039 A 
ATOM     29  C   UNL A   1      42.926  21.204  25.376  1.00  0.00     0.014 A 
ATOM     30  C   UNL A   1      42.329  20.989  27.708  1.00  0.00     0.014 A 
ATOM     31  C   UNL A   1      43.445  22.476  25.632  1.00  0.00     0.010 A 
ATOM     32  C   UNL A   1      42.732  22.299  27.937  1.00  0.00     0.010 A 
ATOM     33  C   UNL A   1      43.302  23.056  26.904  1.00  0.00    -0.014 A 
BRANCH  33  34
ATOM     34  C   UNL A   1      43.753  24.444  27.183  1.00  0.00     0.031 A 
ATOM     35  C   UNL A   1      42.776  25.460  27.709  1.00  0.00     0.074 A 
ATOM     36  C   UNL A   1      45.017  24.810  26.893  1.00  0.00     0.049 A 
ATOM     37  N   UNL A   1      42.945  26.740  27.925  1.00  0.00    -0.248 NA
ATOM     38  C   UNL A   1      41.413  24.982  27.995  1.00  0.00     0.031 C 
ATOM     39  C   UNL A   1      46.046  23.934  26.328  1.00  0.00     0.029 A 
ATOM     40  N   UNL A   1      45.651  26.021  27.024  1.00  0.00    -0.354 N 
ATOM     41  C   UNL A   1      41.712  27.217  28.350  1.00  0.00     0.074 A 
ATOM     42  C   UNL A   1      40.787  26.107  28.298  1.00  0.00     0.031 C 
ATOM     43  C   UNL A   1      47.188  24.626  26.191  1.00  0.00     0.029 A 
ATOM     44  C   UNL A   1      46.963  26.005  26.616  1.00  0.00     0.049 A 
ATOM     45  H   UNL A   1      45.207  26.825  27.376  1.00  0.00     0.167 HD
ATOM     46  C   UNL A   1      41.387  28.461  28.775  1.00  0.00     0.037 A 
ATOM     47  C   UNL A   1      47.878  26.992  26.582  1.00  0.00     0.037 A 
ATOM     48  C   UNL A   1      42.319  29.554  28.859  1.00  0.00     0.049 A 
ATOM     49  C   UNL A   1      47.490  28.366  27.058  1.00  0.00     0.074 A 
ATOM     50  C   UNL A   1      42.105  30.835  29.334  1.00  0.00     0.029 A 
ATOM     51  N   UNL A   1      43.645  29.491  28.457  1.00  0.00    -0.354 N 
ATOM     52  N   UNL A   1      46.340  28.788  27.521  1.00  0.00    -0.248 NA
ATOM     53  C   UNL A   1      48.533  29.401  27.011  1.00  0.00     0.031 C 
ATOM     54  C   UNL A   1      43.289  31.563  29.176  1.00  0.00     0.029 A 
ATOM     55  C   UNL A   1      44.256  30.719  28.654  1.00  0.00     0.049 A 
ATOM     56  H   UNL A   1      44.087  28.692  28.086  1.00  0.00     0.167 HD
ATOM     57  C   UNL A   1      46.527  30.124  27.850  1.00  0.00     0.074 A 
ATOM     58  C   UNL A   1      47.907  30.438  27.547  1.00  0.00     0.031 C 
ATOM     59  C   UNL A   1      45.636  31.011  28.358  1.00  0.00     0.037 A 
BRANCH  46  60
ATOM     60  C   UNL A   1      39.965  28.702  29.193  1.00  0.00     0.064 A 
ATOM     61  C   UNL A   1      38.999  29.166  28.286  1.00  0.00     0.173 A 
ATOM     62  C   UNL A   1      39.553  28.437  30.508  1.00  0.00     0.173 A 
ATOM     63  F   UNL A   1      39.343  29.448  27.020  1.00  0.00    -0.203 F 
ATOM     64  C   UNL A   1      37.684  29.388  28.687  1.00  0.00     0.198 A 
ATOM     65  C   UNL A   1      38.229  28.627  30.897  1.00  0.00     0.198 A 
ATOM     66  F   UNL A   1      40.432  27.987  31.416  1.00  0.00    -0.203 F 
ATOM     67  F   UNL A   1      36.795  29.884  27.817  1.00  0.00    -0.200 F 
ATOM     68  C   UNL A   1      37.299  29.110  29.990  1.00  0.00     0.200 A 
ATOM     69  F   UNL A   1      37.855  28.345  32.153  1.00  0.00    -0.200 F 
ATOM     70  F   UNL A   1      36.031  29.316  30.373  1.00  0.00    -0.200 F 
ENDBRANCH  46  60
BRANCH  47  71
ATOM     71  C   UNL A   1      49.259  26.712  26.106  1.00  0.00     0.064 A 
ATOM     72  C   UNL A   1      49.631  26.986  24.782  1.00  0.00     0.173 A 
ATOM     73  C   UNL A   1      50.229  26.160  26.955  1.00  0.00     0.173 A 
ATOM     74  F   UNL A   1      48.733  27.496  23.927  1.00  0.00    -0.203 F 
ATOM     75  C   UNL A   1      50.913  26.697  24.319  1.00  0.00     0.198 A 
ATOM     76  C   UNL A   1      51.519  25.899  26.499  1.00  0.00     0.198 A 
ATOM     77  F   UNL A   1      49.927  25.886  28.233  1.00  0.00    -0.203 F 
ATOM     78  F   UNL A   1      51.226  26.922  23.037  1.00  0.00    -0.200 F 
ATOM     79  C   UNL A   1      51.858  26.159  25.179  1.00  0.00     0.200 A 
ATOM     80  F   UNL A   1      52.435  25.394  27.338  1.00  0.00    -0.200 F 
ATOM     81  F   UNL A   1      53.091  25.883  24.735  1.00  0.00    -0.200 F 
ENDBRANCH  47  71
BRANCH  59  82
ATOM     82  C   UNL A   1      46.134  32.394  28.658  1.00  0.00     0.064 A 
ATOM     83  C   UNL A   1      46.685  32.725  29.906  1.00  0.00     0.173 A 
ATOM     84  C   UNL A   1      46.098  33.390  27.670  1.00  0.00     0.173 A 
ATOM     85  F   UNL A   1      46.729  31.812  30.888  1.00  0.00    -0.203 F 
ATOM     86  C   UNL A   1      47.157  34.010  30.160  1.00  0.00     0.198 A 
ATOM     87  C   UNL A   1      46.601  34.664  27.918  1.00  0.00     0.198 A 
ATOM     88  F   UNL A   1      45.588  33.123  26.459  1.00  0.00    -0.203 F 
ATOM     89  F   UNL A   1      47.634  34.318  31.374  1.00  0.00    -0.200 F 
ATOM     90  C   UNL A   1      47.122  34.975  29.165  1.00  0.00     0.200 A 
ATOM     91  F   UNL A   1      46.580  35.590  26.950  1.00  0.00    -0.200 F 
ATOM     92  F   UNL A   1      47.586  36.209  29.409  1.00  0.00    -0.200 F 
ENDBRANCH  59  82
ENDBRANCH  33  34
ENDBRANCH  25  28
ENDBRANCH  23  24
ENDBRANCH  22  23
ENDBRANCH   1  22
TORSDOF 14
ENDMDL
