MODEL 1
REMARK VINA RESULT:     -12.7      0.000      0.000
REMARK SMILES CC[C@@H](C)c1nc2cc(C(=O)NCCCNC(=O)c3ccc(-c4c5nc(c(-c6c(F)c(F)c(F)c(F)c6F)c6ccc([nH]6)c(-c6c(F)c(F)c(F)c(F)c6F)c6nc(c(-c7c(F)c(F)c(F)c(F)c7F)c7ccc4[nH]7)C=C6)C=C5)cc3)ccc2n1[C@@H](C)CC
REMARK SMILES IDX 14 1 13 2 12 3 10 4 11 5 9 7 5 8 6 9 85 10 7 11 84 12 8 13
REMARK SMILES IDX 83 14 82 15 3 16 4 17 2 18 1 19 86 20 87 21 88 22 89 23
REMARK SMILES IDX 15 24 16 25 17 26 18 28 19 29 20 30 81 31 21 32 80 33 22 34
REMARK SMILES IDX 23 35 24 36 74 37 25 38 79 39 73 40 75 41 26 42 78 43 72 44
REMARK SMILES IDX 71 45 27 47 59 48 39 49 58 50 40 51 43 52 57 53 76 54 41 55
REMARK SMILES IDX 42 56 56 58 77 59 44 60 28 61 29 62 37 63 30 64 31 65 35 66
REMARK SMILES IDX 38 67 32 68 33 69 36 70 34 71 60 72 61 73 69 74 62 75 63 76
REMARK SMILES IDX 67 77 70 78 64 79 65 80 68 81 66 82 45 83 46 84 54 85 47 86
REMARK SMILES IDX 48 87 52 88 55 89 49 90 50 91 53 92 51 93
REMARK H PARENT 12 6 16 27 75 46 43 57
REMARK Flexibility Score: inf
ROOT
ATOM      1  C   UNL A   1      38.232  21.043  25.299  1.00  0.00     0.042 C 
ENDROOT
BRANCH   1   2
ATOM      2  C   UNL A   1      37.176  21.738  24.438  1.00  0.00     0.118 C 
BRANCH   2   3
ATOM      3  N   UNL A   1      35.843  21.241  24.733  1.00  0.00    -0.352 N 
ATOM      4  C   UNL A   1      34.595  21.809  24.763  1.00  0.00     0.251 C 
ATOM      5  O   UNL A   1      33.657  21.060  25.042  1.00  0.00    -0.269 OA
ATOM      6  H   UNL A   1      35.833  20.284  24.963  1.00  0.00     0.163 HD
BRANCH   4   7
ATOM      7  C   UNL A   1      34.311  23.236  24.449  1.00  0.00     0.042 A 
ATOM      8  C   UNL A   1      33.748  27.640  25.509  1.00  0.00     0.112 A 
ATOM      9  N   UNL A   1      34.012  26.532  26.194  1.00  0.00    -0.233 NA
ATOM     10  N   UNL A   1      33.476  27.297  24.186  1.00  0.00    -0.325 N 
ATOM     11  C   UNL A   1      34.041  25.493  25.314  1.00  0.00     0.090 A 
ATOM     12  C   UNL A   1      33.768  25.941  24.036  1.00  0.00     0.068 A 
ATOM     13  C   UNL A   1      34.301  24.132  25.536  1.00  0.00     0.044 A 
ATOM     14  C   UNL A   1      33.808  25.081  22.928  1.00  0.00     0.029 A 
ATOM     15  C   UNL A   1      34.113  23.733  23.160  1.00  0.00     0.016 A 
BRANCH   8  16
ATOM     16  C   UNL A   1      33.731  28.982  26.248  1.00  0.00     0.052 C 
ATOM     17  C   UNL A   1      34.620  29.161  27.469  1.00  0.00     0.016 C 
BRANCH  16  18
ATOM     18  C   UNL A   1      32.257  29.301  26.654  1.00  0.00     0.008 C 
ATOM     19  C   UNL A   1      31.554  30.338  25.786  1.00  0.00     0.004 C 
ENDBRANCH  16  18
ENDBRANCH   8  16
BRANCH  10  20
ATOM     20  C   UNL A   1      32.908  28.062  23.078  1.00  0.00     0.085 C 
ATOM     21  C   UNL A   1      33.948  28.458  22.022  1.00  0.00     0.031 C 
BRANCH  20  22
ATOM     22  C   UNL A   1      31.563  27.545  22.533  1.00  0.00     0.022 C 
ATOM     23  C   UNL A   1      30.425  27.628  23.546  1.00  0.00     0.006 C 
ENDBRANCH  20  22
ENDBRANCH  10  20
ENDBRANCH   4   7
ENDBRANCH   2   3
ENDBRANCH   1   2
BRANCH   1  24
ATOM     24  C   UNL A   1      38.995  22.008  26.211  1.00  0.00     0.118 C 
BRANCH  24  25
ATOM     25  N   UNL A   1      40.424  22.057  25.966  1.00  0.00    -0.352 N 
ATOM     26  C   UNL A   1      41.418  22.967  26.219  1.00  0.00     0.251 C 
ATOM     27  H   UNL A   1      40.757  21.249  25.512  1.00  0.00     0.163 HD
ATOM     28  O   UNL A   1      42.556  22.643  25.892  1.00  0.00    -0.269 OA
BRANCH  26  29
ATOM     29  C   UNL A   1      41.199  24.323  26.797  1.00  0.00     0.039 A 
ATOM     30  C   UNL A   1      40.454  25.344  26.210  1.00  0.00     0.014 A 
ATOM     31  C   UNL A   1      41.815  24.576  28.038  1.00  0.00     0.014 A 
ATOM     32  C   UNL A   1      40.419  26.615  26.778  1.00  0.00     0.010 A 
ATOM     33  C   UNL A   1      41.749  25.836  28.633  1.00  0.00     0.010 A 
ATOM     34  C   UNL A   1      41.094  26.873  27.973  1.00  0.00    -0.014 A 
BRANCH  34  35
ATOM     35  C   UNL A   1      41.063  28.245  28.485  1.00  0.00     0.031 A 
ATOM     36  C   UNL A   1      42.185  29.150  28.093  1.00  0.00     0.074 A 
ATOM     37  C   UNL A   1      40.037  28.734  29.209  1.00  0.00     0.049 A 
ATOM     38  N   UNL A   1      42.962  29.861  28.851  1.00  0.00    -0.248 NA
ATOM     39  C   UNL A   1      42.484  29.264  26.656  1.00  0.00     0.031 C 
ATOM     40  C   UNL A   1      38.730  28.113  29.445  1.00  0.00     0.029 A 
ATOM     41  N   UNL A   1      39.922  29.954  29.817  1.00  0.00    -0.354 N 
ATOM     42  C   UNL A   1      43.766  30.608  27.991  1.00  0.00     0.074 A 
ATOM     43  C   UNL A   1      43.473  30.157  26.654  1.00  0.00     0.031 C 
ATOM     44  C   UNL A   1      37.890  29.033  29.963  1.00  0.00     0.029 A 
ATOM     45  C   UNL A   1      38.635  30.253  30.225  1.00  0.00     0.049 A 
ATOM     46  H   UNL A   1      40.685  30.561  29.953  1.00  0.00     0.167 HD
ATOM     47  C   UNL A   1      44.528  31.657  28.405  1.00  0.00     0.037 A 
ATOM     48  C   UNL A   1      38.189  31.439  30.696  1.00  0.00     0.037 A 
ATOM     49  C   UNL A   1      44.732  31.674  29.822  1.00  0.00     0.049 A 
ATOM     50  C   UNL A   1      39.341  32.218  31.201  1.00  0.00     0.074 A 
ATOM     51  C   UNL A   1      45.507  30.971  30.718  1.00  0.00     0.029 A 
ATOM     52  N   UNL A   1      43.840  32.406  30.556  1.00  0.00    -0.354 N 
ATOM     53  N   UNL A   1      40.040  31.900  32.255  1.00  0.00    -0.248 NA
ATOM     54  C   UNL A   1      39.902  33.285  30.381  1.00  0.00     0.031 C 
ATOM     55  C   UNL A   1      44.841  31.070  31.975  1.00  0.00     0.029 A 
ATOM     56  C   UNL A   1      43.678  31.812  31.782  1.00  0.00     0.049 A 
ATOM     57  H   UNL A   1      43.388  33.226  30.253  1.00  0.00     0.167 HD
ATOM     58  C   UNL A   1      41.289  32.437  32.017  1.00  0.00     0.074 A 
ATOM     59  C   UNL A   1      41.094  33.418  30.964  1.00  0.00     0.031 C 
ATOM     60  C   UNL A   1      42.411  31.817  32.477  1.00  0.00     0.037 A 
BRANCH  47  61
ATOM     61  C   UNL A   1      44.872  32.845  27.546  1.00  0.00     0.064 A 
ATOM     62  C   UNL A   1      46.122  32.928  26.903  1.00  0.00     0.173 A 
ATOM     63  C   UNL A   1      44.106  34.029  27.556  1.00  0.00     0.173 A 
ATOM     64  F   UNL A   1      46.954  31.875  26.886  1.00  0.00    -0.203 F 
ATOM     65  C   UNL A   1      46.573  34.117  26.318  1.00  0.00     0.198 A 
ATOM     66  C   UNL A   1      44.536  35.199  26.930  1.00  0.00     0.198 A 
ATOM     67  F   UNL A   1      42.965  34.114  28.255  1.00  0.00    -0.203 F 
ATOM     68  F   UNL A   1      47.802  34.176  25.788  1.00  0.00    -0.200 F 
ATOM     69  C   UNL A   1      45.776  35.248  26.326  1.00  0.00     0.200 A 
ATOM     70  F   UNL A   1      43.765  36.294  26.974  1.00  0.00    -0.200 F 
ATOM     71  F   UNL A   1      46.219  36.396  25.795  1.00  0.00    -0.200 F 
ENDBRANCH  47  61
BRANCH  48  72
ATOM     72  C   UNL A   1      36.846  32.036  30.537  1.00  0.00     0.064 A 
ATOM     73  C   UNL A   1      35.939  32.072  31.607  1.00  0.00     0.173 A 
ATOM     74  C   UNL A   1      36.530  32.825  29.414  1.00  0.00     0.173 A 
ATOM     75  F   UNL A   1      36.187  31.377  32.727  1.00  0.00    -0.203 F 
ATOM     76  C   UNL A   1      34.800  32.881  31.571  1.00  0.00     0.198 A 
ATOM     77  C   UNL A   1      35.387  33.622  29.374  1.00  0.00     0.198 A 
ATOM     78  F   UNL A   1      37.374  32.913  28.375  1.00  0.00    -0.203 F 
ATOM     79  F   UNL A   1      33.994  32.947  32.639  1.00  0.00    -0.200 F 
ATOM     80  C   UNL A   1      34.533  33.664  30.459  1.00  0.00     0.200 A 
ATOM     81  F   UNL A   1      35.156  34.397  28.305  1.00  0.00    -0.200 F 
ATOM     82  F   UNL A   1      33.475  34.488  30.450  1.00  0.00    -0.200 F 
ENDBRANCH  48  72
BRANCH  60  83
ATOM     83  C   UNL A   1      42.232  30.863  33.616  1.00  0.00     0.064 A 
ATOM     84  C   UNL A   1      42.298  31.246  34.965  1.00  0.00     0.173 A 
ATOM     85  C   UNL A   1      41.908  29.531  33.332  1.00  0.00     0.173 A 
ATOM     86  F   UNL A   1      42.509  32.524  35.306  1.00  0.00    -0.203 F 
ATOM     87  C   UNL A   1      42.105  30.318  35.985  1.00  0.00     0.198 A 
ATOM     88  C   UNL A   1      41.680  28.612  34.353  1.00  0.00     0.198 A 
ATOM     89  F   UNL A   1      41.776  29.126  32.058  1.00  0.00    -0.203 F 
ATOM     90  F   UNL A   1      42.192  30.700  37.268  1.00  0.00    -0.200 F 
ATOM     91  C   UNL A   1      41.793  29.003  35.678  1.00  0.00     0.200 A 
ATOM     92  F   UNL A   1      41.331  27.353  34.054  1.00  0.00    -0.200 F 
ATOM     93  F   UNL A   1      41.574  28.117  36.662  1.00  0.00    -0.200 F 
ENDBRANCH  60  83
ENDBRANCH  34  35
ENDBRANCH  26  29
ENDBRANCH  24  25
ENDBRANCH   1  24
TORSDOF 14
ENDMDL
MODEL 2
REMARK VINA RESULT:     -12.5      3.786      9.274
REMARK SMILES CC[C@@H](C)c1nc2cc(C(=O)NCCCNC(=O)c3ccc(-c4c5nc(c(-c6c(F)c(F)c(F)c(F)c6F)c6ccc([nH]6)c(-c6c(F)c(F)c(F)c(F)c6F)c6nc(c(-c7c(F)c(F)c(F)c(F)c7F)c7ccc4[nH]7)C=C6)C=C5)cc3)ccc2n1[C@@H](C)CC
REMARK SMILES IDX 14 1 13 2 12 3 10 4 11 5 9 7 5 8 6 9 85 10 7 11 84 12 8 13
REMARK SMILES IDX 83 14 82 15 3 16 4 17 2 18 1 19 86 20 87 21 88 22 89 23
REMARK SMILES IDX 15 24 16 25 17 26 18 28 19 29 20 30 81 31 21 32 80 33 22 34
REMARK SMILES IDX 23 35 24 36 74 37 25 38 79 39 73 40 75 41 26 42 78 43 72 44
REMARK SMILES IDX 71 45 27 47 59 48 39 49 58 50 40 51 43 52 57 53 76 54 41 55
REMARK SMILES IDX 42 56 56 58 77 59 44 60 28 61 29 62 37 63 30 64 31 65 35 66
REMARK SMILES IDX 38 67 32 68 33 69 36 70 34 71 60 72 61 73 69 74 62 75 63 76
REMARK SMILES IDX 67 77 70 78 64 79 65 80 68 81 66 82 45 83 46 84 54 85 47 86
REMARK SMILES IDX 48 87 52 88 55 89 49 90 50 91 53 92 51 93
REMARK H PARENT 12 6 16 27 75 46 43 57
REMARK Flexibility Score: inf
ROOT
ATOM      1  C   UNL A   1      33.856  30.157  27.261  1.00  0.00     0.042 C 
ENDROOT
BRANCH   1   2
ATOM      2  C   UNL A   1      32.326  30.179  27.251  1.00  0.00     0.118 C 
BRANCH   2   3
ATOM      3  N   UNL A   1      31.803  30.004  25.907  1.00  0.00    -0.352 N 
ATOM      4  C   UNL A   1      31.641  28.925  25.077  1.00  0.00     0.251 C 
ATOM      5  O   UNL A   1      31.129  29.149  23.978  1.00  0.00    -0.269 OA
ATOM      6  H   UNL A   1      31.498  30.848  25.502  1.00  0.00     0.163 HD
BRANCH   4   7
ATOM      7  C   UNL A   1      32.005  27.526  25.432  1.00  0.00     0.042 A 
ATOM      8  C   UNL A   1      34.845  23.962  25.686  1.00  0.00     0.112 A 
ATOM      9  N   UNL A   1      34.926  25.200  25.208  1.00  0.00    -0.233 NA
ATOM     10  N   UNL A   1      33.532  23.717  26.082  1.00  0.00    -0.325 N 
ATOM     11  C   UNL A   1      33.722  25.804  25.404  1.00  0.00     0.090 A 
ATOM     12  C   UNL A   1      32.838  24.926  26.003  1.00  0.00     0.068 A 
ATOM     13  C   UNL A   1      33.309  27.109  25.099  1.00  0.00     0.044 A 
ATOM     14  C   UNL A   1      31.547  25.322  26.382  1.00  0.00     0.029 A 
ATOM     15  C   UNL A   1      31.164  26.643  26.110  1.00  0.00     0.016 A 
BRANCH   8  16
ATOM     16  C   UNL A   1      36.095  23.075  25.663  1.00  0.00     0.052 C 
ATOM     17  C   UNL A   1      37.463  23.727  25.783  1.00  0.00     0.016 C 
BRANCH  16  18
ATOM     18  C   UNL A   1      36.064  22.218  24.357  1.00  0.00     0.008 C 
ATOM     19  C   UNL A   1      36.653  22.894  23.123  1.00  0.00     0.004 C 
ENDBRANCH  16  18
ENDBRANCH   8  16
BRANCH  10  20
ATOM     20  C   UNL A   1      32.838  22.486  26.448  1.00  0.00     0.085 C 
ATOM     21  C   UNL A   1      32.530  22.388  27.947  1.00  0.00     0.031 C 
BRANCH  20  22
ATOM     22  C   UNL A   1      31.700  22.057  25.501  1.00  0.00     0.022 C 
ATOM     23  C   UNL A   1      32.168  21.783  24.074  1.00  0.00     0.006 C 
ENDBRANCH  20  22
ENDBRANCH  10  20
ENDBRANCH   4   7
ENDBRANCH   2   3
ENDBRANCH   1   2
BRANCH   1  24
ATOM     24  C   UNL A   1      34.475  31.536  27.501  1.00  0.00     0.118 C 
BRANCH  24  25
ATOM     25  N   UNL A   1      34.521  31.936  28.895  1.00  0.00    -0.352 N 
ATOM     26  C   UNL A   1      35.362  31.678  29.948  1.00  0.00     0.251 C 
ATOM     27  H   UNL A   1      33.775  32.528  29.143  1.00  0.00     0.163 HD
ATOM     28  O   UNL A   1      35.100  32.236  31.009  1.00  0.00    -0.269 OA
BRANCH  26  29
ATOM     29  C   UNL A   1      36.515  30.734  29.901  1.00  0.00     0.039 A 
ATOM     30  C   UNL A   1      36.444  29.358  30.111  1.00  0.00     0.014 A 
ATOM     31  C   UNL A   1      37.773  31.304  29.630  1.00  0.00     0.014 A 
ATOM     32  C   UNL A   1      37.603  28.589  30.169  1.00  0.00     0.010 A 
ATOM     33  C   UNL A   1      38.934  30.530  29.646  1.00  0.00     0.010 A 
ATOM     34  C   UNL A   1      38.853  29.178  29.970  1.00  0.00    -0.014 A 
BRANCH  34  35
ATOM     35  C   UNL A   1      40.035  28.322  30.101  1.00  0.00     0.031 A 
ATOM     36  C   UNL A   1      40.649  28.203  31.458  1.00  0.00     0.074 A 
ATOM     37  C   UNL A   1      40.522  27.586  29.084  1.00  0.00     0.049 A 
ATOM     38  N   UNL A   1      41.883  28.394  31.813  1.00  0.00    -0.248 NA
ATOM     39  C   UNL A   1      39.758  27.831  32.568  1.00  0.00     0.031 C 
ATOM     40  C   UNL A   1      39.901  27.335  27.780  1.00  0.00     0.029 A 
ATOM     41  N   UNL A   1      41.656  26.822  29.045  1.00  0.00    -0.354 N 
ATOM     42  C   UNL A   1      41.955  28.048  33.162  1.00  0.00     0.074 A 
ATOM     43  C   UNL A   1      40.609  27.768  33.592  1.00  0.00     0.031 C 
ATOM     44  C   UNL A   1      40.554  26.328  27.164  1.00  0.00     0.029 A 
ATOM     45  C   UNL A   1      41.714  25.965  27.961  1.00  0.00     0.049 A 
ATOM     46  H   UNL A   1      42.365  26.877  29.726  1.00  0.00     0.167 HD
ATOM     47  C   UNL A   1      43.131  27.871  33.824  1.00  0.00     0.037 A 
ATOM     48  C   UNL A   1      42.619  24.983  27.751  1.00  0.00     0.037 A 
ATOM     49  C   UNL A   1      44.251  28.442  33.137  1.00  0.00     0.049 A 
ATOM     50  C   UNL A   1      43.829  25.267  28.554  1.00  0.00     0.074 A 
ATOM     51  C   UNL A   1      44.745  29.712  32.937  1.00  0.00     0.029 A 
ATOM     52  N   UNL A   1      44.934  27.611  32.293  1.00  0.00    -0.354 N 
ATOM     53  N   UNL A   1      44.644  26.260  28.333  1.00  0.00    -0.248 NA
ATOM     54  C   UNL A   1      44.042  24.554  29.808  1.00  0.00     0.031 C 
ATOM     55  C   UNL A   1      45.512  29.650  31.736  1.00  0.00     0.029 A 
ATOM     56  C   UNL A   1      45.430  28.348  31.247  1.00  0.00     0.049 A 
ATOM     57  H   UNL A   1      45.051  26.641  32.416  1.00  0.00     0.167 HD
ATOM     58  C   UNL A   1      45.195  26.537  29.569  1.00  0.00     0.074 A 
ATOM     59  C   UNL A   1      44.939  25.360  30.379  1.00  0.00     0.031 C 
ATOM     60  C   UNL A   1      45.532  27.812  29.909  1.00  0.00     0.037 A 
BRANCH  47  61
ATOM     61  C   UNL A   1      43.317  26.928  34.983  1.00  0.00     0.064 A 
ATOM     62  C   UNL A   1      43.590  27.420  36.273  1.00  0.00     0.173 A 
ATOM     63  C   UNL A   1      43.500  25.541  34.803  1.00  0.00     0.173 A 
ATOM     64  F   UNL A   1      43.502  28.733  36.537  1.00  0.00    -0.203 F 
ATOM     65  C   UNL A   1      44.020  26.581  37.307  1.00  0.00     0.198 A 
ATOM     66  C   UNL A   1      43.882  24.699  35.848  1.00  0.00     0.198 A 
ATOM     67  F   UNL A   1      43.409  24.977  33.590  1.00  0.00    -0.203 F 
ATOM     68  F   UNL A   1      44.346  27.103  38.498  1.00  0.00    -0.200 F 
ATOM     69  C   UNL A   1      44.158  25.221  37.096  1.00  0.00     0.200 A 
ATOM     70  F   UNL A   1      44.041  23.388  35.617  1.00  0.00    -0.200 F 
ATOM     71  F   UNL A   1      44.601  24.421  38.075  1.00  0.00    -0.200 F 
ENDBRANCH  47  61
BRANCH  48  72
ATOM     72  C   UNL A   1      42.418  23.691  27.062  1.00  0.00     0.064 A 
ATOM     73  C   UNL A   1      43.265  23.289  26.018  1.00  0.00     0.173 A 
ATOM     74  C   UNL A   1      41.563  22.708  27.596  1.00  0.00     0.173 A 
ATOM     75  F   UNL A   1      44.134  24.157  25.481  1.00  0.00    -0.203 F 
ATOM     76  C   UNL A   1      43.281  21.968  25.560  1.00  0.00     0.198 A 
ATOM     77  C   UNL A   1      41.571  21.394  27.131  1.00  0.00     0.198 A 
ATOM     78  F   UNL A   1      40.772  22.980  28.646  1.00  0.00    -0.203 F 
ATOM     79  F   UNL A   1      44.154  21.602  24.611  1.00  0.00    -0.200 F 
ATOM     80  C   UNL A   1      42.443  21.021  26.126  1.00  0.00     0.200 A 
ATOM     81  F   UNL A   1      40.777  20.481  27.706  1.00  0.00    -0.200 F 
ATOM     82  F   UNL A   1      42.504  19.741  25.731  1.00  0.00    -0.200 F 
ENDBRANCH  48  72
BRANCH  60  83
ATOM     83  C   UNL A   1      45.744  28.775  28.783  1.00  0.00     0.064 A 
ATOM     84  C   UNL A   1      44.715  29.544  28.217  1.00  0.00     0.173 A 
ATOM     85  C   UNL A   1      47.047  28.979  28.311  1.00  0.00     0.173 A 
ATOM     86  F   UNL A   1      43.463  29.467  28.686  1.00  0.00    -0.203 F 
ATOM     87  C   UNL A   1      44.974  30.438  27.181  1.00  0.00     0.198 A 
ATOM     88  C   UNL A   1      47.308  29.900  27.299  1.00  0.00     0.198 A 
ATOM     89  F   UNL A   1      48.075  28.311  28.858  1.00  0.00    -0.203 F 
ATOM     90  F   UNL A   1      43.974  31.150  26.640  1.00  0.00    -0.200 F 
ATOM     91  C   UNL A   1      46.270  30.618  26.726  1.00  0.00     0.200 A 
ATOM     92  F   UNL A   1      48.569  30.108  26.894  1.00  0.00    -0.200 F 
ATOM     93  F   UNL A   1      46.524  31.504  25.751  1.00  0.00    -0.200 F 
ENDBRANCH  60  83
ENDBRANCH  34  35
ENDBRANCH  26  29
ENDBRANCH  24  25
ENDBRANCH   1  24
TORSDOF 14
ENDMDL
MODEL 3
REMARK VINA RESULT:     -12.3      3.455      9.031
REMARK SMILES CC[C@@H](C)c1nc2cc(C(=O)NCCCNC(=O)c3ccc(-c4c5nc(c(-c6c(F)c(F)c(F)c(F)c6F)c6ccc([nH]6)c(-c6c(F)c(F)c(F)c(F)c6F)c6nc(c(-c7c(F)c(F)c(F)c(F)c7F)c7ccc4[nH]7)C=C6)C=C5)cc3)ccc2n1[C@@H](C)CC
REMARK SMILES IDX 14 1 13 2 12 3 10 4 11 5 9 7 5 8 6 9 85 10 7 11 84 12 8 13
REMARK SMILES IDX 83 14 82 15 3 16 4 17 2 18 1 19 86 20 87 21 88 22 89 23
REMARK SMILES IDX 15 24 16 25 17 26 18 28 19 29 20 30 81 31 21 32 80 33 22 34
REMARK SMILES IDX 23 35 24 36 74 37 25 38 79 39 73 40 75 41 26 42 78 43 72 44
REMARK SMILES IDX 71 45 27 47 59 48 39 49 58 50 40 51 43 52 57 53 76 54 41 55
REMARK SMILES IDX 42 56 56 58 77 59 44 60 28 61 29 62 37 63 30 64 31 65 35 66
REMARK SMILES IDX 38 67 32 68 33 69 36 70 34 71 60 72 61 73 69 74 62 75 63 76
REMARK SMILES IDX 67 77 70 78 64 79 65 80 68 81 66 82 45 83 46 84 54 85 47 86
REMARK SMILES IDX 48 87 52 88 55 89 49 90 50 91 53 92 51 93
REMARK H PARENT 12 6 16 27 75 46 43 57
REMARK Flexibility Score: inf
ROOT
ATOM      1  C   UNL A   1      32.932  30.096  25.782  1.00  0.00     0.042 C 
ENDROOT
BRANCH   1   2
ATOM      2  C   UNL A   1      31.419  29.975  25.590  1.00  0.00     0.118 C 
BRANCH   2   3
ATOM      3  N   UNL A   1      31.067  29.921  24.181  1.00  0.00    -0.352 N 
ATOM      4  C   UNL A   1      30.974  28.912  23.258  1.00  0.00     0.251 C 
ATOM      5  O   UNL A   1      30.616  29.237  22.124  1.00  0.00    -0.269 OA
ATOM      6  H   UNL A   1      30.848  30.804  23.807  1.00  0.00     0.163 HD
BRANCH   4   7
ATOM      7  C   UNL A   1      31.239  27.476  23.547  1.00  0.00     0.042 A 
ATOM      8  C   UNL A   1      33.889  23.937  24.677  1.00  0.00     0.112 A 
ATOM      9  N   UNL A   1      34.086  25.236  24.481  1.00  0.00    -0.233 NA
ATOM     10  N   UNL A   1      32.577  23.622  24.330  1.00  0.00    -0.325 N 
ATOM     11  C   UNL A   1      32.892  25.792  24.135  1.00  0.00     0.090 A 
ATOM     12  C   UNL A   1      31.909  24.823  24.087  1.00  0.00     0.068 A 
ATOM     13  C   UNL A   1      32.569  27.128  23.851  1.00  0.00     0.044 A 
ATOM     14  C   UNL A   1      30.568  25.143  23.825  1.00  0.00     0.029 A 
ATOM     15  C   UNL A   1      30.254  26.488  23.587  1.00  0.00     0.016 A 
BRANCH   8  16
ATOM     16  C   UNL A   1      35.063  23.073  25.154  1.00  0.00     0.052 C 
ATOM     17  C   UNL A   1      36.248  23.748  25.825  1.00  0.00     0.016 C 
BRANCH  16  18
ATOM     18  C   UNL A   1      35.586  22.242  23.939  1.00  0.00     0.008 C 
ATOM     19  C   UNL A   1      36.646  22.932  23.088  1.00  0.00     0.004 C 
ENDBRANCH  16  18
ENDBRANCH   8  16
BRANCH  10  20
ATOM     20  C   UNL A   1      31.903  22.343  24.127  1.00  0.00     0.085 C 
ATOM     21  C   UNL A   1      32.187  21.722  22.753  1.00  0.00     0.031 C 
BRANCH  20  22
ATOM     22  C   UNL A   1      31.944  21.370  25.322  1.00  0.00     0.022 C 
ATOM     23  C   UNL A   1      32.742  20.099  25.043  1.00  0.00     0.006 C 
ENDBRANCH  20  22
ENDBRANCH  10  20
ENDBRANCH   4   7
ENDBRANCH   2   3
ENDBRANCH   1   2
BRANCH   1  24
ATOM     24  C   UNL A   1      33.366  29.953  27.243  1.00  0.00     0.118 C 
BRANCH  24  25
ATOM     25  N   UNL A   1      33.729  31.203  27.884  1.00  0.00    -0.352 N 
ATOM     26  C   UNL A   1      34.895  31.739  28.367  1.00  0.00     0.251 C 
ATOM     27  H   UNL A   1      32.959  31.806  27.999  1.00  0.00     0.163 HD
ATOM     28  O   UNL A   1      34.829  32.876  28.825  1.00  0.00    -0.269 OA
BRANCH  26  29
ATOM     29  C   UNL A   1      36.199  31.018  28.427  1.00  0.00     0.039 A 
ATOM     30  C   UNL A   1      36.419  29.705  28.015  1.00  0.00     0.014 A 
ATOM     31  C   UNL A   1      37.284  31.741  28.959  1.00  0.00     0.014 A 
ATOM     32  C   UNL A   1      37.648  29.089  28.234  1.00  0.00     0.010 A 
ATOM     33  C   UNL A   1      38.530  31.142  29.142  1.00  0.00     0.010 A 
ATOM     34  C   UNL A   1      38.696  29.794  28.828  1.00  0.00    -0.014 A 
BRANCH  34  35
ATOM     35  C   UNL A   1      39.944  29.069  29.081  1.00  0.00     0.031 A 
ATOM     36  C   UNL A   1      40.331  28.846  30.506  1.00  0.00     0.074 A 
ATOM     37  C   UNL A   1      40.690  28.532  28.097  1.00  0.00     0.049 A 
ATOM     38  N   UNL A   1      41.450  29.129  31.100  1.00  0.00    -0.248 NA
ATOM     39  C   UNL A   1      39.325  28.234  31.388  1.00  0.00     0.031 C 
ATOM     40  C   UNL A   1      40.337  28.384  26.682  1.00  0.00     0.029 A 
ATOM     41  N   UNL A   1      41.908  27.915  28.185  1.00  0.00    -0.354 N 
ATOM     42  C   UNL A   1      41.341  28.622  32.394  1.00  0.00     0.074 A 
ATOM     43  C   UNL A   1      39.992  28.136  32.537  1.00  0.00     0.031 C 
ATOM     44  C   UNL A   1      41.216  27.546  26.092  1.00  0.00     0.029 A 
ATOM     45  C   UNL A   1      42.263  27.218  27.044  1.00  0.00     0.049 A 
ATOM     46  H   UNL A   1      42.478  27.962  28.986  1.00  0.00     0.167 HD
ATOM     47  C   UNL A   1      42.401  28.496  33.238  1.00  0.00     0.037 A 
ATOM     48  C   UNL A   1      43.315  26.382  26.899  1.00  0.00     0.037 A 
ATOM     49  C   UNL A   1      43.533  29.276  32.834  1.00  0.00     0.049 A 
ATOM     50  C   UNL A   1      44.323  26.695  27.936  1.00  0.00     0.074 A 
ATOM     51  C   UNL A   1      43.877  30.609  32.865  1.00  0.00     0.029 A 
ATOM     52  N   UNL A   1      44.455  28.645  32.044  1.00  0.00    -0.354 N 
ATOM     53  N   UNL A   1      45.021  27.796  27.977  1.00  0.00    -0.248 NA
ATOM     54  C   UNL A   1      44.416  25.855  29.124  1.00  0.00     0.031 C 
ATOM     55  C   UNL A   1      44.836  30.792  31.825  1.00  0.00     0.029 A 
ATOM     56  C   UNL A   1      45.015  29.563  31.193  1.00  0.00     0.049 A 
ATOM     57  H   UNL A   1      44.679  27.688  32.082  1.00  0.00     0.167 HD
ATOM     58  C   UNL A   1      45.313  27.972  29.315  1.00  0.00     0.074 A 
ATOM     59  C   UNL A   1      45.087  26.677  29.933  1.00  0.00     0.031 C 
ATOM     60  C   UNL A   1      45.412  29.222  29.846  1.00  0.00     0.037 A 
BRANCH  47  61
ATOM     61  C   UNL A   1      42.516  27.438  34.303  1.00  0.00     0.064 A 
ATOM     62  C   UNL A   1      43.056  26.173  34.003  1.00  0.00     0.173 A 
ATOM     63  C   UNL A   1      41.861  27.547  35.547  1.00  0.00     0.173 A 
ATOM     64  F   UNL A   1      43.650  25.946  32.821  1.00  0.00    -0.203 F 
ATOM     65  C   UNL A   1      42.941  25.094  34.886  1.00  0.00     0.198 A 
ATOM     66  C   UNL A   1      41.789  26.483  36.446  1.00  0.00     0.198 A 
ATOM     67  F   UNL A   1      41.187  28.656  35.885  1.00  0.00    -0.203 F 
ATOM     68  F   UNL A   1      43.397  23.885  34.527  1.00  0.00    -0.200 F 
ATOM     69  C   UNL A   1      42.314  25.252  36.110  1.00  0.00     0.200 A 
ATOM     70  F   UNL A   1      41.152  26.646  37.615  1.00  0.00    -0.200 F 
ATOM     71  F   UNL A   1      42.175  24.212  36.943  1.00  0.00    -0.200 F 
ENDBRANCH  47  61
BRANCH  48  72
ATOM     72  C   UNL A   1      43.410  25.176  26.050  1.00  0.00     0.064 A 
ATOM     73  C   UNL A   1      44.496  24.986  25.183  1.00  0.00     0.173 A 
ATOM     74  C   UNL A   1      42.579  24.062  26.275  1.00  0.00     0.173 A 
ATOM     75  F   UNL A   1      45.355  25.988  24.946  1.00  0.00    -0.203 F 
ATOM     76  C   UNL A   1      44.758  23.741  24.603  1.00  0.00     0.198 A 
ATOM     77  C   UNL A   1      42.833  22.824  25.687  1.00  0.00     0.198 A 
ATOM     78  F   UNL A   1      41.561  24.127  27.147  1.00  0.00    -0.203 F 
ATOM     79  F   UNL A   1      45.845  23.577  23.837  1.00  0.00    -0.200 F 
ATOM     80  C   UNL A   1      43.932  22.660  24.866  1.00  0.00     0.200 A 
ATOM     81  F   UNL A   1      42.044  21.779  25.972  1.00  0.00    -0.200 F 
ATOM     82  F   UNL A   1      44.219  21.451  24.361  1.00  0.00    -0.200 F 
ENDBRANCH  48  72
BRANCH  60  83
ATOM     83  C   UNL A   1      45.679  30.340  28.888  1.00  0.00     0.064 A 
ATOM     84  C   UNL A   1      46.968  30.725  28.488  1.00  0.00     0.173 A 
ATOM     85  C   UNL A   1      44.590  30.993  28.298  1.00  0.00     0.173 A 
ATOM     86  F   UNL A   1      48.050  30.079  28.941  1.00  0.00    -0.203 F 
ATOM     87  C   UNL A   1      47.157  31.763  27.578  1.00  0.00     0.198 A 
ATOM     88  C   UNL A   1      44.780  32.006  27.361  1.00  0.00     0.198 A 
ATOM     89  F   UNL A   1      43.336  30.623  28.602  1.00  0.00    -0.203 F 
ATOM     90  F   UNL A   1      48.397  32.130  27.224  1.00  0.00    -0.200 F 
ATOM     91  C   UNL A   1      46.063  32.400  27.013  1.00  0.00     0.200 A 
ATOM     92  F   UNL A   1      43.722  32.587  26.780  1.00  0.00    -0.200 F 
ATOM     93  F   UNL A   1      46.245  33.376  26.111  1.00  0.00    -0.200 F 
ENDBRANCH  60  83
ENDBRANCH  34  35
ENDBRANCH  26  29
ENDBRANCH  24  25
ENDBRANCH   1  24
TORSDOF 14
ENDMDL
