MODEL 1
REMARK VINA RESULT:     -13.2      0.000      0.000
REMARK SMILES CC(=O)N[C@@H](CS[C@@H]1CC(=O)N(c2cccc3ccccc23)C1=O)C(=O)NCCCNC(=O)c1ccc(-c2c3nc(c(-c4c(F)c(F)c(F)c(F)c4F)c4ccc([nH]4)c(-c4c(F)c(F)c(F)c(F)c4F)c4nc(c(-c5c(F)c(F)c(F)c(F)c5F)c5ccc2[nH]5)C=C4)C=C3)cc1
REMARK SMILES IDX 28 1 27 2 25 3 26 4 5 6 4 7 1 8 2 9 3 10 6 12 7 13 8 14 9 15
REMARK SMILES IDX 23 16 10 17 12 18 24 19 11 20 13 21 14 22 22 23 15 24 17 25
REMARK SMILES IDX 21 26 16 27 18 28 20 29 19 30 29 31 30 32 31 33 32 34 33 36
REMARK SMILES IDX 34 37 35 38 96 39 36 40 95 41 37 42 38 43 39 44 89 45 40 46
REMARK SMILES IDX 94 47 88 48 90 49 41 50 93 51 87 52 86 53 42 55 74 56 54 57
REMARK SMILES IDX 73 58 55 59 58 60 72 61 91 62 56 63 57 64 71 66 92 67 59 68
REMARK SMILES IDX 43 69 44 70 52 71 45 72 46 73 50 74 53 75 47 76 48 77 51 78
REMARK SMILES IDX 49 79 75 80 76 81 84 82 77 83 78 84 82 85 85 86 79 87 80 88
REMARK SMILES IDX 83 89 81 90 60 91 61 92 69 93 62 94 63 95 67 96 70 97 64 98
REMARK SMILES IDX 65 99 68 100 66 101
REMARK H PARENT 27 5 4 11 31 35 90 54 58 65
REMARK Flexibility Score: inf
ROOT
ATOM      1  C   UNL A   1      31.683  28.496  26.088  1.00  0.00     0.117 C 
ENDROOT
BRANCH   1   2
ATOM      2  N   UNL A   1      32.678  27.450  25.843  1.00  0.00    -0.354 N 
ATOM      3  C   UNL A   1      32.934  26.560  24.847  1.00  0.00     0.243 C 
ATOM      4  O   UNL A   1      34.060  26.036  24.910  1.00  0.00    -0.273 OA
ATOM      5  H   UNL A   1      33.322  27.371  26.583  1.00  0.00     0.163 HD
BRANCH   3   6
ATOM      6  C   UNL A   1      32.001  26.130  23.680  1.00  0.00     0.181 C 
BRANCH   6   7
ATOM      7  N   UNL A   1      31.553  27.265  22.876  1.00  0.00    -0.344 N 
ATOM      8  C   UNL A   1      29.175  27.279  23.531  1.00  0.00     0.114 C 
ATOM      9  C   UNL A   1      30.311  27.779  22.684  1.00  0.00     0.217 C 
ATOM     10  O   UNL A   1      30.143  28.640  21.822  1.00  0.00    -0.275 OA
ATOM     11  H   UNL A   1      32.271  27.734  22.392  1.00  0.00     0.164 HD
ENDBRANCH   6   7
BRANCH   6  12
ATOM     12  C   UNL A   1      32.225  24.892  22.819  1.00  0.00     0.105 C 
BRANCH  12  13
ATOM     13  S   UNL A   1      31.887  23.107  23.144  1.00  0.00    -0.145 SA
BRANCH  13  14
ATOM     14  C   UNL A   1      33.358  22.158  23.719  1.00  0.00     0.146 C 
ATOM     15  C   UNL A   1      33.017  21.784  25.159  1.00  0.00     0.125 C 
ATOM     16  C   UNL A   1      34.752  22.783  23.882  1.00  0.00     0.247 C 
ATOM     17  C   UNL A   1      34.292  21.990  25.931  1.00  0.00     0.235 C 
ATOM     18  N   UNL A   1      35.184  22.749  25.198  1.00  0.00    -0.249 N 
ATOM     19  O   UNL A   1      35.431  23.132  22.923  1.00  0.00    -0.273 OA
ATOM     20  O   UNL A   1      34.452  21.483  27.025  1.00  0.00    -0.274 OA
BRANCH  18  21
ATOM     21  C   UNL A   1      36.612  22.819  25.536  1.00  0.00     0.060 A 
ATOM     22  C   UNL A   1      37.013  24.108  25.918  1.00  0.00     0.027 A 
ATOM     23  C   UNL A   1      37.629  21.714  25.595  1.00  0.00     0.006 A 
ATOM     24  C   UNL A   1      38.284  24.344  26.416  1.00  0.00     0.003 A 
ATOM     25  C   UNL A   1      38.887  21.998  26.183  1.00  0.00    -0.016 A 
ATOM     26  C   UNL A   1      37.687  20.397  25.003  1.00  0.00     0.011 A 
ATOM     27  C   UNL A   1      39.186  23.300  26.575  1.00  0.00     0.009 A 
ATOM     28  C   UNL A   1      39.927  21.031  26.297  1.00  0.00     0.009 A 
ATOM     29  C   UNL A   1      38.699  19.424  25.096  1.00  0.00     0.001 A 
ATOM     30  C   UNL A   1      39.833  19.744  25.781  1.00  0.00     0.001 A 
ENDBRANCH  18  21
ENDBRANCH  13  14
ENDBRANCH  12  13
ENDBRANCH   6  12
ENDBRANCH   3   6
ENDBRANCH   1   2
BRANCH   1  31
ATOM     31  C   UNL A   1      31.901  29.816  25.349  1.00  0.00     0.042 C 
BRANCH  31  32
ATOM     32  C   UNL A   1      31.005  31.016  25.657  1.00  0.00     0.118 C 
BRANCH  32  33
ATOM     33  N   UNL A   1      31.567  32.094  26.554  1.00  0.00    -0.352 N 
ATOM     34  C   UNL A   1      32.690  32.530  27.291  1.00  0.00     0.251 C 
ATOM     35  H   UNL A   1      30.862  32.770  26.675  1.00  0.00     0.163 HD
ATOM     36  O   UNL A   1      32.562  33.706  27.671  1.00  0.00    -0.269 OA
BRANCH  34  37
ATOM     37  C   UNL A   1      33.981  31.863  27.793  1.00  0.00     0.039 A 
ATOM     38  C   UNL A   1      35.072  32.690  28.115  1.00  0.00     0.014 A 
ATOM     39  C   UNL A   1      34.347  30.521  27.751  1.00  0.00     0.014 A 
ATOM     40  C   UNL A   1      36.336  32.197  28.593  1.00  0.00     0.010 A 
ATOM     41  C   UNL A   1      35.563  30.022  28.379  1.00  0.00     0.010 A 
ATOM     42  C   UNL A   1      36.577  30.845  28.904  1.00  0.00    -0.014 A 
BRANCH  42  43
ATOM     43  C   UNL A   1      37.812  30.397  29.775  1.00  0.00     0.031 A 
ATOM     44  C   UNL A   1      38.101  30.837  31.238  1.00  0.00     0.074 A 
ATOM     45  C   UNL A   1      38.813  29.629  29.246  1.00  0.00     0.049 A 
ATOM     46  N   UNL A   1      39.130  30.533  32.024  1.00  0.00    -0.248 NA
ATOM     47  C   UNL A   1      37.163  31.755  31.892  1.00  0.00     0.031 C 
ATOM     48  C   UNL A   1      38.910  29.183  27.854  1.00  0.00     0.029 A 
ATOM     49  N   UNL A   1      39.970  29.087  29.809  1.00  0.00    -0.354 N 
ATOM     50  C   UNL A   1      38.964  31.235  33.223  1.00  0.00     0.074 A 
ATOM     51  C   UNL A   1      37.781  32.047  33.031  1.00  0.00     0.031 C 
ATOM     52  C   UNL A   1      39.986  28.401  27.690  1.00  0.00     0.029 A 
ATOM     53  C   UNL A   1      40.725  28.316  28.943  1.00  0.00     0.049 A 
ATOM     54  H   UNL A   1      40.227  29.240  30.747  1.00  0.00     0.167 HD
ATOM     55  C   UNL A   1      39.662  31.197  34.398  1.00  0.00     0.037 A 
ATOM     56  C   UNL A   1      41.875  27.614  29.081  1.00  0.00     0.037 A 
ATOM     57  C   UNL A   1      40.814  30.371  34.692  1.00  0.00     0.049 A 
ATOM     58  C   UNL A   1      42.614  27.549  30.395  1.00  0.00     0.074 A 
ATOM     59  C   UNL A   1      41.483  30.216  35.903  1.00  0.00     0.029 A 
ATOM     60  N   UNL A   1      41.474  29.562  33.786  1.00  0.00    -0.354 N 
ATOM     61  N   UNL A   1      42.324  28.113  31.537  1.00  0.00    -0.248 NA
ATOM     62  C   UNL A   1      43.841  26.728  30.439  1.00  0.00     0.031 C 
ATOM     63  C   UNL A   1      42.565  29.349  35.719  1.00  0.00     0.029 A 
ATOM     64  C   UNL A   1      42.539  28.917  34.408  1.00  0.00     0.049 A 
ATOM     65  H   UNL A   1      41.225  29.456  32.839  1.00  0.00     0.167 HD
ATOM     66  C   UNL A   1      43.290  27.672  32.438  1.00  0.00     0.074 A 
ATOM     67  C   UNL A   1      44.172  26.785  31.721  1.00  0.00     0.031 C 
ATOM     68  C   UNL A   1      43.417  27.989  33.747  1.00  0.00     0.037 A 
BRANCH  55  69
ATOM     69  C   UNL A   1      39.155  32.037  35.556  1.00  0.00     0.064 A 
ATOM     70  C   UNL A   1      38.317  31.482  36.537  1.00  0.00     0.173 A 
ATOM     71  C   UNL A   1      39.610  33.351  35.767  1.00  0.00     0.173 A 
ATOM     72  F   UNL A   1      37.873  30.223  36.408  1.00  0.00    -0.203 F 
ATOM     73  C   UNL A   1      37.916  32.219  37.650  1.00  0.00     0.198 A 
ATOM     74  C   UNL A   1      39.239  34.073  36.902  1.00  0.00     0.198 A 
ATOM     75  F   UNL A   1      40.453  33.926  34.894  1.00  0.00    -0.203 F 
ATOM     76  F   UNL A   1      37.078  31.676  38.543  1.00  0.00    -0.200 F 
ATOM     77  C   UNL A   1      38.383  33.510  37.837  1.00  0.00     0.200 A 
ATOM     78  F   UNL A   1      39.720  35.308  37.101  1.00  0.00    -0.200 F 
ATOM     79  F   UNL A   1      38.010  34.210  38.917  1.00  0.00    -0.200 F 
ENDBRANCH  55  69
BRANCH  56  80
ATOM     80  C   UNL A   1      42.428  26.839  27.926  1.00  0.00     0.064 A 
ATOM     81  C   UNL A   1      43.217  27.469  26.949  1.00  0.00     0.173 A 
ATOM     82  C   UNL A   1      42.118  25.485  27.730  1.00  0.00     0.173 A 
ATOM     83  F   UNL A   1      43.513  28.773  27.069  1.00  0.00    -0.203 F 
ATOM     84  C   UNL A   1      43.635  26.791  25.805  1.00  0.00     0.198 A 
ATOM     85  C   UNL A   1      42.573  24.796  26.605  1.00  0.00     0.198 A 
ATOM     86  F   UNL A   1      41.369  24.830  28.629  1.00  0.00    -0.203 F 
ATOM     87  F   UNL A   1      44.311  27.446  24.851  1.00  0.00    -0.200 F 
ATOM     88  C   UNL A   1      43.315  25.454  25.636  1.00  0.00     0.200 A 
ATOM     89  F   UNL A   1      42.274  23.499  26.450  1.00  0.00    -0.200 F 
ATOM     90  F   UNL A   1      43.707  24.804  24.532  1.00  0.00    -0.200 F 
ENDBRANCH  56  80
BRANCH  68  91
ATOM     91  C   UNL A   1      44.502  27.315  34.544  1.00  0.00     0.064 A 
ATOM     92  C   UNL A   1      44.309  26.078  35.179  1.00  0.00     0.173 A 
ATOM     93  C   UNL A   1      45.771  27.908  34.655  1.00  0.00     0.173 A 
ATOM     94  F   UNL A   1      43.115  25.470  35.122  1.00  0.00    -0.203 F 
ATOM     95  C   UNL A   1      45.331  25.477  35.915  1.00  0.00     0.198 A 
ATOM     96  C   UNL A   1      46.800  27.290  35.365  1.00  0.00     0.198 A 
ATOM     97  F   UNL A   1      46.019  29.090  34.070  1.00  0.00    -0.203 F 
ATOM     98  F   UNL A   1      45.104  24.321  36.553  1.00  0.00    -0.200 F 
ATOM     99  C   UNL A   1      46.577  26.079  36.000  1.00  0.00     0.200 A 
ATOM    100  F   UNL A   1      48.007  27.869  35.435  1.00  0.00    -0.200 F 
ATOM    101  F   UNL A   1      47.559  25.496  36.701  1.00  0.00    -0.200 F 
ENDBRANCH  68  91
ENDBRANCH  42  43
ENDBRANCH  34  37
ENDBRANCH  32  33
ENDBRANCH  31  32
ENDBRANCH   1  31
TORSDOF 15
ENDMDL
MODEL 2
REMARK VINA RESULT:     -13.0      1.443      2.903
REMARK SMILES CC(=O)N[C@@H](CS[C@@H]1CC(=O)N(c2cccc3ccccc23)C1=O)C(=O)NCCCNC(=O)c1ccc(-c2c3nc(c(-c4c(F)c(F)c(F)c(F)c4F)c4ccc([nH]4)c(-c4c(F)c(F)c(F)c(F)c4F)c4nc(c(-c5c(F)c(F)c(F)c(F)c5F)c5ccc2[nH]5)C=C4)C=C3)cc1
REMARK SMILES IDX 28 1 27 2 25 3 26 4 5 6 4 7 1 8 2 9 3 10 6 12 7 13 8 14 9 15
REMARK SMILES IDX 23 16 10 17 12 18 24 19 11 20 13 21 14 22 22 23 15 24 17 25
REMARK SMILES IDX 21 26 16 27 18 28 20 29 19 30 29 31 30 32 31 33 32 34 33 36
REMARK SMILES IDX 34 37 35 38 96 39 36 40 95 41 37 42 38 43 39 44 89 45 40 46
REMARK SMILES IDX 94 47 88 48 90 49 41 50 93 51 87 52 86 53 42 55 74 56 54 57
REMARK SMILES IDX 73 58 55 59 58 60 72 61 91 62 56 63 57 64 71 66 92 67 59 68
REMARK SMILES IDX 43 69 44 70 52 71 45 72 46 73 50 74 53 75 47 76 48 77 51 78
REMARK SMILES IDX 49 79 75 80 76 81 84 82 77 83 78 84 82 85 85 86 79 87 80 88
REMARK SMILES IDX 83 89 81 90 60 91 61 92 69 93 62 94 63 95 67 96 70 97 64 98
REMARK SMILES IDX 65 99 68 100 66 101
REMARK H PARENT 27 5 4 11 31 35 90 54 58 65
REMARK Flexibility Score: inf
ROOT
ATOM      1  C   UNL A   1      31.829  29.741  27.247  1.00  0.00     0.117 C 
ENDROOT
BRANCH   1   2
ATOM      2  N   UNL A   1      32.669  28.564  27.011  1.00  0.00    -0.354 N 
ATOM      3  C   UNL A   1      33.000  27.801  25.934  1.00  0.00     0.243 C 
ATOM      4  O   UNL A   1      33.977  27.056  26.121  1.00  0.00    -0.273 OA
ATOM      5  H   UNL A   1      33.101  28.246  27.836  1.00  0.00     0.163 HD
BRANCH   3   6
ATOM      6  C   UNL A   1      32.306  27.750  24.544  1.00  0.00     0.181 C 
BRANCH   6   7
ATOM      7  N   UNL A   1      32.922  26.774  23.648  1.00  0.00    -0.344 N 
ATOM      8  C   UNL A   1      33.973  28.335  22.052  1.00  0.00     0.114 C 
ATOM      9  C   UNL A   1      33.595  26.945  22.481  1.00  0.00     0.217 C 
ATOM     10  O   UNL A   1      33.879  25.960  21.801  1.00  0.00    -0.275 OA
ATOM     11  H   UNL A   1      32.832  25.837  23.938  1.00  0.00     0.164 HD
ENDBRANCH   6   7
BRANCH   6  12
ATOM     12  C   UNL A   1      30.796  27.818  24.340  1.00  0.00     0.105 C 
BRANCH  12  13
ATOM     13  S   UNL A   1      29.583  26.536  23.801  1.00  0.00    -0.145 SA
BRANCH  13  14
ATOM     14  C   UNL A   1      29.925  24.852  24.468  1.00  0.00     0.146 C 
ATOM     15  C   UNL A   1      30.156  25.083  25.958  1.00  0.00     0.125 C 
ATOM     16  C   UNL A   1      31.167  24.032  24.085  1.00  0.00     0.247 C 
ATOM     17  C   UNL A   1      31.320  24.201  26.317  1.00  0.00     0.235 C 
ATOM     18  N   UNL A   1      31.981  23.783  25.177  1.00  0.00    -0.249 N 
ATOM     19  O   UNL A   1      31.317  23.551  22.966  1.00  0.00    -0.273 OA
ATOM     20  O   UNL A   1      31.551  23.906  27.475  1.00  0.00    -0.274 OA
BRANCH  18  21
ATOM     21  C   UNL A   1      32.923  22.656  25.189  1.00  0.00     0.060 A 
ATOM     22  C   UNL A   1      32.276  21.412  25.205  1.00  0.00     0.027 A 
ATOM     23  C   UNL A   1      34.424  22.673  25.109  1.00  0.00     0.006 A 
ATOM     24  C   UNL A   1      32.988  20.232  25.068  1.00  0.00     0.003 A 
ATOM     25  C   UNL A   1      35.093  21.443  24.894  1.00  0.00    -0.016 A 
ATOM     26  C   UNL A   1      35.413  23.690  25.387  1.00  0.00     0.011 A 
ATOM     27  C   UNL A   1      34.364  20.256  24.882  1.00  0.00     0.009 A 
ATOM     28  C   UNL A   1      36.510  21.334  24.798  1.00  0.00     0.009 A 
ATOM     29  C   UNL A   1      36.815  23.612  25.304  1.00  0.00     0.001 A 
ATOM     30  C   UNL A   1      37.371  22.411  24.978  1.00  0.00     0.001 A 
ENDBRANCH  18  21
ENDBRANCH  13  14
ENDBRANCH  12  13
ENDBRANCH   6  12
ENDBRANCH   3   6
ENDBRANCH   1   2
BRANCH   1  31
ATOM     31  C   UNL A   1      31.883  30.829  26.174  1.00  0.00     0.042 C 
BRANCH  31  32
ATOM     32  C   UNL A   1      31.245  32.193  26.442  1.00  0.00     0.118 C 
BRANCH  32  33
ATOM     33  N   UNL A   1      32.088  33.229  27.148  1.00  0.00    -0.352 N 
ATOM     34  C   UNL A   1      33.353  33.524  27.701  1.00  0.00     0.251 C 
ATOM     35  H   UNL A   1      31.524  34.027  27.273  1.00  0.00     0.163 HD
ATOM     36  O   UNL A   1      33.469  34.734  27.963  1.00  0.00    -0.269 OA
BRANCH  34  37
ATOM     37  C   UNL A   1      34.572  32.688  28.125  1.00  0.00     0.039 A 
ATOM     38  C   UNL A   1      35.759  33.367  28.451  1.00  0.00     0.014 A 
ATOM     39  C   UNL A   1      34.779  31.318  28.001  1.00  0.00     0.014 A 
ATOM     40  C   UNL A   1      36.971  32.706  28.860  1.00  0.00     0.010 A 
ATOM     41  C   UNL A   1      35.945  30.649  28.560  1.00  0.00     0.010 A 
ATOM     42  C   UNL A   1      37.062  31.320  29.093  1.00  0.00    -0.014 A 
BRANCH  42  43
ATOM     43  C   UNL A   1      38.261  30.687  29.897  1.00  0.00     0.031 A 
ATOM     44  C   UNL A   1      38.632  31.001  31.374  1.00  0.00     0.074 A 
ATOM     45  C   UNL A   1      39.158  29.849  29.292  1.00  0.00     0.049 A 
ATOM     46  N   UNL A   1      39.640  30.539  32.108  1.00  0.00    -0.248 NA
ATOM     47  C   UNL A   1      37.818  31.973  32.110  1.00  0.00     0.031 C 
ATOM     48  C   UNL A   1      39.171  29.483  27.875  1.00  0.00     0.029 A 
ATOM     49  N   UNL A   1      40.260  29.150  29.787  1.00  0.00    -0.354 N 
ATOM     50  C   UNL A   1      39.582  31.178  33.351  1.00  0.00     0.074 A 
ATOM     51  C   UNL A   1      38.491  32.125  33.244  1.00  0.00     0.031 C 
ATOM     52  C   UNL A   1      40.149  28.600  27.631  1.00  0.00     0.029 A 
ATOM     53  C   UNL A   1      40.904  28.357  28.854  1.00  0.00     0.049 A 
ATOM     54  H   UNL A   1      40.556  29.216  30.723  1.00  0.00     0.167 HD
ATOM     55  C   UNL A   1      40.299  30.991  34.500  1.00  0.00     0.037 A 
ATOM     56  C   UNL A   1      41.973  27.527  28.914  1.00  0.00     0.037 A 
ATOM     57  C   UNL A   1      41.360  30.027  34.709  1.00  0.00     0.049 A 
ATOM     58  C   UNL A   1      42.732  27.300  30.198  1.00  0.00     0.074 A 
ATOM     59  C   UNL A   1      42.037  29.726  35.887  1.00  0.00     0.029 A 
ATOM     60  N   UNL A   1      41.904  29.210  33.736  1.00  0.00    -0.354 N 
ATOM     61  N   UNL A   1      42.533  27.820  31.380  1.00  0.00    -0.248 NA
ATOM     62  C   UNL A   1      43.861  26.349  30.155  1.00  0.00     0.031 C 
ATOM     63  C   UNL A   1      43.011  28.759  35.618  1.00  0.00     0.029 A 
ATOM     64  C   UNL A   1      42.905  28.415  34.285  1.00  0.00     0.049 A 
ATOM     65  H   UNL A   1      41.622  29.191  32.793  1.00  0.00     0.167 HD
ATOM     66  C   UNL A   1      43.466  27.221  32.223  1.00  0.00     0.074 A 
ATOM     67  C   UNL A   1      44.227  26.289  31.427  1.00  0.00     0.031 C 
ATOM     68  C   UNL A   1      43.660  27.440  33.544  1.00  0.00     0.037 A 
BRANCH  55  69
ATOM     69  C   UNL A   1      39.917  31.808  35.721  1.00  0.00     0.064 A 
ATOM     70  C   UNL A   1      40.586  33.005  36.025  1.00  0.00     0.173 A 
ATOM     71  C   UNL A   1      38.800  31.476  36.509  1.00  0.00     0.173 A 
ATOM     72  F   UNL A   1      41.640  33.391  35.291  1.00  0.00    -0.203 F 
ATOM     73  C   UNL A   1      40.188  33.807  37.092  1.00  0.00     0.198 A 
ATOM     74  C   UNL A   1      38.380  32.302  37.553  1.00  0.00     0.198 A 
ATOM     75  F   UNL A   1      38.086  30.371  36.243  1.00  0.00    -0.203 F 
ATOM     76  F   UNL A   1      40.877  34.919  37.385  1.00  0.00    -0.200 F 
ATOM     77  C   UNL A   1      39.081  33.460  37.851  1.00  0.00     0.200 A 
ATOM     78  F   UNL A   1      37.288  31.985  38.263  1.00  0.00    -0.200 F 
ATOM     79  F   UNL A   1      38.689  34.243  38.865  1.00  0.00    -0.200 F 
ENDBRANCH  55  69
BRANCH  56  80
ATOM     80  C   UNL A   1      42.409  26.769  27.699  1.00  0.00     0.064 A 
ATOM     81  C   UNL A   1      41.881  25.497  27.417  1.00  0.00     0.173 A 
ATOM     82  C   UNL A   1      43.410  27.256  26.845  1.00  0.00     0.173 A 
ATOM     83  F   UNL A   1      40.947  24.968  28.222  1.00  0.00    -0.203 F 
ATOM     84  C   UNL A   1      42.367  24.728  26.361  1.00  0.00     0.198 A 
ATOM     85  C   UNL A   1      43.865  26.502  25.763  1.00  0.00     0.198 A 
ATOM     86  F   UNL A   1      43.950  28.464  27.064  1.00  0.00    -0.203 F 
ATOM     87  F   UNL A   1      41.904  23.485  26.173  1.00  0.00    -0.200 F 
ATOM     88  C   UNL A   1      43.356  25.233  25.533  1.00  0.00     0.200 A 
ATOM     89  F   UNL A   1      44.812  26.998  24.955  1.00  0.00    -0.200 F 
ATOM     90  F   UNL A   1      43.831  24.490  24.523  1.00  0.00    -0.200 F 
ENDBRANCH  56  80
BRANCH  68  91
ATOM     91  C   UNL A   1      44.682  26.604  34.266  1.00  0.00     0.064 A 
ATOM     92  C   UNL A   1      46.014  27.018  34.427  1.00  0.00     0.173 A 
ATOM     93  C   UNL A   1      44.315  25.370  34.831  1.00  0.00     0.173 A 
ATOM     94  F   UNL A   1      46.427  28.179  33.897  1.00  0.00    -0.203 F 
ATOM     95  C   UNL A   1      46.941  26.221  35.098  1.00  0.00     0.198 A 
ATOM     96  C   UNL A   1      45.238  24.590  35.527  1.00  0.00     0.198 A 
ATOM     97  F   UNL A   1      43.058  24.919  34.712  1.00  0.00    -0.203 F 
ATOM     98  F   UNL A   1      48.218  26.617  35.193  1.00  0.00    -0.200 F 
ATOM     99  C   UNL A   1      46.551  25.013  35.654  1.00  0.00     0.200 A 
ATOM    100  F   UNL A   1      44.854  23.428  36.075  1.00  0.00    -0.200 F 
ATOM    101  F   UNL A   1      47.443  24.252  36.305  1.00  0.00    -0.200 F 
ENDBRANCH  68  91
ENDBRANCH  42  43
ENDBRANCH  34  37
ENDBRANCH  32  33
ENDBRANCH  31  32
ENDBRANCH   1  31
TORSDOF 15
ENDMDL
MODEL 3
REMARK VINA RESULT:     -12.7      4.172     10.552
REMARK SMILES CC(=O)N[C@@H](CS[C@@H]1CC(=O)N(c2cccc3ccccc23)C1=O)C(=O)NCCCNC(=O)c1ccc(-c2c3nc(c(-c4c(F)c(F)c(F)c(F)c4F)c4ccc([nH]4)c(-c4c(F)c(F)c(F)c(F)c4F)c4nc(c(-c5c(F)c(F)c(F)c(F)c5F)c5ccc2[nH]5)C=C4)C=C3)cc1
REMARK SMILES IDX 28 1 27 2 25 3 26 4 5 6 4 7 1 8 2 9 3 10 6 12 7 13 8 14 9 15
REMARK SMILES IDX 23 16 10 17 12 18 24 19 11 20 13 21 14 22 22 23 15 24 17 25
REMARK SMILES IDX 21 26 16 27 18 28 20 29 19 30 29 31 30 32 31 33 32 34 33 36
REMARK SMILES IDX 34 37 35 38 96 39 36 40 95 41 37 42 38 43 39 44 89 45 40 46
REMARK SMILES IDX 94 47 88 48 90 49 41 50 93 51 87 52 86 53 42 55 74 56 54 57
REMARK SMILES IDX 73 58 55 59 58 60 72 61 91 62 56 63 57 64 71 66 92 67 59 68
REMARK SMILES IDX 43 69 44 70 52 71 45 72 46 73 50 74 53 75 47 76 48 77 51 78
REMARK SMILES IDX 49 79 75 80 76 81 84 82 77 83 78 84 82 85 85 86 79 87 80 88
REMARK SMILES IDX 83 89 81 90 60 91 61 92 69 93 62 94 63 95 67 96 70 97 64 98
REMARK SMILES IDX 65 99 68 100 66 101
REMARK H PARENT 27 5 4 11 31 35 90 54 58 65
REMARK Flexibility Score: inf
ROOT
ATOM      1  C   UNL A   1      35.631  21.168  24.565  1.00  0.00     0.117 C 
ENDROOT
BRANCH   1   2
ATOM      2  N   UNL A   1      34.360  20.600  25.021  1.00  0.00    -0.354 N 
ATOM      3  C   UNL A   1      33.047  20.946  24.931  1.00  0.00     0.243 C 
ATOM      4  O   UNL A   1      32.259  20.028  25.216  1.00  0.00    -0.273 OA
ATOM      5  H   UNL A   1      34.487  19.759  25.516  1.00  0.00     0.163 HD
BRANCH   3   6
ATOM      6  C   UNL A   1      32.443  22.322  24.535  1.00  0.00     0.181 C 
BRANCH   6   7
ATOM      7  N   UNL A   1      32.323  23.228  25.675  1.00  0.00    -0.344 N 
ATOM      8  C   UNL A   1      30.060  22.594  26.426  1.00  0.00     0.114 C 
ATOM      9  C   UNL A   1      31.275  23.475  26.503  1.00  0.00     0.217 C 
ATOM     10  O   UNL A   1      31.343  24.412  27.296  1.00  0.00    -0.275 OA
ATOM     11  H   UNL A   1      33.135  23.747  25.874  1.00  0.00     0.164 HD
ENDBRANCH   6   7
BRANCH   6  12
ATOM     12  C   UNL A   1      32.801  23.077  23.259  1.00  0.00     0.105 C 
BRANCH  12  13
ATOM     13  S   UNL A   1      33.869  24.556  22.980  1.00  0.00    -0.145 SA
BRANCH  13  14
ATOM     14  C   UNL A   1      32.967  26.160  23.074  1.00  0.00     0.146 C 
ATOM     15  C   UNL A   1      32.860  26.439  24.570  1.00  0.00     0.125 C 
ATOM     16  C   UNL A   1      31.509  26.333  22.622  1.00  0.00     0.247 C 
ATOM     17  C   UNL A   1      31.467  26.966  24.774  1.00  0.00     0.235 C 
ATOM     18  N   UNL A   1      30.680  26.695  23.671  1.00  0.00    -0.249 N 
ATOM     19  O   UNL A   1      31.177  26.288  21.441  1.00  0.00    -0.273 OA
ATOM     20  O   UNL A   1      31.169  27.580  25.782  1.00  0.00    -0.274 OA
BRANCH  18  21
ATOM     21  C   UNL A   1      29.401  27.378  23.435  1.00  0.00     0.060 A 
ATOM     22  C   UNL A   1      28.303  26.649  23.916  1.00  0.00     0.027 A 
ATOM     23  C   UNL A   1      29.145  28.735  22.841  1.00  0.00     0.006 A 
ATOM     24  C   UNL A   1      27.030  27.193  23.922  1.00  0.00     0.003 A 
ATOM     25  C   UNL A   1      27.837  29.270  22.943  1.00  0.00    -0.016 A 
ATOM     26  C   UNL A   1      29.929  29.600  21.988  1.00  0.00     0.011 A 
ATOM     27  C   UNL A   1      26.814  28.490  23.476  1.00  0.00     0.009 A 
ATOM     28  C   UNL A   1      27.476  30.546  22.421  1.00  0.00     0.009 A 
ATOM     29  C   UNL A   1      29.599  30.860  21.457  1.00  0.00     0.001 A 
ATOM     30  C   UNL A   1      28.351  31.351  21.702  1.00  0.00     0.001 A 
ENDBRANCH  18  21
ENDBRANCH  13  14
ENDBRANCH  12  13
ENDBRANCH   6  12
ENDBRANCH   3   6
ENDBRANCH   1   2
BRANCH   1  31
ATOM     31  C   UNL A   1      36.862  20.812  25.398  1.00  0.00     0.042 C 
BRANCH  31  32
ATOM     32  C   UNL A   1      37.751  19.640  24.978  1.00  0.00     0.118 C 
BRANCH  32  33
ATOM     33  N   UNL A   1      39.133  19.562  25.583  1.00  0.00    -0.352 N 
ATOM     34  C   UNL A   1      40.118  20.241  26.332  1.00  0.00     0.251 C 
ATOM     35  H   UNL A   1      39.495  18.672  25.367  1.00  0.00     0.163 HD
ATOM     36  O   UNL A   1      41.027  19.475  26.697  1.00  0.00    -0.269 OA
BRANCH  34  37
ATOM     37  C   UNL A   1      40.362  21.708  26.724  1.00  0.00     0.039 A 
ATOM     38  C   UNL A   1      41.393  21.986  27.639  1.00  0.00     0.014 A 
ATOM     39  C   UNL A   1      39.551  22.818  26.508  1.00  0.00     0.014 A 
ATOM     40  C   UNL A   1      41.724  23.312  28.090  1.00  0.00     0.010 A 
ATOM     41  C   UNL A   1      39.975  24.171  26.835  1.00  0.00     0.010 A 
ATOM     42  C   UNL A   1      41.132  24.481  27.574  1.00  0.00    -0.014 A 
BRANCH  42  43
ATOM     43  C   UNL A   1      41.770  25.906  27.795  1.00  0.00     0.031 A 
ATOM     44  C   UNL A   1      43.182  26.354  27.321  1.00  0.00     0.074 A 
ATOM     45  C   UNL A   1      41.133  26.862  28.537  1.00  0.00     0.049 A 
ATOM     46  N   UNL A   1      43.802  27.517  27.496  1.00  0.00    -0.248 NA
ATOM     47  C   UNL A   1      44.022  25.386  26.609  1.00  0.00     0.031 C 
ATOM     48  C   UNL A   1      39.862  26.695  29.246  1.00  0.00     0.029 A 
ATOM     49  N   UNL A   1      41.468  28.182  28.843  1.00  0.00    -0.354 N 
ATOM     50  C   UNL A   1      45.083  27.397  26.945  1.00  0.00     0.074 A 
ATOM     51  C   UNL A   1      45.183  26.021  26.506  1.00  0.00     0.031 C 
ATOM     52  C   UNL A   1      39.497  27.847  29.825  1.00  0.00     0.029 A 
ATOM     53  C   UNL A   1      40.527  28.854  29.602  1.00  0.00     0.049 A 
ATOM     54  H   UNL A   1      42.307  28.601  28.544  1.00  0.00     0.167 HD
ATOM     55  C   UNL A   1      46.075  28.317  26.754  1.00  0.00     0.037 A 
ATOM     56  C   UNL A   1      40.449  30.116  30.090  1.00  0.00     0.037 A 
ATOM     57  C   UNL A   1      46.031  29.722  27.107  1.00  0.00     0.049 A 
ATOM     58  C   UNL A   1      41.535  31.132  29.839  1.00  0.00     0.074 A 
ATOM     59  C   UNL A   1      46.968  30.714  26.831  1.00  0.00     0.029 A 
ATOM     60  N   UNL A   1      45.013  30.342  27.805  1.00  0.00    -0.354 N 
ATOM     61  N   UNL A   1      42.656  31.003  29.179  1.00  0.00    -0.248 NA
ATOM     62  C   UNL A   1      41.332  32.487  30.392  1.00  0.00     0.031 C 
ATOM     63  C   UNL A   1      46.535  31.918  27.394  1.00  0.00     0.029 A 
ATOM     64  C   UNL A   1      45.301  31.693  27.973  1.00  0.00     0.049 A 
ATOM     65  H   UNL A   1      44.200  29.894  28.135  1.00  0.00     0.167 HD
ATOM     66  C   UNL A   1      43.254  32.260  29.190  1.00  0.00     0.074 A 
ATOM     67  C   UNL A   1      42.375  33.147  29.910  1.00  0.00     0.031 C 
ATOM     68  C   UNL A   1      44.436  32.626  28.643  1.00  0.00     0.037 A 
BRANCH  55  69
ATOM     69  C   UNL A   1      47.334  27.870  26.033  1.00  0.00     0.064 A 
ATOM     70  C   UNL A   1      48.451  27.412  26.751  1.00  0.00     0.173 A 
ATOM     71  C   UNL A   1      47.382  27.767  24.631  1.00  0.00     0.173 A 
ATOM     72  F   UNL A   1      48.454  27.456  28.091  1.00  0.00    -0.203 F 
ATOM     73  C   UNL A   1      49.578  26.917  26.098  1.00  0.00     0.198 A 
ATOM     74  C   UNL A   1      48.497  27.235  23.983  1.00  0.00     0.198 A 
ATOM     75  F   UNL A   1      46.329  28.142  23.887  1.00  0.00    -0.203 F 
ATOM     76  F   UNL A   1      50.646  26.532  26.810  1.00  0.00    -0.200 F 
ATOM     77  C   UNL A   1      49.599  26.821  24.715  1.00  0.00     0.200 A 
ATOM     78  F   UNL A   1      48.502  27.108  22.648  1.00  0.00    -0.200 F 
ATOM     79  F   UNL A   1      50.678  26.329  24.092  1.00  0.00    -0.200 F 
ENDBRANCH  55  69
BRANCH  56  80
ATOM     80  C   UNL A   1      39.247  30.551  30.868  1.00  0.00     0.064 A 
ATOM     81  C   UNL A   1      39.188  30.371  32.260  1.00  0.00     0.173 A 
ATOM     82  C   UNL A   1      38.109  31.076  30.237  1.00  0.00     0.173 A 
ATOM     83  F   UNL A   1      40.235  29.839  32.910  1.00  0.00    -0.203 F 
ATOM     84  C   UNL A   1      38.029  30.656  32.981  1.00  0.00     0.198 A 
ATOM     85  C   UNL A   1      36.964  31.400  30.965  1.00  0.00     0.198 A 
ATOM     86  F   UNL A   1      38.107  31.270  28.909  1.00  0.00    -0.203 F 
ATOM     87  F   UNL A   1      37.977  30.390  34.293  1.00  0.00    -0.200 F 
ATOM     88  C   UNL A   1      36.919  31.173  32.332  1.00  0.00     0.200 A 
ATOM     89  F   UNL A   1      35.898  31.913  30.338  1.00  0.00    -0.200 F 
ATOM     90  F   UNL A   1      35.801  31.438  33.022  1.00  0.00    -0.200 F 
ENDBRANCH  56  80
BRANCH  68  91
ATOM     91  C   UNL A   1      44.838  34.075  28.712  1.00  0.00     0.064 A 
ATOM     92  C   UNL A   1      44.442  35.012  27.744  1.00  0.00     0.173 A 
ATOM     93  C   UNL A   1      45.616  34.543  29.785  1.00  0.00     0.173 A 
ATOM     94  F   UNL A   1      43.711  34.622  26.688  1.00  0.00    -0.203 F 
ATOM     95  C   UNL A   1      44.832  36.348  27.831  1.00  0.00     0.198 A 
ATOM     96  C   UNL A   1      45.977  35.886  29.885  1.00  0.00     0.198 A 
ATOM     97  F   UNL A   1      46.024  33.698  30.743  1.00  0.00    -0.203 F 
ATOM     98  F   UNL A   1      44.483  37.210  26.866  1.00  0.00    -0.200 F 
ATOM     99  C   UNL A   1      45.591  36.786  28.905  1.00  0.00     0.200 A 
ATOM    100  F   UNL A   1      46.701  36.308  30.932  1.00  0.00    -0.200 F 
ATOM    101  F   UNL A   1      45.958  38.073  28.990  1.00  0.00    -0.200 F 
ENDBRANCH  68  91
ENDBRANCH  42  43
ENDBRANCH  34  37
ENDBRANCH  32  33
ENDBRANCH  31  32
ENDBRANCH   1  31
TORSDOF 15
ENDMDL
