MODEL 1
REMARK VINA RESULT:     -12.3      0.000      0.000
REMARK SMILES Cc1n[nH]c(C(=O)N[C@H](C(=O)NCCCNC(=O)c2ccc(-c3c4nc(c(-c5c(F)c(F)c(F)c(F)c5F)c5ccc([nH]5)c(-c5c(F)c(F)c(F)c(F)c5F)c5nc(c(-c6c(F)c(F)c(F)c(F)c6F)c6ccc3[nH]6)C=C5)C=C4)cc2)C(C)C)n1
REMARK SMILES IDX 14 1 13 2 12 3 10 4 11 5 9 7 8 8 6 9 7 10 5 12 1 13 2 14
REMARK SMILES IDX 3 15 85 16 4 17 82 19 83 20 84 21 15 22 16 23 17 24 18 26
REMARK SMILES IDX 19 27 20 28 81 29 21 30 80 31 22 32 23 33 24 34 74 35 25 36
REMARK SMILES IDX 79 37 73 38 75 39 26 40 78 41 72 42 71 43 27 45 59 46 39 47
REMARK SMILES IDX 58 48 40 49 43 50 57 51 76 52 41 53 42 54 56 56 77 57 44 58
REMARK SMILES IDX 28 59 29 60 37 61 30 62 31 63 35 64 38 65 32 66 33 67 36 68
REMARK SMILES IDX 34 69 60 70 61 71 69 72 62 73 63 74 67 75 70 76 64 77 65 78
REMARK SMILES IDX 68 79 66 80 45 81 46 82 54 83 47 84 48 85 52 86 55 87 49 88
REMARK SMILES IDX 50 89 53 90 51 91
REMARK H PARENT 12 6 8 11 4 18 16 25 75 44 43 55
REMARK Flexibility Score: inf
ROOT
ATOM      1  C   UNL A   1      32.773  30.057  27.243  1.00  0.00     0.042 C 
ENDROOT
BRANCH   1   2
ATOM      2  C   UNL A   1      32.306  30.101  25.790  1.00  0.00     0.117 C 
BRANCH   2   3
ATOM      3  N   UNL A   1      33.341  29.726  24.827  1.00  0.00    -0.354 N 
ATOM      4  C   UNL A   1      33.541  28.565  24.131  1.00  0.00     0.242 C 
ATOM      5  O   UNL A   1      34.450  28.567  23.299  1.00  0.00    -0.273 OA
ATOM      6  H   UNL A   1      34.007  30.428  24.648  1.00  0.00     0.163 HD
BRANCH   4   7
ATOM      7  C   UNL A   1      32.695  27.292  24.407  1.00  0.00     0.174 C 
BRANCH   7   8
ATOM      8  N   UNL A   1      32.266  26.716  23.135  1.00  0.00    -0.337 N 
ATOM      9  C   UNL A   1      31.366  27.112  22.175  1.00  0.00     0.289 C 
ATOM     10  O   UNL A   1      31.276  26.316  21.235  1.00  0.00    -0.266 OA
ATOM     11  H   UNL A   1      32.714  25.866  22.919  1.00  0.00     0.164 HD
BRANCH   9  12
ATOM     12  C   UNL A   1      30.568  28.324  22.260  1.00  0.00     0.214 A 
ATOM     13  C   UNL A   1      27.629  30.066  23.209  1.00  0.00     0.092 C 
ATOM     14  C   UNL A   1      28.942  29.618  22.712  1.00  0.00     0.148 A 
ATOM     15  N   UNL A   1      29.775  30.420  22.046  1.00  0.00    -0.159 NA
ATOM     16  N   UNL A   1      29.393  28.340  22.871  1.00  0.00    -0.207 NA
ATOM     17  N   UNL A   1      30.795  29.589  21.787  1.00  0.00    -0.255 N 
ATOM     18  H   UNL A   1      31.614  29.858  21.311  1.00  0.00     0.192 HD
ENDBRANCH   9  12
ENDBRANCH   7   8
BRANCH   7  19
ATOM     19  C   UNL A   1      33.249  26.163  25.321  1.00  0.00     0.015 C 
ATOM     20  C   UNL A   1      32.207  25.291  26.022  1.00  0.00     0.010 C 
ATOM     21  C   UNL A   1      34.173  25.245  24.499  1.00  0.00     0.010 C 
ENDBRANCH   7  19
ENDBRANCH   4   7
ENDBRANCH   2   3
ENDBRANCH   1   2
BRANCH   1  22
ATOM     22  C   UNL A   1      34.049  30.836  27.490  1.00  0.00     0.118 C 
BRANCH  22  23
ATOM     23  N   UNL A   1      33.981  31.756  28.630  1.00  0.00    -0.352 N 
ATOM     24  C   UNL A   1      34.899  31.874  29.670  1.00  0.00     0.251 C 
ATOM     25  H   UNL A   1      33.201  32.355  28.665  1.00  0.00     0.163 HD
ATOM     26  O   UNL A   1      34.621  32.405  30.722  1.00  0.00    -0.269 OA
BRANCH  24  27
ATOM     27  C   UNL A   1      36.246  31.319  29.437  1.00  0.00     0.039 A 
ATOM     28  C   UNL A   1      37.371  32.130  29.268  1.00  0.00     0.014 A 
ATOM     29  C   UNL A   1      36.359  29.938  29.513  1.00  0.00     0.014 A 
ATOM     30  C   UNL A   1      38.628  31.530  29.276  1.00  0.00     0.010 A 
ATOM     31  C   UNL A   1      37.585  29.392  29.760  1.00  0.00     0.010 A 
ATOM     32  C   UNL A   1      38.725  30.158  29.550  1.00  0.00    -0.014 A 
BRANCH  32  33
ATOM     33  C   UNL A   1      40.008  29.486  29.693  1.00  0.00     0.031 A 
ATOM     34  C   UNL A   1      40.483  29.296  31.089  1.00  0.00     0.074 A 
ATOM     35  C   UNL A   1      40.591  28.856  28.648  1.00  0.00     0.049 A 
ATOM     36  N   UNL A   1      41.548  29.786  31.629  1.00  0.00    -0.248 NA
ATOM     37  C   UNL A   1      39.622  28.564  32.033  1.00  0.00     0.031 C 
ATOM     38  C   UNL A   1      40.082  28.674  27.281  1.00  0.00     0.029 A 
ATOM     39  N   UNL A   1      41.728  28.114  28.634  1.00  0.00    -0.354 N 
ATOM     40  C   UNL A   1      41.598  29.277  32.925  1.00  0.00     0.074 A 
ATOM     41  C   UNL A   1      40.312  28.680  33.171  1.00  0.00     0.031 C 
ATOM     42  C   UNL A   1      40.757  27.675  26.675  1.00  0.00     0.029 A 
ATOM     43  C   UNL A   1      41.856  27.280  27.533  1.00  0.00     0.049 A 
ATOM     44  H   UNL A   1      42.405  28.163  29.348  1.00  0.00     0.167 HD
ATOM     45  C   UNL A   1      42.781  29.187  33.597  1.00  0.00     0.037 A 
ATOM     46  C   UNL A   1      42.779  26.301  27.372  1.00  0.00     0.037 A 
ATOM     47  C   UNL A   1      43.794  30.006  32.975  1.00  0.00     0.049 A 
ATOM     48  C   UNL A   1      43.893  26.600  28.312  1.00  0.00     0.074 A 
ATOM     49  C   UNL A   1      43.884  31.351  32.664  1.00  0.00     0.029 A 
ATOM     50  N   UNL A   1      44.748  29.390  32.199  1.00  0.00    -0.354 N 
ATOM     51  N   UNL A   1      44.677  27.639  28.192  1.00  0.00    -0.248 NA
ATOM     52  C   UNL A   1      43.811  26.034  29.652  1.00  0.00     0.031 C 
ATOM     53  C   UNL A   1      44.474  31.383  31.365  1.00  0.00     0.029 A 
ATOM     54  C   UNL A   1      44.792  30.072  31.009  1.00  0.00     0.049 A 
ATOM     55  H   UNL A   1      45.294  28.609  32.449  1.00  0.00     0.167 HD
ATOM     56  C   UNL A   1      44.834  28.116  29.486  1.00  0.00     0.074 A 
ATOM     57  C   UNL A   1      44.340  27.043  30.350  1.00  0.00     0.031 C 
ATOM     58  C   UNL A   1      45.057  29.441  29.738  1.00  0.00     0.037 A 
BRANCH  45  59
ATOM     59  C   UNL A   1      43.129  28.101  34.587  1.00  0.00     0.064 A 
ATOM     60  C   UNL A   1      43.531  28.463  35.889  1.00  0.00     0.173 A 
ATOM     61  C   UNL A   1      43.377  26.759  34.229  1.00  0.00     0.173 A 
ATOM     62  F   UNL A   1      43.357  29.718  36.334  1.00  0.00    -0.203 F 
ATOM     63  C   UNL A   1      44.208  27.575  36.730  1.00  0.00     0.198 A 
ATOM     64  C   UNL A   1      44.002  25.859  35.091  1.00  0.00     0.198 A 
ATOM     65  F   UNL A   1      43.133  26.289  33.001  1.00  0.00    -0.203 F 
ATOM     66  F   UNL A   1      44.688  28.005  37.904  1.00  0.00    -0.200 F 
ATOM     67  C   UNL A   1      44.450  26.275  36.326  1.00  0.00     0.200 A 
ATOM     68  F   UNL A   1      44.241  24.607  34.674  1.00  0.00    -0.200 F 
ATOM     69  F   UNL A   1      45.155  25.441  37.100  1.00  0.00    -0.200 F 
ENDBRANCH  45  59
BRANCH  46  70
ATOM     70  C   UNL A   1      42.592  24.988  26.708  1.00  0.00     0.064 A 
ATOM     71  C   UNL A   1      43.300  24.656  25.543  1.00  0.00     0.173 A 
ATOM     72  C   UNL A   1      41.902  23.932  27.341  1.00  0.00     0.173 A 
ATOM     73  F   UNL A   1      44.022  25.587  24.905  1.00  0.00    -0.203 F 
ATOM     74  C   UNL A   1      43.332  23.344  25.052  1.00  0.00     0.198 A 
ATOM     75  C   UNL A   1      41.927  22.627  26.845  1.00  0.00     0.198 A 
ATOM     76  F   UNL A   1      41.267  24.121  28.506  1.00  0.00    -0.203 F 
ATOM     77  F   UNL A   1      44.069  23.053  23.971  1.00  0.00    -0.200 F 
ATOM     78  C   UNL A   1      42.653  22.330  25.708  1.00  0.00     0.200 A 
ATOM     79  F   UNL A   1      41.296  21.651  27.512  1.00  0.00    -0.200 F 
ATOM     80  F   UNL A   1      42.731  21.066  25.272  1.00  0.00    -0.200 F 
ENDBRANCH  46  70
BRANCH  58  81
ATOM     81  C   UNL A   1      45.355  30.357  28.579  1.00  0.00     0.064 A 
ATOM     82  C   UNL A   1      44.373  31.033  27.833  1.00  0.00     0.173 A 
ATOM     83  C   UNL A   1      46.691  30.696  28.327  1.00  0.00     0.173 A 
ATOM     84  F   UNL A   1      43.071  30.856  28.083  1.00  0.00    -0.203 F 
ATOM     85  C   UNL A   1      44.714  31.966  26.855  1.00  0.00     0.198 A 
ATOM     86  C   UNL A   1      47.029  31.656  27.377  1.00  0.00     0.198 A 
ATOM     87  F   UNL A   1      47.674  30.132  29.046  1.00  0.00    -0.203 F 
ATOM     88  F   UNL A   1      43.754  32.588  26.154  1.00  0.00    -0.200 F 
ATOM     89  C   UNL A   1      46.043  32.283  26.633  1.00  0.00     0.200 A 
ATOM     90  F   UNL A   1      48.314  31.998  27.204  1.00  0.00    -0.200 F 
ATOM     91  F   UNL A   1      46.372  33.212  25.724  1.00  0.00    -0.200 F 
ENDBRANCH  58  81
ENDBRANCH  32  33
ENDBRANCH  24  27
ENDBRANCH  22  23
ENDBRANCH   1  22
TORSDOF 13
ENDMDL
MODEL 2
REMARK VINA RESULT:     -12.3      3.838      8.982
REMARK SMILES Cc1n[nH]c(C(=O)N[C@H](C(=O)NCCCNC(=O)c2ccc(-c3c4nc(c(-c5c(F)c(F)c(F)c(F)c5F)c5ccc([nH]5)c(-c5c(F)c(F)c(F)c(F)c5F)c5nc(c(-c6c(F)c(F)c(F)c(F)c6F)c6ccc3[nH]6)C=C5)C=C4)cc2)C(C)C)n1
REMARK SMILES IDX 14 1 13 2 12 3 10 4 11 5 9 7 8 8 6 9 7 10 5 12 1 13 2 14
REMARK SMILES IDX 3 15 85 16 4 17 82 19 83 20 84 21 15 22 16 23 17 24 18 26
REMARK SMILES IDX 19 27 20 28 81 29 21 30 80 31 22 32 23 33 24 34 74 35 25 36
REMARK SMILES IDX 79 37 73 38 75 39 26 40 78 41 72 42 71 43 27 45 59 46 39 47
REMARK SMILES IDX 58 48 40 49 43 50 57 51 76 52 41 53 42 54 56 56 77 57 44 58
REMARK SMILES IDX 28 59 29 60 37 61 30 62 31 63 35 64 38 65 32 66 33 67 36 68
REMARK SMILES IDX 34 69 60 70 61 71 69 72 62 73 63 74 67 75 70 76 64 77 65 78
REMARK SMILES IDX 68 79 66 80 45 81 46 82 54 83 47 84 48 85 52 86 55 87 49 88
REMARK SMILES IDX 50 89 53 90 51 91
REMARK H PARENT 12 6 8 11 4 18 16 25 75 44 43 55
REMARK Flexibility Score: inf
ROOT
ATOM      1  C   UNL A   1      37.906  21.917  25.026  1.00  0.00     0.042 C 
ENDROOT
BRANCH   1   2
ATOM      2  C   UNL A   1      36.638  21.184  25.459  1.00  0.00     0.117 C 
BRANCH   2   3
ATOM      3  N   UNL A   1      35.936  21.826  26.570  1.00  0.00    -0.354 N 
ATOM      4  C   UNL A   1      34.786  22.567  26.598  1.00  0.00     0.242 C 
ATOM      5  O   UNL A   1      34.368  22.900  27.708  1.00  0.00    -0.273 OA
ATOM      6  H   UNL A   1      36.364  21.704  27.448  1.00  0.00     0.163 HD
BRANCH   4   7
ATOM      7  C   UNL A   1      34.066  23.005  25.293  1.00  0.00     0.174 C 
BRANCH   7   8
ATOM      8  N   UNL A   1      32.629  22.787  25.441  1.00  0.00    -0.337 N 
ATOM      9  C   UNL A   1      31.834  21.668  25.394  1.00  0.00     0.289 C 
ATOM     10  O   UNL A   1      30.634  21.916  25.552  1.00  0.00    -0.266 OA
ATOM     11  H   UNL A   1      32.123  23.615  25.612  1.00  0.00     0.164 HD
BRANCH   9  12
ATOM     12  C   UNL A   1      32.335  20.325  25.147  1.00  0.00     0.214 A 
ATOM     13  C   UNL A   1      33.036  17.603  22.987  1.00  0.00     0.092 C 
ATOM     14  C   UNL A   1      32.865  18.551  24.102  1.00  0.00     0.148 A 
ATOM     15  N   UNL A   1      33.141  18.235  25.368  1.00  0.00    -0.159 NA
ATOM     16  N   UNL A   1      32.383  19.815  23.926  1.00  0.00    -0.207 NA
ATOM     17  N   UNL A   1      32.815  19.371  26.004  1.00  0.00    -0.255 N 
ATOM     18  H   UNL A   1      32.911  19.503  26.975  1.00  0.00     0.192 HD
ENDBRANCH   9  12
ENDBRANCH   7   8
BRANCH   7  19
ATOM     19  C   UNL A   1      34.312  24.420  24.697  1.00  0.00     0.015 C 
ATOM     20  C   UNL A   1      33.643  24.711  23.354  1.00  0.00     0.010 C 
ATOM     21  C   UNL A   1      33.853  25.488  25.707  1.00  0.00     0.010 C 
ENDBRANCH   7  19
ENDBRANCH   4   7
ENDBRANCH   2   3
ENDBRANCH   1   2
BRANCH   1  22
ATOM     22  C   UNL A   1      38.910  22.096  26.146  1.00  0.00     0.118 C 
BRANCH  22  23
ATOM     23  N   UNL A   1      40.292  21.779  25.771  1.00  0.00    -0.352 N 
ATOM     24  C   UNL A   1      41.409  22.599  25.908  1.00  0.00     0.251 C 
ATOM     25  H   UNL A   1      40.447  20.889  25.380  1.00  0.00     0.163 HD
ATOM     26  O   UNL A   1      42.432  22.407  25.290  1.00  0.00    -0.269 OA
BRANCH  24  27
ATOM     27  C   UNL A   1      41.295  23.728  26.851  1.00  0.00     0.039 A 
ATOM     28  C   UNL A   1      42.010  23.776  28.050  1.00  0.00     0.014 A 
ATOM     29  C   UNL A   1      40.527  24.804  26.427  1.00  0.00     0.014 A 
ATOM     30  C   UNL A   1      42.017  24.969  28.770  1.00  0.00     0.010 A 
ATOM     31  C   UNL A   1      40.732  26.024  27.001  1.00  0.00     0.010 A 
ATOM     32  C   UNL A   1      41.394  26.099  28.220  1.00  0.00    -0.014 A 
BRANCH  32  33
ATOM     33  C   UNL A   1      41.462  27.406  28.855  1.00  0.00     0.031 A 
ATOM     34  C   UNL A   1      42.572  28.286  28.401  1.00  0.00     0.074 A 
ATOM     35  C   UNL A   1      40.441  27.876  29.607  1.00  0.00     0.049 A 
ATOM     36  N   UNL A   1      43.551  28.743  29.108  1.00  0.00    -0.248 NA
ATOM     37  C   UNL A   1      42.672  28.611  26.969  1.00  0.00     0.031 C 
ATOM     38  C   UNL A   1      39.135  27.258  29.878  1.00  0.00     0.029 A 
ATOM     39  N   UNL A   1      40.309  29.096  30.188  1.00  0.00    -0.354 N 
ATOM     40  C   UNL A   1      44.290  29.568  28.263  1.00  0.00     0.074 A 
ATOM     41  C   UNL A   1      43.809  29.311  26.931  1.00  0.00     0.031 C 
ATOM     42  C   UNL A   1      38.273  28.195  30.325  1.00  0.00     0.029 A 
ATOM     43  C   UNL A   1      39.009  29.422  30.549  1.00  0.00     0.049 A 
ATOM     44  H   UNL A   1      41.072  29.699  30.341  1.00  0.00     0.167 HD
ATOM     45  C   UNL A   1      45.075  30.563  28.766  1.00  0.00     0.037 A 
ATOM     46  C   UNL A   1      38.572  30.639  30.955  1.00  0.00     0.037 A 
ATOM     47  C   UNL A   1      45.315  30.370  30.176  1.00  0.00     0.049 A 
ATOM     48  C   UNL A   1      39.769  31.396  31.414  1.00  0.00     0.074 A 
ATOM     49  C   UNL A   1      45.855  29.341  30.926  1.00  0.00     0.029 A 
ATOM     50  N   UNL A   1      44.610  31.139  31.071  1.00  0.00    -0.354 N 
ATOM     51  N   UNL A   1      40.467  31.069  32.469  1.00  0.00    -0.248 NA
ATOM     52  C   UNL A   1      40.476  32.197  30.424  1.00  0.00     0.031 C 
ATOM     53  C   UNL A   1      45.011  29.248  32.074  1.00  0.00     0.029 A 
ATOM     54  C   UNL A   1      44.076  30.280  31.998  1.00  0.00     0.049 A 
ATOM     55  H   UNL A   1      44.508  32.119  31.051  1.00  0.00     0.167 HD
ATOM     56  C   UNL A   1      41.790  31.237  32.085  1.00  0.00     0.074 A 
ATOM     57  C   UNL A   1      41.730  32.005  30.841  1.00  0.00     0.031 C 
ATOM     58  C   UNL A   1      42.793  30.485  32.630  1.00  0.00     0.037 A 
BRANCH  45  59
ATOM     59  C   UNL A   1      45.328  31.888  28.087  1.00  0.00     0.064 A 
ATOM     60  C   UNL A   1      44.231  32.718  27.775  1.00  0.00     0.173 A 
ATOM     61  C   UNL A   1      46.545  32.234  27.464  1.00  0.00     0.173 A 
ATOM     62  F   UNL A   1      43.019  32.476  28.300  1.00  0.00    -0.203 F 
ATOM     63  C   UNL A   1      44.329  33.756  26.845  1.00  0.00     0.198 A 
ATOM     64  C   UNL A   1      46.653  33.306  26.578  1.00  0.00     0.198 A 
ATOM     65  F   UNL A   1      47.651  31.492  27.591  1.00  0.00    -0.203 F 
ATOM     66  F   UNL A   1      43.230  34.430  26.482  1.00  0.00    -0.200 F 
ATOM     67  C   UNL A   1      45.539  34.044  26.240  1.00  0.00     0.200 A 
ATOM     68  F   UNL A   1      47.832  33.558  25.991  1.00  0.00    -0.200 F 
ATOM     69  F   UNL A   1      45.623  34.993  25.301  1.00  0.00    -0.200 F 
ENDBRANCH  45  59
BRANCH  46  70
ATOM     70  C   UNL A   1      37.262  31.269  30.661  1.00  0.00     0.064 A 
ATOM     71  C   UNL A   1      36.324  31.504  31.678  1.00  0.00     0.173 A 
ATOM     72  C   UNL A   1      37.001  31.885  29.418  1.00  0.00     0.173 A 
ATOM     73  F   UNL A   1      36.519  30.997  32.903  1.00  0.00    -0.203 F 
ATOM     74  C   UNL A   1      35.204  32.319  31.470  1.00  0.00     0.198 A 
ATOM     75  C   UNL A   1      35.879  32.688  29.209  1.00  0.00     0.198 A 
ATOM     76  F   UNL A   1      37.876  31.798  28.406  1.00  0.00    -0.203 F 
ATOM     77  F   UNL A   1      34.363  32.569  32.483  1.00  0.00    -0.200 F 
ATOM     78  C   UNL A   1      34.988  32.917  30.238  1.00  0.00     0.200 A 
ATOM     79  F   UNL A   1      35.705  33.290  28.024  1.00  0.00    -0.200 F 
ATOM     80  F   UNL A   1      33.949  33.743  30.057  1.00  0.00    -0.200 F 
ENDBRANCH  46  70
BRANCH  58  81
ATOM     81  C   UNL A   1      42.482  29.617  33.821  1.00  0.00     0.064 A 
ATOM     82  C   UNL A   1      41.955  28.316  33.735  1.00  0.00     0.173 A 
ATOM     83  C   UNL A   1      42.893  30.055  35.087  1.00  0.00     0.173 A 
ATOM     84  F   UNL A   1      41.639  27.775  32.555  1.00  0.00    -0.203 F 
ATOM     85  C   UNL A   1      41.806  27.514  34.866  1.00  0.00     0.198 A 
ATOM     86  C   UNL A   1      42.781  29.238  36.210  1.00  0.00     0.198 A 
ATOM     87  F   UNL A   1      43.460  31.263  35.229  1.00  0.00    -0.203 F 
ATOM     88  F   UNL A   1      41.292  26.280  34.752  1.00  0.00    -0.200 F 
ATOM     89  C   UNL A   1      42.228  27.973  36.101  1.00  0.00     0.200 A 
ATOM     90  F   UNL A   1      43.239  29.667  37.394  1.00  0.00    -0.200 F 
ATOM     91  F   UNL A   1      42.127  27.187  37.183  1.00  0.00    -0.200 F 
ENDBRANCH  58  81
ENDBRANCH  32  33
ENDBRANCH  24  27
ENDBRANCH  22  23
ENDBRANCH   1  22
TORSDOF 13
ENDMDL
MODEL 3
REMARK VINA RESULT:     -12.3      2.542      7.307
REMARK SMILES Cc1n[nH]c(C(=O)N[C@H](C(=O)NCCCNC(=O)c2ccc(-c3c4nc(c(-c5c(F)c(F)c(F)c(F)c5F)c5ccc([nH]5)c(-c5c(F)c(F)c(F)c(F)c5F)c5nc(c(-c6c(F)c(F)c(F)c(F)c6F)c6ccc3[nH]6)C=C5)C=C4)cc2)C(C)C)n1
REMARK SMILES IDX 14 1 13 2 12 3 10 4 11 5 9 7 8 8 6 9 7 10 5 12 1 13 2 14
REMARK SMILES IDX 3 15 85 16 4 17 82 19 83 20 84 21 15 22 16 23 17 24 18 26
REMARK SMILES IDX 19 27 20 28 81 29 21 30 80 31 22 32 23 33 24 34 74 35 25 36
REMARK SMILES IDX 79 37 73 38 75 39 26 40 78 41 72 42 71 43 27 45 59 46 39 47
REMARK SMILES IDX 58 48 40 49 43 50 57 51 76 52 41 53 42 54 56 56 77 57 44 58
REMARK SMILES IDX 28 59 29 60 37 61 30 62 31 63 35 64 38 65 32 66 33 67 36 68
REMARK SMILES IDX 34 69 60 70 61 71 69 72 62 73 63 74 67 75 70 76 64 77 65 78
REMARK SMILES IDX 68 79 66 80 45 81 46 82 54 83 47 84 48 85 52 86 55 87 49 88
REMARK SMILES IDX 50 89 53 90 51 91
REMARK H PARENT 12 6 8 11 4 18 16 25 75 44 43 55
REMARK Flexibility Score: inf
ROOT
ATOM      1  C   UNL A   1      31.499  31.891  26.487  1.00  0.00     0.042 C 
ENDROOT
BRANCH   1   2
ATOM      2  C   UNL A   1      31.717  30.394  26.281  1.00  0.00     0.117 C 
BRANCH   2   3
ATOM      3  N   UNL A   1      32.765  30.078  25.310  1.00  0.00    -0.354 N 
ATOM      4  C   UNL A   1      32.981  28.958  24.556  1.00  0.00     0.242 C 
ATOM      5  O   UNL A   1      33.898  29.011  23.735  1.00  0.00    -0.273 OA
ATOM      6  H   UNL A   1      33.427  30.794  25.177  1.00  0.00     0.163 HD
BRANCH   4   7
ATOM      7  C   UNL A   1      32.142  27.665  24.754  1.00  0.00     0.174 C 
BRANCH   7   8
ATOM      8  N   UNL A   1      31.825  27.093  23.448  1.00  0.00    -0.337 N 
ATOM      9  C   UNL A   1      31.055  27.518  22.393  1.00  0.00     0.289 C 
ATOM     10  O   UNL A   1      31.029  26.715  21.455  1.00  0.00    -0.266 OA
ATOM     11  H   UNL A   1      32.254  26.221  23.289  1.00  0.00     0.164 HD
BRANCH   9  12
ATOM     12  C   UNL A   1      30.311  28.768  22.381  1.00  0.00     0.214 A 
ATOM     13  C   UNL A   1      27.652  30.827  23.500  1.00  0.00     0.092 C 
ATOM     14  C   UNL A   1      28.831  30.216  22.863  1.00  0.00     0.148 A 
ATOM     15  N   UNL A   1      29.529  30.823  21.901  1.00  0.00    -0.159 NA
ATOM     16  N   UNL A   1      29.282  28.971  23.189  1.00  0.00    -0.207 NA
ATOM     17  N   UNL A   1      30.462  29.900  21.626  1.00  0.00    -0.255 N 
ATOM     18  H   UNL A   1      31.176  30.023  20.958  1.00  0.00     0.192 HD
ENDBRANCH   9  12
ENDBRANCH   7   8
BRANCH   7  19
ATOM     19  C   UNL A   1      32.646  26.539  25.700  1.00  0.00     0.015 C 
ATOM     20  C   UNL A   1      31.602  25.512  26.140  1.00  0.00     0.010 C 
ATOM     21  C   UNL A   1      33.810  25.788  25.027  1.00  0.00     0.010 C 
ENDBRANCH   7  19
ENDBRANCH   4   7
ENDBRANCH   2   3
ENDBRANCH   1   2
BRANCH   1  22
ATOM     22  C   UNL A   1      32.598  32.556  27.290  1.00  0.00     0.118 C 
BRANCH  22  23
ATOM     23  N   UNL A   1      32.326  33.953  27.640  1.00  0.00    -0.352 N 
ATOM     24  C   UNL A   1      32.968  34.716  28.613  1.00  0.00     0.251 C 
ATOM     25  H   UNL A   1      31.612  34.402  27.132  1.00  0.00     0.163 HD
ATOM     26  O   UNL A   1      32.482  35.730  29.065  1.00  0.00    -0.269 OA
BRANCH  24  27
ATOM     27  C   UNL A   1      34.282  34.234  29.079  1.00  0.00     0.039 A 
ATOM     28  C   UNL A   1      34.422  33.392  30.184  1.00  0.00     0.014 A 
ATOM     29  C   UNL A   1      35.370  34.567  28.284  1.00  0.00     0.014 A 
ATOM     30  C   UNL A   1      35.665  32.809  30.420  1.00  0.00     0.010 A 
ATOM     31  C   UNL A   1      36.505  33.814  28.376  1.00  0.00     0.010 A 
ATOM     32  C   UNL A   1      36.697  33.007  29.490  1.00  0.00    -0.014 A 
BRANCH  32  33
ATOM     33  C   UNL A   1      37.982  32.336  29.605  1.00  0.00     0.031 A 
ATOM     34  C   UNL A   1      38.023  30.934  29.110  1.00  0.00     0.074 A 
ATOM     35  C   UNL A   1      39.110  33.022  29.899  1.00  0.00     0.049 A 
ATOM     36  N   UNL A   1      38.271  29.867  29.794  1.00  0.00    -0.248 NA
ATOM     37  C   UNL A   1      37.638  30.668  27.714  1.00  0.00     0.031 C 
ATOM     38  C   UNL A   1      39.284  34.469  30.090  1.00  0.00     0.029 A 
ATOM     39  N   UNL A   1      40.388  32.567  29.954  1.00  0.00    -0.354 N 
ATOM     40  C   UNL A   1      38.261  28.811  28.885  1.00  0.00     0.074 A 
ATOM     41  C   UNL A   1      37.699  29.334  27.668  1.00  0.00     0.031 C 
ATOM     42  C   UNL A   1      40.590  34.788  29.972  1.00  0.00     0.029 A 
ATOM     43  C   UNL A   1      41.354  33.561  29.885  1.00  0.00     0.049 A 
ATOM     44  H   UNL A   1      40.610  31.612  30.036  1.00  0.00     0.167 HD
ATOM     45  C   UNL A   1      38.935  27.655  29.147  1.00  0.00     0.037 A 
ATOM     46  C   UNL A   1      42.686  33.373  29.719  1.00  0.00     0.037 A 
ATOM     47  C   UNL A   1      39.273  27.558  30.547  1.00  0.00     0.049 A 
ATOM     48  C   UNL A   1      42.976  31.968  30.114  1.00  0.00     0.074 A 
ATOM     49  C   UNL A   1      38.534  27.585  31.716  1.00  0.00     0.029 A 
ATOM     50  N   UNL A   1      40.566  27.827  30.929  1.00  0.00    -0.354 N 
ATOM     51  N   UNL A   1      42.861  31.526  31.339  1.00  0.00    -0.248 NA
ATOM     52  C   UNL A   1      42.900  30.949  29.076  1.00  0.00     0.031 C 
ATOM     53  C   UNL A   1      39.302  28.390  32.611  1.00  0.00     0.029 A 
ATOM     54  C   UNL A   1      40.495  28.720  31.968  1.00  0.00     0.049 A 
ATOM     55  H   UNL A   1      41.385  27.450  30.533  1.00  0.00     0.167 HD
ATOM     56  C   UNL A   1      42.271  30.277  31.212  1.00  0.00     0.074 A 
ATOM     57  C   UNL A   1      42.388  29.944  29.792  1.00  0.00     0.031 C 
ATOM     58  C   UNL A   1      41.471  29.761  32.193  1.00  0.00     0.037 A 
BRANCH  45  59
ATOM     59  C   UNL A   1      39.603  26.792  28.103  1.00  0.00     0.064 A 
ATOM     60  C   UNL A   1      39.475  25.390  28.189  1.00  0.00     0.173 A 
ATOM     61  C   UNL A   1      40.597  27.256  27.216  1.00  0.00     0.173 A 
ATOM     62  F   UNL A   1      38.570  24.835  29.010  1.00  0.00    -0.203 F 
ATOM     63  C   UNL A   1      40.336  24.525  27.508  1.00  0.00     0.198 A 
ATOM     64  C   UNL A   1      41.418  26.389  26.495  1.00  0.00     0.198 A 
ATOM     65  F   UNL A   1      40.898  28.553  27.093  1.00  0.00    -0.203 F 
ATOM     66  F   UNL A   1      40.262  23.205  27.726  1.00  0.00    -0.200 F 
ATOM     67  C   UNL A   1      41.313  25.026  26.667  1.00  0.00     0.200 A 
ATOM     68  F   UNL A   1      42.369  26.896  25.698  1.00  0.00    -0.200 F 
ATOM     69  F   UNL A   1      42.181  24.204  26.066  1.00  0.00    -0.200 F 
ENDBRANCH  45  59
BRANCH  46  70
ATOM     70  C   UNL A   1      43.624  34.221  28.943  1.00  0.00     0.064 A 
ATOM     71  C   UNL A   1      43.870  33.975  27.584  1.00  0.00     0.173 A 
ATOM     72  C   UNL A   1      44.106  35.446  29.453  1.00  0.00     0.173 A 
ATOM     73  F   UNL A   1      43.405  32.859  27.006  1.00  0.00    -0.203 F 
ATOM     74  C   UNL A   1      44.543  34.905  26.779  1.00  0.00     0.198 A 
ATOM     75  C   UNL A   1      44.785  36.366  28.653  1.00  0.00     0.198 A 
ATOM     76  F   UNL A   1      43.850  35.819  30.715  1.00  0.00    -0.203 F 
ATOM     77  F   UNL A   1      44.706  34.662  25.472  1.00  0.00    -0.200 F 
ATOM     78  C   UNL A   1      44.991  36.103  27.313  1.00  0.00     0.200 A 
ATOM     79  F   UNL A   1      45.179  37.536  29.175  1.00  0.00    -0.200 F 
ATOM     80  F   UNL A   1      45.582  37.016  26.531  1.00  0.00    -0.200 F 
ENDBRANCH  46  70
BRANCH  58  81
ATOM     81  C   UNL A   1      41.410  30.467  33.522  1.00  0.00     0.064 A 
ATOM     82  C   UNL A   1      40.492  31.484  33.836  1.00  0.00     0.173 A 
ATOM     83  C   UNL A   1      42.198  29.974  34.572  1.00  0.00     0.173 A 
ATOM     84  F   UNL A   1      39.624  31.937  32.925  1.00  0.00    -0.203 F 
ATOM     85  C   UNL A   1      40.400  32.012  35.123  1.00  0.00     0.198 A 
ATOM     86  C   UNL A   1      42.077  30.475  35.866  1.00  0.00     0.198 A 
ATOM     87  F   UNL A   1      43.052  28.962  34.354  1.00  0.00    -0.203 F 
ATOM     88  F   UNL A   1      39.518  32.988  35.388  1.00  0.00    -0.200 F 
ATOM     89  C   UNL A   1      41.187  31.500  36.139  1.00  0.00     0.200 A 
ATOM     90  F   UNL A   1      42.803  29.940  36.857  1.00  0.00    -0.200 F 
ATOM     91  F   UNL A   1      41.069  31.975  37.388  1.00  0.00    -0.200 F 
ENDBRANCH  58  81
ENDBRANCH  32  33
ENDBRANCH  24  27
ENDBRANCH  22  23
ENDBRANCH   1  22
TORSDOF 13
ENDMDL
