MODEL 1
REMARK VINA RESULT:     -12.6      0.000      0.000
REMARK SMILES C[NH+](C)[C@H]1CCN(C(=O)C(=O)c2ccccc2)C[C@H]1CCC(=O)NCCCNC(=O)c1ccc(-c2c3nc(c(-c4c(F)c(F)c(F)c(F)c4F)c4ccc([nH]4)c(-c4c(F)c(F)c(F)c(F)c4F)c4nc(c(-c5c(F)c(F)c(F)c(F)c5F)c5ccc2[nH]5)C=C4)C=C3)cc1
REMARK SMILES IDX 22 1 23 2 24 3 21 5 20 6 19 7 4 8 5 9 6 10 18 11 7 12 2 13
REMARK SMILES IDX 1 14 3 15 8 17 9 18 10 19 11 20 12 21 13 22 17 23 14 24
REMARK SMILES IDX 16 25 15 26 25 27 26 28 27 29 28 30 29 31 30 33 31 34 32 35
REMARK SMILES IDX 93 36 33 37 92 38 34 39 35 40 36 41 86 42 37 43 91 44 85 45
REMARK SMILES IDX 87 46 38 47 90 48 84 49 83 50 39 52 71 53 51 54 70 55 52 56
REMARK SMILES IDX 55 57 69 58 88 59 53 60 54 61 68 63 89 64 56 65 40 66 41 67
REMARK SMILES IDX 49 68 42 69 43 70 47 71 50 72 44 73 45 74 48 75 46 76 72 77
REMARK SMILES IDX 73 78 81 79 74 80 75 81 79 82 82 83 76 84 77 85 80 86 78 87
REMARK SMILES IDX 57 88 58 89 66 90 59 91 60 92 64 93 67 94 61 95 62 96 65 97
REMARK SMILES IDX 63 98
REMARK H PARENT 24 4 2 16 28 32 87 51 55 62
REMARK Flexibility Score: inf
ROOT
ATOM      1  C   UNL A   1      33.193  29.077  27.160  1.00  0.00     0.220 C 
ATOM      2  O   UNL A   1      34.354  28.909  27.540  1.00  0.00    -0.275 OA
ATOM      3  N   UNL A   1      32.899  30.234  26.503  1.00  0.00    -0.356 N 
ATOM      4  H   UNL A   1      33.675  30.810  26.314  1.00  0.00     0.163 HD
ENDROOT
BRANCH   1   5
ATOM      5  C   UNL A   1      32.137  28.013  27.402  1.00  0.00     0.100 C 
BRANCH   5   6
ATOM      6  C   UNL A   1      32.123  26.885  26.359  1.00  0.00     0.021 C 
BRANCH   6   7
ATOM      7  C   UNL A   1      30.752  26.577  25.716  1.00  0.00     0.067 C 
ATOM      8  C   UNL A   1      30.620  26.734  24.175  1.00  0.00     0.190 C 
ATOM      9  C   UNL A   1      31.395  25.613  23.461  1.00  0.00     0.087 C 
ATOM     10  C   UNL A   1      30.926  24.241  23.944  1.00  0.00     0.126 C 
ATOM     11  C   UNL A   1      30.263  25.181  26.130  1.00  0.00     0.129 C 
ATOM     12  N   UNL A   1      30.941  24.120  25.400  1.00  0.00    -0.335 N 
BRANCH   8  13
ATOM     13  N   UNL A   1      30.899  28.125  23.771  1.00  0.00    -0.337 N 
ATOM     14  C   UNL A   1      29.758  28.774  23.124  1.00  0.00     0.332 C 
ATOM     15  C   UNL A   1      32.113  28.345  22.991  1.00  0.00     0.332 C 
ATOM     16  H   UNL A   1      31.075  28.571  24.671  1.00  0.00     0.347 HD
ENDBRANCH   8  13
BRANCH  12  17
ATOM     17  C   UNL A   1      31.352  22.902  25.961  1.00  0.00     0.294 C 
ATOM     18  O   UNL A   1      30.762  21.846  25.748  1.00  0.00    -0.265 OA
BRANCH  17  19
ATOM     19  C   UNL A   1      32.550  22.872  26.926  1.00  0.00     0.250 C 
ATOM     20  O   UNL A   1      32.372  22.656  28.121  1.00  0.00    -0.283 OA
BRANCH  19  21
ATOM     21  C   UNL A   1      33.940  22.967  26.394  1.00  0.00     0.028 A 
ATOM     22  C   UNL A   1      34.728  21.806  26.415  1.00  0.00     0.012 A 
ATOM     23  C   UNL A   1      34.467  24.141  25.842  1.00  0.00     0.012 A 
ATOM     24  C   UNL A   1      36.002  21.802  25.843  1.00  0.00     0.001 A 
ATOM     25  C   UNL A   1      35.743  24.133  25.269  1.00  0.00     0.001 A 
ATOM     26  C   UNL A   1      36.503  22.963  25.259  1.00  0.00     0.000 A 
ENDBRANCH  19  21
ENDBRANCH  17  19
ENDBRANCH  12  17
ENDBRANCH   6   7
ENDBRANCH   5   6
ENDBRANCH   1   5
BRANCH   3  27
ATOM     27  C   UNL A   1      31.624  30.754  26.036  1.00  0.00     0.117 C 
BRANCH  27  28
ATOM     28  C   UNL A   1      31.366  32.149  26.601  1.00  0.00     0.042 C 
BRANCH  28  29
ATOM     29  C   UNL A   1      32.544  32.767  27.321  1.00  0.00     0.118 C 
BRANCH  29  30
ATOM     30  N   UNL A   1      32.333  34.175  27.622  1.00  0.00    -0.352 N 
ATOM     31  C   UNL A   1      32.957  34.980  28.549  1.00  0.00     0.251 C 
ATOM     32  H   UNL A   1      31.640  34.621  27.081  1.00  0.00     0.163 HD
ATOM     33  O   UNL A   1      32.510  36.101  28.775  1.00  0.00    -0.269 OA
BRANCH  31  34
ATOM     34  C   UNL A   1      34.140  34.493  29.303  1.00  0.00     0.039 A 
ATOM     35  C   UNL A   1      33.958  33.920  30.567  1.00  0.00     0.014 A 
ATOM     36  C   UNL A   1      35.428  34.593  28.775  1.00  0.00     0.014 A 
ATOM     37  C   UNL A   1      35.052  33.384  31.257  1.00  0.00     0.010 A 
ATOM     38  C   UNL A   1      36.490  33.953  29.402  1.00  0.00     0.010 A 
ATOM     39  C   UNL A   1      36.321  33.357  30.660  1.00  0.00    -0.014 A 
BRANCH  39  40
ATOM     40  C   UNL A   1      37.505  32.754  31.327  1.00  0.00     0.031 A 
ATOM     41  C   UNL A   1      38.220  31.602  30.670  1.00  0.00     0.074 A 
ATOM     42  C   UNL A   1      37.869  33.156  32.561  1.00  0.00     0.049 A 
ATOM     43  N   UNL A   1      39.152  30.818  31.149  1.00  0.00    -0.248 NA
ATOM     44  C   UNL A   1      37.791  31.254  29.306  1.00  0.00     0.031 C 
ATOM     45  C   UNL A   1      37.221  34.217  33.333  1.00  0.00     0.029 A 
ATOM     46  N   UNL A   1      38.860  32.698  33.394  1.00  0.00    -0.354 N 
ATOM     47  C   UNL A   1      39.380  29.861  30.169  1.00  0.00     0.074 A 
ATOM     48  C   UNL A   1      38.455  30.129  29.091  1.00  0.00     0.031 C 
ATOM     49  C   UNL A   1      37.840  34.340  34.517  1.00  0.00     0.029 A 
ATOM     50  C   UNL A   1      38.899  33.339  34.608  1.00  0.00     0.049 A 
ATOM     51  H   UNL A   1      39.483  31.978  33.145  1.00  0.00     0.167 HD
ATOM     52  C   UNL A   1      40.294  28.863  30.158  1.00  0.00     0.037 A 
ATOM     53  C   UNL A   1      39.689  33.133  35.679  1.00  0.00     0.037 A 
ATOM     54  C   UNL A   1      41.258  28.644  31.202  1.00  0.00     0.049 A 
ATOM     55  C   UNL A   1      40.733  32.051  35.624  1.00  0.00     0.074 A 
ATOM     56  C   UNL A   1      42.294  27.728  31.242  1.00  0.00     0.029 A 
ATOM     57  N   UNL A   1      41.306  29.359  32.390  1.00  0.00    -0.354 N 
ATOM     58  N   UNL A   1      40.988  31.198  34.662  1.00  0.00    -0.248 NA
ATOM     59  C   UNL A   1      41.602  31.905  36.800  1.00  0.00     0.031 C 
ATOM     60  C   UNL A   1      42.946  27.862  32.471  1.00  0.00     0.029 A 
ATOM     61  C   UNL A   1      42.345  28.893  33.177  1.00  0.00     0.049 A 
ATOM     62  H   UNL A   1      40.694  30.089  32.636  1.00  0.00     0.167 HD
ATOM     63  C   UNL A   1      42.059  30.432  35.103  1.00  0.00     0.074 A 
ATOM     64  C   UNL A   1      42.414  30.929  36.416  1.00  0.00     0.031 C 
ATOM     65  C   UNL A   1      42.691  29.410  34.476  1.00  0.00     0.037 A 
BRANCH  52  66
ATOM     66  C   UNL A   1      40.301  27.938  28.974  1.00  0.00     0.064 A 
ATOM     67  C   UNL A   1      41.040  28.223  27.816  1.00  0.00     0.173 A 
ATOM     68  C   UNL A   1      39.571  26.740  29.005  1.00  0.00     0.173 A 
ATOM     69  F   UNL A   1      41.747  29.360  27.729  1.00  0.00    -0.203 F 
ATOM     70  C   UNL A   1      41.018  27.364  26.720  1.00  0.00     0.198 A 
ATOM     71  C   UNL A   1      39.577  25.866  27.920  1.00  0.00     0.198 A 
ATOM     72  F   UNL A   1      38.851  26.414  30.089  1.00  0.00    -0.203 F 
ATOM     73  F   UNL A   1      41.684  27.690  25.603  1.00  0.00    -0.200 F 
ATOM     74  C   UNL A   1      40.292  26.185  26.775  1.00  0.00     0.200 A 
ATOM     75  F   UNL A   1      38.887  24.720  27.980  1.00  0.00    -0.200 F 
ATOM     76  F   UNL A   1      40.273  25.357  25.721  1.00  0.00    -0.200 F 
ENDBRANCH  52  66
BRANCH  53  77
ATOM     77  C   UNL A   1      39.540  33.992  36.882  1.00  0.00     0.064 A 
ATOM     78  C   UNL A   1      38.767  33.568  37.973  1.00  0.00     0.173 A 
ATOM     79  C   UNL A   1      40.175  35.238  36.977  1.00  0.00     0.173 A 
ATOM     80  F   UNL A   1      38.124  32.392  37.921  1.00  0.00    -0.203 F 
ATOM     81  C   UNL A   1      38.626  34.364  39.108  1.00  0.00     0.198 A 
ATOM     82  C   UNL A   1      40.053  36.022  38.123  1.00  0.00     0.198 A 
ATOM     83  F   UNL A   1      40.928  35.686  35.963  1.00  0.00    -0.203 F 
ATOM     84  F   UNL A   1      37.853  33.950  40.122  1.00  0.00    -0.200 F 
ATOM     85  C   UNL A   1      39.274  35.587  39.185  1.00  0.00     0.200 A 
ATOM     86  F   UNL A   1      40.692  37.198  38.199  1.00  0.00    -0.200 F 
ATOM     87  F   UNL A   1      39.145  36.349  40.281  1.00  0.00    -0.200 F 
ENDBRANCH  53  77
BRANCH  65  88
ATOM     88  C   UNL A   1      43.856  28.781  35.180  1.00  0.00     0.064 A 
ATOM     89  C   UNL A   1      43.691  27.674  36.025  1.00  0.00     0.173 A 
ATOM     90  C   UNL A   1      45.158  29.247  34.948  1.00  0.00     0.173 A 
ATOM     91  F   UNL A   1      42.464  27.202  36.288  1.00  0.00    -0.203 F 
ATOM     92  C   UNL A   1      44.791  27.064  36.623  1.00  0.00     0.198 A 
ATOM     93  C   UNL A   1      46.257  28.618  35.526  1.00  0.00     0.198 A 
ATOM     94  F   UNL A   1      45.367  30.298  34.142  1.00  0.00    -0.203 F 
ATOM     95  F   UNL A   1      44.610  26.027  37.452  1.00  0.00    -0.200 F 
ATOM     96  C   UNL A   1      46.072  27.530  36.365  1.00  0.00     0.200 A 
ATOM     97  F   UNL A   1      47.495  29.061  35.266  1.00  0.00    -0.200 F 
ATOM     98  F   UNL A   1      47.130  26.930  36.930  1.00  0.00    -0.200 F 
ENDBRANCH  65  88
ENDBRANCH  39  40
ENDBRANCH  31  34
ENDBRANCH  29  30
ENDBRANCH  28  29
ENDBRANCH  27  28
ENDBRANCH   3  27
TORSDOF 16
ENDMDL
MODEL 2
REMARK VINA RESULT:     -12.6      0.136      1.563
REMARK SMILES C[NH+](C)[C@H]1CCN(C(=O)C(=O)c2ccccc2)C[C@H]1CCC(=O)NCCCNC(=O)c1ccc(-c2c3nc(c(-c4c(F)c(F)c(F)c(F)c4F)c4ccc([nH]4)c(-c4c(F)c(F)c(F)c(F)c4F)c4nc(c(-c5c(F)c(F)c(F)c(F)c5F)c5ccc2[nH]5)C=C4)C=C3)cc1
REMARK SMILES IDX 22 1 23 2 24 3 21 5 20 6 19 7 4 8 5 9 6 10 18 11 7 12 2 13
REMARK SMILES IDX 1 14 3 15 8 17 9 18 10 19 11 20 12 21 13 22 17 23 14 24
REMARK SMILES IDX 16 25 15 26 25 27 26 28 27 29 28 30 29 31 30 33 31 34 32 35
REMARK SMILES IDX 93 36 33 37 92 38 34 39 35 40 36 41 86 42 37 43 91 44 85 45
REMARK SMILES IDX 87 46 38 47 90 48 84 49 83 50 39 52 71 53 51 54 70 55 52 56
REMARK SMILES IDX 55 57 69 58 88 59 53 60 54 61 68 63 89 64 56 65 40 66 41 67
REMARK SMILES IDX 49 68 42 69 43 70 47 71 50 72 44 73 45 74 48 75 46 76 72 77
REMARK SMILES IDX 73 78 81 79 74 80 75 81 79 82 82 83 76 84 77 85 80 86 78 87
REMARK SMILES IDX 57 88 58 89 66 90 59 91 60 92 64 93 67 94 61 95 62 96 65 97
REMARK SMILES IDX 63 98
REMARK H PARENT 24 4 2 16 28 32 87 51 55 62
REMARK Flexibility Score: inf
ROOT
ATOM      1  C   UNL A   1      33.203  29.115  27.183  1.00  0.00     0.220 C 
ATOM      2  O   UNL A   1      34.356  28.935  27.579  1.00  0.00    -0.275 OA
ATOM      3  N   UNL A   1      32.931  30.271  26.515  1.00  0.00    -0.356 N 
ATOM      4  H   UNL A   1      33.717  30.837  26.333  1.00  0.00     0.163 HD
ENDROOT
BRANCH   1   5
ATOM      5  C   UNL A   1      32.131  28.065  27.416  1.00  0.00     0.100 C 
BRANCH   5   6
ATOM      6  C   UNL A   1      32.179  26.881  26.439  1.00  0.00     0.021 C 
BRANCH   6   7
ATOM      7  C   UNL A   1      30.880  26.603  25.651  1.00  0.00     0.067 C 
ATOM      8  C   UNL A   1      30.929  26.725  24.101  1.00  0.00     0.190 C 
ATOM      9  C   UNL A   1      31.740  25.561  23.505  1.00  0.00     0.087 C 
ATOM     10  C   UNL A   1      31.169  24.218  23.960  1.00  0.00     0.126 C 
ATOM     11  C   UNL A   1      30.297  25.235  26.035  1.00  0.00     0.129 C 
ATOM     12  N   UNL A   1      31.015  24.133  25.410  1.00  0.00    -0.335 N 
BRANCH   8  13
ATOM     13  N   UNL A   1      31.303  28.095  23.702  1.00  0.00    -0.337 N 
ATOM     14  C   UNL A   1      30.190  28.844  23.115  1.00  0.00     0.332 C 
ATOM     15  C   UNL A   1      32.495  28.229  22.872  1.00  0.00     0.332 C 
ATOM     16  H   UNL A   1      31.553  28.511  24.599  1.00  0.00     0.347 HD
ENDBRANCH   8  13
BRANCH  12  17
ATOM     17  C   UNL A   1      31.315  22.917  26.041  1.00  0.00     0.294 C 
ATOM     18  O   UNL A   1      30.619  21.914  25.903  1.00  0.00    -0.265 OA
BRANCH  17  19
ATOM     19  C   UNL A   1      32.524  22.826  26.988  1.00  0.00     0.250 C 
ATOM     20  O   UNL A   1      32.356  22.578  28.178  1.00  0.00    -0.283 OA
BRANCH  19  21
ATOM     21  C   UNL A   1      33.909  22.903  26.440  1.00  0.00     0.028 A 
ATOM     22  C   UNL A   1      34.628  21.704  26.314  1.00  0.00     0.012 A 
ATOM     23  C   UNL A   1      34.496  24.099  26.011  1.00  0.00     0.012 A 
ATOM     24  C   UNL A   1      35.891  21.692  25.718  1.00  0.00     0.001 A 
ATOM     25  C   UNL A   1      35.761  24.084  25.413  1.00  0.00     0.001 A 
ATOM     26  C   UNL A   1      36.450  22.881  25.257  1.00  0.00     0.000 A 
ENDBRANCH  19  21
ENDBRANCH  17  19
ENDBRANCH  12  17
ENDBRANCH   6   7
ENDBRANCH   5   6
ENDBRANCH   1   5
BRANCH   3  27
ATOM     27  C   UNL A   1      31.669  30.804  26.028  1.00  0.00     0.117 C 
BRANCH  27  28
ATOM     28  C   UNL A   1      31.408  32.195  26.601  1.00  0.00     0.042 C 
BRANCH  28  29
ATOM     29  C   UNL A   1      32.577  32.801  27.344  1.00  0.00     0.118 C 
BRANCH  29  30
ATOM     30  N   UNL A   1      32.363  34.206  27.663  1.00  0.00    -0.352 N 
ATOM     31  C   UNL A   1      32.984  34.999  28.602  1.00  0.00     0.251 C 
ATOM     32  H   UNL A   1      31.670  34.656  27.127  1.00  0.00     0.163 HD
ATOM     33  O   UNL A   1      32.534  36.117  28.842  1.00  0.00    -0.269 OA
BRANCH  31  34
ATOM     34  C   UNL A   1      34.166  34.505  29.351  1.00  0.00     0.039 A 
ATOM     35  C   UNL A   1      33.981  33.889  30.594  1.00  0.00     0.014 A 
ATOM     36  C   UNL A   1      35.458  34.641  28.839  1.00  0.00     0.014 A 
ATOM     37  C   UNL A   1      35.076  33.347  31.277  1.00  0.00     0.010 A 
ATOM     38  C   UNL A   1      36.522  33.995  29.456  1.00  0.00     0.010 A 
ATOM     39  C   UNL A   1      36.351  33.357  30.692  1.00  0.00    -0.014 A 
BRANCH  39  40
ATOM     40  C   UNL A   1      37.537  32.749  31.351  1.00  0.00     0.031 A 
ATOM     41  C   UNL A   1      38.245  31.596  30.687  1.00  0.00     0.074 A 
ATOM     42  C   UNL A   1      37.910  33.148  32.583  1.00  0.00     0.049 A 
ATOM     43  N   UNL A   1      39.177  30.809  31.160  1.00  0.00    -0.248 NA
ATOM     44  C   UNL A   1      37.807  31.251  29.326  1.00  0.00     0.031 C 
ATOM     45  C   UNL A   1      37.270  34.209  33.361  1.00  0.00     0.029 A 
ATOM     46  N   UNL A   1      38.904  32.686  33.409  1.00  0.00    -0.354 N 
ATOM     47  C   UNL A   1      39.396  29.852  30.176  1.00  0.00     0.074 A 
ATOM     48  C   UNL A   1      38.466  30.124  29.105  1.00  0.00     0.031 C 
ATOM     49  C   UNL A   1      37.896  34.329  34.542  1.00  0.00     0.029 A 
ATOM     50  C   UNL A   1      38.953  33.325  34.624  1.00  0.00     0.049 A 
ATOM     51  H   UNL A   1      39.524  31.964  33.155  1.00  0.00     0.167 HD
ATOM     52  C   UNL A   1      40.308  28.852  30.158  1.00  0.00     0.037 A 
ATOM     53  C   UNL A   1      39.749  33.115  35.690  1.00  0.00     0.037 A 
ATOM     54  C   UNL A   1      41.278  28.628  31.196  1.00  0.00     0.049 A 
ATOM     55  C   UNL A   1      40.789  32.030  35.627  1.00  0.00     0.074 A 
ATOM     56  C   UNL A   1      42.311  27.709  31.228  1.00  0.00     0.029 A 
ATOM     57  N   UNL A   1      41.335  29.342  32.385  1.00  0.00    -0.354 N 
ATOM     58  N   UNL A   1      41.036  31.177  34.662  1.00  0.00    -0.248 NA
ATOM     59  C   UNL A   1      41.665  31.880  36.797  1.00  0.00     0.031 C 
ATOM     60  C   UNL A   1      42.971  27.840  32.454  1.00  0.00     0.029 A 
ATOM     61  C   UNL A   1      42.377  28.871  33.165  1.00  0.00     0.049 A 
ATOM     62  H   UNL A   1      40.726  30.073  32.636  1.00  0.00     0.167 HD
ATOM     63  C   UNL A   1      42.107  30.408  35.095  1.00  0.00     0.074 A 
ATOM     64  C   UNL A   1      42.472  30.902  36.407  1.00  0.00     0.031 C 
ATOM     65  C   UNL A   1      42.733  29.385  34.463  1.00  0.00     0.037 A 
BRANCH  52  66
ATOM     66  C   UNL A   1      40.304  27.929  28.973  1.00  0.00     0.064 A 
ATOM     67  C   UNL A   1      41.037  28.214  27.810  1.00  0.00     0.173 A 
ATOM     68  C   UNL A   1      39.572  26.732  29.006  1.00  0.00     0.173 A 
ATOM     69  F   UNL A   1      41.746  29.350  27.721  1.00  0.00    -0.203 F 
ATOM     70  C   UNL A   1      41.005  27.357  26.714  1.00  0.00     0.198 A 
ATOM     71  C   UNL A   1      39.569  25.860  27.920  1.00  0.00     0.198 A 
ATOM     72  F   UNL A   1      38.859  26.406  30.095  1.00  0.00    -0.203 F 
ATOM     73  F   UNL A   1      41.665  27.683  25.593  1.00  0.00    -0.200 F 
ATOM     74  C   UNL A   1      40.278  26.179  26.772  1.00  0.00     0.200 A 
ATOM     75  F   UNL A   1      38.876  24.716  27.983  1.00  0.00    -0.200 F 
ATOM     76  F   UNL A   1      40.250  25.354  25.716  1.00  0.00    -0.200 F 
ENDBRANCH  52  66
BRANCH  53  77
ATOM     77  C   UNL A   1      39.609  33.972  36.896  1.00  0.00     0.064 A 
ATOM     78  C   UNL A   1      40.250  35.217  36.968  1.00  0.00     0.173 A 
ATOM     79  C   UNL A   1      38.823  33.578  37.988  1.00  0.00     0.173 A 
ATOM     80  F   UNL A   1      41.028  35.628  35.956  1.00  0.00    -0.203 F 
ATOM     81  C   UNL A   1      40.120  36.030  38.092  1.00  0.00     0.198 A 
ATOM     82  C   UNL A   1      38.674  34.402  39.101  1.00  0.00     0.198 A 
ATOM     83  F   UNL A   1      38.187  32.399  37.965  1.00  0.00    -0.203 F 
ATOM     84  F   UNL A   1      40.772  37.199  38.149  1.00  0.00    -0.200 F 
ATOM     85  C   UNL A   1      39.327  35.625  39.155  1.00  0.00     0.200 A 
ATOM     86  F   UNL A   1      37.896  34.014  40.121  1.00  0.00    -0.200 F 
ATOM     87  F   UNL A   1      39.195  36.411  40.233  1.00  0.00    -0.200 F 
ENDBRANCH  53  77
BRANCH  65  88
ATOM     88  C   UNL A   1      43.900  28.752  35.159  1.00  0.00     0.064 A 
ATOM     89  C   UNL A   1      45.198  29.261  35.027  1.00  0.00     0.173 A 
ATOM     90  C   UNL A   1      43.702  27.667  36.026  1.00  0.00     0.173 A 
ATOM     91  F   UNL A   1      45.440  30.289  34.198  1.00  0.00    -0.203 F 
ATOM     92  C   UNL A   1      46.261  28.698  35.729  1.00  0.00     0.198 A 
ATOM     93  C   UNL A   1      44.761  27.123  36.746  1.00  0.00     0.198 A 
ATOM     94  F   UNL A   1      42.475  27.149  36.191  1.00  0.00    -0.203 F 
ATOM     95  F   UNL A   1      47.501  29.180  35.564  1.00  0.00    -0.200 F 
ATOM     96  C   UNL A   1      46.039  27.637  36.595  1.00  0.00     0.200 A 
ATOM     97  F   UNL A   1      44.543  26.106  37.592  1.00  0.00    -0.200 F 
ATOM     98  F   UNL A   1      47.061  27.107  37.281  1.00  0.00    -0.200 F 
ENDBRANCH  65  88
ENDBRANCH  39  40
ENDBRANCH  31  34
ENDBRANCH  29  30
ENDBRANCH  28  29
ENDBRANCH  27  28
ENDBRANCH   3  27
TORSDOF 16
ENDMDL
MODEL 3
REMARK VINA RESULT:     -12.1      1.397      3.144
REMARK SMILES C[NH+](C)[C@H]1CCN(C(=O)C(=O)c2ccccc2)C[C@H]1CCC(=O)NCCCNC(=O)c1ccc(-c2c3nc(c(-c4c(F)c(F)c(F)c(F)c4F)c4ccc([nH]4)c(-c4c(F)c(F)c(F)c(F)c4F)c4nc(c(-c5c(F)c(F)c(F)c(F)c5F)c5ccc2[nH]5)C=C4)C=C3)cc1
REMARK SMILES IDX 22 1 23 2 24 3 21 5 20 6 19 7 4 8 5 9 6 10 18 11 7 12 2 13
REMARK SMILES IDX 1 14 3 15 8 17 9 18 10 19 11 20 12 21 13 22 17 23 14 24
REMARK SMILES IDX 16 25 15 26 25 27 26 28 27 29 28 30 29 31 30 33 31 34 32 35
REMARK SMILES IDX 93 36 33 37 92 38 34 39 35 40 36 41 86 42 37 43 91 44 85 45
REMARK SMILES IDX 87 46 38 47 90 48 84 49 83 50 39 52 71 53 51 54 70 55 52 56
REMARK SMILES IDX 55 57 69 58 88 59 53 60 54 61 68 63 89 64 56 65 40 66 41 67
REMARK SMILES IDX 49 68 42 69 43 70 47 71 50 72 44 73 45 74 48 75 46 76 72 77
REMARK SMILES IDX 73 78 81 79 74 80 75 81 79 82 82 83 76 84 77 85 80 86 78 87
REMARK SMILES IDX 57 88 58 89 66 90 59 91 60 92 64 93 67 94 61 95 62 96 65 97
REMARK SMILES IDX 63 98
REMARK H PARENT 24 4 2 16 28 32 87 51 55 62
REMARK Flexibility Score: inf
ROOT
ATOM      1  C   UNL A   1      32.462  28.367  27.394  1.00  0.00     0.220 C 
ATOM      2  O   UNL A   1      31.446  27.972  27.971  1.00  0.00    -0.275 OA
ATOM      3  N   UNL A   1      32.827  29.669  27.567  1.00  0.00    -0.356 N 
ATOM      4  H   UNL A   1      32.280  30.168  28.216  1.00  0.00     0.163 HD
ENDROOT
BRANCH   1   5
ATOM      5  C   UNL A   1      33.287  27.421  26.540  1.00  0.00     0.100 C 
BRANCH   5   6
ATOM      6  C   UNL A   1      32.507  26.213  26.000  1.00  0.00     0.021 C 
BRANCH   6   7
ATOM      7  C   UNL A   1      33.349  24.962  25.664  1.00  0.00     0.067 C 
ATOM      8  C   UNL A   1      32.628  23.584  25.643  1.00  0.00     0.190 C 
ATOM      9  C   UNL A   1      31.697  23.493  24.421  1.00  0.00     0.087 C 
ATOM     10  C   UNL A   1      32.473  23.757  23.132  1.00  0.00     0.126 C 
ATOM     11  C   UNL A   1      34.107  25.159  24.343  1.00  0.00     0.129 C 
ATOM     12  N   UNL A   1      33.244  24.997  23.181  1.00  0.00    -0.335 N 
BRANCH   8  13
ATOM     13  N   UNL A   1      32.052  23.282  26.968  1.00  0.00    -0.337 N 
ATOM     14  C   UNL A   1      32.875  22.361  27.754  1.00  0.00     0.332 C 
ATOM     15  C   UNL A   1      30.657  22.856  26.989  1.00  0.00     0.332 C 
ATOM     16  H   UNL A   1      32.058  24.201  27.410  1.00  0.00     0.347 HD
ENDBRANCH   8  13
BRANCH  12  17
ATOM     17  C   UNL A   1      33.307  25.788  22.025  1.00  0.00     0.294 C 
ATOM     18  O   UNL A   1      33.430  25.305  20.902  1.00  0.00    -0.265 OA
BRANCH  17  19
ATOM     19  C   UNL A   1      33.276  27.321  22.146  1.00  0.00     0.250 C 
ATOM     20  O   UNL A   1      34.184  27.994  21.667  1.00  0.00    -0.283 OA
BRANCH  19  21
ATOM     21  C   UNL A   1      32.081  28.001  22.724  1.00  0.00     0.028 A 
ATOM     22  C   UNL A   1      30.816  27.507  22.372  1.00  0.00     0.012 A 
ATOM     23  C   UNL A   1      32.171  29.069  23.625  1.00  0.00     0.012 A 
ATOM     24  C   UNL A   1      29.661  28.034  22.954  1.00  0.00     0.001 A 
ATOM     25  C   UNL A   1      31.013  29.594  24.207  1.00  0.00     0.001 A 
ATOM     26  C   UNL A   1      29.762  29.070  23.880  1.00  0.00     0.000 A 
ENDBRANCH  19  21
ENDBRANCH  17  19
ENDBRANCH  12  17
ENDBRANCH   6   7
ENDBRANCH   5   6
ENDBRANCH   1   5
BRANCH   3  27
ATOM     27  C   UNL A   1      33.894  30.439  26.947  1.00  0.00     0.117 C 
BRANCH  27  28
ATOM     28  C   UNL A   1      33.822  31.905  27.368  1.00  0.00     0.042 C 
BRANCH  28  29
ATOM     29  C   UNL A   1      32.427  32.411  27.662  1.00  0.00     0.118 C 
BRANCH  29  30
ATOM     30  N   UNL A   1      32.365  33.864  27.722  1.00  0.00    -0.352 N 
ATOM     31  C   UNL A   1      33.103  34.744  28.481  1.00  0.00     0.251 C 
ATOM     32  H   UNL A   1      31.695  34.280  27.132  1.00  0.00     0.163 HD
ATOM     33  O   UNL A   1      32.775  35.928  28.524  1.00  0.00    -0.269 OA
BRANCH  31  34
ATOM     34  C   UNL A   1      34.265  34.273  29.275  1.00  0.00     0.039 A 
ATOM     35  C   UNL A   1      34.042  33.585  30.473  1.00  0.00     0.014 A 
ATOM     36  C   UNL A   1      35.575  34.502  28.850  1.00  0.00     0.014 A 
ATOM     37  C   UNL A   1      35.124  33.065  31.193  1.00  0.00     0.010 A 
ATOM     38  C   UNL A   1      36.636  33.881  29.498  1.00  0.00     0.010 A 
ATOM     39  C   UNL A   1      36.428  33.171  30.689  1.00  0.00    -0.014 A 
BRANCH  39  40
ATOM     40  C   UNL A   1      37.606  32.592  31.387  1.00  0.00     0.031 A 
ATOM     41  C   UNL A   1      38.340  31.432  30.767  1.00  0.00     0.074 A 
ATOM     42  C   UNL A   1      37.947  33.024  32.617  1.00  0.00     0.049 A 
ATOM     43  N   UNL A   1      39.270  30.666  31.278  1.00  0.00    -0.248 NA
ATOM     44  C   UNL A   1      37.936  31.051  29.404  1.00  0.00     0.031 C 
ATOM     45  C   UNL A   1      37.279  34.096  33.355  1.00  0.00     0.029 A 
ATOM     46  N   UNL A   1      38.928  32.591  33.476  1.00  0.00    -0.354 N 
ATOM     47  C   UNL A   1      39.521  29.689  30.322  1.00  0.00     0.074 A 
ATOM     48  C   UNL A   1      38.611  29.926  29.224  1.00  0.00     0.031 C 
ATOM     49  C   UNL A   1      37.878  34.249  34.547  1.00  0.00     0.029 A 
ATOM     50  C   UNL A   1      38.942  33.260  34.676  1.00  0.00     0.049 A 
ATOM     51  H   UNL A   1      39.560  31.871  33.252  1.00  0.00     0.167 HD
ATOM     52  C   UNL A   1      40.442  28.698  30.348  1.00  0.00     0.037 A 
ATOM     53  C   UNL A   1      39.717  33.083  35.763  1.00  0.00     0.037 A 
ATOM     54  C   UNL A   1      41.392  28.510  31.411  1.00  0.00     0.049 A 
ATOM     55  C   UNL A   1      40.770  32.008  35.749  1.00  0.00     0.074 A 
ATOM     56  C   UNL A   1      42.433  27.603  31.488  1.00  0.00     0.029 A 
ATOM     57  N   UNL A   1      41.415  29.251  32.584  1.00  0.00    -0.354 N 
ATOM     58  N   UNL A   1      41.047  31.136  34.810  1.00  0.00    -0.248 NA
ATOM     59  C   UNL A   1      41.621  31.895  36.942  1.00  0.00     0.031 C 
ATOM     60  C   UNL A   1      43.065  27.770  32.724  1.00  0.00     0.029 A 
ATOM     61  C   UNL A   1      42.444  28.810  33.398  1.00  0.00     0.049 A 
ATOM     62  H   UNL A   1      40.794  29.981  32.804  1.00  0.00     0.167 HD
ATOM     63  C   UNL A   1      42.116  30.389  35.285  1.00  0.00     0.074 A 
ATOM     64  C   UNL A   1      42.446  30.917  36.592  1.00  0.00     0.031 C 
ATOM     65  C   UNL A   1      42.766  29.359  34.690  1.00  0.00     0.037 A 
BRANCH  52  66
ATOM     66  C   UNL A   1      40.475  27.748  29.184  1.00  0.00     0.064 A 
ATOM     67  C   UNL A   1      41.315  27.959  28.080  1.00  0.00     0.173 A 
ATOM     68  C   UNL A   1      39.668  26.600  29.182  1.00  0.00     0.173 A 
ATOM     69  F   UNL A   1      42.099  29.046  28.025  1.00  0.00    -0.203 F 
ATOM     70  C   UNL A   1      41.316  27.078  27.001  1.00  0.00     0.198 A 
ATOM     71  C   UNL A   1      39.697  25.703  28.117  1.00  0.00     0.198 A 
ATOM     72  F   UNL A   1      38.851  26.346  30.216  1.00  0.00    -0.203 F 
ATOM     73  F   UNL A   1      42.082  27.335  25.931  1.00  0.00    -0.200 F 
ATOM     74  C   UNL A   1      40.513  25.949  27.023  1.00  0.00     0.200 A 
ATOM     75  F   UNL A   1      38.930  24.605  28.146  1.00  0.00    -0.200 F 
ATOM     76  F   UNL A   1      40.517  25.101  25.985  1.00  0.00    -0.200 F 
ENDBRANCH  52  66
BRANCH  53  77
ATOM     77  C   UNL A   1      39.542  33.966  36.946  1.00  0.00     0.064 A 
ATOM     78  C   UNL A   1      38.777  33.549  38.044  1.00  0.00     0.173 A 
ATOM     79  C   UNL A   1      40.144  35.231  37.011  1.00  0.00     0.173 A 
ATOM     80  F   UNL A   1      38.165  32.356  38.019  1.00  0.00    -0.203 F 
ATOM     81  C   UNL A   1      38.612  34.369  39.160  1.00  0.00     0.198 A 
ATOM     82  C   UNL A   1      39.999  36.039  38.137  1.00  0.00     0.198 A 
ATOM     83  F   UNL A   1      40.889  35.673  35.989  1.00  0.00    -0.203 F 
ATOM     84  F   UNL A   1      37.846  33.960  40.181  1.00  0.00    -0.200 F 
ATOM     85  C   UNL A   1      39.228  35.610  39.208  1.00  0.00     0.200 A 
ATOM     86  F   UNL A   1      40.606  37.233  38.187  1.00  0.00    -0.200 F 
ATOM     87  F   UNL A   1      39.075  36.394  40.284  1.00  0.00    -0.200 F 
ENDBRANCH  53  77
BRANCH  65  88
ATOM     88  C   UNL A   1      43.923  28.754  35.427  1.00  0.00     0.064 A 
ATOM     89  C   UNL A   1      45.232  29.225  35.251  1.00  0.00     0.173 A 
ATOM     90  C   UNL A   1      43.708  27.741  36.373  1.00  0.00     0.173 A 
ATOM     91  F   UNL A   1      45.489  30.183  34.348  1.00  0.00    -0.203 F 
ATOM     92  C   UNL A   1      46.287  28.693  35.989  1.00  0.00     0.198 A 
ATOM     93  C   UNL A   1      44.760  27.231  37.127  1.00  0.00     0.198 A 
ATOM     94  F   UNL A   1      42.472  27.263  36.581  1.00  0.00    -0.203 F 
ATOM     95  F   UNL A   1      47.535  29.136  35.783  1.00  0.00    -0.200 F 
ATOM     96  C   UNL A   1      46.048  27.705  36.932  1.00  0.00     0.200 A 
ATOM     97  F   UNL A   1      44.527  26.284  38.047  1.00  0.00    -0.200 F 
ATOM     98  F   UNL A   1      47.063  27.206  37.651  1.00  0.00    -0.200 F 
ENDBRANCH  65  88
ENDBRANCH  39  40
ENDBRANCH  31  34
ENDBRANCH  29  30
ENDBRANCH  28  29
ENDBRANCH  27  28
ENDBRANCH   3  27
TORSDOF 16
ENDMDL
