MODEL 1
REMARK VINA RESULT:     -13.0      0.000      0.000
REMARK SMILES COc1ccc2c(c1)c(CC(=O)NCCCNC(=O)c1ccc(-c3c4nc(c(-c5c(F)c(F)c(F)c(F)c5F)c5ccc([nH]5)c(-c5c(F)c(F)c(F)c(F)c5F)c5nc(c(-c6c(F)c(F)c(F)c(F)c6F)c6ccc3[nH]6)C=C5)C=C4)cc1)c(C)n2Cc1ccc(Br)cc1
REMARK SMILES IDX 14 1 13 2 11 3 12 4 10 6 9 7 3 8 4 9 8 10 5 11 7 12 6 13
REMARK SMILES IDX 85 14 83 15 84 16 2 17 1 18 86 19 87 20 88 21 93 22 89 23
REMARK SMILES IDX 92 24 90 25 91 26 15 27 16 28 17 29 18 30 19 32 20 33 21 34
REMARK SMILES IDX 82 35 22 36 81 37 23 38 24 39 25 40 75 41 26 42 80 43 74 44
REMARK SMILES IDX 76 45 27 46 79 47 73 48 72 49 28 51 60 52 40 53 59 54 41 55
REMARK SMILES IDX 44 56 58 57 77 58 42 59 43 60 57 62 78 63 45 64 29 65 30 66
REMARK SMILES IDX 38 67 31 68 32 69 36 70 39 71 33 72 34 73 37 74 35 75 61 76
REMARK SMILES IDX 62 77 70 78 63 79 64 80 68 81 71 82 65 83 66 84 69 85 67 86
REMARK SMILES IDX 46 87 47 88 55 89 48 90 49 91 53 92 56 93 50 94 51 95 54 96
REMARK SMILES IDX 52 97
REMARK H PARENT 13 5 17 31 76 50 44 61
REMARK Flexibility Score: inf
ROOT
ATOM      1  C   UNL A   1      40.047  20.955  26.227  1.00  0.00     0.117 C 
ENDROOT
BRANCH   1   2
ATOM      2  N   UNL A   1      39.119  22.057  26.425  1.00  0.00    -0.356 N 
ATOM      3  C   UNL A   1      37.881  22.276  25.892  1.00  0.00     0.224 C 
ATOM      4  O   UNL A   1      37.298  23.317  26.205  1.00  0.00    -0.275 OA
ATOM      5  H   UNL A   1      39.433  22.758  27.040  1.00  0.00     0.163 HD
BRANCH   3   6
ATOM      6  C   UNL A   1      37.211  21.233  25.015  1.00  0.00     0.138 C 
BRANCH   6   7
ATOM      7  C   UNL A   1      35.889  21.670  24.462  1.00  0.00    -0.010 A 
ATOM      8  C   UNL A   1      32.873  19.535  25.379  1.00  0.00     0.119 A 
ATOM      9  C   UNL A   1      31.917  20.348  24.778  1.00  0.00     0.048 A 
ATOM     10  C   UNL A   1      34.215  19.908  25.384  1.00  0.00     0.057 A 
ATOM     11  C   UNL A   1      32.289  21.529  24.122  1.00  0.00     0.031 A 
ATOM     12  C   UNL A   1      34.619  21.070  24.694  1.00  0.00     0.007 A 
ATOM     13  C   UNL A   1      33.653  21.863  24.065  1.00  0.00     0.049 A 
ATOM     14  N   UNL A   1      34.326  22.922  23.468  1.00  0.00    -0.340 N 
ATOM     15  C   UNL A   1      35.690  22.681  23.534  1.00  0.00     0.020 A 
ATOM     16  C   UNL A   1      36.738  23.416  22.772  1.00  0.00     0.065 C 
BRANCH   8  17
ATOM     17  O   UNL A   1      32.554  18.378  26.040  1.00  0.00    -0.497 OA
ATOM     18  C   UNL A   1      32.707  17.222  25.220  1.00  0.00     0.278 C 
ENDBRANCH   8  17
BRANCH  14  19
ATOM     19  C   UNL A   1      33.679  24.069  22.818  1.00  0.00     0.157 C 
BRANCH  19  20
ATOM     20  C   UNL A   1      33.776  25.326  23.660  1.00  0.00    -0.028 A 
ATOM     21  C   UNL A   1      33.903  25.222  25.053  1.00  0.00     0.007 A 
ATOM     22  C   UNL A   1      33.689  26.606  23.093  1.00  0.00     0.007 A 
ATOM     23  C   UNL A   1      33.794  26.336  25.872  1.00  0.00     0.016 A 
ATOM     24  C   UNL A   1      33.650  27.741  23.913  1.00  0.00     0.016 A 
ATOM     25  C   UNL A   1      33.657  27.588  25.297  1.00  0.00     0.017 A 
ATOM     26  Br  UNL A   1      33.463  29.049  26.457  1.00  0.00    -0.051 Br
ENDBRANCH  19  20
ENDBRANCH  14  19
ENDBRANCH   6   7
ENDBRANCH   3   6
ENDBRANCH   1   2
BRANCH   1  27
ATOM     27  C   UNL A   1      41.123  20.893  27.318  1.00  0.00     0.042 C 
BRANCH  27  28
ATOM     28  C   UNL A   1      42.040  19.671  27.212  1.00  0.00     0.118 C 
BRANCH  28  29
ATOM     29  N   UNL A   1      42.792  19.623  25.970  1.00  0.00    -0.352 N 
ATOM     30  C   UNL A   1      43.617  20.463  25.284  1.00  0.00     0.251 C 
ATOM     31  H   UNL A   1      42.677  18.762  25.507  1.00  0.00     0.163 HD
ATOM     32  O   UNL A   1      44.139  19.984  24.269  1.00  0.00    -0.269 OA
BRANCH  30  33
ATOM     33  C   UNL A   1      43.878  21.892  25.598  1.00  0.00     0.039 A 
ATOM     34  C   UNL A   1      44.770  22.362  26.560  1.00  0.00     0.014 A 
ATOM     35  C   UNL A   1      43.047  22.822  24.940  1.00  0.00     0.014 A 
ATOM     36  C   UNL A   1      44.716  23.693  26.962  1.00  0.00     0.010 A 
ATOM     37  C   UNL A   1      42.990  24.151  25.341  1.00  0.00     0.010 A 
ATOM     38  C   UNL A   1      43.749  24.555  26.430  1.00  0.00    -0.014 A 
BRANCH  38  39
ATOM     39  C   UNL A   1      43.502  25.813  27.137  1.00  0.00     0.031 A 
ATOM     40  C   UNL A   1      44.511  26.890  26.929  1.00  0.00     0.074 A 
ATOM     41  C   UNL A   1      42.435  25.994  27.945  1.00  0.00     0.049 A 
ATOM     42  N   UNL A   1      45.275  27.470  27.799  1.00  0.00    -0.248 NA
ATOM     43  C   UNL A   1      44.754  27.306  25.540  1.00  0.00     0.031 C 
ATOM     44  C   UNL A   1      41.242  25.151  28.094  1.00  0.00     0.029 A 
ATOM     45  N   UNL A   1      42.173  27.031  28.792  1.00  0.00    -0.354 N 
ATOM     46  C   UNL A   1      45.996  28.433  27.093  1.00  0.00     0.074 A 
ATOM     47  C   UNL A   1      45.715  28.216  25.696  1.00  0.00     0.031 C 
ATOM     48  C   UNL A   1      40.303  25.819  28.797  1.00  0.00     0.029 A 
ATOM     49  C   UNL A   1      40.861  27.083  29.236  1.00  0.00     0.049 A 
ATOM     50  H   UNL A   1      42.856  27.685  29.063  1.00  0.00     0.167 HD
ATOM     51  C   UNL A   1      46.651  29.459  27.702  1.00  0.00     0.037 A 
ATOM     52  C   UNL A   1      40.249  28.147  29.814  1.00  0.00     0.037 A 
ATOM     53  C   UNL A   1      46.903  29.205  29.091  1.00  0.00     0.049 A 
ATOM     54  C   UNL A   1      41.308  29.042  30.346  1.00  0.00     0.074 A 
ATOM     55  C   UNL A   1      47.652  28.268  29.778  1.00  0.00     0.029 A 
ATOM     56  N   UNL A   1      46.088  29.782  30.032  1.00  0.00    -0.354 N 
ATOM     57  N   UNL A   1      42.064  28.750  31.369  1.00  0.00    -0.248 NA
ATOM     58  C   UNL A   1      41.837  30.059  29.447  1.00  0.00     0.031 C 
ATOM     59  C   UNL A   1      46.893  27.978  30.948  1.00  0.00     0.029 A 
ATOM     60  C   UNL A   1      45.759  28.789  30.919  1.00  0.00     0.049 A 
ATOM     61  H   UNL A   1      45.798  30.722  30.064  1.00  0.00     0.167 HD
ATOM     62  C   UNL A   1      43.322  29.226  31.027  1.00  0.00     0.074 A 
ATOM     63  C   UNL A   1      43.106  30.077  29.861  1.00  0.00     0.031 C 
ATOM     64  C   UNL A   1      44.461  28.672  31.538  1.00  0.00     0.037 A 
BRANCH  51  65
ATOM     65  C   UNL A   1      46.813  30.820  27.088  1.00  0.00     0.064 A 
ATOM     66  C   UNL A   1      48.079  31.434  27.037  1.00  0.00     0.173 A 
ATOM     67  C   UNL A   1      45.712  31.656  26.800  1.00  0.00     0.173 A 
ATOM     68  F   UNL A   1      49.187  30.737  27.331  1.00  0.00    -0.203 F 
ATOM     69  C   UNL A   1      48.223  32.796  26.757  1.00  0.00     0.198 A 
ATOM     70  C   UNL A   1      45.863  33.000  26.471  1.00  0.00     0.198 A 
ATOM     71  F   UNL A   1      44.450  31.224  26.933  1.00  0.00    -0.203 F 
ATOM     72  F   UNL A   1      49.436  33.363  26.819  1.00  0.00    -0.200 F 
ATOM     73  C   UNL A   1      47.116  33.577  26.475  1.00  0.00     0.200 A 
ATOM     74  F   UNL A   1      44.777  33.745  26.224  1.00  0.00    -0.200 F 
ATOM     75  F   UNL A   1      47.248  34.891  26.256  1.00  0.00    -0.200 F 
ENDBRANCH  51  65
BRANCH  52  76
ATOM     76  C   UNL A   1      38.865  28.603  29.530  1.00  0.00     0.064 A 
ATOM     77  C   UNL A   1      37.954  28.865  30.565  1.00  0.00     0.173 A 
ATOM     78  C   UNL A   1      38.483  29.033  28.241  1.00  0.00     0.173 A 
ATOM     79  F   UNL A   1      38.260  28.543  31.830  1.00  0.00    -0.203 F 
ATOM     80  C   UNL A   1      36.739  29.519  30.323  1.00  0.00     0.198 A 
ATOM     81  C   UNL A   1      37.268  29.671  27.999  1.00  0.00     0.198 A 
ATOM     82  F   UNL A   1      39.320  28.930  27.199  1.00  0.00    -0.203 F 
ATOM     83  F   UNL A   1      35.916  29.803  31.343  1.00  0.00    -0.200 F 
ATOM     84  C   UNL A   1      36.400  29.925  29.041  1.00  0.00     0.200 A 
ATOM     85  F   UNL A   1      36.974  30.089  26.759  1.00  0.00    -0.200 F 
ATOM     86  F   UNL A   1      35.261  30.595  28.817  1.00  0.00    -0.200 F 
ENDBRANCH  52  76
BRANCH  64  87
ATOM     87  C   UNL A   1      44.328  27.659  32.639  1.00  0.00     0.064 A 
ATOM     88  C   UNL A   1      44.164  26.284  32.404  1.00  0.00     0.173 A 
ATOM     89  C   UNL A   1      44.559  28.064  33.960  1.00  0.00     0.173 A 
ATOM     90  F   UNL A   1      44.027  25.815  31.157  1.00  0.00    -0.203 F 
ATOM     91  C   UNL A   1      44.199  25.360  33.448  1.00  0.00     0.198 A 
ATOM     92  C   UNL A   1      44.625  27.138  34.997  1.00  0.00     0.198 A 
ATOM     93  F   UNL A   1      44.781  29.358  34.238  1.00  0.00    -0.203 F 
ATOM     94  F   UNL A   1      44.041  24.052  33.199  1.00  0.00    -0.200 F 
ATOM     95  C   UNL A   1      44.440  25.789  34.743  1.00  0.00     0.200 A 
ATOM     96  F   UNL A   1      44.905  27.550  36.241  1.00  0.00    -0.200 F 
ATOM     97  F   UNL A   1      44.522  24.898  35.741  1.00  0.00    -0.200 F 
ENDBRANCH  64  87
ENDBRANCH  38  39
ENDBRANCH  30  33
ENDBRANCH  28  29
ENDBRANCH  27  28
ENDBRANCH   1  27
TORSDOF 14
ENDMDL
MODEL 2
REMARK VINA RESULT:     -13.0      2.578      3.800
REMARK SMILES COc1ccc2c(c1)c(CC(=O)NCCCNC(=O)c1ccc(-c3c4nc(c(-c5c(F)c(F)c(F)c(F)c5F)c5ccc([nH]5)c(-c5c(F)c(F)c(F)c(F)c5F)c5nc(c(-c6c(F)c(F)c(F)c(F)c6F)c6ccc3[nH]6)C=C5)C=C4)cc1)c(C)n2Cc1ccc(Br)cc1
REMARK SMILES IDX 14 1 13 2 11 3 12 4 10 6 9 7 3 8 4 9 8 10 5 11 7 12 6 13
REMARK SMILES IDX 85 14 83 15 84 16 2 17 1 18 86 19 87 20 88 21 93 22 89 23
REMARK SMILES IDX 92 24 90 25 91 26 15 27 16 28 17 29 18 30 19 32 20 33 21 34
REMARK SMILES IDX 82 35 22 36 81 37 23 38 24 39 25 40 75 41 26 42 80 43 74 44
REMARK SMILES IDX 76 45 27 46 79 47 73 48 72 49 28 51 60 52 40 53 59 54 41 55
REMARK SMILES IDX 44 56 58 57 77 58 42 59 43 60 57 62 78 63 45 64 29 65 30 66
REMARK SMILES IDX 38 67 31 68 32 69 36 70 39 71 33 72 34 73 37 74 35 75 61 76
REMARK SMILES IDX 62 77 70 78 63 79 64 80 68 81 71 82 65 83 66 84 69 85 67 86
REMARK SMILES IDX 46 87 47 88 55 89 48 90 49 91 53 92 56 93 50 94 51 95 54 96
REMARK SMILES IDX 52 97
REMARK H PARENT 13 5 17 31 76 50 44 61
REMARK Flexibility Score: inf
ROOT
ATOM      1  C   UNL A   1      36.224  22.050  24.196  1.00  0.00     0.117 C 
ENDROOT
BRANCH   1   2
ATOM      2  N   UNL A   1      35.467  21.439  25.277  1.00  0.00    -0.356 N 
ATOM      3  C   UNL A   1      34.140  21.134  25.363  1.00  0.00     0.224 C 
ATOM      4  O   UNL A   1      33.734  20.634  26.416  1.00  0.00    -0.275 OA
ATOM      5  H   UNL A   1      35.997  21.209  26.074  1.00  0.00     0.163 HD
BRANCH   3   6
ATOM      6  C   UNL A   1      33.214  21.322  24.175  1.00  0.00     0.138 C 
BRANCH   6   7
ATOM      7  C   UNL A   1      32.552  22.665  24.134  1.00  0.00    -0.010 A 
ATOM      8  C   UNL A   1      29.973  23.374  26.844  1.00  0.00     0.119 A 
ATOM      9  C   UNL A   1      29.737  24.698  26.492  1.00  0.00     0.048 A 
ATOM     10  C   UNL A   1      30.930  22.622  26.165  1.00  0.00     0.057 A 
ATOM     11  C   UNL A   1      30.416  25.289  25.418  1.00  0.00     0.031 A 
ATOM     12  C   UNL A   1      31.595  23.181  25.053  1.00  0.00     0.007 A 
ATOM     13  C   UNL A   1      31.326  24.504  24.688  1.00  0.00     0.049 A 
ATOM     14  N   UNL A   1      32.107  24.783  23.572  1.00  0.00    -0.340 N 
ATOM     15  C   UNL A   1      32.680  23.604  23.121  1.00  0.00     0.020 A 
ATOM     16  C   UNL A   1      33.348  23.414  21.803  1.00  0.00     0.065 C 
BRANCH   8  17
ATOM     17  O   UNL A   1      29.341  22.760  27.893  1.00  0.00    -0.497 OA
ATOM     18  C   UNL A   1      28.202  22.007  27.478  1.00  0.00     0.278 C 
ENDBRANCH   8  17
BRANCH  14  19
ATOM     19  C   UNL A   1      32.236  26.105  22.947  1.00  0.00     0.157 C 
BRANCH  19  20
ATOM     20  C   UNL A   1      32.819  27.128  23.902  1.00  0.00    -0.028 A 
ATOM     21  C   UNL A   1      33.764  26.727  24.858  1.00  0.00     0.007 A 
ATOM     22  C   UNL A   1      32.403  28.468  23.897  1.00  0.00     0.007 A 
ATOM     23  C   UNL A   1      34.169  27.581  25.873  1.00  0.00     0.016 A 
ATOM     24  C   UNL A   1      32.865  29.354  24.878  1.00  0.00     0.016 A 
ATOM     25  C   UNL A   1      33.709  28.887  25.884  1.00  0.00     0.017 A 
ATOM     26  Br  UNL A   1      34.252  29.978  27.308  1.00  0.00    -0.051 Br
ENDBRANCH  19  20
ENDBRANCH  14  19
ENDBRANCH   6   7
ENDBRANCH   3   6
ENDBRANCH   1   2
BRANCH   1  27
ATOM     27  C   UNL A   1      37.038  23.263  24.662  1.00  0.00     0.042 C 
BRANCH  27  28
ATOM     28  C   UNL A   1      37.455  23.200  26.134  1.00  0.00     0.118 C 
BRANCH  28  29
ATOM     29  N   UNL A   1      38.661  22.421  26.356  1.00  0.00    -0.352 N 
ATOM     30  C   UNL A   1      39.921  22.662  26.818  1.00  0.00     0.251 C 
ATOM     31  H   UNL A   1      38.536  21.476  26.110  1.00  0.00     0.163 HD
ATOM     32  O   UNL A   1      40.645  21.666  26.933  1.00  0.00    -0.269 OA
BRANCH  30  33
ATOM     33  C   UNL A   1      40.508  23.994  27.117  1.00  0.00     0.039 A 
ATOM     34  C   UNL A   1      41.299  24.304  28.221  1.00  0.00     0.014 A 
ATOM     35  C   UNL A   1      40.110  25.042  26.260  1.00  0.00     0.014 A 
ATOM     36  C   UNL A   1      41.546  25.635  28.545  1.00  0.00     0.010 A 
ATOM     37  C   UNL A   1      40.353  26.371  26.582  1.00  0.00     0.010 A 
ATOM     38  C   UNL A   1      40.977  26.665  27.786  1.00  0.00    -0.014 A 
BRANCH  38  39
ATOM     39  C   UNL A   1      40.964  28.007  28.371  1.00  0.00     0.031 A 
ATOM     40  C   UNL A   1      42.085  28.905  27.973  1.00  0.00     0.074 A 
ATOM     41  C   UNL A   1      40.008  28.415  29.233  1.00  0.00     0.049 A 
ATOM     42  N   UNL A   1      42.994  29.452  28.716  1.00  0.00    -0.248 NA
ATOM     43  C   UNL A   1      42.256  29.148  26.533  1.00  0.00     0.031 C 
ATOM     44  C   UNL A   1      38.731  27.768  29.561  1.00  0.00     0.029 A 
ATOM     45  N   UNL A   1      39.963  29.554  29.980  1.00  0.00    -0.354 N 
ATOM     46  C   UNL A   1      43.771  30.230  27.858  1.00  0.00     0.074 A 
ATOM     47  C   UNL A   1      43.340  29.923  26.518  1.00  0.00     0.031 C 
ATOM     48  C   UNL A   1      37.956  28.627  30.257  1.00  0.00     0.029 A 
ATOM     49  C   UNL A   1      38.715  29.835  30.514  1.00  0.00     0.049 A 
ATOM     50  H   UNL A   1      40.749  30.128  30.128  1.00  0.00     0.167 HD
ATOM     51  C   UNL A   1      44.609  31.207  28.302  1.00  0.00     0.037 A 
ATOM     52  C   UNL A   1      38.305  31.025  31.019  1.00  0.00     0.037 A 
ATOM     53  C   UNL A   1      44.948  31.054  29.687  1.00  0.00     0.049 A 
ATOM     54  C   UNL A   1      39.517  31.808  31.371  1.00  0.00     0.074 A 
ATOM     55  C   UNL A   1      45.624  30.091  30.412  1.00  0.00     0.029 A 
ATOM     56  N   UNL A   1      44.305  31.828  30.619  1.00  0.00    -0.354 N 
ATOM     57  N   UNL A   1      40.316  31.511  32.359  1.00  0.00    -0.248 NA
ATOM     58  C   UNL A   1      40.094  32.648  30.331  1.00  0.00     0.031 C 
ATOM     59  C   UNL A   1      44.941  30.024  31.661  1.00  0.00     0.029 A 
ATOM     60  C   UNL A   1      43.928  30.982  31.630  1.00  0.00     0.049 A 
ATOM     61  H   UNL A   1      44.148  32.799  30.572  1.00  0.00     0.167 HD
ATOM     62  C   UNL A   1      41.590  31.769  31.875  1.00  0.00     0.074 A 
ATOM     63  C   UNL A   1      41.387  32.526  30.643  1.00  0.00     0.031 C 
ATOM     64  C   UNL A   1      42.686  31.110  32.354  1.00  0.00     0.037 A 
BRANCH  51  65
ATOM     65  C   UNL A   1      44.896  32.466  27.535  1.00  0.00     0.064 A 
ATOM     66  C   UNL A   1      46.104  32.611  26.828  1.00  0.00     0.173 A 
ATOM     67  C   UNL A   1      44.137  33.644  27.704  1.00  0.00     0.173 A 
ATOM     68  F   UNL A   1      46.917  31.560  26.644  1.00  0.00    -0.203 F 
ATOM     69  C   UNL A   1      46.537  33.856  26.361  1.00  0.00     0.198 A 
ATOM     70  C   UNL A   1      44.546  34.874  27.195  1.00  0.00     0.198 A 
ATOM     71  F   UNL A   1      43.031  33.663  28.462  1.00  0.00    -0.203 F 
ATOM     72  F   UNL A   1      47.741  33.969  25.783  1.00  0.00    -0.200 F 
ATOM     73  C   UNL A   1      45.758  34.985  26.546  1.00  0.00     0.200 A 
ATOM     74  F   UNL A   1      43.789  35.959  27.403  1.00  0.00    -0.200 F 
ATOM     75  F   UNL A   1      46.194  36.186  26.144  1.00  0.00    -0.200 F 
ENDBRANCH  51  65
BRANCH  52  76
ATOM     76  C   UNL A   1      36.974  31.644  30.793  1.00  0.00     0.064 A 
ATOM     77  C   UNL A   1      36.098  31.905  31.857  1.00  0.00     0.173 A 
ATOM     78  C   UNL A   1      36.634  32.222  29.551  1.00  0.00     0.173 A 
ATOM     79  F   UNL A   1      36.374  31.444  33.086  1.00  0.00    -0.203 F 
ATOM     80  C   UNL A   1      34.957  32.700  31.689  1.00  0.00     0.198 A 
ATOM     81  C   UNL A   1      35.490  33.000  29.381  1.00  0.00     0.198 A 
ATOM     82  F   UNL A   1      37.453  32.126  28.494  1.00  0.00    -0.203 F 
ATOM     83  F   UNL A   1      34.171  32.976  32.739  1.00  0.00    -0.200 F 
ATOM     84  C   UNL A   1      34.656  33.248  30.451  1.00  0.00     0.200 A 
ATOM     85  F   UNL A   1      35.237  33.553  28.185  1.00  0.00    -0.200 F 
ATOM     86  F   UNL A   1      33.592  34.049  30.301  1.00  0.00    -0.200 F 
ENDBRANCH  52  76
BRANCH  64  87
ATOM     87  C   UNL A   1      42.519  30.237  33.565  1.00  0.00     0.064 A 
ATOM     88  C   UNL A   1      42.632  30.715  34.881  1.00  0.00     0.173 A 
ATOM     89  C   UNL A   1      42.050  28.928  33.393  1.00  0.00     0.173 A 
ATOM     90  F   UNL A   1      42.989  31.984  35.118  1.00  0.00    -0.203 F 
ATOM     91  C   UNL A   1      42.319  29.910  35.975  1.00  0.00     0.198 A 
ATOM     92  C   UNL A   1      41.708  28.135  34.485  1.00  0.00     0.198 A 
ATOM     93  F   UNL A   1      41.866  28.435  32.158  1.00  0.00    -0.203 F 
ATOM     94  F   UNL A   1      42.434  30.390  37.222  1.00  0.00    -0.200 F 
ATOM     95  C   UNL A   1      41.848  28.623  35.775  1.00  0.00     0.200 A 
ATOM     96  F   UNL A   1      41.208  26.908  34.287  1.00  0.00    -0.200 F 
ATOM     97  F   UNL A   1      41.501  27.864  36.823  1.00  0.00    -0.200 F 
ENDBRANCH  64  87
ENDBRANCH  38  39
ENDBRANCH  30  33
ENDBRANCH  28  29
ENDBRANCH  27  28
ENDBRANCH   1  27
TORSDOF 14
ENDMDL
MODEL 3
REMARK VINA RESULT:     -12.9      2.211      3.059
REMARK SMILES COc1ccc2c(c1)c(CC(=O)NCCCNC(=O)c1ccc(-c3c4nc(c(-c5c(F)c(F)c(F)c(F)c5F)c5ccc([nH]5)c(-c5c(F)c(F)c(F)c(F)c5F)c5nc(c(-c6c(F)c(F)c(F)c(F)c6F)c6ccc3[nH]6)C=C5)C=C4)cc1)c(C)n2Cc1ccc(Br)cc1
REMARK SMILES IDX 14 1 13 2 11 3 12 4 10 6 9 7 3 8 4 9 8 10 5 11 7 12 6 13
REMARK SMILES IDX 85 14 83 15 84 16 2 17 1 18 86 19 87 20 88 21 93 22 89 23
REMARK SMILES IDX 92 24 90 25 91 26 15 27 16 28 17 29 18 30 19 32 20 33 21 34
REMARK SMILES IDX 82 35 22 36 81 37 23 38 24 39 25 40 75 41 26 42 80 43 74 44
REMARK SMILES IDX 76 45 27 46 79 47 73 48 72 49 28 51 60 52 40 53 59 54 41 55
REMARK SMILES IDX 44 56 58 57 77 58 42 59 43 60 57 62 78 63 45 64 29 65 30 66
REMARK SMILES IDX 38 67 31 68 32 69 36 70 39 71 33 72 34 73 37 74 35 75 61 76
REMARK SMILES IDX 62 77 70 78 63 79 64 80 68 81 71 82 65 83 66 84 69 85 67 86
REMARK SMILES IDX 46 87 47 88 55 89 48 90 49 91 53 92 56 93 50 94 51 95 54 96
REMARK SMILES IDX 52 97
REMARK H PARENT 13 5 17 31 76 50 44 61
REMARK Flexibility Score: inf
ROOT
ATOM      1  C   UNL A   1      39.064  21.682  25.908  1.00  0.00     0.117 C 
ENDROOT
BRANCH   1   2
ATOM      2  N   UNL A   1      38.004  22.572  26.352  1.00  0.00    -0.356 N 
ATOM      3  C   UNL A   1      36.895  23.022  25.695  1.00  0.00     0.224 C 
ATOM      4  O   UNL A   1      36.151  23.802  26.295  1.00  0.00    -0.275 OA
ATOM      5  H   UNL A   1      38.100  22.902  27.274  1.00  0.00     0.163 HD
BRANCH   3   6
ATOM      6  C   UNL A   1      36.546  22.514  24.308  1.00  0.00     0.138 C 
BRANCH   6   7
ATOM      7  C   UNL A   1      35.086  22.243  24.115  1.00  0.00    -0.010 A 
ATOM      8  C   UNL A   1      33.937  18.652  24.643  1.00  0.00     0.119 A 
ATOM      9  C   UNL A   1      32.578  18.897  24.485  1.00  0.00     0.048 A 
ATOM     10  C   UNL A   1      34.855  19.699  24.597  1.00  0.00     0.057 A 
ATOM     11  C   UNL A   1      32.106  20.191  24.225  1.00  0.00     0.031 A 
ATOM     12  C   UNL A   1      34.410  21.003  24.295  1.00  0.00     0.007 A 
ATOM     13  C   UNL A   1      33.042  21.234  24.106  1.00  0.00     0.049 A 
ATOM     14  N   UNL A   1      32.896  22.586  23.820  1.00  0.00    -0.340 N 
ATOM     15  C   UNL A   1      34.151  23.140  23.620  1.00  0.00     0.020 A 
ATOM     16  C   UNL A   1      34.422  24.477  23.021  1.00  0.00     0.065 C 
BRANCH   8  17
ATOM     17  O   UNL A   1      34.441  17.405  24.909  1.00  0.00    -0.497 OA
ATOM     18  C   UNL A   1      34.218  16.488  23.839  1.00  0.00     0.278 C 
ENDBRANCH   8  17
BRANCH  14  19
ATOM     19  C   UNL A   1      31.609  23.281  23.689  1.00  0.00     0.157 C 
BRANCH  19  20
ATOM     20  C   UNL A   1      31.489  24.436  24.662  1.00  0.00    -0.028 A 
ATOM     21  C   UNL A   1      31.037  25.684  24.209  1.00  0.00     0.007 A 
ATOM     22  C   UNL A   1      31.867  24.314  26.008  1.00  0.00     0.007 A 
ATOM     23  C   UNL A   1      31.103  26.811  25.015  1.00  0.00     0.016 A 
ATOM     24  C   UNL A   1      31.867  25.435  26.847  1.00  0.00     0.016 A 
ATOM     25  C   UNL A   1      31.528  26.682  26.326  1.00  0.00     0.017 A 
ATOM     26  Br  UNL A   1      31.643  28.248  27.350  1.00  0.00    -0.051 Br
ENDBRANCH  19  20
ENDBRANCH  14  19
ENDBRANCH   6   7
ENDBRANCH   3   6
ENDBRANCH   1   2
BRANCH   1  27
ATOM     27  C   UNL A   1      40.218  21.596  26.913  1.00  0.00     0.042 C 
BRANCH  27  28
ATOM     28  C   UNL A   1      41.477  20.927  26.354  1.00  0.00     0.118 C 
BRANCH  28  29
ATOM     29  N   UNL A   1      42.290  21.819  25.545  1.00  0.00    -0.352 N 
ATOM     30  C   UNL A   1      42.594  23.148  25.543  1.00  0.00     0.251 C 
ATOM     31  H   UNL A   1      42.736  21.340  24.810  1.00  0.00     0.163 HD
ATOM     32  O   UNL A   1      43.426  23.501  24.698  1.00  0.00    -0.269 OA
BRANCH  30  33
ATOM     33  C   UNL A   1      41.973  24.194  26.396  1.00  0.00     0.039 A 
ATOM     34  C   UNL A   1      41.016  25.118  25.982  1.00  0.00     0.014 A 
ATOM     35  C   UNL A   1      42.509  24.317  27.696  1.00  0.00     0.014 A 
ATOM     36  C   UNL A   1      40.727  26.221  26.781  1.00  0.00     0.010 A 
ATOM     37  C   UNL A   1      42.223  25.417  28.494  1.00  0.00     0.010 A 
ATOM     38  C   UNL A   1      41.416  26.423  27.983  1.00  0.00    -0.014 A 
BRANCH  38  39
ATOM     39  C   UNL A   1      41.341  27.755  28.589  1.00  0.00     0.031 A 
ATOM     40  C   UNL A   1      42.483  28.669  28.303  1.00  0.00     0.074 A 
ATOM     41  C   UNL A   1      40.312  28.138  29.375  1.00  0.00     0.049 A 
ATOM     42  N   UNL A   1      43.321  29.209  29.129  1.00  0.00    -0.248 NA
ATOM     43  C   UNL A   1      42.771  28.940  26.887  1.00  0.00     0.031 C 
ATOM     44  C   UNL A   1      39.018  27.474  29.582  1.00  0.00     0.029 A 
ATOM     45  N   UNL A   1      40.194  29.263  30.136  1.00  0.00    -0.354 N 
ATOM     46  C   UNL A   1      44.159  30.010  28.354  1.00  0.00     0.074 A 
ATOM     47  C   UNL A   1      43.846  29.724  26.977  1.00  0.00     0.031 C 
ATOM     48  C   UNL A   1      38.179  28.314  30.226  1.00  0.00     0.029 A 
ATOM     49  C   UNL A   1      38.902  29.523  30.568  1.00  0.00     0.049 A 
ATOM     50  H   UNL A   1      40.959  29.841  30.359  1.00  0.00     0.167 HD
ATOM     51  C   UNL A   1      44.948  30.985  28.885  1.00  0.00     0.037 A 
ATOM     52  C   UNL A   1      38.439  30.700  31.058  1.00  0.00     0.037 A 
ATOM     53  C   UNL A   1      45.171  30.808  30.290  1.00  0.00     0.049 A 
ATOM     54  C   UNL A   1      39.610  31.486  31.524  1.00  0.00     0.074 A 
ATOM     55  C   UNL A   1      45.793  29.838  31.053  1.00  0.00     0.029 A 
ATOM     56  N   UNL A   1      44.444  31.560  31.179  1.00  0.00    -0.354 N 
ATOM     57  N   UNL A   1      40.326  31.178  32.570  1.00  0.00    -0.248 NA
ATOM     58  C   UNL A   1      40.264  32.351  30.552  1.00  0.00     0.031 C 
ATOM     59  C   UNL A   1      45.007  29.742  32.238  1.00  0.00     0.029 A 
ATOM     60  C   UNL A   1      43.991  30.692  32.139  1.00  0.00     0.049 A 
ATOM     61  H   UNL A   1      44.282  32.530  31.136  1.00  0.00     0.167 HD
ATOM     62  C   UNL A   1      41.634  31.455  32.200  1.00  0.00     0.074 A 
ATOM     63  C   UNL A   1      41.527  32.233  30.969  1.00  0.00     0.031 C 
ATOM     64  C   UNL A   1      42.692  30.797  32.758  1.00  0.00     0.037 A 
BRANCH  51  65
ATOM     65  C   UNL A   1      45.286  32.260  28.167  1.00  0.00     0.064 A 
ATOM     66  C   UNL A   1      44.293  33.228  27.925  1.00  0.00     0.173 A 
ATOM     67  C   UNL A   1      46.498  32.434  27.465  1.00  0.00     0.173 A 
ATOM     68  F   UNL A   1      43.091  33.134  28.513  1.00  0.00    -0.203 F 
ATOM     69  C   UNL A   1      44.489  34.270  27.013  1.00  0.00     0.198 A 
ATOM     70  C   UNL A   1      46.710  33.501  26.597  1.00  0.00     0.198 A 
ATOM     71  F   UNL A   1      47.475  31.517  27.515  1.00  0.00    -0.203 F 
ATOM     72  F   UNL A   1      43.483  35.110  26.735  1.00  0.00    -0.200 F 
ATOM     73  C   UNL A   1      45.697  34.405  26.351  1.00  0.00     0.200 A 
ATOM     74  F   UNL A   1      47.877  33.602  25.947  1.00  0.00    -0.200 F 
ATOM     75  F   UNL A   1      45.869  35.372  25.441  1.00  0.00    -0.200 F 
ENDBRANCH  51  65
BRANCH  52  76
ATOM     76  C   UNL A   1      37.126  31.313  30.731  1.00  0.00     0.064 A 
ATOM     77  C   UNL A   1      36.189  31.610  31.732  1.00  0.00     0.173 A 
ATOM     78  C   UNL A   1      36.863  31.849  29.452  1.00  0.00     0.173 A 
ATOM     79  F   UNL A   1      36.389  31.190  32.989  1.00  0.00    -0.203 F 
ATOM     80  C   UNL A   1      35.062  32.399  31.468  1.00  0.00     0.198 A 
ATOM     81  C   UNL A   1      35.734  32.621  29.188  1.00  0.00     0.198 A 
ATOM     82  F   UNL A   1      37.743  31.717  28.451  1.00  0.00    -0.203 F 
ATOM     83  F   UNL A   1      34.215  32.711  32.460  1.00  0.00    -0.200 F 
ATOM     84  C   UNL A   1      34.838  32.906  30.198  1.00  0.00     0.200 A 
ATOM     85  F   UNL A   1      35.554  33.134  27.962  1.00  0.00    -0.200 F 
ATOM     86  F   UNL A   1      33.787  33.702  29.957  1.00  0.00    -0.200 F 
ENDBRANCH  52  76
BRANCH  64  87
ATOM     87  C   UNL A   1      42.432  29.899  33.934  1.00  0.00     0.064 A 
ATOM     88  C   UNL A   1      41.931  28.593  33.810  1.00  0.00     0.173 A 
ATOM     89  C   UNL A   1      42.874  30.302  35.201  1.00  0.00     0.173 A 
ATOM     90  F   UNL A   1      41.572  28.109  32.613  1.00  0.00    -0.203 F 
ATOM     91  C   UNL A   1      41.849  27.739  34.909  1.00  0.00     0.198 A 
ATOM     92  C   UNL A   1      42.820  29.439  36.292  1.00  0.00     0.198 A 
ATOM     93  F   UNL A   1      43.416  31.518  35.370  1.00  0.00    -0.203 F 
ATOM     94  F   UNL A   1      41.369  26.496  34.765  1.00  0.00    -0.200 F 
ATOM     95  C   UNL A   1      42.303  28.161  36.148  1.00  0.00     0.200 A 
ATOM     96  F   UNL A   1      43.304  29.833  37.478  1.00  0.00    -0.200 F 
ATOM     97  F   UNL A   1      42.270  27.327  37.196  1.00  0.00    -0.200 F 
ENDBRANCH  64  87
ENDBRANCH  38  39
ENDBRANCH  30  33
ENDBRANCH  28  29
ENDBRANCH  27  28
ENDBRANCH   1  27
TORSDOF 14
ENDMDL
