MODEL 1
REMARK VINA RESULT:     -12.6      0.000      0.000
REMARK SMILES Cc1ccccc1OCC[NH+]1CCC(CC(=O)NCCCNC(=O)c2ccc(-c3c4nc(c(-c5c(F)c(F)c(F)c(F)c5F)c5ccc([nH]5)c(-c5c(F)c(F)c(F)c(F)c5F)c5nc(c(-c6c(F)c(F)c(F)c(F)c6F)c6ccc3[nH]6)C=C5)C=C4)cc2)CC1
REMARK SMILES IDX 16 1 17 2 18 3 15 5 14 6 11 7 12 8 89 9 13 11 88 12 10 13
REMARK SMILES IDX 9 14 8 15 7 16 1 17 2 18 3 19 4 20 6 21 5 22 19 23 20 24
REMARK SMILES IDX 21 25 22 26 23 27 24 29 25 30 26 31 87 32 27 33 86 34 28 35
REMARK SMILES IDX 29 36 30 37 80 38 31 39 85 40 79 41 81 42 32 43 84 44 78 45
REMARK SMILES IDX 77 46 33 48 65 49 45 50 64 51 46 52 49 53 63 54 82 55 47 56
REMARK SMILES IDX 48 57 62 59 83 60 50 61 34 62 35 63 43 64 36 65 37 66 41 67
REMARK SMILES IDX 44 68 38 69 39 70 42 71 40 72 66 73 67 74 75 75 68 76 69 77
REMARK SMILES IDX 73 78 76 79 70 80 71 81 74 82 72 83 51 84 52 85 60 86 53 87
REMARK SMILES IDX 54 88 58 89 61 90 55 91 56 92 59 93 57 94
REMARK H PARENT 18 4 11 10 22 28 81 47 49 58
REMARK Flexibility Score: inf
ROOT
ATOM      1  C   UNL A   1      33.729  36.234  29.075  1.00  0.00     0.220 C 
ATOM      2  O   UNL A   1      34.401  36.407  28.056  1.00  0.00    -0.275 OA
ATOM      3  N   UNL A   1      33.520  37.305  29.898  1.00  0.00    -0.356 N 
ATOM      4  H   UNL A   1      33.828  38.164  29.530  1.00  0.00     0.163 HD
ENDROOT
BRANCH   1   5
ATOM      5  C   UNL A   1      33.120  34.880  29.389  1.00  0.00     0.104 C 
BRANCH   5   6
ATOM      6  C   UNL A   1      33.504  33.767  28.366  1.00  0.00     0.009 C 
ATOM      7  N   UNL A   1      33.758  30.082  27.091  1.00  0.00    -0.332 N 
ATOM      8  C   UNL A   1      35.150  30.827  28.107  1.00  0.00     0.262 C 
ATOM      9  C   UNL A   1      32.239  31.095  26.734  1.00  0.00     0.262 C 
ATOM     10  H   UNL A   1      34.276  30.123  26.212  1.00  0.00     0.348 HD
ATOM     11  C   UNL A   1      34.922  32.561  28.999  1.00  0.00     0.066 C 
ATOM     12  C   UNL A   1      32.057  32.987  27.243  1.00  0.00     0.066 C 
BRANCH   7  13
ATOM     13  C   UNL A   1      33.438  28.689  27.310  1.00  0.00     0.304 C 
BRANCH  13  14
ATOM     14  C   UNL A   1      33.931  27.819  26.182  1.00  0.00     0.290 C 
BRANCH  14  15
ATOM     15  O   UNL A   1      33.303  28.117  24.935  1.00  0.00    -0.487 OA
BRANCH  15  16
ATOM     16  C   UNL A   1      32.165  27.385  24.616  1.00  0.00     0.122 A 
ATOM     17  C   UNL A   1      30.020  29.706  23.651  1.00  0.00     0.048 C 
ATOM     18  C   UNL A   1      30.774  27.853  24.200  1.00  0.00    -0.009 A 
ATOM     19  C   UNL A   1      29.998  26.588  24.322  1.00  0.00     0.007 A 
ATOM     20  C   UNL A   1      30.385  25.269  24.713  1.00  0.00     0.001 A 
ATOM     21  C   UNL A   1      32.550  26.041  25.000  1.00  0.00     0.047 A 
ATOM     22  C   UNL A   1      31.672  24.989  25.053  1.00  0.00     0.004 A 
ENDBRANCH  15  16
ENDBRANCH  14  15
ENDBRANCH  13  14
ENDBRANCH   7  13
ENDBRANCH   5   6
ENDBRANCH   1   5
BRANCH   3  23
ATOM     23  C   UNL A   1      32.918  37.403  31.231  1.00  0.00     0.117 C 
BRANCH  23  24
ATOM     24  C   UNL A   1      33.979  37.291  32.322  1.00  0.00     0.042 C 
BRANCH  24  25
ATOM     25  C   UNL A   1      33.822  36.189  33.353  1.00  0.00     0.118 C 
BRANCH  25  26
ATOM     26  N   UNL A   1      33.597  34.847  32.812  1.00  0.00    -0.352 N 
ATOM     27  C   UNL A   1      34.445  33.747  32.878  1.00  0.00     0.251 C 
ATOM     28  H   UNL A   1      32.742  34.708  32.343  1.00  0.00     0.163 HD
ATOM     29  O   UNL A   1      34.100  32.628  32.528  1.00  0.00    -0.269 OA
BRANCH  27  30
ATOM     30  C   UNL A   1      35.787  33.979  33.452  1.00  0.00     0.039 A 
ATOM     31  C   UNL A   1      36.628  34.816  32.713  1.00  0.00     0.014 A 
ATOM     32  C   UNL A   1      36.288  32.966  34.271  1.00  0.00     0.014 A 
ATOM     33  C   UNL A   1      37.944  34.424  32.521  1.00  0.00     0.010 A 
ATOM     34  C   UNL A   1      37.589  32.555  34.047  1.00  0.00     0.010 A 
ATOM     35  C   UNL A   1      38.364  33.214  33.079  1.00  0.00    -0.014 A 
BRANCH  35  36
ATOM     36  C   UNL A   1      39.535  32.508  32.570  1.00  0.00     0.031 A 
ATOM     37  C   UNL A   1      39.323  31.314  31.741  1.00  0.00     0.074 A 
ATOM     38  C   UNL A   1      40.795  32.907  32.866  1.00  0.00     0.049 A 
ATOM     39  N   UNL A   1      40.068  30.264  31.792  1.00  0.00    -0.248 NA
ATOM     40  C   UNL A   1      38.204  31.197  30.816  1.00  0.00     0.031 C 
ATOM     41  C   UNL A   1      42.043  32.364  32.330  1.00  0.00     0.029 A 
ATOM     42  N   UNL A   1      41.219  33.797  33.874  1.00  0.00    -0.354 N 
ATOM     43  C   UNL A   1      39.706  29.462  30.737  1.00  0.00     0.074 A 
ATOM     44  C   UNL A   1      38.490  30.041  30.214  1.00  0.00     0.031 C 
ATOM     45  C   UNL A   1      43.040  32.646  33.185  1.00  0.00     0.029 A 
ATOM     46  C   UNL A   1      42.447  33.281  34.348  1.00  0.00     0.049 A 
ATOM     47  H   UNL A   1      40.755  34.608  34.184  1.00  0.00     0.167 HD
ATOM     48  C   UNL A   1      40.557  28.487  30.311  1.00  0.00     0.037 A 
ATOM     49  C   UNL A   1      42.621  32.887  35.640  1.00  0.00     0.037 A 
ATOM     50  C   UNL A   1      41.782  28.474  31.103  1.00  0.00     0.049 A 
ATOM     51  C   UNL A   1      43.020  31.438  35.774  1.00  0.00     0.074 A 
ATOM     52  C   UNL A   1      43.025  29.051  30.891  1.00  0.00     0.029 A 
ATOM     53  N   UNL A   1      41.736  28.129  32.450  1.00  0.00    -0.354 N 
ATOM     54  N   UNL A   1      42.821  30.548  34.841  1.00  0.00    -0.248 NA
ATOM     55  C   UNL A   1      43.648  30.875  36.963  1.00  0.00     0.031 C 
ATOM     56  C   UNL A   1      43.720  29.070  32.122  1.00  0.00     0.029 A 
ATOM     57  C   UNL A   1      42.911  28.490  33.084  1.00  0.00     0.049 A 
ATOM     58  H   UNL A   1      40.974  27.687  32.890  1.00  0.00     0.167 HD
ATOM     59  C   UNL A   1      43.260  29.323  35.276  1.00  0.00     0.074 A 
ATOM     60  C   UNL A   1      43.789  29.587  36.601  1.00  0.00     0.031 C 
ATOM     61  C   UNL A   1      43.136  28.206  34.495  1.00  0.00     0.037 A 
BRANCH  48  62
ATOM     62  C   UNL A   1      40.394  27.831  28.962  1.00  0.00     0.064 A 
ATOM     63  C   UNL A   1      39.673  26.629  28.815  1.00  0.00     0.173 A 
ATOM     64  C   UNL A   1      40.997  28.313  27.786  1.00  0.00     0.173 A 
ATOM     65  F   UNL A   1      38.953  26.115  29.820  1.00  0.00    -0.203 F 
ATOM     66  C   UNL A   1      39.678  25.898  27.626  1.00  0.00     0.198 A 
ATOM     67  C   UNL A   1      41.052  27.555  26.613  1.00  0.00     0.198 A 
ATOM     68  F   UNL A   1      41.534  29.541  27.741  1.00  0.00    -0.203 F 
ATOM     69  F   UNL A   1      38.991  24.749  27.550  1.00  0.00    -0.200 F 
ATOM     70  C   UNL A   1      40.404  26.339  26.538  1.00  0.00     0.200 A 
ATOM     71  F   UNL A   1      41.749  28.005  25.560  1.00  0.00    -0.200 F 
ATOM     72  F   UNL A   1      40.461  25.605  25.418  1.00  0.00    -0.200 F 
ENDBRANCH  48  62
BRANCH  49  73
ATOM     73  C   UNL A   1      41.801  33.651  36.615  1.00  0.00     0.064 A 
ATOM     74  C   UNL A   1      42.289  34.892  37.068  1.00  0.00     0.173 A 
ATOM     75  C   UNL A   1      40.442  33.383  36.810  1.00  0.00     0.173 A 
ATOM     76  F   UNL A   1      43.585  35.204  36.897  1.00  0.00    -0.203 F 
ATOM     77  C   UNL A   1      41.434  35.869  37.573  1.00  0.00     0.198 A 
ATOM     78  C   UNL A   1      39.590  34.359  37.333  1.00  0.00     0.198 A 
ATOM     79  F   UNL A   1      39.914  32.224  36.392  1.00  0.00    -0.203 F 
ATOM     80  F   UNL A   1      41.910  37.092  37.850  1.00  0.00    -0.200 F 
ATOM     81  C   UNL A   1      40.078  35.612  37.674  1.00  0.00     0.200 A 
ATOM     82  F   UNL A   1      38.275  34.116  37.420  1.00  0.00    -0.200 F 
ATOM     83  F   UNL A   1      39.239  36.588  38.047  1.00  0.00    -0.200 F 
ENDBRANCH  49  73
BRANCH  61  84
ATOM     84  C   UNL A   1      43.329  26.761  34.919  1.00  0.00     0.064 A 
ATOM     85  C   UNL A   1      42.288  25.836  35.097  1.00  0.00     0.173 A 
ATOM     86  C   UNL A   1      44.635  26.216  35.034  1.00  0.00     0.173 A 
ATOM     87  F   UNL A   1      41.008  26.167  34.890  1.00  0.00    -0.203 F 
ATOM     88  C   UNL A   1      42.529  24.499  35.435  1.00  0.00     0.198 A 
ATOM     89  C   UNL A   1      44.873  24.868  35.300  1.00  0.00     0.198 A 
ATOM     90  F   UNL A   1      45.734  26.965  34.864  1.00  0.00    -0.203 F 
ATOM     91  F   UNL A   1      41.493  23.674  35.646  1.00  0.00    -0.200 F 
ATOM     92  C   UNL A   1      43.818  24.012  35.522  1.00  0.00     0.200 A 
ATOM     93  F   UNL A   1      46.130  24.405  35.319  1.00  0.00    -0.200 F 
ATOM     94  F   UNL A   1      44.041  22.720  35.795  1.00  0.00    -0.200 F 
ENDBRANCH  61  84
ENDBRANCH  35  36
ENDBRANCH  27  30
ENDBRANCH  25  26
ENDBRANCH  24  25
ENDBRANCH  23  24
ENDBRANCH   3  23
TORSDOF 15
ENDMDL
MODEL 2
REMARK VINA RESULT:     -12.5      3.486      6.130
REMARK SMILES Cc1ccccc1OCC[NH+]1CCC(CC(=O)NCCCNC(=O)c2ccc(-c3c4nc(c(-c5c(F)c(F)c(F)c(F)c5F)c5ccc([nH]5)c(-c5c(F)c(F)c(F)c(F)c5F)c5nc(c(-c6c(F)c(F)c(F)c(F)c6F)c6ccc3[nH]6)C=C5)C=C4)cc2)CC1
REMARK SMILES IDX 16 1 17 2 18 3 15 5 14 6 11 7 12 8 89 9 13 11 88 12 10 13
REMARK SMILES IDX 9 14 8 15 7 16 1 17 2 18 3 19 4 20 6 21 5 22 19 23 20 24
REMARK SMILES IDX 21 25 22 26 23 27 24 29 25 30 26 31 87 32 27 33 86 34 28 35
REMARK SMILES IDX 29 36 30 37 80 38 31 39 85 40 79 41 81 42 32 43 84 44 78 45
REMARK SMILES IDX 77 46 33 48 65 49 45 50 64 51 46 52 49 53 63 54 82 55 47 56
REMARK SMILES IDX 48 57 62 59 83 60 50 61 34 62 35 63 43 64 36 65 37 66 41 67
REMARK SMILES IDX 44 68 38 69 39 70 42 71 40 72 66 73 67 74 75 75 68 76 69 77
REMARK SMILES IDX 73 78 76 79 70 80 71 81 74 82 72 83 51 84 52 85 60 86 53 87
REMARK SMILES IDX 54 88 58 89 61 90 55 91 56 92 59 93 57 94
REMARK H PARENT 18 4 11 10 22 28 81 47 49 58
REMARK Flexibility Score: inf
ROOT
ATOM      1  C   UNL A   1      33.255  29.156  24.536  1.00  0.00     0.220 C 
ATOM      2  O   UNL A   1      33.768  28.833  23.463  1.00  0.00    -0.275 OA
ATOM      3  N   UNL A   1      34.081  29.419  25.592  1.00  0.00    -0.356 N 
ATOM      4  H   UNL A   1      35.037  29.445  25.361  1.00  0.00     0.163 HD
ENDROOT
BRANCH   1   5
ATOM      5  C   UNL A   1      31.750  29.297  24.671  1.00  0.00     0.104 C 
BRANCH   5   6
ATOM      6  C   UNL A   1      31.012  27.942  24.903  1.00  0.00     0.009 C 
ATOM      7  N   UNL A   1      30.724  24.046  24.967  1.00  0.00    -0.332 N 
ATOM      8  C   UNL A   1      30.295  24.998  23.407  1.00  0.00     0.262 C 
ATOM      9  C   UNL A   1      31.330  24.966  26.466  1.00  0.00     0.262 C 
ATOM     10  H   UNL A   1      29.751  23.839  25.199  1.00  0.00     0.348 HD
ATOM     11  C   UNL A   1      30.706  26.912  23.257  1.00  0.00     0.066 C 
ATOM     12  C   UNL A   1      31.414  26.930  26.569  1.00  0.00     0.066 C 
BRANCH   7  13
ATOM     13  C   UNL A   1      31.386  22.770  24.813  1.00  0.00     0.304 C 
BRANCH  13  14
ATOM     14  C   UNL A   1      32.460  22.822  23.756  1.00  0.00     0.290 C 
BRANCH  14  15
ATOM     15  O   UNL A   1      33.499  21.867  23.970  1.00  0.00    -0.487 OA
BRANCH  15  16
ATOM     16  C   UNL A   1      34.623  22.307  24.659  1.00  0.00     0.122 A 
ATOM     17  C   UNL A   1      33.609  22.360  27.803  1.00  0.00     0.048 C 
ATOM     18  C   UNL A   1      34.806  22.649  26.134  1.00  0.00    -0.009 A 
ATOM     19  C   UNL A   1      36.130  23.331  26.108  1.00  0.00     0.007 A 
ATOM     20  C   UNL A   1      37.030  23.618  25.036  1.00  0.00     0.001 A 
ATOM     21  C   UNL A   1      35.548  22.592  23.581  1.00  0.00     0.047 A 
ATOM     22  C   UNL A   1      36.742  23.244  23.760  1.00  0.00     0.004 A 
ENDBRANCH  15  16
ENDBRANCH  14  15
ENDBRANCH  13  14
ENDBRANCH   7  13
ENDBRANCH   5   6
ENDBRANCH   1   5
BRANCH   3  23
ATOM     23  C   UNL A   1      33.797  29.667  27.009  1.00  0.00     0.117 C 
BRANCH  23  24
ATOM     24  C   UNL A   1      34.249  31.065  27.422  1.00  0.00     0.042 C 
BRANCH  24  25
ATOM     25  C   UNL A   1      34.571  31.302  28.886  1.00  0.00     0.118 C 
BRANCH  25  26
ATOM     26  N   UNL A   1      35.788  32.072  29.147  1.00  0.00    -0.352 N 
ATOM     27  C   UNL A   1      37.105  31.632  29.088  1.00  0.00     0.251 C 
ATOM     28  H   UNL A   1      35.657  33.017  29.396  1.00  0.00     0.163 HD
ATOM     29  O   UNL A   1      38.059  32.392  29.175  1.00  0.00    -0.269 OA
BRANCH  27  30
ATOM     30  C   UNL A   1      37.311  30.186  28.857  1.00  0.00     0.039 A 
ATOM     31  C   UNL A   1      37.695  29.440  29.975  1.00  0.00     0.014 A 
ATOM     32  C   UNL A   1      37.677  29.818  27.562  1.00  0.00     0.014 A 
ATOM     33  C   UNL A   1      38.729  28.527  29.832  1.00  0.00     0.010 A 
ATOM     34  C   UNL A   1      38.733  28.935  27.428  1.00  0.00     0.010 A 
ATOM     35  C   UNL A   1      39.331  28.395  28.578  1.00  0.00    -0.014 A 
BRANCH  35  36
ATOM     36  C   UNL A   1      40.670  27.837  28.432  1.00  0.00     0.031 A 
ATOM     37  C   UNL A   1      40.801  26.397  28.174  1.00  0.00     0.074 A 
ATOM     38  C   UNL A   1      41.781  28.602  28.557  1.00  0.00     0.049 A 
ATOM     39  N   UNL A   1      41.735  25.660  28.672  1.00  0.00    -0.248 NA
ATOM     40  C   UNL A   1      39.841  25.661  27.361  1.00  0.00     0.031 C 
ATOM     41  C   UNL A   1      43.166  28.196  28.319  1.00  0.00     0.029 A 
ATOM     42  N   UNL A   1      41.898  29.894  29.109  1.00  0.00    -0.354 N 
ATOM     43  C   UNL A   1      41.665  24.442  28.041  1.00  0.00     0.074 A 
ATOM     44  C   UNL A   1      40.423  24.461  27.303  1.00  0.00     0.031 C 
ATOM     45  C   UNL A   1      43.982  29.021  28.997  1.00  0.00     0.029 A 
ATOM     46  C   UNL A   1      43.143  29.914  29.777  1.00  0.00     0.049 A 
ATOM     47  H   UNL A   1      41.246  30.630  29.044  1.00  0.00     0.167 HD
ATOM     48  C   UNL A   1      42.739  23.605  28.076  1.00  0.00     0.037 A 
ATOM     49  C   UNL A   1      43.247  30.125  31.119  1.00  0.00     0.037 A 
ATOM     50  C   UNL A   1      43.844  24.197  28.824  1.00  0.00     0.049 A 
ATOM     51  C   UNL A   1      43.916  28.989  31.852  1.00  0.00     0.074 A 
ATOM     52  C   UNL A   1      44.959  24.911  28.413  1.00  0.00     0.029 A 
ATOM     53  N   UNL A   1      43.717  24.422  30.191  1.00  0.00    -0.354 N 
ATOM     54  N   UNL A   1      44.009  27.779  31.373  1.00  0.00    -0.248 NA
ATOM     55  C   UNL A   1      44.507  29.114  33.179  1.00  0.00     0.031 C 
ATOM     56  C   UNL A   1      45.492  25.585  29.536  1.00  0.00     0.029 A 
ATOM     57  C   UNL A   1      44.715  25.270  30.637  1.00  0.00     0.049 A 
ATOM     58  H   UNL A   1      43.016  24.032  30.762  1.00  0.00     0.167 HD
ATOM     59  C   UNL A   1      44.637  26.971  32.287  1.00  0.00     0.074 A 
ATOM     60  C   UNL A   1      44.947  27.861  33.390  1.00  0.00     0.031 C 
ATOM     61  C   UNL A   1      44.832  25.639  32.042  1.00  0.00     0.037 A 
BRANCH  48  62
ATOM     62  C   UNL A   1      42.867  22.444  27.123  1.00  0.00     0.064 A 
ATOM     63  C   UNL A   1      42.117  21.264  27.301  1.00  0.00     0.173 A 
ATOM     64  C   UNL A   1      43.777  22.416  26.049  1.00  0.00     0.173 A 
ATOM     65  F   UNL A   1      41.135  21.187  28.206  1.00  0.00    -0.203 F 
ATOM     66  C   UNL A   1      42.362  20.106  26.560  1.00  0.00     0.198 A 
ATOM     67  C   UNL A   1      44.065  21.242  25.347  1.00  0.00     0.198 A 
ATOM     68  F   UNL A   1      44.399  23.533  25.645  1.00  0.00    -0.203 F 
ATOM     69  F   UNL A   1      41.631  19.005  26.787  1.00  0.00    -0.200 F 
ATOM     70  C   UNL A   1      43.366  20.082  25.613  1.00  0.00     0.200 A 
ATOM     71  F   UNL A   1      45.033  21.241  24.419  1.00  0.00    -0.200 F 
ATOM     72  F   UNL A   1      43.644  18.953  24.948  1.00  0.00    -0.200 F 
ENDBRANCH  48  62
BRANCH  49  73
ATOM     73  C   UNL A   1      42.184  31.003  31.671  1.00  0.00     0.064 A 
ATOM     74  C   UNL A   1      41.099  30.399  32.334  1.00  0.00     0.173 A 
ATOM     75  C   UNL A   1      42.391  32.370  31.885  1.00  0.00     0.173 A 
ATOM     76  F   UNL A   1      40.861  29.087  32.171  1.00  0.00    -0.203 F 
ATOM     77  C   UNL A   1      40.337  31.099  33.268  1.00  0.00     0.198 A 
ATOM     78  C   UNL A   1      41.614  33.073  32.810  1.00  0.00     0.198 A 
ATOM     79  F   UNL A   1      43.413  33.001  31.292  1.00  0.00    -0.203 F 
ATOM     80  F   UNL A   1      39.412  30.452  33.991  1.00  0.00    -0.200 F 
ATOM     81  C   UNL A   1      40.617  32.429  33.528  1.00  0.00     0.200 A 
ATOM     82  F   UNL A   1      41.892  34.358  33.072  1.00  0.00    -0.200 F 
ATOM     83  F   UNL A   1      39.965  33.069  34.508  1.00  0.00    -0.200 F 
ENDBRANCH  49  73
BRANCH  61  84
ATOM     84  C   UNL A   1      45.266  24.575  33.034  1.00  0.00     0.064 A 
ATOM     85  C   UNL A   1      44.506  23.444  33.375  1.00  0.00     0.173 A 
ATOM     86  C   UNL A   1      46.572  24.603  33.590  1.00  0.00     0.173 A 
ATOM     87  F   UNL A   1      43.309  23.208  32.826  1.00  0.00    -0.203 F 
ATOM     88  C   UNL A   1      44.981  22.465  34.255  1.00  0.00     0.198 A 
ATOM     89  C   UNL A   1      47.069  23.590  34.410  1.00  0.00     0.198 A 
ATOM     90  F   UNL A   1      47.430  25.603  33.337  1.00  0.00    -0.203 F 
ATOM     91  F   UNL A   1      44.190  21.435  34.587  1.00  0.00    -0.200 F 
ATOM     92  C   UNL A   1      46.265  22.530  34.760  1.00  0.00     0.200 A 
ATOM     93  F   UNL A   1      48.338  23.643  34.837  1.00  0.00    -0.200 F 
ATOM     94  F   UNL A   1      46.732  21.563  35.561  1.00  0.00    -0.200 F 
ENDBRANCH  61  84
ENDBRANCH  35  36
ENDBRANCH  27  30
ENDBRANCH  25  26
ENDBRANCH  24  25
ENDBRANCH  23  24
ENDBRANCH   3  23
TORSDOF 15
ENDMDL
MODEL 3
REMARK VINA RESULT:     -12.3      5.846     12.002
REMARK SMILES Cc1ccccc1OCC[NH+]1CCC(CC(=O)NCCCNC(=O)c2ccc(-c3c4nc(c(-c5c(F)c(F)c(F)c(F)c5F)c5ccc([nH]5)c(-c5c(F)c(F)c(F)c(F)c5F)c5nc(c(-c6c(F)c(F)c(F)c(F)c6F)c6ccc3[nH]6)C=C5)C=C4)cc2)CC1
REMARK SMILES IDX 16 1 17 2 18 3 15 5 14 6 11 7 12 8 89 9 13 11 88 12 10 13
REMARK SMILES IDX 9 14 8 15 7 16 1 17 2 18 3 19 4 20 6 21 5 22 19 23 20 24
REMARK SMILES IDX 21 25 22 26 23 27 24 29 25 30 26 31 87 32 27 33 86 34 28 35
REMARK SMILES IDX 29 36 30 37 80 38 31 39 85 40 79 41 81 42 32 43 84 44 78 45
REMARK SMILES IDX 77 46 33 48 65 49 45 50 64 51 46 52 49 53 63 54 82 55 47 56
REMARK SMILES IDX 48 57 62 59 83 60 50 61 34 62 35 63 43 64 36 65 37 66 41 67
REMARK SMILES IDX 44 68 38 69 39 70 42 71 40 72 66 73 67 74 75 75 68 76 69 77
REMARK SMILES IDX 73 78 76 79 70 80 71 81 74 82 72 83 51 84 52 85 60 86 53 87
REMARK SMILES IDX 54 88 58 89 61 90 55 91 56 92 59 93 57 94
REMARK H PARENT 18 4 11 10 22 28 81 47 49 58
REMARK Flexibility Score: inf
ROOT
ATOM      1  C   UNL A   1      42.420  19.387  26.844  1.00  0.00     0.220 C 
ATOM      2  O   UNL A   1      42.023  19.221  27.999  1.00  0.00    -0.275 OA
ATOM      3  N   UNL A   1      43.284  18.467  26.321  1.00  0.00    -0.356 N 
ATOM      4  H   UNL A   1      43.417  17.671  26.885  1.00  0.00     0.163 HD
ENDROOT
BRANCH   1   5
ATOM      5  C   UNL A   1      41.935  20.560  26.013  1.00  0.00     0.104 C 
BRANCH   5   6
ATOM      6  C   UNL A   1      40.470  20.992  26.331  1.00  0.00     0.009 C 
ATOM      7  N   UNL A   1      37.099  22.831  25.613  1.00  0.00    -0.332 N 
ATOM      8  C   UNL A   1      38.471  23.709  26.545  1.00  0.00     0.262 C 
ATOM      9  C   UNL A   1      37.371  21.098  24.994  1.00  0.00     0.262 C 
ATOM     10  H   UNL A   1      36.520  22.694  26.442  1.00  0.00     0.348 HD
ATOM     11  C   UNL A   1      40.265  22.919  26.663  1.00  0.00     0.066 C 
ATOM     12  C   UNL A   1      38.990  20.051  25.389  1.00  0.00     0.066 C 
BRANCH   7  13
ATOM     13  C   UNL A   1      36.307  23.615  24.690  1.00  0.00     0.304 C 
BRANCH  13  14
ATOM     14  C   UNL A   1      35.010  24.065  25.311  1.00  0.00     0.290 C 
BRANCH  14  15
ATOM     15  O   UNL A   1      34.252  22.987  25.861  1.00  0.00    -0.487 OA
BRANCH  15  16
ATOM     16  C   UNL A   1      33.744  22.056  24.962  1.00  0.00     0.122 A 
ATOM     17  C   UNL A   1      33.012  23.888  22.311  1.00  0.00     0.048 C 
ATOM     18  C   UNL A   1      33.126  22.251  23.581  1.00  0.00    -0.009 A 
ATOM     19  C   UNL A   1      32.536  20.907  23.339  1.00  0.00     0.007 A 
ATOM     20  C   UNL A   1      32.517  19.719  24.134  1.00  0.00     0.001 A 
ATOM     21  C   UNL A   1      33.730  20.844  25.756  1.00  0.00     0.047 A 
ATOM     22  C   UNL A   1      33.121  19.683  25.353  1.00  0.00     0.004 A 
ENDBRANCH  15  16
ENDBRANCH  14  15
ENDBRANCH  13  14
ENDBRANCH   7  13
ENDBRANCH   5   6
ENDBRANCH   1   5
BRANCH   3  23
ATOM     23  C   UNL A   1      44.049  18.453  25.071  1.00  0.00     0.117 C 
BRANCH  23  24
ATOM     24  C   UNL A   1      45.179  19.477  25.107  1.00  0.00     0.042 C 
BRANCH  24  25
ATOM     25  C   UNL A   1      45.147  20.605  24.092  1.00  0.00     0.118 C 
BRANCH  25  26
ATOM     26  N   UNL A   1      46.192  21.619  24.244  1.00  0.00    -0.352 N 
ATOM     27  C   UNL A   1      46.130  22.807  24.965  1.00  0.00     0.251 C 
ATOM     28  H   UNL A   1      47.041  21.439  23.778  1.00  0.00     0.163 HD
ATOM     29  O   UNL A   1      47.109  23.514  25.155  1.00  0.00    -0.269 OA
BRANCH  27  30
ATOM     30  C   UNL A   1      44.819  23.159  25.550  1.00  0.00     0.039 A 
ATOM     31  C   UNL A   1      44.189  24.279  25.002  1.00  0.00     0.014 A 
ATOM     32  C   UNL A   1      44.615  22.772  26.875  1.00  0.00     0.014 A 
ATOM     33  C   UNL A   1      43.631  25.209  25.866  1.00  0.00     0.010 A 
ATOM     34  C   UNL A   1      44.092  23.718  27.738  1.00  0.00     0.010 A 
ATOM     35  C   UNL A   1      43.721  24.977  27.240  1.00  0.00    -0.014 A 
BRANCH  35  36
ATOM     36  C   UNL A   1      43.593  26.063  28.205  1.00  0.00     0.031 A 
ATOM     37  C   UNL A   1      42.290  26.729  28.336  1.00  0.00     0.074 A 
ATOM     38  C   UNL A   1      44.642  26.482  28.952  1.00  0.00     0.049 A 
ATOM     39  N   UNL A   1      42.149  27.994  28.540  1.00  0.00    -0.248 NA
ATOM     40  C   UNL A   1      41.030  26.011  28.192  1.00  0.00     0.031 C 
ATOM     41  C   UNL A   1      44.621  27.472  30.030  1.00  0.00     0.029 A 
ATOM     42  N   UNL A   1      46.014  26.218  28.764  1.00  0.00    -0.354 N 
ATOM     43  C   UNL A   1      40.822  28.209  28.825  1.00  0.00     0.074 A 
ATOM     44  C   UNL A   1      40.155  26.966  28.511  1.00  0.00     0.031 C 
ATOM     45  C   UNL A   1      45.857  27.974  30.182  1.00  0.00     0.029 A 
ATOM     46  C   UNL A   1      46.687  27.404  29.135  1.00  0.00     0.049 A 
ATOM     47  H   UNL A   1      46.419  25.381  28.440  1.00  0.00     0.167 HD
ATOM     48  C   UNL A   1      40.447  29.360  29.449  1.00  0.00     0.037 A 
ATOM     49  C   UNL A   1      47.451  28.114  28.258  1.00  0.00     0.037 A 
ATOM     50  C   UNL A   1      41.601  30.210  29.724  1.00  0.00     0.049 A 
ATOM     51  C   UNL A   1      46.981  29.535  28.070  1.00  0.00     0.074 A 
ATOM     52  C   UNL A   1      42.388  30.361  30.856  1.00  0.00     0.029 A 
ATOM     53  N   UNL A   1      42.317  30.774  28.673  1.00  0.00    -0.354 N 
ATOM     54  N   UNL A   1      45.774  29.938  28.358  1.00  0.00    -0.248 NA
ATOM     55  C   UNL A   1      47.815  30.601  27.529  1.00  0.00     0.031 C 
ATOM     56  C   UNL A   1      43.591  31.000  30.477  1.00  0.00     0.029 A 
ATOM     57  C   UNL A   1      43.534  31.256  29.118  1.00  0.00     0.049 A 
ATOM     58  H   UNL A   1      42.001  30.823  27.742  1.00  0.00     0.167 HD
ATOM     59  C   UNL A   1      45.648  31.268  28.045  1.00  0.00     0.074 A 
ATOM     60  C   UNL A   1      46.960  31.640  27.550  1.00  0.00     0.031 C 
ATOM     61  C   UNL A   1      44.463  31.930  28.221  1.00  0.00     0.037 A 
BRANCH  48  62
ATOM     62  C   UNL A   1      39.098  29.498  30.108  1.00  0.00     0.064 A 
ATOM     63  C   UNL A   1      38.105  30.344  29.575  1.00  0.00     0.173 A 
ATOM     64  C   UNL A   1      38.756  28.866  31.319  1.00  0.00     0.173 A 
ATOM     65  F   UNL A   1      38.244  30.919  28.374  1.00  0.00    -0.203 F 
ATOM     66  C   UNL A   1      36.931  30.645  30.269  1.00  0.00     0.198 A 
ATOM     67  C   UNL A   1      37.610  29.211  32.042  1.00  0.00     0.198 A 
ATOM     68  F   UNL A   1      39.520  27.886  31.823  1.00  0.00    -0.203 F 
ATOM     69  F   UNL A   1      36.031  31.475  29.722  1.00  0.00    -0.200 F 
ATOM     70  C   UNL A   1      36.704  30.113  31.522  1.00  0.00     0.200 A 
ATOM     71  F   UNL A   1      37.398  28.673  33.251  1.00  0.00    -0.200 F 
ATOM     72  F   UNL A   1      35.609  30.453  32.214  1.00  0.00    -0.200 F 
ENDBRANCH  48  62
BRANCH  49  73
ATOM     73  C   UNL A   1      48.106  27.276  27.221  1.00  0.00     0.064 A 
ATOM     74  C   UNL A   1      47.503  27.196  25.951  1.00  0.00     0.173 A 
ATOM     75  C   UNL A   1      49.443  26.880  27.326  1.00  0.00     0.173 A 
ATOM     76  F   UNL A   1      46.224  27.573  25.792  1.00  0.00    -0.203 F 
ATOM     77  C   UNL A   1      48.239  26.860  24.816  1.00  0.00     0.198 A 
ATOM     78  C   UNL A   1      50.174  26.527  26.188  1.00  0.00     0.198 A 
ATOM     79  F   UNL A   1      50.077  26.942  28.505  1.00  0.00    -0.203 F 
ATOM     80  F   UNL A   1      47.671  26.943  23.605  1.00  0.00    -0.200 F 
ATOM     81  C   UNL A   1      49.584  26.557  24.933  1.00  0.00     0.200 A 
ATOM     82  F   UNL A   1      51.480  26.245  26.298  1.00  0.00    -0.200 F 
ATOM     83  F   UNL A   1      50.320  26.350  23.833  1.00  0.00    -0.200 F 
ENDBRANCH  49  73
BRANCH  61  84
ATOM     84  C   UNL A   1      44.090  33.303  27.693  1.00  0.00     0.064 A 
ATOM     85  C   UNL A   1      43.796  33.590  26.350  1.00  0.00     0.173 A 
ATOM     86  C   UNL A   1      43.883  34.384  28.591  1.00  0.00     0.173 A 
ATOM     87  F   UNL A   1      43.815  32.641  25.407  1.00  0.00    -0.203 F 
ATOM     88  C   UNL A   1      43.402  34.865  25.930  1.00  0.00     0.198 A 
ATOM     89  C   UNL A   1      43.421  35.634  28.179  1.00  0.00     0.198 A 
ATOM     90  F   UNL A   1      44.093  34.262  29.910  1.00  0.00    -0.203 F 
ATOM     91  F   UNL A   1      43.188  35.094  24.626  1.00  0.00    -0.200 F 
ATOM     92  C   UNL A   1      43.201  35.882  26.843  1.00  0.00     0.200 A 
ATOM     93  F   UNL A   1      43.174  36.585  29.089  1.00  0.00    -0.200 F 
ATOM     94  F   UNL A   1      42.774  37.086  26.440  1.00  0.00    -0.200 F 
ENDBRANCH  61  84
ENDBRANCH  35  36
ENDBRANCH  27  30
ENDBRANCH  25  26
ENDBRANCH  24  25
ENDBRANCH  23  24
ENDBRANCH   3  23
TORSDOF 15
ENDMDL
