MODEL 1
REMARK VINA RESULT:     -13.4      0.000      0.000
REMARK SMILES Cc1cccc(O[C@H](C)C(=O)N2CCC[C@@H](C(=O)NCCCNC(=O)c3ccc(-c4c5nc(c(-c6c(F)c(F)c(F)c(F)c6F)c6ccc([nH]6)c(-c6c(F)c(F)c(F)c(F)c6F)c6nc(c(-c7c(F)c(F)c(F)c(F)c7F)c7ccc4[nH]7)C=C6)C=C5)cc3)C2)c1
REMARK SMILES IDX 20 1 19 2 17 3 18 4 16 6 12 7 13 8 89 9 14 10 15 11 10 12
REMARK SMILES IDX 11 13 8 14 9 15 7 16 6 17 1 18 2 19 3 20 90 21 4 22 5 23
REMARK SMILES IDX 21 24 22 25 23 26 24 27 25 29 26 30 27 31 88 32 28 33 87 34
REMARK SMILES IDX 29 35 30 36 31 37 81 38 32 39 86 40 80 41 82 42 33 43 85 44
REMARK SMILES IDX 79 45 78 46 34 48 66 49 46 50 65 51 47 52 50 53 64 54 83 55
REMARK SMILES IDX 48 56 49 57 63 59 84 60 51 61 35 62 36 63 44 64 37 65 38 66
REMARK SMILES IDX 42 67 45 68 39 69 40 70 43 71 41 72 67 73 68 74 76 75 69 76
REMARK SMILES IDX 70 77 74 78 77 79 71 80 72 81 75 82 73 83 52 84 53 85 61 86
REMARK SMILES IDX 54 87 55 88 59 89 62 90 56 91 57 92 60 93 58 94
REMARK H PARENT 19 5 23 28 82 47 50 58
REMARK Flexibility Score: inf
ROOT
ATOM      1  C   UNL A   1      32.197  30.167  25.878  1.00  0.00     0.117 C 
ENDROOT
BRANCH   1   2
ATOM      2  N   UNL A   1      33.122  29.689  24.865  1.00  0.00    -0.356 N 
ATOM      3  C   UNL A   1      33.255  28.474  24.270  1.00  0.00     0.224 C 
ATOM      4  O   UNL A   1      34.210  28.341  23.497  1.00  0.00    -0.275 OA
ATOM      5  H   UNL A   1      33.767  30.366  24.554  1.00  0.00     0.163 HD
BRANCH   3   6
ATOM      6  C   UNL A   1      32.281  27.319  24.476  1.00  0.00     0.098 C 
ATOM      7  N   UNL A   1      31.388  25.541  25.939  1.00  0.00    -0.339 N 
ATOM      8  C   UNL A   1      30.013  25.853  25.542  1.00  0.00     0.119 C 
ATOM      9  C   UNL A   1      32.314  26.676  25.870  1.00  0.00     0.133 C 
ATOM     10  C   UNL A   1      29.944  26.453  24.143  1.00  0.00     0.022 C 
ATOM     11  C   UNL A   1      30.857  27.671  24.025  1.00  0.00     0.017 C 
BRANCH   7  12
ATOM     12  C   UNL A   1      31.659  24.243  26.340  1.00  0.00     0.263 C 
ATOM     13  O   UNL A   1      31.352  23.878  27.484  1.00  0.00    -0.271 OA
BRANCH  12  14
ATOM     14  C   UNL A   1      32.420  23.232  25.443  1.00  0.00     0.259 C 
ATOM     15  C   UNL A   1      32.423  23.478  23.939  1.00  0.00     0.064 C 
BRANCH  14  16
ATOM     16  O   UNL A   1      33.565  22.639  26.052  1.00  0.00    -0.481 OA
BRANCH  16  17
ATOM     17  C   UNL A   1      34.808  22.615  25.516  1.00  0.00     0.120 A 
ATOM     18  C   UNL A   1      38.134  24.199  26.554  1.00  0.00     0.044 C 
ATOM     19  C   UNL A   1      37.115  23.365  25.833  1.00  0.00    -0.047 A 
ATOM     20  C   UNL A   1      37.509  22.546  24.778  1.00  0.00     0.003 A 
ATOM     21  C   UNL A   1      35.759  23.401  26.186  1.00  0.00     0.049 A 
ATOM     22  C   UNL A   1      36.571  21.746  24.127  1.00  0.00     0.004 A 
ATOM     23  C   UNL A   1      35.228  21.774  24.499  1.00  0.00     0.046 A 
ENDBRANCH  16  17
ENDBRANCH  14  16
ENDBRANCH  12  14
ENDBRANCH   7  12
ENDBRANCH   3   6
ENDBRANCH   1   2
BRANCH   1  24
ATOM     24  C   UNL A   1      32.765  29.995  27.285  1.00  0.00     0.042 C 
BRANCH  24  25
ATOM     25  C   UNL A   1      34.285  30.140  27.364  1.00  0.00     0.118 C 
BRANCH  25  26
ATOM     26  N   UNL A   1      34.697  30.948  28.515  1.00  0.00    -0.352 N 
ATOM     27  C   UNL A   1      35.864  30.892  29.255  1.00  0.00     0.251 C 
ATOM     28  H   UNL A   1      34.048  31.630  28.804  1.00  0.00     0.163 HD
ATOM     29  O   UNL A   1      36.113  31.698  30.133  1.00  0.00    -0.269 OA
BRANCH  27  30
ATOM     30  C   UNL A   1      36.821  29.824  28.920  1.00  0.00     0.039 A 
ATOM     31  C   UNL A   1      37.244  28.962  29.927  1.00  0.00     0.014 A 
ATOM     32  C   UNL A   1      37.490  29.901  27.701  1.00  0.00     0.014 A 
ATOM     33  C   UNL A   1      38.487  28.349  29.796  1.00  0.00     0.010 A 
ATOM     34  C   UNL A   1      38.752  29.347  27.597  1.00  0.00     0.010 A 
ATOM     35  C   UNL A   1      39.283  28.644  28.681  1.00  0.00    -0.014 A 
BRANCH  35  36
ATOM     36  C   UNL A   1      40.726  28.421  28.698  1.00  0.00     0.031 A 
ATOM     37  C   UNL A   1      41.327  27.213  28.102  1.00  0.00     0.074 A 
ATOM     38  C   UNL A   1      41.528  29.313  29.323  1.00  0.00     0.049 A 
ATOM     39  N   UNL A   1      42.332  26.587  28.624  1.00  0.00    -0.248 NA
ATOM     40  C   UNL A   1      40.830  26.601  26.877  1.00  0.00     0.031 C 
ATOM     41  C   UNL A   1      42.989  29.309  29.358  1.00  0.00     0.029 A 
ATOM     42  N   UNL A   1      41.158  30.300  30.257  1.00  0.00    -0.354 N 
ATOM     43  C   UNL A   1      42.765  25.660  27.706  1.00  0.00     0.074 A 
ATOM     44  C   UNL A   1      41.762  25.663  26.662  1.00  0.00     0.031 C 
ATOM     45  C   UNL A   1      43.391  29.969  30.455  1.00  0.00     0.029 A 
ATOM     46  C   UNL A   1      42.201  30.327  31.209  1.00  0.00     0.049 A 
ATOM     47  H   UNL A   1      40.344  30.854  30.248  1.00  0.00     0.167 HD
ATOM     48  C   UNL A   1      43.991  25.080  27.848  1.00  0.00     0.037 A 
ATOM     49  C   UNL A   1      41.994  30.070  32.530  1.00  0.00     0.037 A 
ATOM     50  C   UNL A   1      44.708  25.599  29.004  1.00  0.00     0.049 A 
ATOM     51  C   UNL A   1      42.844  28.955  33.085  1.00  0.00     0.074 A 
ATOM     52  C   UNL A   1      45.662  26.597  29.127  1.00  0.00     0.029 A 
ATOM     53  N   UNL A   1      44.271  25.309  30.291  1.00  0.00    -0.354 N 
ATOM     54  N   UNL A   1      43.426  28.057  32.345  1.00  0.00    -0.248 NA
ATOM     55  C   UNL A   1      43.040  28.722  34.513  1.00  0.00     0.031 C 
ATOM     56  C   UNL A   1      45.790  26.921  30.496  1.00  0.00     0.029 A 
ATOM     57  C   UNL A   1      44.917  26.118  31.207  1.00  0.00     0.049 A 
ATOM     58  H   UNL A   1      43.600  24.626  30.518  1.00  0.00     0.167 HD
ATOM     59  C   UNL A   1      44.019  27.120  33.152  1.00  0.00     0.074 A 
ATOM     60  C   UNL A   1      43.774  27.595  34.500  1.00  0.00     0.031 C 
ATOM     61  C   UNL A   1      44.641  26.024  32.630  1.00  0.00     0.037 A 
BRANCH  48  62
ATOM     62  C   UNL A   1      44.650  24.272  26.756  1.00  0.00     0.064 A 
ATOM     63  C   UNL A   1      44.366  22.900  26.583  1.00  0.00     0.173 A 
ATOM     64  C   UNL A   1      45.604  24.801  25.869  1.00  0.00     0.173 A 
ATOM     65  F   UNL A   1      43.404  22.285  27.281  1.00  0.00    -0.203 F 
ATOM     66  C   UNL A   1      45.074  22.098  25.685  1.00  0.00     0.198 A 
ATOM     67  C   UNL A   1      46.346  23.989  25.005  1.00  0.00     0.198 A 
ATOM     68  F   UNL A   1      45.821  26.122  25.800  1.00  0.00    -0.203 F 
ATOM     69  F   UNL A   1      44.773  20.795  25.578  1.00  0.00    -0.200 F 
ATOM     70  C   UNL A   1      46.093  22.634  24.926  1.00  0.00     0.200 A 
ATOM     71  F   UNL A   1      47.319  24.529  24.257  1.00  0.00    -0.200 F 
ATOM     72  F   UNL A   1      46.810  21.853  24.108  1.00  0.00    -0.200 F 
ENDBRANCH  48  62
BRANCH  49  73
ATOM     73  C   UNL A   1      40.629  30.394  33.013  1.00  0.00     0.064 A 
ATOM     74  C   UNL A   1      40.227  31.741  33.062  1.00  0.00     0.173 A 
ATOM     75  C   UNL A   1      39.634  29.416  33.124  1.00  0.00     0.173 A 
ATOM     76  F   UNL A   1      41.138  32.721  32.944  1.00  0.00    -0.203 F 
ATOM     77  C   UNL A   1      38.882  32.094  33.124  1.00  0.00     0.198 A 
ATOM     78  C   UNL A   1      38.287  29.774  33.198  1.00  0.00     0.198 A 
ATOM     79  F   UNL A   1      39.949  28.115  33.054  1.00  0.00    -0.203 F 
ATOM     80  F   UNL A   1      38.526  33.386  33.053  1.00  0.00    -0.200 F 
ATOM     81  C   UNL A   1      37.910  31.109  33.168  1.00  0.00     0.200 A 
ATOM     82  F   UNL A   1      37.344  28.821  33.204  1.00  0.00    -0.200 F 
ATOM     83  F   UNL A   1      36.614  31.445  33.128  1.00  0.00    -0.200 F 
ENDBRANCH  49  73
BRANCH  61  84
ATOM     84  C   UNL A   1      45.139  24.823  33.396  1.00  0.00     0.064 A 
ATOM     85  C   UNL A   1      44.405  23.639  33.564  1.00  0.00     0.173 A 
ATOM     86  C   UNL A   1      46.471  24.786  33.877  1.00  0.00     0.173 A 
ATOM     87  F   UNL A   1      43.175  23.502  33.050  1.00  0.00    -0.203 F 
ATOM     88  C   UNL A   1      44.939  22.524  34.218  1.00  0.00     0.198 A 
ATOM     89  C   UNL A   1      47.019  23.655  34.479  1.00  0.00     0.198 A 
ATOM     90  F   UNL A   1      47.291  25.842  33.753  1.00  0.00    -0.203 F 
ATOM     91  F   UNL A   1      44.183  21.431  34.389  1.00  0.00    -0.200 F 
ATOM     92  C   UNL A   1      46.247  22.528  34.665  1.00  0.00     0.200 A 
ATOM     93  F   UNL A   1      48.304  23.659  34.859  1.00  0.00    -0.200 F 
ATOM     94  F   UNL A   1      46.768  21.442  35.251  1.00  0.00    -0.200 F 
ENDBRANCH  61  84
ENDBRANCH  35  36
ENDBRANCH  27  30
ENDBRANCH  25  26
ENDBRANCH  24  25
ENDBRANCH   1  24
TORSDOF 14
ENDMDL
MODEL 2
REMARK VINA RESULT:     -13.4      3.615      9.977
REMARK SMILES Cc1cccc(O[C@H](C)C(=O)N2CCC[C@@H](C(=O)NCCCNC(=O)c3ccc(-c4c5nc(c(-c6c(F)c(F)c(F)c(F)c6F)c6ccc([nH]6)c(-c6c(F)c(F)c(F)c(F)c6F)c6nc(c(-c7c(F)c(F)c(F)c(F)c7F)c7ccc4[nH]7)C=C6)C=C5)cc3)C2)c1
REMARK SMILES IDX 20 1 19 2 17 3 18 4 16 6 12 7 13 8 89 9 14 10 15 11 10 12
REMARK SMILES IDX 11 13 8 14 9 15 7 16 6 17 1 18 2 19 3 20 90 21 4 22 5 23
REMARK SMILES IDX 21 24 22 25 23 26 24 27 25 29 26 30 27 31 88 32 28 33 87 34
REMARK SMILES IDX 29 35 30 36 31 37 81 38 32 39 86 40 80 41 82 42 33 43 85 44
REMARK SMILES IDX 79 45 78 46 34 48 66 49 46 50 65 51 47 52 50 53 64 54 83 55
REMARK SMILES IDX 48 56 49 57 63 59 84 60 51 61 35 62 36 63 44 64 37 65 38 66
REMARK SMILES IDX 42 67 45 68 39 69 40 70 43 71 41 72 67 73 68 74 76 75 69 76
REMARK SMILES IDX 70 77 74 78 77 79 71 80 72 81 75 82 73 83 52 84 53 85 61 86
REMARK SMILES IDX 54 87 55 88 59 89 62 90 56 91 57 92 60 93 58 94
REMARK H PARENT 19 5 23 28 82 47 50 58
REMARK Flexibility Score: inf
ROOT
ATOM      1  C   UNL A   1      36.072  21.848  26.081  1.00  0.00     0.117 C 
ENDROOT
BRANCH   1   2
ATOM      2  N   UNL A   1      35.360  20.762  25.430  1.00  0.00    -0.356 N 
ATOM      3  C   UNL A   1      34.145  20.718  24.823  1.00  0.00     0.224 C 
ATOM      4  O   UNL A   1      33.763  19.609  24.435  1.00  0.00    -0.275 OA
ATOM      5  H   UNL A   1      35.845  19.905  25.428  1.00  0.00     0.163 HD
BRANCH   3   6
ATOM      6  C   UNL A   1      33.281  21.949  24.569  1.00  0.00     0.098 C 
ATOM      7  N   UNL A   1      32.439  23.654  22.993  1.00  0.00    -0.339 N 
ATOM      8  C   UNL A   1      31.086  23.546  23.541  1.00  0.00     0.119 C 
ATOM      9  C   UNL A   1      33.244  22.434  23.112  1.00  0.00     0.133 C 
ATOM     10  C   UNL A   1      31.092  23.108  25.000  1.00  0.00     0.022 C 
ATOM     11  C   UNL A   1      31.880  21.813  25.179  1.00  0.00     0.017 C 
BRANCH   7  12
ATOM     12  C   UNL A   1      32.805  24.863  22.423  1.00  0.00     0.263 C 
ATOM     13  O   UNL A   1      32.566  25.072  21.224  1.00  0.00    -0.271 OA
BRANCH  12  14
ATOM     14  C   UNL A   1      33.589  25.952  23.200  1.00  0.00     0.259 C 
ATOM     15  C   UNL A   1      33.514  27.384  22.688  1.00  0.00     0.064 C 
BRANCH  14  16
ATOM     16  O   UNL A   1      33.698  25.720  24.604  1.00  0.00    -0.481 OA
BRANCH  16  17
ATOM     17  C   UNL A   1      33.177  26.517  25.567  1.00  0.00     0.120 A 
ATOM     18  C   UNL A   1      34.592  29.438  27.594  1.00  0.00     0.044 C 
ATOM     19  C   UNL A   1      33.639  28.433  27.015  1.00  0.00    -0.047 A 
ATOM     20  C   UNL A   1      32.296  28.456  27.386  1.00  0.00     0.003 A 
ATOM     21  C   UNL A   1      34.071  27.450  26.114  1.00  0.00     0.049 A 
ATOM     22  C   UNL A   1      31.402  27.544  26.826  1.00  0.00     0.004 A 
ATOM     23  C   UNL A   1      31.838  26.585  25.915  1.00  0.00     0.046 A 
ENDBRANCH  16  17
ENDBRANCH  14  16
ENDBRANCH  12  14
ENDBRANCH   7  12
ENDBRANCH   3   6
ENDBRANCH   1   2
BRANCH   1  24
ATOM     24  C   UNL A   1      37.513  21.954  25.587  1.00  0.00     0.042 C 
BRANCH  24  25
ATOM     25  C   UNL A   1      38.150  23.324  25.820  1.00  0.00     0.118 C 
BRANCH  25  26
ATOM     26  N   UNL A   1      39.602  23.229  25.992  1.00  0.00    -0.352 N 
ATOM     27  C   UNL A   1      40.470  24.097  26.629  1.00  0.00     0.251 C 
ATOM     28  H   UNL A   1      40.021  22.432  25.595  1.00  0.00     0.163 HD
ATOM     29  O   UNL A   1      41.650  23.839  26.778  1.00  0.00    -0.269 OA
BRANCH  27  30
ATOM     30  C   UNL A   1      39.901  25.350  27.153  1.00  0.00     0.039 A 
ATOM     31  C   UNL A   1      40.325  26.558  26.609  1.00  0.00     0.014 A 
ATOM     32  C   UNL A   1      39.204  25.301  28.357  1.00  0.00     0.014 A 
ATOM     33  C   UNL A   1      40.255  27.703  27.398  1.00  0.00     0.010 A 
ATOM     34  C   UNL A   1      39.193  26.422  29.168  1.00  0.00     0.010 A 
ATOM     35  C   UNL A   1      39.797  27.598  28.718  1.00  0.00    -0.014 A 
BRANCH  35  36
ATOM     36  C   UNL A   1      40.119  28.614  29.717  1.00  0.00     0.031 A 
ATOM     37  C   UNL A   1      39.147  29.654  30.101  1.00  0.00     0.074 A 
ATOM     38  C   UNL A   1      41.357  28.639  30.262  1.00  0.00     0.049 A 
ATOM     39  N   UNL A   1      39.477  30.880  30.348  1.00  0.00    -0.248 NA
ATOM     40  C   UNL A   1      37.718  29.398  30.221  1.00  0.00     0.031 C 
ATOM     41  C   UNL A   1      41.828  29.510  31.336  1.00  0.00     0.029 A 
ATOM     42  N   UNL A   1      42.525  28.013  29.784  1.00  0.00    -0.354 N 
ATOM     43  C   UNL A   1      38.376  31.505  30.885  1.00  0.00     0.074 A 
ATOM     44  C   UNL A   1      37.290  30.561  30.728  1.00  0.00     0.031 C 
ATOM     45  C   UNL A   1      43.160  29.632  31.235  1.00  0.00     0.029 A 
ATOM     46  C   UNL A   1      43.572  28.927  30.033  1.00  0.00     0.049 A 
ATOM     47  H   UNL A   1      42.595  27.125  29.364  1.00  0.00     0.167 HD
ATOM     48  C   UNL A   1      38.516  32.699  31.529  1.00  0.00     0.037 A 
ATOM     49  C   UNL A   1      44.347  29.441  29.039  1.00  0.00     0.037 A 
ATOM     50  C   UNL A   1      39.906  33.129  31.582  1.00  0.00     0.049 A 
ATOM     51  C   UNL A   1      44.367  30.948  28.986  1.00  0.00     0.074 A 
ATOM     52  C   UNL A   1      40.876  32.996  32.563  1.00  0.00     0.029 A 
ATOM     53  N   UNL A   1      40.566  33.523  30.424  1.00  0.00    -0.354 N 
ATOM     54  N   UNL A   1      43.462  31.700  29.542  1.00  0.00    -0.248 NA
ATOM     55  C   UNL A   1      45.359  31.719  28.242  1.00  0.00     0.031 C 
ATOM     56  C   UNL A   1      42.131  33.296  31.989  1.00  0.00     0.029 A 
ATOM     57  C   UNL A   1      41.924  33.616  30.659  1.00  0.00     0.049 A 
ATOM     58  H   UNL A   1      40.129  33.708  29.562  1.00  0.00     0.167 HD
ATOM     59  C   UNL A   1      43.697  33.011  29.214  1.00  0.00     0.074 A 
ATOM     60  C   UNL A   1      44.910  32.974  28.421  1.00  0.00     0.031 C 
ATOM     61  C   UNL A   1      42.851  34.005  29.610  1.00  0.00     0.037 A 
BRANCH  48  62
ATOM     62  C   UNL A   1      37.425  33.310  32.374  1.00  0.00     0.064 A 
ATOM     63  C   UNL A   1      36.398  34.091  31.799  1.00  0.00     0.173 A 
ATOM     64  C   UNL A   1      37.365  33.184  33.773  1.00  0.00     0.173 A 
ATOM     65  F   UNL A   1      36.264  34.212  30.472  1.00  0.00    -0.203 F 
ATOM     66  C   UNL A   1      35.470  34.792  32.571  1.00  0.00     0.198 A 
ATOM     67  C   UNL A   1      36.467  33.924  34.549  1.00  0.00     0.198 A 
ATOM     68  F   UNL A   1      38.159  32.319  34.420  1.00  0.00    -0.203 F 
ATOM     69  F   UNL A   1      34.530  35.535  31.968  1.00  0.00    -0.200 F 
ATOM     70  C   UNL A   1      35.530  34.742  33.948  1.00  0.00     0.200 A 
ATOM     71  F   UNL A   1      36.524  33.848  35.886  1.00  0.00    -0.200 F 
ATOM     72  F   UNL A   1      34.677  35.461  34.690  1.00  0.00    -0.200 F 
ENDBRANCH  48  62
BRANCH  49  73
ATOM     73  C   UNL A   1      44.482  28.567  27.848  1.00  0.00     0.064 A 
ATOM     74  C   UNL A   1      45.198  27.362  27.968  1.00  0.00     0.173 A 
ATOM     75  C   UNL A   1      43.679  28.733  26.715  1.00  0.00     0.173 A 
ATOM     76  F   UNL A   1      45.972  27.142  29.043  1.00  0.00    -0.203 F 
ATOM     77  C   UNL A   1      45.044  26.333  27.044  1.00  0.00     0.198 A 
ATOM     78  C   UNL A   1      43.536  27.703  25.783  1.00  0.00     0.198 A 
ATOM     79  F   UNL A   1      42.948  29.846  26.558  1.00  0.00    -0.203 F 
ATOM     80  F   UNL A   1      45.651  25.154  27.249  1.00  0.00    -0.200 F 
ATOM     81  C   UNL A   1      44.193  26.495  25.964  1.00  0.00     0.200 A 
ATOM     82  F   UNL A   1      42.685  27.847  24.757  1.00  0.00    -0.200 F 
ATOM     83  F   UNL A   1      43.968  25.472  25.128  1.00  0.00    -0.200 F 
ENDBRANCH  49  73
BRANCH  61  84
ATOM     84  C   UNL A   1      42.870  35.440  29.144  1.00  0.00     0.064 A 
ATOM     85  C   UNL A   1      42.172  35.912  28.021  1.00  0.00     0.173 A 
ATOM     86  C   UNL A   1      43.504  36.436  29.928  1.00  0.00     0.173 A 
ATOM     87  F   UNL A   1      41.433  35.090  27.264  1.00  0.00    -0.203 F 
ATOM     88  C   UNL A   1      42.160  37.266  27.672  1.00  0.00     0.198 A 
ATOM     89  C   UNL A   1      43.444  37.791  29.608  1.00  0.00     0.198 A 
ATOM     90  F   UNL A   1      44.181  36.124  31.044  1.00  0.00    -0.203 F 
ATOM     91  F   UNL A   1      41.512  37.659  26.568  1.00  0.00    -0.200 F 
ATOM     92  C   UNL A   1      42.786  38.205  28.470  1.00  0.00     0.200 A 
ATOM     93  F   UNL A   1      44.012  38.693  30.422  1.00  0.00    -0.200 F 
ATOM     94  F   UNL A   1      42.733  39.506  28.156  1.00  0.00    -0.200 F 
ENDBRANCH  61  84
ENDBRANCH  35  36
ENDBRANCH  27  30
ENDBRANCH  25  26
ENDBRANCH  24  25
ENDBRANCH   1  24
TORSDOF 14
ENDMDL
MODEL 3
REMARK VINA RESULT:     -13.2      1.244      2.536
REMARK SMILES Cc1cccc(O[C@H](C)C(=O)N2CCC[C@@H](C(=O)NCCCNC(=O)c3ccc(-c4c5nc(c(-c6c(F)c(F)c(F)c(F)c6F)c6ccc([nH]6)c(-c6c(F)c(F)c(F)c(F)c6F)c6nc(c(-c7c(F)c(F)c(F)c(F)c7F)c7ccc4[nH]7)C=C6)C=C5)cc3)C2)c1
REMARK SMILES IDX 20 1 19 2 17 3 18 4 16 6 12 7 13 8 89 9 14 10 15 11 10 12
REMARK SMILES IDX 11 13 8 14 9 15 7 16 6 17 1 18 2 19 3 20 90 21 4 22 5 23
REMARK SMILES IDX 21 24 22 25 23 26 24 27 25 29 26 30 27 31 88 32 28 33 87 34
REMARK SMILES IDX 29 35 30 36 31 37 81 38 32 39 86 40 80 41 82 42 33 43 85 44
REMARK SMILES IDX 79 45 78 46 34 48 66 49 46 50 65 51 47 52 50 53 64 54 83 55
REMARK SMILES IDX 48 56 49 57 63 59 84 60 51 61 35 62 36 63 44 64 37 65 38 66
REMARK SMILES IDX 42 67 45 68 39 69 40 70 43 71 41 72 67 73 68 74 76 75 69 76
REMARK SMILES IDX 70 77 74 78 77 79 71 80 72 81 75 82 73 83 52 84 53 85 61 86
REMARK SMILES IDX 54 87 55 88 59 89 62 90 56 91 57 92 60 93 58 94
REMARK H PARENT 19 5 23 28 82 47 50 58
REMARK Flexibility Score: inf
ROOT
ATOM      1  C   UNL A   1      32.086  28.650  26.381  1.00  0.00     0.117 C 
ENDROOT
BRANCH   1   2
ATOM      2  N   UNL A   1      32.553  28.980  25.046  1.00  0.00    -0.356 N 
ATOM      3  C   UNL A   1      33.162  28.226  24.093  1.00  0.00     0.224 C 
ATOM      4  O   UNL A   1      33.530  28.819  23.074  1.00  0.00    -0.275 OA
ATOM      5  H   UNL A   1      32.403  29.918  24.785  1.00  0.00     0.163 HD
BRANCH   3   6
ATOM      6  C   UNL A   1      33.362  26.718  24.207  1.00  0.00     0.098 C 
ATOM      7  N   UNL A   1      33.967  24.578  23.134  1.00  0.00    -0.339 N 
ATOM      8  C   UNL A   1      34.760  24.176  24.298  1.00  0.00     0.119 C 
ATOM      9  C   UNL A   1      33.871  26.027  22.933  1.00  0.00     0.133 C 
ATOM     10  C   UNL A   1      34.251  24.813  25.585  1.00  0.00     0.022 C 
ATOM     11  C   UNL A   1      34.173  26.331  25.450  1.00  0.00     0.017 C 
BRANCH   7  12
ATOM     12  C   UNL A   1      33.414  23.572  22.358  1.00  0.00     0.263 C 
ATOM     13  O   UNL A   1      33.605  23.569  21.133  1.00  0.00    -0.271 OA
BRANCH  12  14
ATOM     14  C   UNL A   1      32.482  22.480  22.943  1.00  0.00     0.259 C 
ATOM     15  C   UNL A   1      33.110  21.405  23.821  1.00  0.00     0.064 C 
BRANCH  14  16
ATOM     16  O   UNL A   1      31.153  22.917  23.222  1.00  0.00    -0.481 OA
BRANCH  16  17
ATOM     17  C   UNL A   1      30.826  23.919  24.072  1.00  0.00     0.120 A 
ATOM     18  C   UNL A   1      29.134  27.317  23.581  1.00  0.00     0.044 C 
ATOM     19  C   UNL A   1      29.745  26.108  24.228  1.00  0.00    -0.047 A 
ATOM     20  C   UNL A   1      29.821  26.028  25.617  1.00  0.00     0.003 A 
ATOM     21  C   UNL A   1      30.263  25.053  23.465  1.00  0.00     0.049 A 
ATOM     22  C   UNL A   1      30.359  24.893  26.222  1.00  0.00     0.004 A 
ATOM     23  C   UNL A   1      30.851  23.840  25.454  1.00  0.00     0.046 A 
ENDBRANCH  16  17
ENDBRANCH  14  16
ENDBRANCH  12  14
ENDBRANCH   7  12
ENDBRANCH   3   6
ENDBRANCH   1   2
BRANCH   1  24
ATOM     24  C   UNL A   1      33.145  28.949  27.439  1.00  0.00     0.042 C 
BRANCH  24  25
ATOM     25  C   UNL A   1      34.060  30.122  27.088  1.00  0.00     0.118 C 
BRANCH  25  26
ATOM     26  N   UNL A   1      34.388  30.931  28.265  1.00  0.00    -0.352 N 
ATOM     27  C   UNL A   1      35.517  30.901  29.064  1.00  0.00     0.251 C 
ATOM     28  H   UNL A   1      33.705  31.590  28.527  1.00  0.00     0.163 HD
ATOM     29  O   UNL A   1      35.695  31.705  29.961  1.00  0.00    -0.269 OA
BRANCH  27  30
ATOM     30  C   UNL A   1      36.521  29.866  28.769  1.00  0.00     0.039 A 
ATOM     31  C   UNL A   1      36.974  29.056  29.806  1.00  0.00     0.014 A 
ATOM     32  C   UNL A   1      37.196  29.934  27.554  1.00  0.00     0.014 A 
ATOM     33  C   UNL A   1      38.243  28.494  29.703  1.00  0.00     0.010 A 
ATOM     34  C   UNL A   1      38.482  29.432  27.474  1.00  0.00     0.010 A 
ATOM     35  C   UNL A   1      39.034  28.788  28.584  1.00  0.00    -0.014 A 
BRANCH  35  36
ATOM     36  C   UNL A   1      40.485  28.629  28.617  1.00  0.00     0.031 A 
ATOM     37  C   UNL A   1      41.145  27.438  28.050  1.00  0.00     0.074 A 
ATOM     38  C   UNL A   1      41.242  29.567  29.232  1.00  0.00     0.049 A 
ATOM     39  N   UNL A   1      42.171  26.867  28.592  1.00  0.00    -0.248 NA
ATOM     40  C   UNL A   1      40.686  26.782  26.833  1.00  0.00     0.031 C 
ATOM     41  C   UNL A   1      42.701  29.628  29.280  1.00  0.00     0.029 A 
ATOM     42  N   UNL A   1      40.821  30.554  30.144  1.00  0.00    -0.354 N 
ATOM     43  C   UNL A   1      42.652  25.943  27.695  1.00  0.00     0.074 A 
ATOM     44  C   UNL A   1      41.660  25.882  26.643  1.00  0.00     0.031 C 
ATOM     45  C   UNL A   1      43.064  30.325  30.367  1.00  0.00     0.029 A 
ATOM     46  C   UNL A   1      41.853  30.645  31.104  1.00  0.00     0.049 A 
ATOM     47  H   UNL A   1      39.984  31.072  30.118  1.00  0.00     0.167 HD
ATOM     48  C   UNL A   1      43.902  25.420  27.859  1.00  0.00     0.037 A 
ATOM     49  C   UNL A   1      41.645  30.404  32.428  1.00  0.00     0.037 A 
ATOM     50  C   UNL A   1      44.584  25.991  29.011  1.00  0.00     0.049 A 
ATOM     51  C   UNL A   1      42.537  29.338  33.011  1.00  0.00     0.074 A 
ATOM     52  C   UNL A   1      45.492  27.032  29.123  1.00  0.00     0.029 A 
ATOM     53  N   UNL A   1      44.149  25.706  30.300  1.00  0.00    -0.354 N 
ATOM     54  N   UNL A   1      43.165  28.452  32.294  1.00  0.00    -0.248 NA
ATOM     55  C   UNL A   1      42.731  29.140  34.445  1.00  0.00     0.031 C 
ATOM     56  C   UNL A   1      45.594  27.387  30.486  1.00  0.00     0.029 A 
ATOM     57  C   UNL A   1      44.750  26.559  31.205  1.00  0.00     0.049 A 
ATOM     58  H   UNL A   1      43.506  24.999  30.533  1.00  0.00     0.167 HD
ATOM     59  C   UNL A   1      43.791  27.558  33.123  1.00  0.00     0.074 A 
ATOM     60  C   UNL A   1      43.513  28.046  34.460  1.00  0.00     0.031 C 
ATOM     61  C   UNL A   1      44.465  26.481  32.627  1.00  0.00     0.037 A 
BRANCH  48  62
ATOM     62  C   UNL A   1      44.606  24.621  26.788  1.00  0.00     0.064 A 
ATOM     63  C   UNL A   1      44.363  23.240  26.621  1.00  0.00     0.173 A 
ATOM     64  C   UNL A   1      45.563  25.169  25.916  1.00  0.00     0.173 A 
ATOM     65  F   UNL A   1      43.404  22.605  27.305  1.00  0.00    -0.203 F 
ATOM     66  C   UNL A   1      45.111  22.451  25.745  1.00  0.00     0.198 A 
ATOM     67  C   UNL A   1      46.345  24.370  25.075  1.00  0.00     0.198 A 
ATOM     68  F   UNL A   1      45.745  26.494  25.840  1.00  0.00    -0.203 F 
ATOM     69  F   UNL A   1      44.849  21.139  25.644  1.00  0.00    -0.200 F 
ATOM     70  C   UNL A   1      46.131  23.008  25.003  1.00  0.00     0.200 A 
ATOM     71  F   UNL A   1      47.318  24.931  24.343  1.00  0.00    -0.200 F 
ATOM     72  F   UNL A   1      46.887  22.241  24.207  1.00  0.00    -0.200 F 
ENDBRANCH  48  62
BRANCH  49  73
ATOM     73  C   UNL A   1      40.262  30.676  32.893  1.00  0.00     0.064 A 
ATOM     74  C   UNL A   1      39.810  32.007  32.936  1.00  0.00     0.173 A 
ATOM     75  C   UNL A   1      39.304  29.662  32.992  1.00  0.00     0.173 A 
ATOM     76  F   UNL A   1      40.685  33.020  32.829  1.00  0.00    -0.203 F 
ATOM     77  C   UNL A   1      38.452  32.309  32.980  1.00  0.00     0.198 A 
ATOM     78  C   UNL A   1      37.943  29.969  33.049  1.00  0.00     0.198 A 
ATOM     79  F   UNL A   1      39.669  28.374  32.927  1.00  0.00    -0.203 F 
ATOM     80  F   UNL A   1      38.049  33.587  32.904  1.00  0.00    -0.200 F 
ATOM     81  C   UNL A   1      37.517  31.289  33.013  1.00  0.00     0.200 A 
ATOM     82  F   UNL A   1      37.037  28.981  33.044  1.00  0.00    -0.200 F 
ATOM     83  F   UNL A   1      36.210  31.575  32.956  1.00  0.00    -0.200 F 
ENDBRANCH  49  73
BRANCH  61  84
ATOM     84  C   UNL A   1      45.008  25.317  33.420  1.00  0.00     0.064 A 
ATOM     85  C   UNL A   1      44.212  24.303  33.974  1.00  0.00     0.173 A 
ATOM     86  C   UNL A   1      46.407  25.116  33.525  1.00  0.00     0.173 A 
ATOM     87  F   UNL A   1      42.878  24.312  33.839  1.00  0.00    -0.203 F 
ATOM     88  C   UNL A   1      44.767  23.203  34.636  1.00  0.00     0.198 A 
ATOM     89  C   UNL A   1      46.958  23.993  34.138  1.00  0.00     0.198 A 
ATOM     90  F   UNL A   1      47.282  25.995  33.012  1.00  0.00    -0.203 F 
ATOM     91  F   UNL A   1      43.961  22.283  35.182  1.00  0.00    -0.200 F 
ATOM     92  C   UNL A   1      46.138  23.043  34.709  1.00  0.00     0.200 A 
ATOM     93  F   UNL A   1      48.288  23.827  34.153  1.00  0.00    -0.200 F 
ATOM     94  F   UNL A   1      46.665  21.966  35.305  1.00  0.00    -0.200 F 
ENDBRANCH  61  84
ENDBRANCH  35  36
ENDBRANCH  27  30
ENDBRANCH  25  26
ENDBRANCH  24  25
ENDBRANCH   1  24
TORSDOF 14
ENDMDL
