MODEL 1
REMARK VINA RESULT:     -11.1      0.000      0.000
REMARK SMILES CC[C@@](O)(C(=O)NCCCNC(=O)c1ccc(-c2c3nc(c(-c4c(F)c(F)c(F)c(F)c4F)c4ccc([nH]4)c(-c4c(F)c(F)c(F)c(F)c4F)c4nc(c(-c5c(F)c(F)c(F)c(F)c5F)c5ccc2[nH]5)C=C4)C=C3)cc1)[C@@H](C)c1ccc(OC)c(OC)c1
REMARK SMILES IDX 8 1 7 2 5 3 6 4 3 6 2 7 1 8 4 9 77 11 78 12 79 13 80 14
REMARK SMILES IDX 88 15 81 16 85 17 82 18 86 19 87 20 83 21 84 22 9 23 10 24
REMARK SMILES IDX 11 25 12 26 13 28 14 29 15 30 76 31 16 32 75 33 17 34 18 35
REMARK SMILES IDX 19 36 69 37 20 38 74 39 68 40 70 41 21 42 73 43 67 44 66 45
REMARK SMILES IDX 22 47 54 48 34 49 53 50 35 51 38 52 52 53 71 54 36 55 37 56
REMARK SMILES IDX 51 58 72 59 39 60 23 61 24 62 32 63 25 64 26 65 30 66 33 67
REMARK SMILES IDX 27 68 28 69 31 70 29 71 55 72 56 73 64 74 57 75 58 76 62 77
REMARK SMILES IDX 65 78 59 79 60 80 63 81 61 82 40 83 41 84 49 85 42 86 43 87
REMARK SMILES IDX 47 88 50 89 44 90 45 91 48 92 46 93
REMARK H PARENT 7 5 4 10 11 27 70 46 38 57
REMARK Flexibility Score: inf
ROOT
ATOM      1  C   UNL A   1      36.557  20.657  24.725  1.00  0.00     0.117 C 
ENDROOT
BRANCH   1   2
ATOM      2  N   UNL A   1      35.772  21.032  25.896  1.00  0.00    -0.354 N 
ATOM      3  C   UNL A   1      34.427  20.952  26.145  1.00  0.00     0.252 C 
ATOM      4  O   UNL A   1      34.075  21.183  27.305  1.00  0.00    -0.272 OA
ATOM      5  H   UNL A   1      36.302  21.407  26.636  1.00  0.00     0.163 HD
BRANCH   3   6
ATOM      6  C   UNL A   1      33.401  20.589  25.009  1.00  0.00     0.149 C 
BRANCH   6   7
ATOM      7  C   UNL A   1      33.846  19.227  24.415  1.00  0.00     0.043 C 
ATOM      8  C   UNL A   1      32.790  18.201  24.046  1.00  0.00     0.007 C 
ENDBRANCH   6   7
BRANCH   6   9
ATOM      9  O   UNL A   1      32.145  20.471  25.697  1.00  0.00    -0.379 OA
ATOM     10  H   UNL A   1      31.867  19.541  25.706  1.00  0.00     0.212 HD
ENDBRANCH   6   9
BRANCH   6  11
ATOM     11  C   UNL A   1      33.311  21.770  23.952  1.00  0.00     0.058 C 
ATOM     12  C   UNL A   1      32.093  21.568  23.016  1.00  0.00     0.016 C 
BRANCH  11  13
ATOM     13  C   UNL A   1      33.330  23.229  24.469  1.00  0.00    -0.038 A 
ATOM     14  C   UNL A   1      34.385  24.117  24.245  1.00  0.00     0.008 A 
ATOM     15  C   UNL A   1      32.245  23.727  25.220  1.00  0.00     0.054 A 
ATOM     16  C   UNL A   1      34.433  25.365  24.862  1.00  0.00     0.051 A 
ATOM     17  C   UNL A   1      32.259  25.006  25.817  1.00  0.00     0.160 A 
ATOM     18  C   UNL A   1      33.393  25.814  25.672  1.00  0.00     0.160 A 
BRANCH  17  19
ATOM     19  O   UNL A   1      31.228  25.450  26.601  1.00  0.00    -0.493 OA
ATOM     20  C   UNL A   1      30.309  26.350  25.989  1.00  0.00     0.278 C 
ENDBRANCH  17  19
BRANCH  18  21
ATOM     21  O   UNL A   1      33.670  27.030  26.232  1.00  0.00    -0.493 OA
ATOM     22  C   UNL A   1      33.684  28.173  25.395  1.00  0.00     0.278 C 
ENDBRANCH  18  21
ENDBRANCH  11  13
ENDBRANCH   6  11
ENDBRANCH   3   6
ENDBRANCH   1   2
BRANCH   1  23
ATOM     23  C   UNL A   1      37.655  19.644  25.029  1.00  0.00     0.042 C 
BRANCH  23  24
ATOM     24  C   UNL A   1      38.857  20.225  25.755  1.00  0.00     0.118 C 
BRANCH  24  25
ATOM     25  N   UNL A   1      39.928  19.255  25.921  1.00  0.00    -0.352 N 
ATOM     26  C   UNL A   1      41.269  19.445  26.133  1.00  0.00     0.251 C 
ATOM     27  H   UNL A   1      39.645  18.313  25.873  1.00  0.00     0.163 HD
ATOM     28  O   UNL A   1      42.038  18.486  26.035  1.00  0.00    -0.269 OA
BRANCH  26  29
ATOM     29  C   UNL A   1      41.810  20.782  26.462  1.00  0.00     0.039 A 
ATOM     30  C   UNL A   1      41.986  21.711  25.430  1.00  0.00     0.014 A 
ATOM     31  C   UNL A   1      42.188  21.117  27.765  1.00  0.00     0.014 A 
ATOM     32  C   UNL A   1      42.489  22.983  25.714  1.00  0.00     0.010 A 
ATOM     33  C   UNL A   1      42.600  22.412  28.062  1.00  0.00     0.010 A 
ATOM     34  C   UNL A   1      42.771  23.355  27.038  1.00  0.00    -0.014 A 
BRANCH  34  35
ATOM     35  C   UNL A   1      43.277  24.711  27.368  1.00  0.00     0.031 A 
ATOM     36  C   UNL A   1      42.351  25.736  27.965  1.00  0.00     0.074 A 
ATOM     37  C   UNL A   1      44.549  25.042  27.074  1.00  0.00     0.049 A 
ATOM     38  N   UNL A   1      42.581  26.992  28.260  1.00  0.00    -0.248 NA
ATOM     39  C   UNL A   1      40.973  25.300  28.243  1.00  0.00     0.031 C 
ATOM     40  C   UNL A   1      45.531  24.154  26.449  1.00  0.00     0.029 A 
ATOM     41  N   UNL A   1      45.233  26.218  27.256  1.00  0.00    -0.354 N 
ATOM     42  C   UNL A   1      41.377  27.496  28.732  1.00  0.00     0.074 A 
ATOM     43  C   UNL A   1      40.404  26.429  28.639  1.00  0.00     0.031 C 
ATOM     44  C   UNL A   1      46.697  24.808  26.322  1.00  0.00     0.029 A 
ATOM     45  C   UNL A   1      46.536  26.169  26.823  1.00  0.00     0.049 A 
ATOM     46  H   UNL A   1      44.827  27.021  27.657  1.00  0.00     0.167 HD
ATOM     47  C   UNL A   1      41.111  28.730  29.226  1.00  0.00     0.037 A 
ATOM     48  C   UNL A   1      47.491  27.118  26.828  1.00  0.00     0.037 A 
ATOM     49  C   UNL A   1      42.089  29.777  29.353  1.00  0.00     0.049 A 
ATOM     50  C   UNL A   1      47.172  28.478  27.391  1.00  0.00     0.074 A 
ATOM     51  C   UNL A   1      41.937  31.038  29.903  1.00  0.00     0.029 A 
ATOM     52  N   UNL A   1      43.406  29.681  28.927  1.00  0.00    -0.354 N 
ATOM     53  N   UNL A   1      46.048  28.921  27.899  1.00  0.00    -0.248 NA
ATOM     54  C   UNL A   1      48.260  29.466  27.387  1.00  0.00     0.031 C 
ATOM     55  C   UNL A   1      43.152  31.721  29.771  1.00  0.00     0.029 A 
ATOM     56  C   UNL A   1      44.072  30.869  29.183  1.00  0.00     0.049 A 
ATOM     57  H   UNL A   1      43.807  28.887  28.505  1.00  0.00     0.167 HD
ATOM     58  C   UNL A   1      46.300  30.225  28.301  1.00  0.00     0.074 A 
ATOM     59  C   UNL A   1      47.688  30.497  27.990  1.00  0.00     0.031 C 
ATOM     60  C   UNL A   1      45.457  31.118  28.876  1.00  0.00     0.037 A 
BRANCH  47  61
ATOM     61  C   UNL A   1      39.705  29.011  29.670  1.00  0.00     0.064 A 
ATOM     62  C   UNL A   1      38.740  29.518  28.786  1.00  0.00     0.173 A 
ATOM     63  C   UNL A   1      39.308  28.744  30.989  1.00  0.00     0.173 A 
ATOM     64  F   UNL A   1      39.071  29.803  27.517  1.00  0.00    -0.203 F 
ATOM     65  C   UNL A   1      37.440  29.775  29.213  1.00  0.00     0.198 A 
ATOM     66  C   UNL A   1      37.999  28.974  31.405  1.00  0.00     0.198 A 
ATOM     67  F   UNL A   1      40.189  28.253  31.875  1.00  0.00    -0.203 F 
ATOM     68  F   UNL A   1      36.550  30.309  28.364  1.00  0.00    -0.200 F 
ATOM     69  C   UNL A   1      37.068  29.496  30.520  1.00  0.00     0.200 A 
ATOM     70  F   UNL A   1      37.638  28.691  32.665  1.00  0.00    -0.200 F 
ATOM     71  F   UNL A   1      35.815  29.740  30.928  1.00  0.00    -0.200 F 
ENDBRANCH  47  61
BRANCH  48  72
ATOM     72  C   UNL A   1      48.850  26.806  26.315  1.00  0.00     0.064 A 
ATOM     73  C   UNL A   1      49.193  27.082  24.984  1.00  0.00     0.173 A 
ATOM     74  C   UNL A   1      49.828  26.228  27.136  1.00  0.00     0.173 A 
ATOM     75  F   UNL A   1      48.284  27.615  24.155  1.00  0.00    -0.203 F 
ATOM     76  C   UNL A   1      50.458  26.772  24.488  1.00  0.00     0.198 A 
ATOM     77  C   UNL A   1      51.102  25.944  26.646  1.00  0.00     0.198 A 
ATOM     78  F   UNL A   1      49.550  25.950  28.418  1.00  0.00    -0.203 F 
ATOM     79  F   UNL A   1      50.746  27.005  23.200  1.00  0.00    -0.200 F 
ATOM     80  C   UNL A   1      51.412  26.210  25.321  1.00  0.00     0.200 A 
ATOM     81  F   UNL A   1      52.026  25.413  27.458  1.00  0.00    -0.200 F 
ATOM     82  F   UNL A   1      52.630  25.915  24.845  1.00  0.00    -0.200 F 
ENDBRANCH  48  72
BRANCH  60  83
ATOM     83  C   UNL A   1      46.023  32.460  29.240  1.00  0.00     0.064 A 
ATOM     84  C   UNL A   1      45.964  33.547  28.357  1.00  0.00     0.173 A 
ATOM     85  C   UNL A   1      46.598  32.666  30.503  1.00  0.00     0.173 A 
ATOM     86  F   UNL A   1      45.438  33.396  27.132  1.00  0.00    -0.203 F 
ATOM     87  C   UNL A   1      46.485  34.788  28.716  1.00  0.00     0.198 A 
ATOM     88  C   UNL A   1      47.091  33.914  30.869  1.00  0.00     0.198 A 
ATOM     89  F   UNL A   1      46.673  31.659  31.386  1.00  0.00    -0.203 F 
ATOM     90  F   UNL A   1      46.461  35.801  27.839  1.00  0.00    -0.200 F 
ATOM     91  C   UNL A   1      47.041  34.972  29.973  1.00  0.00     0.200 A 
ATOM     92  F   UNL A   1      47.618  34.094  32.089  1.00  0.00    -0.200 F 
ATOM     93  F   UNL A   1      47.537  36.169  30.319  1.00  0.00    -0.200 F 
ENDBRANCH  60  83
ENDBRANCH  34  35
ENDBRANCH  26  29
ENDBRANCH  24  25
ENDBRANCH  23  24
ENDBRANCH   1  23
TORSDOF 16
ENDMDL
MODEL 2
REMARK VINA RESULT:     -11.1      5.531     11.050
REMARK SMILES CC[C@@](O)(C(=O)NCCCNC(=O)c1ccc(-c2c3nc(c(-c4c(F)c(F)c(F)c(F)c4F)c4ccc([nH]4)c(-c4c(F)c(F)c(F)c(F)c4F)c4nc(c(-c5c(F)c(F)c(F)c(F)c5F)c5ccc2[nH]5)C=C4)C=C3)cc1)[C@@H](C)c1ccc(OC)c(OC)c1
REMARK SMILES IDX 8 1 7 2 5 3 6 4 3 6 2 7 1 8 4 9 77 11 78 12 79 13 80 14
REMARK SMILES IDX 88 15 81 16 85 17 82 18 86 19 87 20 83 21 84 22 9 23 10 24
REMARK SMILES IDX 11 25 12 26 13 28 14 29 15 30 76 31 16 32 75 33 17 34 18 35
REMARK SMILES IDX 19 36 69 37 20 38 74 39 68 40 70 41 21 42 73 43 67 44 66 45
REMARK SMILES IDX 22 47 54 48 34 49 53 50 35 51 38 52 52 53 71 54 36 55 37 56
REMARK SMILES IDX 51 58 72 59 39 60 23 61 24 62 32 63 25 64 26 65 30 66 33 67
REMARK SMILES IDX 27 68 28 69 31 70 29 71 55 72 56 73 64 74 57 75 58 76 62 77
REMARK SMILES IDX 65 78 59 79 60 80 63 81 61 82 40 83 41 84 49 85 42 86 43 87
REMARK SMILES IDX 47 88 50 89 44 90 45 91 48 92 46 93
REMARK H PARENT 7 5 4 10 11 27 70 46 38 57
REMARK Flexibility Score: inf
ROOT
ATOM      1  C   UNL A   1      31.166  30.915  26.246  1.00  0.00     0.117 C 
ENDROOT
BRANCH   1   2
ATOM      2  N   UNL A   1      32.034  30.431  25.179  1.00  0.00    -0.354 N 
ATOM      3  C   UNL A   1      32.830  29.318  25.097  1.00  0.00     0.252 C 
ATOM      4  O   UNL A   1      33.315  29.078  23.988  1.00  0.00    -0.272 OA
ATOM      5  H   UNL A   1      32.051  31.003  24.378  1.00  0.00     0.163 HD
BRANCH   3   6
ATOM      6  C   UNL A   1      33.103  28.408  26.351  1.00  0.00     0.149 C 
BRANCH   6   7
ATOM      7  C   UNL A   1      34.639  28.391  26.572  1.00  0.00     0.043 C 
ATOM      8  C   UNL A   1      35.271  29.458  27.447  1.00  0.00     0.007 C 
ENDBRANCH   6   7
BRANCH   6   9
ATOM      9  O   UNL A   1      32.431  29.084  27.426  1.00  0.00    -0.379 OA
ATOM     10  H   UNL A   1      33.083  29.548  27.975  1.00  0.00     0.212 HD
ENDBRANCH   6   9
BRANCH   6  11
ATOM     11  C   UNL A   1      32.451  26.976  26.143  1.00  0.00     0.058 C 
ATOM     12  C   UNL A   1      30.986  27.113  25.660  1.00  0.00     0.016 C 
BRANCH  11  13
ATOM     13  C   UNL A   1      33.194  25.946  25.259  1.00  0.00    -0.038 A 
ATOM     14  C   UNL A   1      34.020  24.939  25.767  1.00  0.00     0.008 A 
ATOM     15  C   UNL A   1      33.065  25.995  23.856  1.00  0.00     0.054 A 
ATOM     16  C   UNL A   1      34.794  24.138  24.932  1.00  0.00     0.051 A 
ATOM     17  C   UNL A   1      33.810  25.160  22.994  1.00  0.00     0.160 A 
ATOM     18  C   UNL A   1      34.722  24.253  23.546  1.00  0.00     0.160 A 
BRANCH  17  19
ATOM     19  O   UNL A   1      33.726  25.266  21.632  1.00  0.00    -0.493 OA
ATOM     20  C   UNL A   1      32.464  25.665  21.105  1.00  0.00     0.278 C 
ENDBRANCH  17  19
BRANCH  18  21
ATOM     21  O   UNL A   1      35.610  23.424  22.919  1.00  0.00    -0.493 OA
ATOM     22  C   UNL A   1      36.730  22.955  23.648  1.00  0.00     0.278 C 
ENDBRANCH  18  21
ENDBRANCH  11  13
ENDBRANCH   6  11
ENDBRANCH   3   6
ENDBRANCH   1   2
BRANCH   1  23
ATOM     23  C   UNL A   1      31.291  32.414  26.497  1.00  0.00     0.042 C 
BRANCH  23  24
ATOM     24  C   UNL A   1      32.536  32.816  27.270  1.00  0.00     0.118 C 
BRANCH  24  25
ATOM     25  N   UNL A   1      32.520  34.217  27.658  1.00  0.00    -0.352 N 
ATOM     26  C   UNL A   1      33.226  34.872  28.633  1.00  0.00     0.251 C 
ATOM     27  H   UNL A   1      31.905  34.784  27.139  1.00  0.00     0.163 HD
ATOM     28  O   UNL A   1      32.909  36.024  28.938  1.00  0.00    -0.269 OA
BRANCH  26  29
ATOM     29  C   UNL A   1      34.352  34.218  29.335  1.00  0.00     0.039 A 
ATOM     30  C   UNL A   1      35.656  34.465  28.894  1.00  0.00     0.014 A 
ATOM     31  C   UNL A   1      34.137  33.328  30.392  1.00  0.00     0.014 A 
ATOM     32  C   UNL A   1      36.738  33.865  29.543  1.00  0.00     0.010 A 
ATOM     33  C   UNL A   1      35.217  32.805  31.096  1.00  0.00     0.010 A 
ATOM     34  C   UNL A   1      36.529  33.054  30.669  1.00  0.00    -0.014 A 
BRANCH  34  35
ATOM     35  C   UNL A   1      37.666  32.432  31.394  1.00  0.00     0.031 A 
ATOM     36  C   UNL A   1      38.414  31.281  30.776  1.00  0.00     0.074 A 
ATOM     37  C   UNL A   1      37.988  32.859  32.630  1.00  0.00     0.049 A 
ATOM     38  N   UNL A   1      39.388  30.560  31.276  1.00  0.00    -0.248 NA
ATOM     39  C   UNL A   1      37.992  30.864  29.429  1.00  0.00     0.031 C 
ATOM     40  C   UNL A   1      37.308  33.933  33.357  1.00  0.00     0.029 A 
ATOM     41  N   UNL A   1      38.964  32.437  33.498  1.00  0.00    -0.354 N 
ATOM     42  C   UNL A   1      39.675  29.598  30.317  1.00  0.00     0.074 A 
ATOM     43  C   UNL A   1      38.742  29.791  29.228  1.00  0.00     0.031 C 
ATOM     44  C   UNL A   1      37.903  34.102  34.548  1.00  0.00     0.029 A 
ATOM     45  C   UNL A   1      38.981  33.128  34.685  1.00  0.00     0.049 A 
ATOM     46  H   UNL A   1      39.591  31.707  33.289  1.00  0.00     0.167 HD
ATOM     47  C   UNL A   1      40.648  28.654  30.329  1.00  0.00     0.037 A 
ATOM     48  C   UNL A   1      39.776  32.988  35.762  1.00  0.00     0.037 A 
ATOM     49  C   UNL A   1      41.599  28.489  31.395  1.00  0.00     0.049 A 
ATOM     50  C   UNL A   1      40.855  31.938  35.747  1.00  0.00     0.074 A 
ATOM     51  C   UNL A   1      42.665  27.609  31.474  1.00  0.00     0.029 A 
ATOM     52  N   UNL A   1      41.600  29.225  32.571  1.00  0.00    -0.354 N 
ATOM     53  N   UNL A   1      41.162  31.079  34.805  1.00  0.00    -0.248 NA
ATOM     54  C   UNL A   1      41.703  31.845  36.943  1.00  0.00     0.031 C 
ATOM     55  C   UNL A   1      43.285  27.784  32.715  1.00  0.00     0.029 A 
ATOM     56  C   UNL A   1      42.636  28.805  33.391  1.00  0.00     0.049 A 
ATOM     57  H   UNL A   1      40.960  29.940  32.792  1.00  0.00     0.167 HD
ATOM     58  C   UNL A   1      42.253  30.366  35.281  1.00  0.00     0.074 A 
ATOM     59  C   UNL A   1      42.564  30.901  36.589  1.00  0.00     0.031 C 
ATOM     60  C   UNL A   1      42.937  29.357  34.686  1.00  0.00     0.037 A 
BRANCH  47  61
ATOM     61  C   UNL A   1      40.734  27.731  29.149  1.00  0.00     0.064 A 
ATOM     62  C   UNL A   1      39.880  26.625  29.014  1.00  0.00     0.173 A 
ATOM     63  C   UNL A   1      41.662  27.970  28.124  1.00  0.00     0.173 A 
ATOM     64  F   UNL A   1      38.984  26.345  29.972  1.00  0.00    -0.203 F 
ATOM     65  C   UNL A   1      39.973  25.777  27.914  1.00  0.00     0.198 A 
ATOM     66  C   UNL A   1      41.731  27.137  27.010  1.00  0.00     0.198 A 
ATOM     67  F   UNL A   1      42.499  29.017  28.199  1.00  0.00    -0.203 F 
ATOM     68  F   UNL A   1      39.182  24.697  27.834  1.00  0.00    -0.200 F 
ATOM     69  C   UNL A   1      40.893  26.037  26.910  1.00  0.00     0.200 A 
ATOM     70  F   UNL A   1      42.612  27.397  26.034  1.00  0.00    -0.200 F 
ATOM     71  F   UNL A   1      40.978  25.222  25.849  1.00  0.00    -0.200 F 
ENDBRANCH  47  61
BRANCH  48  72
ATOM     72  C   UNL A   1      39.605  33.886  36.933  1.00  0.00     0.064 A 
ATOM     73  C   UNL A   1      38.828  33.491  38.031  1.00  0.00     0.173 A 
ATOM     74  C   UNL A   1      40.207  35.151  36.979  1.00  0.00     0.173 A 
ATOM     75  F   UNL A   1      38.215  32.299  38.023  1.00  0.00    -0.203 F 
ATOM     76  C   UNL A   1      38.644  34.337  39.123  1.00  0.00     0.198 A 
ATOM     77  C   UNL A   1      40.045  35.984  38.084  1.00  0.00     0.198 A 
ATOM     78  F   UNL A   1      40.964  35.573  35.955  1.00  0.00    -0.203 F 
ATOM     79  F   UNL A   1      37.861  33.952  40.140  1.00  0.00    -0.200 F 
ATOM     80  C   UNL A   1      39.258  35.579  39.152  1.00  0.00     0.200 A 
ATOM     81  F   UNL A   1      40.650  37.179  38.114  1.00  0.00    -0.200 F 
ATOM     82  F   UNL A   1      39.083  36.391  40.203  1.00  0.00    -0.200 F 
ENDBRANCH  48  72
BRANCH  60  83
ATOM     83  C   UNL A   1      44.111  28.792  35.431  1.00  0.00     0.064 A 
ATOM     84  C   UNL A   1      45.407  29.296  35.252  1.00  0.00     0.173 A 
ATOM     85  C   UNL A   1      43.929  27.757  36.361  1.00  0.00     0.173 A 
ATOM     86  F   UNL A   1      45.635  30.275  34.363  1.00  0.00    -0.203 F 
ATOM     87  C   UNL A   1      46.483  28.767  35.960  1.00  0.00     0.198 A 
ATOM     88  C   UNL A   1      45.001  27.251  37.087  1.00  0.00     0.198 A 
ATOM     89  F   UNL A   1      42.707  27.245  36.572  1.00  0.00    -0.203 F 
ATOM     90  F   UNL A   1      47.721  29.232  35.739  1.00  0.00    -0.200 F 
ATOM     91  C   UNL A   1      46.279  27.750  36.881  1.00  0.00     0.200 A 
ATOM     92  F   UNL A   1      44.800  26.277  37.986  1.00  0.00    -0.200 F 
ATOM     93  F   UNL A   1      47.315  27.246  37.566  1.00  0.00    -0.200 F 
ENDBRANCH  60  83
ENDBRANCH  34  35
ENDBRANCH  26  29
ENDBRANCH  24  25
ENDBRANCH  23  24
ENDBRANCH   1  23
TORSDOF 16
ENDMDL
MODEL 3
REMARK VINA RESULT:     -11.1      5.238      9.525
REMARK SMILES CC[C@@](O)(C(=O)NCCCNC(=O)c1ccc(-c2c3nc(c(-c4c(F)c(F)c(F)c(F)c4F)c4ccc([nH]4)c(-c4c(F)c(F)c(F)c(F)c4F)c4nc(c(-c5c(F)c(F)c(F)c(F)c5F)c5ccc2[nH]5)C=C4)C=C3)cc1)[C@@H](C)c1ccc(OC)c(OC)c1
REMARK SMILES IDX 8 1 7 2 5 3 6 4 3 6 2 7 1 8 4 9 77 11 78 12 79 13 80 14
REMARK SMILES IDX 88 15 81 16 85 17 82 18 86 19 87 20 83 21 84 22 9 23 10 24
REMARK SMILES IDX 11 25 12 26 13 28 14 29 15 30 76 31 16 32 75 33 17 34 18 35
REMARK SMILES IDX 19 36 69 37 20 38 74 39 68 40 70 41 21 42 73 43 67 44 66 45
REMARK SMILES IDX 22 47 54 48 34 49 53 50 35 51 38 52 52 53 71 54 36 55 37 56
REMARK SMILES IDX 51 58 72 59 39 60 23 61 24 62 32 63 25 64 26 65 30 66 33 67
REMARK SMILES IDX 27 68 28 69 31 70 29 71 55 72 56 73 64 74 57 75 58 76 62 77
REMARK SMILES IDX 65 78 59 79 60 80 63 81 61 82 40 83 41 84 49 85 42 86 43 87
REMARK SMILES IDX 47 88 50 89 44 90 45 91 48 92 46 93
REMARK H PARENT 7 5 4 10 11 27 70 46 38 57
REMARK Flexibility Score: inf
ROOT
ATOM      1  C   UNL A   1      31.471  30.962  26.574  1.00  0.00     0.117 C 
ENDROOT
BRANCH   1   2
ATOM      2  N   UNL A   1      31.298  30.413  25.234  1.00  0.00    -0.354 N 
ATOM      3  C   UNL A   1      31.643  29.197  24.705  1.00  0.00     0.252 C 
ATOM      4  O   UNL A   1      31.204  28.951  23.578  1.00  0.00    -0.272 OA
ATOM      5  H   UNL A   1      30.856  31.023  24.600  1.00  0.00     0.163 HD
BRANCH   3   6
ATOM      6  C   UNL A   1      32.548  28.182  25.497  1.00  0.00     0.149 C 
BRANCH   6   7
ATOM      7  C   UNL A   1      33.898  28.896  25.768  1.00  0.00     0.043 C 
ATOM      8  C   UNL A   1      34.475  28.876  27.172  1.00  0.00     0.007 C 
ENDBRANCH   6   7
BRANCH   6   9
ATOM      9  O   UNL A   1      31.827  27.951  26.718  1.00  0.00    -0.379 OA
ATOM     10  H   UNL A   1      30.903  27.737  26.513  1.00  0.00     0.212 HD
ENDBRANCH   6   9
BRANCH   6  11
ATOM     11  C   UNL A   1      32.674  26.817  24.695  1.00  0.00     0.058 C 
ATOM     12  C   UNL A   1      33.646  26.979  23.500  1.00  0.00     0.016 C 
BRANCH  11  13
ATOM     13  C   UNL A   1      33.024  25.529  25.478  1.00  0.00    -0.038 A 
ATOM     14  C   UNL A   1      34.297  24.952  25.493  1.00  0.00     0.008 A 
ATOM     15  C   UNL A   1      32.030  24.864  26.226  1.00  0.00     0.054 A 
ATOM     16  C   UNL A   1      34.529  23.710  26.078  1.00  0.00     0.051 A 
ATOM     17  C   UNL A   1      32.261  23.624  26.861  1.00  0.00     0.160 A 
ATOM     18  C   UNL A   1      33.518  23.020  26.741  1.00  0.00     0.160 A 
BRANCH  17  19
ATOM     19  O   UNL A   1      31.267  22.956  27.525  1.00  0.00    -0.493 OA
ATOM     20  C   UNL A   1      29.981  22.964  26.914  1.00  0.00     0.278 C 
ENDBRANCH  17  19
BRANCH  18  21
ATOM     21  O   UNL A   1      33.938  21.796  27.180  1.00  0.00    -0.493 OA
ATOM     22  C   UNL A   1      33.597  20.650  26.420  1.00  0.00     0.278 C 
ENDBRANCH  18  21
ENDBRANCH  11  13
ENDBRANCH   6  11
ENDBRANCH   3   6
ENDBRANCH   1   2
BRANCH   1  23
ATOM     23  C   UNL A   1      31.418  32.485  26.618  1.00  0.00     0.042 C 
BRANCH  23  24
ATOM     24  C   UNL A   1      32.731  33.145  27.000  1.00  0.00     0.118 C 
BRANCH  24  25
ATOM     25  N   UNL A   1      32.537  34.396  27.717  1.00  0.00    -0.352 N 
ATOM     26  C   UNL A   1      33.122  34.855  28.868  1.00  0.00     0.251 C 
ATOM     27  H   UNL A   1      31.882  35.009  27.311  1.00  0.00     0.163 HD
ATOM     28  O   UNL A   1      32.660  35.855  29.422  1.00  0.00    -0.269 OA
BRANCH  26  29
ATOM     29  C   UNL A   1      34.287  34.165  29.464  1.00  0.00     0.039 A 
ATOM     30  C   UNL A   1      34.063  33.162  30.413  1.00  0.00     0.014 A 
ATOM     31  C   UNL A   1      35.596  34.525  29.133  1.00  0.00     0.014 A 
ATOM     32  C   UNL A   1      35.145  32.489  30.986  1.00  0.00     0.010 A 
ATOM     33  C   UNL A   1      36.669  33.792  29.634  1.00  0.00     0.010 A 
ATOM     34  C   UNL A   1      36.457  32.778  30.578  1.00  0.00    -0.014 A 
BRANCH  34  35
ATOM     35  C   UNL A   1      37.620  32.054  31.150  1.00  0.00     0.031 A 
ATOM     36  C   UNL A   1      38.115  32.394  32.531  1.00  0.00     0.074 A 
ATOM     37  C   UNL A   1      38.269  31.136  30.409  1.00  0.00     0.049 A 
ATOM     38  N   UNL A   1      39.152  31.926  33.179  1.00  0.00    -0.248 NA
ATOM     39  C   UNL A   1      37.360  33.418  33.270  1.00  0.00     0.031 C 
ATOM     40  C   UNL A   1      37.917  30.752  29.040  1.00  0.00     0.029 A 
ATOM     41  N   UNL A   1      39.365  30.362  30.699  1.00  0.00    -0.354 N 
ATOM     42  C   UNL A   1      39.184  32.613  34.386  1.00  0.00     0.074 A 
ATOM     43  C   UNL A   1      38.096  33.566  34.361  1.00  0.00     0.031 C 
ATOM     44  C   UNL A   1      38.765  29.800  28.619  1.00  0.00     0.029 A 
ATOM     45  C   UNL A   1      39.739  29.531  29.672  1.00  0.00     0.049 A 
ATOM     46  H   UNL A   1      39.838  30.402  31.562  1.00  0.00     0.167 HD
ATOM     47  C   UNL A   1      40.029  32.446  35.432  1.00  0.00     0.037 A 
ATOM     48  C   UNL A   1      40.756  28.652  29.590  1.00  0.00     0.037 A 
ATOM     49  C   UNL A   1      41.087  31.472  35.470  1.00  0.00     0.049 A 
ATOM     50  C   UNL A   1      41.674  28.480  30.770  1.00  0.00     0.074 A 
ATOM     51  C   UNL A   1      41.953  31.177  36.508  1.00  0.00     0.029 A 
ATOM     52  N   UNL A   1      41.419  30.629  34.419  1.00  0.00    -0.354 N 
ATOM     53  N   UNL A   1      41.652  29.086  31.932  1.00  0.00    -0.248 NA
ATOM     54  C   UNL A   1      42.754  27.493  30.628  1.00  0.00     0.031 C 
ATOM     55  C   UNL A   1      42.837  30.184  36.070  1.00  0.00     0.029 A 
ATOM     56  C   UNL A   1      42.492  29.828  34.777  1.00  0.00     0.049 A 
ATOM     57  H   UNL A   1      40.961  30.604  33.547  1.00  0.00     0.167 HD
ATOM     58  C   UNL A   1      42.692  28.535  32.669  1.00  0.00     0.074 A 
ATOM     59  C   UNL A   1      43.317  27.537  31.827  1.00  0.00     0.031 C 
ATOM     60  C   UNL A   1      43.094  28.831  33.930  1.00  0.00     0.037 A 
BRANCH  47  61
ATOM     61  C   UNL A   1      39.838  33.335  36.626  1.00  0.00     0.064 A 
ATOM     62  C   UNL A   1      40.578  34.517  36.792  1.00  0.00     0.173 A 
ATOM     63  C   UNL A   1      38.883  33.019  37.604  1.00  0.00     0.173 A 
ATOM     64  F   UNL A   1      41.513  34.858  35.892  1.00  0.00    -0.203 F 
ATOM     65  C   UNL A   1      40.391  35.331  37.905  1.00  0.00     0.198 A 
ATOM     66  C   UNL A   1      38.677  33.852  38.701  1.00  0.00     0.198 A 
ATOM     67  F   UNL A   1      38.144  31.904  37.493  1.00  0.00    -0.203 F 
ATOM     68  F   UNL A   1      41.146  36.426  38.067  1.00  0.00    -0.200 F 
ATOM     69  C   UNL A   1      39.436  35.002  38.855  1.00  0.00     0.200 A 
ATOM     70  F   UNL A   1      37.744  33.539  39.613  1.00  0.00    -0.200 F 
ATOM     71  F   UNL A   1      39.253  35.789  39.924  1.00  0.00    -0.200 F 
ENDBRANCH  47  61
BRANCH  48  72
ATOM     72  C   UNL A   1      40.940  27.843  28.358  1.00  0.00     0.064 A 
ATOM     73  C   UNL A   1      40.331  26.588  28.227  1.00  0.00     0.173 A 
ATOM     74  C   UNL A   1      41.726  28.303  27.291  1.00  0.00     0.173 A 
ATOM     75  F   UNL A   1      39.588  26.098  29.229  1.00  0.00    -0.203 F 
ATOM     76  C   UNL A   1      40.517  25.813  27.084  1.00  0.00     0.198 A 
ATOM     77  C   UNL A   1      41.888  27.539  26.137  1.00  0.00     0.198 A 
ATOM     78  F   UNL A   1      42.326  29.500  27.365  1.00  0.00    -0.203 F 
ATOM     79  F   UNL A   1      39.960  24.597  27.003  1.00  0.00    -0.200 F 
ATOM     80  C   UNL A   1      41.290  26.292  26.038  1.00  0.00     0.200 A 
ATOM     81  F   UNL A   1      42.626  28.010  25.122  1.00  0.00    -0.200 F 
ATOM     82  F   UNL A   1      41.466  25.548  24.937  1.00  0.00    -0.200 F 
ENDBRANCH  48  72
BRANCH  60  83
ATOM     83  C   UNL A   1      44.240  28.039  34.488  1.00  0.00     0.064 A 
ATOM     84  C   UNL A   1      45.562  28.500  34.407  1.00  0.00     0.173 A 
ATOM     85  C   UNL A   1      44.006  26.821  35.144  1.00  0.00     0.173 A 
ATOM     86  F   UNL A   1      45.838  29.652  33.776  1.00  0.00    -0.203 F 
ATOM     87  C   UNL A   1      46.611  27.757  34.941  1.00  0.00     0.198 A 
ATOM     88  C   UNL A   1      45.054  26.096  35.701  1.00  0.00     0.198 A 
ATOM     89  F   UNL A   1      42.758  26.340  35.253  1.00  0.00    -0.203 F 
ATOM     90  F   UNL A   1      47.872  28.193  34.810  1.00  0.00    -0.200 F 
ATOM     91  C   UNL A   1      46.356  26.560  35.592  1.00  0.00     0.200 A 
ATOM     92  F   UNL A   1      44.804  24.945  36.341  1.00  0.00    -0.200 F 
ATOM     93  F   UNL A   1      47.368  25.849  36.110  1.00  0.00    -0.200 F 
ENDBRANCH  60  83
ENDBRANCH  34  35
ENDBRANCH  26  29
ENDBRANCH  24  25
ENDBRANCH  23  24
ENDBRANCH   1  23
TORSDOF 16
ENDMDL
