MODEL 1
REMARK VINA RESULT:     -12.8      0.000      0.000
REMARK SMILES C[C@@H]1[C@H](C(=O)NCCCNC(=O)c2ccc(-c3c4nc(c(-c5c(F)c(F)c(F)c(F)c5F)c5ccc([nH]5)c(-c5c(F)c(F)c(F)c(F)c5F)c5nc(c(-c6c(F)c(F)c(F)c(F)c6F)c6ccc3[nH]6)C=C5)C=C4)cc2)CCN1C(=O)/C=C/c1cccc(Br)c1
REMARK SMILES IDX 7 1 6 2 4 3 5 4 3 6 1 7 2 8 78 9 76 10 77 11 79 12 80 13
REMARK SMILES IDX 81 14 82 15 83 16 84 17 89 18 85 19 87 20 86 21 88 22 8 23
REMARK SMILES IDX 9 24 10 25 11 26 12 28 13 29 14 30 75 31 15 32 74 33 16 34
REMARK SMILES IDX 17 35 18 36 68 37 19 38 73 39 67 40 69 41 20 42 72 43 66 44
REMARK SMILES IDX 65 45 21 47 53 48 33 49 52 50 34 51 37 52 51 53 70 54 35 55
REMARK SMILES IDX 36 56 50 58 71 59 38 60 22 61 23 62 31 63 24 64 25 65 29 66
REMARK SMILES IDX 32 67 26 68 27 69 30 70 28 71 54 72 55 73 63 74 56 75 57 76
REMARK SMILES IDX 61 77 64 78 58 79 59 80 62 81 60 82 39 83 40 84 48 85 41 86
REMARK SMILES IDX 42 87 46 88 49 89 43 90 44 91 47 92 45 93
REMARK H PARENT 6 5 10 27 69 46 37 57
REMARK Flexibility Score: inf
ROOT
ATOM      1  C   UNL A   1      36.525  20.310  24.996  1.00  0.00     0.117 C 
ENDROOT
BRANCH   1   2
ATOM      2  N   UNL A   1      35.387  19.414  24.855  1.00  0.00    -0.356 N 
ATOM      3  C   UNL A   1      34.052  19.572  24.693  1.00  0.00     0.225 C 
ATOM      4  O   UNL A   1      33.402  18.519  24.628  1.00  0.00    -0.275 OA
ATOM      5  H   UNL A   1      35.651  18.465  24.884  1.00  0.00     0.163 HD
BRANCH   3   6
ATOM      6  C   UNL A   1      33.297  20.893  24.648  1.00  0.00     0.102 C 
ATOM      7  C   UNL A   1      33.704  21.257  27.164  1.00  0.00     0.032 C 
ATOM      8  C   UNL A   1      32.766  21.434  25.987  1.00  0.00     0.094 C 
ATOM      9  N   UNL A   1      32.510  22.857  25.719  1.00  0.00    -0.336 N 
ATOM     10  C   UNL A   1      33.911  22.096  23.949  1.00  0.00     0.037 C 
ATOM     11  C   UNL A   1      33.028  23.248  24.414  1.00  0.00     0.121 C 
BRANCH   9  12
ATOM     12  C   UNL A   1      31.873  23.798  26.502  1.00  0.00     0.246 C 
ATOM     13  O   UNL A   1      31.369  23.521  27.589  1.00  0.00    -0.270 OA
BRANCH  12  14
ATOM     14  C   UNL A   1      31.656  25.167  25.964  1.00  0.00     0.072 C 
ATOM     15  C   UNL A   1      31.770  26.298  26.675  1.00  0.00     0.014 C 
BRANCH  15  16
ATOM     16  C   UNL A   1      31.632  27.621  26.061  1.00  0.00    -0.024 A 
ATOM     17  C   UNL A   1      31.966  28.776  26.782  1.00  0.00     0.008 A 
ATOM     18  C   UNL A   1      31.135  27.744  24.762  1.00  0.00     0.023 A 
ATOM     19  C   UNL A   1      31.790  30.042  26.218  1.00  0.00     0.002 A 
ATOM     20  C   UNL A   1      30.954  29.012  24.207  1.00  0.00     0.018 A 
ATOM     21  C   UNL A   1      31.275  30.160  24.928  1.00  0.00     0.016 A 
ATOM     22  Br  UNL A   1      30.247  29.174  22.460  1.00  0.00    -0.051 Br
ENDBRANCH  15  16
ENDBRANCH  12  14
ENDBRANCH   9  12
ENDBRANCH   3   6
ENDBRANCH   1   2
BRANCH   1  23
ATOM     23  C   UNL A   1      37.878  19.603  24.874  1.00  0.00     0.042 C 
BRANCH  23  24
ATOM     24  C   UNL A   1      38.980  20.173  25.753  1.00  0.00     0.118 C 
BRANCH  24  25
ATOM     25  N   UNL A   1      40.041  19.208  25.976  1.00  0.00    -0.352 N 
ATOM     26  C   UNL A   1      41.393  19.400  26.123  1.00  0.00     0.251 C 
ATOM     27  H   UNL A   1      39.745  18.271  26.030  1.00  0.00     0.163 HD
ATOM     28  O   UNL A   1      42.146  18.436  26.027  1.00  0.00    -0.269 OA
BRANCH  26  29
ATOM     29  C   UNL A   1      41.964  20.746  26.388  1.00  0.00     0.039 A 
ATOM     30  C   UNL A   1      42.236  21.108  27.713  1.00  0.00     0.014 A 
ATOM     31  C   UNL A   1      42.146  21.685  25.371  1.00  0.00     0.014 A 
ATOM     32  C   UNL A   1      42.716  22.389  28.008  1.00  0.00     0.010 A 
ATOM     33  C   UNL A   1      42.704  22.933  25.656  1.00  0.00     0.010 A 
ATOM     34  C   UNL A   1      42.970  23.309  26.980  1.00  0.00    -0.014 A 
BRANCH  34  35
ATOM     35  C   UNL A   1      43.459  24.683  27.274  1.00  0.00     0.031 A 
ATOM     36  C   UNL A   1      42.515  25.715  27.836  1.00  0.00     0.074 A 
ATOM     37  C   UNL A   1      44.732  25.023  26.997  1.00  0.00     0.049 A 
ATOM     38  N   UNL A   1      42.724  26.984  28.085  1.00  0.00    -0.248 NA
ATOM     39  C   UNL A   1      41.145  25.266  28.131  1.00  0.00     0.031 C 
ATOM     40  C   UNL A   1      45.739  24.134  26.420  1.00  0.00     0.029 A 
ATOM     41  N   UNL A   1      45.395  26.216  27.157  1.00  0.00    -0.354 N 
ATOM     42  C   UNL A   1      41.510  27.486  28.539  1.00  0.00     0.074 A 
ATOM     43  C   UNL A   1      40.558  26.399  28.487  1.00  0.00     0.031 C 
ATOM     44  C   UNL A   1      46.897  24.802  26.295  1.00  0.00     0.029 A 
ATOM     45  C   UNL A   1      46.706  26.177  26.750  1.00  0.00     0.049 A 
ATOM     46  H   UNL A   1      44.970  27.022  27.528  1.00  0.00     0.167 HD
ATOM     47  C   UNL A   1      41.220  28.733  28.982  1.00  0.00     0.037 A 
ATOM     48  C   UNL A   1      47.647  27.141  26.742  1.00  0.00     0.037 A 
ATOM     49  C   UNL A   1      42.175  29.804  29.078  1.00  0.00     0.049 A 
ATOM     50  C   UNL A   1      47.304  28.513  27.253  1.00  0.00     0.074 A 
ATOM     51  C   UNL A   1      41.992  31.084  29.571  1.00  0.00     0.029 A 
ATOM     52  N   UNL A   1      43.501  29.715  28.679  1.00  0.00    -0.354 N 
ATOM     53  N   UNL A   1      46.166  28.960  27.724  1.00  0.00    -0.248 NA
ATOM     54  C   UNL A   1      48.380  29.516  27.235  1.00  0.00     0.031 C 
ATOM     55  C   UNL A   1      43.198  31.782  29.439  1.00  0.00     0.029 A 
ATOM     56  C   UNL A   1      44.143  30.923  28.902  1.00  0.00     0.049 A 
ATOM     57  H   UNL A   1      43.923  28.913  28.294  1.00  0.00     0.167 HD
ATOM     58  C   UNL A   1      46.394  30.282  28.083  1.00  0.00     0.074 A 
ATOM     59  C   UNL A   1      47.782  30.563  27.786  1.00  0.00     0.031 C 
ATOM     60  C   UNL A   1      45.529  31.182  28.611  1.00  0.00     0.037 A 
BRANCH  47  61
ATOM     61  C   UNL A   1      39.806  29.006  29.408  1.00  0.00     0.064 A 
ATOM     62  C   UNL A   1      38.842  29.466  28.499  1.00  0.00     0.173 A 
ATOM     63  C   UNL A   1      39.403  28.773  30.731  1.00  0.00     0.173 A 
ATOM     64  F   UNL A   1      39.179  29.716  27.225  1.00  0.00    -0.203 F 
ATOM     65  C   UNL A   1      37.532  29.710  28.906  1.00  0.00     0.198 A 
ATOM     66  C   UNL A   1      38.086  28.990  31.128  1.00  0.00     0.198 A 
ATOM     67  F   UNL A   1      40.285  28.327  31.639  1.00  0.00    -0.203 F 
ATOM     68  F   UNL A   1      36.640  30.196  28.033  1.00  0.00    -0.200 F 
ATOM     69  C   UNL A   1      37.154  29.466  30.218  1.00  0.00     0.200 A 
ATOM     70  F   UNL A   1      37.720  28.743  32.394  1.00  0.00    -0.200 F 
ATOM     71  F   UNL A   1      35.892  29.697  30.608  1.00  0.00    -0.200 F 
ENDBRANCH  47  61
BRANCH  48  72
ATOM     72  C   UNL A   1      49.018  26.832  26.260  1.00  0.00     0.064 A 
ATOM     73  C   UNL A   1      49.353  26.989  24.908  1.00  0.00     0.173 A 
ATOM     74  C   UNL A   1      50.015  26.377  27.133  1.00  0.00     0.173 A 
ATOM     75  F   UNL A   1      48.424  27.401  24.032  1.00  0.00    -0.203 F 
ATOM     76  C   UNL A   1      50.630  26.685  24.444  1.00  0.00     0.198 A 
ATOM     77  C   UNL A   1      51.300  26.097  26.671  1.00  0.00     0.198 A 
ATOM     78  F   UNL A   1      49.745  26.215  28.436  1.00  0.00    -0.203 F 
ATOM     79  F   UNL A   1      50.913  26.805  23.139  1.00  0.00    -0.200 F 
ATOM     80  C   UNL A   1      51.605  26.245  25.327  1.00  0.00     0.200 A 
ATOM     81  F   UNL A   1      52.242  25.683  27.530  1.00  0.00    -0.200 F 
ATOM     82  F   UNL A   1      52.835  25.956  24.881  1.00  0.00    -0.200 F 
ENDBRANCH  48  72
BRANCH  60  83
ATOM     83  C   UNL A   1      46.066  32.544  28.933  1.00  0.00     0.064 A 
ATOM     84  C   UNL A   1      46.011  33.593  28.004  1.00  0.00     0.173 A 
ATOM     85  C   UNL A   1      46.604  32.814  30.201  1.00  0.00     0.173 A 
ATOM     86  F   UNL A   1      45.519  33.381  26.775  1.00  0.00    -0.203 F 
ATOM     87  C   UNL A   1      46.494  34.859  28.327  1.00  0.00     0.198 A 
ATOM     88  C   UNL A   1      47.063  34.086  30.528  1.00  0.00     0.198 A 
ATOM     89  F   UNL A   1      46.673  31.844  31.126  1.00  0.00    -0.203 F 
ATOM     90  F   UNL A   1      46.469  35.837  27.410  1.00  0.00    -0.200 F 
ATOM     91  C   UNL A   1      47.014  35.106  29.589  1.00  0.00     0.200 A 
ATOM     92  F   UNL A   1      47.554  34.326  31.752  1.00  0.00    -0.200 F 
ATOM     93  F   UNL A   1      47.472  36.326  29.899  1.00  0.00    -0.200 F 
ENDBRANCH  60  83
ENDBRANCH  34  35
ENDBRANCH  26  29
ENDBRANCH  24  25
ENDBRANCH  23  24
ENDBRANCH   1  23
TORSDOF 13
ENDMDL
MODEL 2
REMARK VINA RESULT:     -12.8      5.767     11.403
REMARK SMILES C[C@@H]1[C@H](C(=O)NCCCNC(=O)c2ccc(-c3c4nc(c(-c5c(F)c(F)c(F)c(F)c5F)c5ccc([nH]5)c(-c5c(F)c(F)c(F)c(F)c5F)c5nc(c(-c6c(F)c(F)c(F)c(F)c6F)c6ccc3[nH]6)C=C5)C=C4)cc2)CCN1C(=O)/C=C/c1cccc(Br)c1
REMARK SMILES IDX 7 1 6 2 4 3 5 4 3 6 1 7 2 8 78 9 76 10 77 11 79 12 80 13
REMARK SMILES IDX 81 14 82 15 83 16 84 17 89 18 85 19 87 20 86 21 88 22 8 23
REMARK SMILES IDX 9 24 10 25 11 26 12 28 13 29 14 30 75 31 15 32 74 33 16 34
REMARK SMILES IDX 17 35 18 36 68 37 19 38 73 39 67 40 69 41 20 42 72 43 66 44
REMARK SMILES IDX 65 45 21 47 53 48 33 49 52 50 34 51 37 52 51 53 70 54 35 55
REMARK SMILES IDX 36 56 50 58 71 59 38 60 22 61 23 62 31 63 24 64 25 65 29 66
REMARK SMILES IDX 32 67 26 68 27 69 30 70 28 71 54 72 55 73 63 74 56 75 57 76
REMARK SMILES IDX 61 77 64 78 58 79 59 80 62 81 60 82 39 83 40 84 48 85 41 86
REMARK SMILES IDX 42 87 46 88 49 89 43 90 44 91 47 92 45 93
REMARK H PARENT 6 5 10 27 69 46 37 57
REMARK Flexibility Score: inf
ROOT
ATOM      1  C   UNL A   1      31.459  30.823  25.761  1.00  0.00     0.117 C 
ENDROOT
BRANCH   1   2
ATOM      2  N   UNL A   1      30.549  30.749  24.626  1.00  0.00    -0.356 N 
ATOM      3  C   UNL A   1      30.157  29.777  23.769  1.00  0.00     0.225 C 
ATOM      4  O   UNL A   1      29.349  30.136  22.902  1.00  0.00    -0.275 OA
ATOM      5  H   UNL A   1      30.115  31.613  24.437  1.00  0.00     0.163 HD
BRANCH   3   6
ATOM      6  C   UNL A   1      30.655  28.339  23.744  1.00  0.00     0.102 C 
ATOM      7  C   UNL A   1      32.879  29.087  22.686  1.00  0.00     0.032 C 
ATOM      8  C   UNL A   1      31.806  28.021  22.774  1.00  0.00     0.094 C 
ATOM      9  N   UNL A   1      32.354  26.752  23.275  1.00  0.00    -0.336 N 
ATOM     10  C   UNL A   1      31.026  27.640  25.043  1.00  0.00     0.037 C 
ATOM     11  C   UNL A   1      31.768  26.398  24.562  1.00  0.00     0.121 C 
BRANCH   9  12
ATOM     12  C   UNL A   1      33.288  25.912  22.705  1.00  0.00     0.246 C 
ATOM     13  O   UNL A   1      33.653  26.026  21.535  1.00  0.00    -0.270 OA
BRANCH  12  14
ATOM     14  C   UNL A   1      33.775  24.735  23.473  1.00  0.00     0.072 C 
ATOM     15  C   UNL A   1      33.986  23.516  22.957  1.00  0.00     0.014 C 
BRANCH  15  16
ATOM     16  C   UNL A   1      34.555  22.423  23.750  1.00  0.00    -0.024 A 
ATOM     17  C   UNL A   1      33.740  21.377  24.203  1.00  0.00     0.008 A 
ATOM     18  C   UNL A   1      35.910  22.433  24.088  1.00  0.00     0.023 A 
ATOM     19  C   UNL A   1      34.268  20.359  25.001  1.00  0.00     0.002 A 
ATOM     20  C   UNL A   1      36.430  21.417  24.891  1.00  0.00     0.018 A 
ATOM     21  C   UNL A   1      35.617  20.383  25.352  1.00  0.00     0.016 A 
ATOM     22  Br  UNL A   1      38.258  21.453  25.376  1.00  0.00    -0.051 Br
ENDBRANCH  15  16
ENDBRANCH  12  14
ENDBRANCH   9  12
ENDBRANCH   3   6
ENDBRANCH   1   2
BRANCH   1  23
ATOM     23  C   UNL A   1      31.303  32.102  26.587  1.00  0.00     0.042 C 
BRANCH  23  24
ATOM     24  C   UNL A   1      32.580  32.602  27.242  1.00  0.00     0.118 C 
BRANCH  24  25
ATOM     25  N   UNL A   1      32.505  34.018  27.553  1.00  0.00    -0.352 N 
ATOM     26  C   UNL A   1      33.109  34.734  28.558  1.00  0.00     0.251 C 
ATOM     27  H   UNL A   1      31.933  34.545  26.951  1.00  0.00     0.163 HD
ATOM     28  O   UNL A   1      32.700  35.863  28.813  1.00  0.00    -0.269 OA
BRANCH  26  29
ATOM     29  C   UNL A   1      34.236  34.172  29.346  1.00  0.00     0.039 A 
ATOM     30  C   UNL A   1      35.544  34.452  28.933  1.00  0.00     0.014 A 
ATOM     31  C   UNL A   1      34.028  33.305  30.421  1.00  0.00     0.014 A 
ATOM     32  C   UNL A   1      36.632  33.891  29.613  1.00  0.00     0.010 A 
ATOM     33  C   UNL A   1      35.112  32.813  31.150  1.00  0.00     0.010 A 
ATOM     34  C   UNL A   1      36.427  33.079  30.738  1.00  0.00    -0.014 A 
BRANCH  34  35
ATOM     35  C   UNL A   1      37.567  32.454  31.461  1.00  0.00     0.031 A 
ATOM     36  C   UNL A   1      38.314  31.301  30.840  1.00  0.00     0.074 A 
ATOM     37  C   UNL A   1      37.908  32.885  32.691  1.00  0.00     0.049 A 
ATOM     38  N   UNL A   1      39.280  30.571  31.339  1.00  0.00    -0.248 NA
ATOM     39  C   UNL A   1      37.897  30.898  29.487  1.00  0.00     0.031 C 
ATOM     40  C   UNL A   1      37.248  33.967  33.421  1.00  0.00     0.029 A 
ATOM     41  N   UNL A   1      38.893  32.457  33.548  1.00  0.00    -0.354 N 
ATOM     42  C   UNL A   1      39.567  29.612  30.375  1.00  0.00     0.074 A 
ATOM     43  C   UNL A   1      38.643  29.821  29.282  1.00  0.00     0.031 C 
ATOM     44  C   UNL A   1      37.859  34.134  34.605  1.00  0.00     0.029 A 
ATOM     45  C   UNL A   1      38.930  33.149  34.733  1.00  0.00     0.049 A 
ATOM     46  H   UNL A   1      39.512  31.723  33.333  1.00  0.00     0.167 HD
ATOM     47  C   UNL A   1      40.529  28.658  30.387  1.00  0.00     0.037 A 
ATOM     48  C   UNL A   1      39.736  33.005  35.803  1.00  0.00     0.037 A 
ATOM     49  C   UNL A   1      41.479  28.476  31.452  1.00  0.00     0.049 A 
ATOM     50  C   UNL A   1      40.805  31.948  35.787  1.00  0.00     0.074 A 
ATOM     51  C   UNL A   1      42.528  27.578  31.529  1.00  0.00     0.029 A 
ATOM     52  N   UNL A   1      41.499  29.216  32.625  1.00  0.00    -0.354 N 
ATOM     53  N   UNL A   1      41.096  31.080  34.849  1.00  0.00    -0.248 NA
ATOM     54  C   UNL A   1      41.663  31.854  36.978  1.00  0.00     0.031 C 
ATOM     55  C   UNL A   1      43.163  27.750  32.764  1.00  0.00     0.029 A 
ATOM     56  C   UNL A   1      42.534  28.784  33.438  1.00  0.00     0.049 A 
ATOM     57  H   UNL A   1      40.870  29.941  32.848  1.00  0.00     0.167 HD
ATOM     58  C   UNL A   1      42.183  30.357  35.322  1.00  0.00     0.074 A 
ATOM     59  C   UNL A   1      42.508  30.895  36.626  1.00  0.00     0.031 C 
ATOM     60  C   UNL A   1      42.851  29.339  34.728  1.00  0.00     0.037 A 
BRANCH  47  61
ATOM     61  C   UNL A   1      40.608  27.738  29.204  1.00  0.00     0.064 A 
ATOM     62  C   UNL A   1      39.771  26.618  29.087  1.00  0.00     0.173 A 
ATOM     63  C   UNL A   1      41.506  27.998  28.158  1.00  0.00     0.173 A 
ATOM     64  F   UNL A   1      38.903  26.319  30.065  1.00  0.00    -0.203 F 
ATOM     65  C   UNL A   1      39.852  25.775  27.981  1.00  0.00     0.198 A 
ATOM     66  C   UNL A   1      41.564  27.170  27.040  1.00  0.00     0.198 A 
ATOM     67  F   UNL A   1      42.325  29.060  28.217  1.00  0.00    -0.203 F 
ATOM     68  F   UNL A   1      39.077  24.684  27.914  1.00  0.00    -0.200 F 
ATOM     69  C   UNL A   1      40.743  26.055  26.956  1.00  0.00     0.200 A 
ATOM     70  F   UNL A   1      42.418  27.448  26.045  1.00  0.00    -0.200 F 
ATOM     71  F   UNL A   1      40.815  25.247  25.889  1.00  0.00    -0.200 F 
ENDBRANCH  47  61
BRANCH  48  72
ATOM     72  C   UNL A   1      39.580  33.908  36.973  1.00  0.00     0.064 A 
ATOM     73  C   UNL A   1      38.813  33.520  38.080  1.00  0.00     0.173 A 
ATOM     74  C   UNL A   1      40.190  35.170  37.009  1.00  0.00     0.173 A 
ATOM     75  F   UNL A   1      38.193  32.330  38.080  1.00  0.00    -0.203 F 
ATOM     76  C   UNL A   1      38.648  34.367  39.173  1.00  0.00     0.198 A 
ATOM     77  C   UNL A   1      40.044  36.006  38.114  1.00  0.00     0.198 A 
ATOM     78  F   UNL A   1      40.936  35.585  35.976  1.00  0.00    -0.203 F 
ATOM     79  F   UNL A   1      37.877  33.987  40.201  1.00  0.00    -0.200 F 
ATOM     80  C   UNL A   1      39.268  35.607  39.192  1.00  0.00     0.200 A 
ATOM     81  F   UNL A   1      40.654  37.199  38.133  1.00  0.00    -0.200 F 
ATOM     82  F   UNL A   1      39.111  36.421  40.245  1.00  0.00    -0.200 F 
ENDBRANCH  48  72
BRANCH  60  83
ATOM     83  C   UNL A   1      44.021  28.761  35.468  1.00  0.00     0.064 A 
ATOM     84  C   UNL A   1      43.870  27.686  36.356  1.00  0.00     0.173 A 
ATOM     85  C   UNL A   1      45.315  29.261  35.252  1.00  0.00     0.173 A 
ATOM     86  F   UNL A   1      42.652  27.184  36.606  1.00  0.00    -0.203 F 
ATOM     87  C   UNL A   1      44.970  27.146  37.017  1.00  0.00     0.198 A 
ATOM     88  C   UNL A   1      46.414  28.702  35.895  1.00  0.00     0.198 A 
ATOM     89  F   UNL A   1      45.511  30.284  34.407  1.00  0.00    -0.203 F 
ATOM     90  F   UNL A   1      44.798  26.147  37.893  1.00  0.00    -0.200 F 
ATOM     91  C   UNL A   1      46.241  27.651  36.783  1.00  0.00     0.200 A 
ATOM     92  F   UNL A   1      47.643  29.183  35.659  1.00  0.00    -0.200 F 
ATOM     93  F   UNL A   1      47.299  27.125  37.416  1.00  0.00    -0.200 F 
ENDBRANCH  60  83
ENDBRANCH  34  35
ENDBRANCH  26  29
ENDBRANCH  24  25
ENDBRANCH  23  24
ENDBRANCH   1  23
TORSDOF 13
ENDMDL
MODEL 3
REMARK VINA RESULT:     -12.6      5.287     10.060
REMARK SMILES C[C@@H]1[C@H](C(=O)NCCCNC(=O)c2ccc(-c3c4nc(c(-c5c(F)c(F)c(F)c(F)c5F)c5ccc([nH]5)c(-c5c(F)c(F)c(F)c(F)c5F)c5nc(c(-c6c(F)c(F)c(F)c(F)c6F)c6ccc3[nH]6)C=C5)C=C4)cc2)CCN1C(=O)/C=C/c1cccc(Br)c1
REMARK SMILES IDX 7 1 6 2 4 3 5 4 3 6 1 7 2 8 78 9 76 10 77 11 79 12 80 13
REMARK SMILES IDX 81 14 82 15 83 16 84 17 89 18 85 19 87 20 86 21 88 22 8 23
REMARK SMILES IDX 9 24 10 25 11 26 12 28 13 29 14 30 75 31 15 32 74 33 16 34
REMARK SMILES IDX 17 35 18 36 68 37 19 38 73 39 67 40 69 41 20 42 72 43 66 44
REMARK SMILES IDX 65 45 21 47 53 48 33 49 52 50 34 51 37 52 51 53 70 54 35 55
REMARK SMILES IDX 36 56 50 58 71 59 38 60 22 61 23 62 31 63 24 64 25 65 29 66
REMARK SMILES IDX 32 67 26 68 27 69 30 70 28 71 54 72 55 73 63 74 56 75 57 76
REMARK SMILES IDX 61 77 64 78 58 79 59 80 62 81 60 82 39 83 40 84 48 85 41 86
REMARK SMILES IDX 42 87 46 88 49 89 43 90 44 91 47 92 45 93
REMARK H PARENT 6 5 10 27 69 46 37 57
REMARK Flexibility Score: inf
ROOT
ATOM      1  C   UNL A   1      34.221  33.634  31.378  1.00  0.00     0.117 C 
ENDROOT
BRANCH   1   2
ATOM      2  N   UNL A   1      35.208  34.469  32.047  1.00  0.00    -0.356 N 
ATOM      3  C   UNL A   1      36.192  34.257  32.953  1.00  0.00     0.225 C 
ATOM      4  O   UNL A   1      36.820  35.270  33.292  1.00  0.00    -0.275 OA
ATOM      5  H   UNL A   1      35.145  35.415  31.777  1.00  0.00     0.163 HD
BRANCH   3   6
ATOM      6  C   UNL A   1      36.541  32.933  33.616  1.00  0.00     0.102 C 
ATOM      7  C   UNL A   1      37.988  32.259  31.595  1.00  0.00     0.032 C 
ATOM      8  C   UNL A   1      37.046  31.809  32.695  1.00  0.00     0.094 C 
ATOM      9  N   UNL A   1      37.708  30.868  33.611  1.00  0.00    -0.336 N 
ATOM     10  C   UNL A   1      37.471  32.907  34.820  1.00  0.00     0.037 C 
ATOM     11  C   UNL A   1      37.816  31.428  34.952  1.00  0.00     0.121 C 
BRANCH   9  12
ATOM     12  C   UNL A   1      38.196  29.601  33.367  1.00  0.00     0.246 C 
ATOM     13  O   UNL A   1      37.463  28.647  33.110  1.00  0.00    -0.270 OA
BRANCH  12  14
ATOM     14  C   UNL A   1      39.646  29.329  33.559  1.00  0.00     0.072 C 
ATOM     15  C   UNL A   1      40.330  28.350  32.950  1.00  0.00     0.014 C 
BRANCH  15  16
ATOM     16  C   UNL A   1      41.778  28.195  33.112  1.00  0.00    -0.024 A 
ATOM     17  C   UNL A   1      42.510  27.397  32.222  1.00  0.00     0.008 A 
ATOM     18  C   UNL A   1      42.436  28.815  34.176  1.00  0.00     0.023 A 
ATOM     19  C   UNL A   1      43.882  27.206  32.402  1.00  0.00     0.002 A 
ATOM     20  C   UNL A   1      43.805  28.615  34.355  1.00  0.00     0.018 A 
ATOM     21  C   UNL A   1      44.531  27.812  33.477  1.00  0.00     0.016 A 
ATOM     22  Br  UNL A   1      44.685  29.428  35.818  1.00  0.00    -0.051 Br
ENDBRANCH  15  16
ENDBRANCH  12  14
ENDBRANCH   9  12
ENDBRANCH   3   6
ENDBRANCH   1   2
BRANCH   1  23
ATOM     23  C   UNL A   1      34.312  33.686  29.850  1.00  0.00     0.042 C 
BRANCH  23  24
ATOM     24  C   UNL A   1      35.233  32.648  29.228  1.00  0.00     0.118 C 
BRANCH  24  25
ATOM     25  N   UNL A   1      34.492  31.501  28.735  1.00  0.00    -0.352 N 
ATOM     26  C   UNL A   1      34.947  30.312  28.219  1.00  0.00     0.251 C 
ATOM     27  H   UNL A   1      33.513  31.590  28.776  1.00  0.00     0.163 HD
ATOM     28  O   UNL A   1      34.165  29.591  27.607  1.00  0.00    -0.269 OA
BRANCH  26  29
ATOM     29  C   UNL A   1      36.360  29.884  28.378  1.00  0.00     0.039 A 
ATOM     30  C   UNL A   1      36.756  29.326  29.599  1.00  0.00     0.014 A 
ATOM     31  C   UNL A   1      37.317  30.108  27.385  1.00  0.00     0.014 A 
ATOM     32  C   UNL A   1      38.093  28.967  29.809  1.00  0.00     0.010 A 
ATOM     33  C   UNL A   1      38.632  29.673  27.563  1.00  0.00     0.010 A 
ATOM     34  C   UNL A   1      39.041  29.122  28.787  1.00  0.00    -0.014 A 
BRANCH  34  35
ATOM     35  C   UNL A   1      40.471  28.769  28.996  1.00  0.00     0.031 A 
ATOM     36  C   UNL A   1      41.399  29.748  29.669  1.00  0.00     0.074 A 
ATOM     37  C   UNL A   1      40.952  27.595  28.546  1.00  0.00     0.049 A 
ATOM     38  N   UNL A   1      42.690  29.663  29.873  1.00  0.00    -0.248 NA
ATOM     39  C   UNL A   1      40.799  31.002  30.151  1.00  0.00     0.031 C 
ATOM     40  C   UNL A   1      40.172  26.572  27.849  1.00  0.00     0.029 A 
ATOM     41  N   UNL A   1      42.219  27.065  28.602  1.00  0.00    -0.354 N 
ATOM     42  C   UNL A   1      43.057  30.857  30.481  1.00  0.00     0.074 A 
ATOM     43  C   UNL A   1      41.864  31.670  30.570  1.00  0.00     0.031 C 
ATOM     44  C   UNL A   1      40.969  25.531  27.561  1.00  0.00     0.029 A 
ATOM     45  C   UNL A   1      42.324  25.825  28.023  1.00  0.00     0.049 A 
ATOM     46  H   UNL A   1      42.979  27.532  29.018  1.00  0.00     0.167 HD
ATOM     47  C   UNL A   1      44.272  31.236  30.945  1.00  0.00     0.037 A 
ATOM     48  C   UNL A   1      43.392  25.017  27.877  1.00  0.00     0.037 A 
ATOM     49  C   UNL A   1      45.451  30.412  30.899  1.00  0.00     0.049 A 
ATOM     50  C   UNL A   1      44.728  25.453  28.413  1.00  0.00     0.074 A 
ATOM     51  C   UNL A   1      46.714  30.682  31.397  1.00  0.00     0.029 A 
ATOM     52  N   UNL A   1      45.509  29.151  30.326  1.00  0.00    -0.354 N 
ATOM     53  N   UNL A   1      45.049  26.564  29.029  1.00  0.00    -0.248 NA
ATOM     54  C   UNL A   1      45.849  24.518  28.239  1.00  0.00     0.031 C 
ATOM     55  C   UNL A   1      47.545  29.598  31.096  1.00  0.00     0.029 A 
ATOM     56  C   UNL A   1      46.790  28.636  30.446  1.00  0.00     0.049 A 
ATOM     57  H   UNL A   1      44.753  28.689  29.896  1.00  0.00     0.167 HD
ATOM     58  C   UNL A   1      46.398  26.452  29.339  1.00  0.00     0.074 A 
ATOM     59  C   UNL A   1      46.833  25.160  28.854  1.00  0.00     0.031 C 
ATOM     60  C   UNL A   1      47.203  27.342  29.969  1.00  0.00     0.037 A 
BRANCH  47  61
ATOM     61  C   UNL A   1      44.388  32.603  31.554  1.00  0.00     0.064 A 
ATOM     62  C   UNL A   1      44.138  32.823  32.917  1.00  0.00     0.173 A 
ATOM     63  C   UNL A   1      44.786  33.698  30.774  1.00  0.00     0.173 A 
ATOM     64  F   UNL A   1      43.743  31.811  33.704  1.00  0.00    -0.203 F 
ATOM     65  C   UNL A   1      44.254  34.096  33.470  1.00  0.00     0.198 A 
ATOM     66  C   UNL A   1      44.930  34.964  31.337  1.00  0.00     0.198 A 
ATOM     67  F   UNL A   1      45.043  33.541  29.466  1.00  0.00    -0.203 F 
ATOM     68  F   UNL A   1      43.964  34.292  34.764  1.00  0.00    -0.200 F 
ATOM     69  C   UNL A   1      44.656  35.164  32.682  1.00  0.00     0.200 A 
ATOM     70  F   UNL A   1      45.329  35.993  30.575  1.00  0.00    -0.200 F 
ATOM     71  F   UNL A   1      44.773  36.387  33.216  1.00  0.00    -0.200 F 
ENDBRANCH  47  61
BRANCH  48  72
ATOM     72  C   UNL A   1      43.235  23.695  27.217  1.00  0.00     0.064 A 
ATOM     73  C   UNL A   1      43.656  23.500  25.895  1.00  0.00     0.173 A 
ATOM     74  C   UNL A   1      42.663  22.606  27.890  1.00  0.00     0.173 A 
ATOM     75  F   UNL A   1      44.189  24.520  25.205  1.00  0.00    -0.203 F 
ATOM     76  C   UNL A   1      43.497  22.269  25.263  1.00  0.00     0.198 A 
ATOM     77  C   UNL A   1      42.526  21.368  27.264  1.00  0.00     0.198 A 
ATOM     78  F   UNL A   1      42.248  22.741  29.157  1.00  0.00    -0.203 F 
ATOM     79  F   UNL A   1      43.872  22.121  23.985  1.00  0.00    -0.200 F 
ATOM     80  C   UNL A   1      42.937  21.202  25.950  1.00  0.00     0.200 A 
ATOM     81  F   UNL A   1      41.996  20.336  27.936  1.00  0.00    -0.200 F 
ATOM     82  F   UNL A   1      42.787  20.017  25.343  1.00  0.00    -0.200 F 
ENDBRANCH  48  72
BRANCH  60  83
ATOM     83  C   UNL A   1      48.628  26.936  30.200  1.00  0.00     0.064 A 
ATOM     84  C   UNL A   1      49.646  27.286  29.302  1.00  0.00     0.173 A 
ATOM     85  C   UNL A   1      48.985  26.223  31.355  1.00  0.00     0.173 A 
ATOM     86  F   UNL A   1      49.353  27.955  28.177  1.00  0.00    -0.203 F 
ATOM     87  C   UNL A   1      50.968  26.921  29.542  1.00  0.00     0.198 A 
ATOM     88  C   UNL A   1      50.310  25.881  31.604  1.00  0.00     0.198 A 
ATOM     89  F   UNL A   1      48.047  25.869  32.247  1.00  0.00    -0.203 F 
ATOM     90  F   UNL A   1      51.920  27.231  28.651  1.00  0.00    -0.200 F 
ATOM     91  C   UNL A   1      51.300  26.224  30.695  1.00  0.00     0.200 A 
ATOM     92  F   UNL A   1      50.631  25.217  32.724  1.00  0.00    -0.200 F 
ATOM     93  F   UNL A   1      52.574  25.878  30.928  1.00  0.00    -0.200 F 
ENDBRANCH  60  83
ENDBRANCH  34  35
ENDBRANCH  26  29
ENDBRANCH  24  25
ENDBRANCH  23  24
ENDBRANCH   1  23
TORSDOF 13
ENDMDL
