MODEL 1
REMARK VINA RESULT:     -14.2      0.000      0.000
REMARK SMILES O=C(N/N=C\c1ccccc1C(=O)NCCCNC(=O)c1ccc(-c2c3nc(c(-c4c(F)c(F)c(F)c(F)c4F)c4ccc([nH]4)c(-c4c(F)c(F)c(F)c(F)c4F)c4nc(c(-c5c(F)c(F)c(F)c(F)c5F)c5ccc2[nH]5)C=C4)C=C3)cc1)C(=O)N1CCCCC1
REMARK SMILES IDX 15 1 14 2 12 3 13 4 11 6 6 7 7 8 8 9 10 10 9 11 5 12 4 13
REMARK SMILES IDX 3 14 1 15 2 16 84 18 85 19 86 20 87 21 91 22 88 23 90 24
REMARK SMILES IDX 89 25 16 26 17 27 18 28 19 29 20 31 21 32 22 33 83 34 23 35
REMARK SMILES IDX 82 36 24 37 25 38 26 39 76 40 27 41 81 42 75 43 77 44 28 45
REMARK SMILES IDX 80 46 74 47 73 48 29 50 61 51 41 52 60 53 42 54 45 55 59 56
REMARK SMILES IDX 78 57 43 58 44 59 58 61 79 62 46 63 30 64 31 65 39 66 32 67
REMARK SMILES IDX 33 68 37 69 40 70 34 71 35 72 38 73 36 74 62 75 63 76 71 77
REMARK SMILES IDX 64 78 65 79 69 80 72 81 66 82 67 83 70 84 68 85 47 86 48 87
REMARK SMILES IDX 56 88 49 89 50 90 54 91 57 92 51 93 52 94 55 95 53 96
REMARK H PARENT 14 5 3 17 18 30 77 49 45 60
REMARK Flexibility Score: inf
ROOT
ATOM      1  C   UNL A   1      37.018  21.673  25.109  1.00  0.00     0.118 C 
ENDROOT
BRANCH   1   2
ATOM      2  N   UNL A   1      36.257  21.688  26.307  1.00  0.00    -0.352 N 
ATOM      3  C   UNL A   1      34.911  21.800  26.419  1.00  0.00     0.251 C 
ATOM      4  O   UNL A   1      34.430  21.932  27.541  1.00  0.00    -0.269 OA
ATOM      5  H   UNL A   1      36.762  21.607  27.149  1.00  0.00     0.163 HD
BRANCH   3   6
ATOM      6  C   UNL A   1      34.008  21.823  25.244  1.00  0.00     0.048 A 
ATOM      7  C   UNL A   1      33.771  23.124  23.971  1.00  0.00     0.007 A 
ATOM      8  C   UNL A   1      32.882  22.746  22.401  1.00  0.00     0.010 A 
ATOM      9  C   UNL A   1      32.078  21.144  22.205  1.00  0.00     0.001 A 
ATOM     10  C   UNL A   1      33.332  20.174  24.927  1.00  0.00     0.014 A 
ATOM     11  C   UNL A   1      32.289  19.856  23.461  1.00  0.00     0.001 A 
BRANCH   7  12
ATOM     12  C   UNL A   1      34.472  24.373  23.858  1.00  0.00     0.142 C 
ATOM     13  N   UNL A   1      33.970  25.386  24.449  1.00  0.00    -0.180 NA
BRANCH  13  14
ATOM     14  N   UNL A   1      32.783  25.142  25.064  1.00  0.00    -0.239 N 
ATOM     15  O   UNL A   1      31.029  25.368  26.356  1.00  0.00    -0.262 OA
ATOM     16  C   UNL A   1      31.725  25.957  25.511  1.00  0.00     0.329 C 
ATOM     17  H   UNL A   1      32.630  24.184  25.234  1.00  0.00     0.194 HD
BRANCH  16  18
ATOM     18  C   UNL A   1      31.191  27.560  25.024  1.00  0.00     0.313 C 
ATOM     19  O   UNL A   1      31.937  28.177  25.869  1.00  0.00    -0.263 OA
ATOM     20  N   UNL A   1      29.994  28.251  23.579  1.00  0.00    -0.334 N 
ATOM     21  C   UNL A   1      30.214  29.394  22.328  1.00  0.00     0.120 C 
ATOM     22  C   UNL A   1      28.376  27.865  23.129  1.00  0.00     0.120 C 
ATOM     23  C   UNL A   1      29.204  30.554  22.341  1.00  0.00     0.022 C 
ATOM     24  C   UNL A   1      27.439  29.075  23.239  1.00  0.00     0.022 C 
ATOM     25  C   UNL A   1      27.767  30.106  22.188  1.00  0.00     0.004 C 
ENDBRANCH  16  18
ENDBRANCH  13  14
ENDBRANCH   7  12
ENDBRANCH   3   6
ENDBRANCH   1   2
BRANCH   1  26
ATOM     26  C   UNL A   1      37.958  20.505  25.001  1.00  0.00     0.042 C 
BRANCH  26  27
ATOM     27  C   UNL A   1      39.097  20.656  25.967  1.00  0.00     0.118 C 
BRANCH  27  28
ATOM     28  N   UNL A   1      40.042  19.537  25.932  1.00  0.00    -0.352 N 
ATOM     29  C   UNL A   1      41.402  19.551  26.105  1.00  0.00     0.251 C 
ATOM     30  H   UNL A   1      39.646  18.653  25.758  1.00  0.00     0.163 HD
ATOM     31  O   UNL A   1      42.067  18.533  25.969  1.00  0.00    -0.269 OA
BRANCH  29  32
ATOM     32  C   UNL A   1      42.037  20.843  26.388  1.00  0.00     0.039 A 
ATOM     33  C   UNL A   1      42.265  21.724  25.334  1.00  0.00     0.014 A 
ATOM     34  C   UNL A   1      42.240  21.228  27.713  1.00  0.00     0.014 A 
ATOM     35  C   UNL A   1      42.632  23.031  25.627  1.00  0.00     0.010 A 
ATOM     36  C   UNL A   1      42.408  22.565  28.001  1.00  0.00     0.010 A 
ATOM     37  C   UNL A   1      42.658  23.469  26.962  1.00  0.00    -0.014 A 
BRANCH  37  38
ATOM     38  C   UNL A   1      43.032  24.851  27.316  1.00  0.00     0.031 A 
ATOM     39  C   UNL A   1      44.437  25.313  27.042  1.00  0.00     0.074 A 
ATOM     40  C   UNL A   1      42.136  25.653  27.922  1.00  0.00     0.049 A 
ATOM     41  N   UNL A   1      45.001  26.457  27.327  1.00  0.00    -0.248 NA
ATOM     42  C   UNL A   1      45.348  24.341  26.412  1.00  0.00     0.031 C 
ATOM     43  C   UNL A   1      40.769  25.276  28.289  1.00  0.00     0.029 A 
ATOM     44  N   UNL A   1      42.244  26.954  28.329  1.00  0.00    -0.354 N 
ATOM     45  C   UNL A   1      46.325  26.324  26.931  1.00  0.00     0.074 A 
ATOM     46  C   UNL A   1      46.510  24.964  26.490  1.00  0.00     0.031 C 
ATOM     47  C   UNL A   1      40.148  26.342  28.816  1.00  0.00     0.029 A 
ATOM     48  C   UNL A   1      41.086  27.457  28.868  1.00  0.00     0.049 A 
ATOM     49  H   UNL A   1      43.072  27.481  28.243  1.00  0.00     0.167 HD
ATOM     50  C   UNL A   1      47.290  27.269  26.891  1.00  0.00     0.037 A 
ATOM     51  C   UNL A   1      40.822  28.687  29.345  1.00  0.00     0.037 A 
ATOM     52  C   UNL A   1      47.076  28.628  27.299  1.00  0.00     0.049 A 
ATOM     53  C   UNL A   1      41.913  29.723  29.297  1.00  0.00     0.074 A 
ATOM     54  C   UNL A   1      47.956  29.692  27.258  1.00  0.00     0.029 A 
ATOM     55  N   UNL A   1      45.885  29.109  27.828  1.00  0.00    -0.354 N 
ATOM     56  N   UNL A   1      43.142  29.612  28.853  1.00  0.00    -0.248 NA
ATOM     57  C   UNL A   1      41.575  31.058  29.806  1.00  0.00     0.031 C 
ATOM     58  C   UNL A   1      47.319  30.802  27.820  1.00  0.00     0.029 A 
ATOM     59  C   UNL A   1      46.016  30.449  28.143  1.00  0.00     0.049 A 
ATOM     60  H   UNL A   1      45.068  28.574  27.962  1.00  0.00     0.167 HD
ATOM     61  C   UNL A   1      43.715  30.869  28.995  1.00  0.00     0.074 A 
ATOM     62  C   UNL A   1      42.691  31.728  29.555  1.00  0.00     0.031 C 
ATOM     63  C   UNL A   1      44.972  31.279  28.690  1.00  0.00     0.037 A 
BRANCH  50  64
ATOM     64  C   UNL A   1      48.644  26.854  26.390  1.00  0.00     0.064 A 
ATOM     65  C   UNL A   1      49.028  27.035  25.049  1.00  0.00     0.173 A 
ATOM     66  C   UNL A   1      49.568  26.254  27.257  1.00  0.00     0.173 A 
ATOM     67  F   UNL A   1      48.176  27.584  24.170  1.00  0.00    -0.203 F 
ATOM     68  C   UNL A   1      50.264  26.588  24.590  1.00  0.00     0.198 A 
ATOM     69  C   UNL A   1      50.821  25.848  26.803  1.00  0.00     0.198 A 
ATOM     70  F   UNL A   1      49.256  26.054  28.545  1.00  0.00    -0.203 F 
ATOM     71  F   UNL A   1      50.573  26.701  23.290  1.00  0.00    -0.200 F 
ATOM     72  C   UNL A   1      51.162  26.003  25.468  1.00  0.00     0.200 A 
ATOM     73  F   UNL A   1      51.692  25.293  27.656  1.00  0.00    -0.200 F 
ATOM     74  F   UNL A   1      52.353  25.576  25.025  1.00  0.00    -0.200 F 
ENDBRANCH  50  64
BRANCH  51  75
ATOM     75  C   UNL A   1      39.466  29.011  29.859  1.00  0.00     0.064 A 
ATOM     76  C   UNL A   1      39.127  28.775  31.199  1.00  0.00     0.173 A 
ATOM     77  C   UNL A   1      38.484  29.573  29.030  1.00  0.00     0.173 A 
ATOM     78  F   UNL A   1      40.027  28.230  32.031  1.00  0.00    -0.203 F 
ATOM     79  C   UNL A   1      37.852  29.062  31.682  1.00  0.00     0.198 A 
ATOM     80  C   UNL A   1      37.220  29.890  29.521  1.00  0.00     0.198 A 
ATOM     81  F   UNL A   1      38.759  29.833  27.743  1.00  0.00    -0.203 F 
ATOM     82  F   UNL A   1      37.542  28.782  32.955  1.00  0.00    -0.200 F 
ATOM     83  C   UNL A   1      36.900  29.625  30.845  1.00  0.00     0.200 A 
ATOM     84  F   UNL A   1      36.312  30.455  28.714  1.00  0.00    -0.200 F 
ATOM     85  F   UNL A   1      35.677  29.909  31.312  1.00  0.00    -0.200 F 
ENDBRANCH  51  75
BRANCH  63  86
ATOM     86  C   UNL A   1      45.290  32.731  28.905  1.00  0.00     0.064 A 
ATOM     87  C   UNL A   1      45.895  33.191  30.084  1.00  0.00     0.173 A 
ATOM     88  C   UNL A   1      45.026  33.666  27.892  1.00  0.00     0.173 A 
ATOM     89  F   UNL A   1      46.158  32.339  31.086  1.00  0.00    -0.203 F 
ATOM     90  C   UNL A   1      46.190  34.540  30.254  1.00  0.00     0.198 A 
ATOM     91  C   UNL A   1      45.361  35.007  28.050  1.00  0.00     0.198 A 
ATOM     92  F   UNL A   1      44.459  33.275  26.740  1.00  0.00    -0.203 F 
ATOM     93  F   UNL A   1      46.712  34.968  31.412  1.00  0.00    -0.200 F 
ATOM     94  C   UNL A   1      45.932  35.444  29.234  1.00  0.00     0.200 A 
ATOM     95  F   UNL A   1      45.130  35.874  27.055  1.00  0.00    -0.200 F 
ATOM     96  F   UNL A   1      46.226  36.741  29.397  1.00  0.00    -0.200 F 
ENDBRANCH  63  86
ENDBRANCH  37  38
ENDBRANCH  29  32
ENDBRANCH  27  28
ENDBRANCH  26  27
ENDBRANCH   1  26
TORSDOF 13
ENDMDL
MODEL 2
REMARK VINA RESULT:     -14.2      4.665      9.716
REMARK SMILES O=C(N/N=C\c1ccccc1C(=O)NCCCNC(=O)c1ccc(-c2c3nc(c(-c4c(F)c(F)c(F)c(F)c4F)c4ccc([nH]4)c(-c4c(F)c(F)c(F)c(F)c4F)c4nc(c(-c5c(F)c(F)c(F)c(F)c5F)c5ccc2[nH]5)C=C4)C=C3)cc1)C(=O)N1CCCCC1
REMARK SMILES IDX 15 1 14 2 12 3 13 4 11 6 6 7 7 8 8 9 10 10 9 11 5 12 4 13
REMARK SMILES IDX 3 14 1 15 2 16 84 18 85 19 86 20 87 21 91 22 88 23 90 24
REMARK SMILES IDX 89 25 16 26 17 27 18 28 19 29 20 31 21 32 22 33 83 34 23 35
REMARK SMILES IDX 82 36 24 37 25 38 26 39 76 40 27 41 81 42 75 43 77 44 28 45
REMARK SMILES IDX 80 46 74 47 73 48 29 50 61 51 41 52 60 53 42 54 45 55 59 56
REMARK SMILES IDX 78 57 43 58 44 59 58 61 79 62 46 63 30 64 31 65 39 66 32 67
REMARK SMILES IDX 33 68 37 69 40 70 34 71 35 72 38 73 36 74 62 75 63 76 71 77
REMARK SMILES IDX 64 78 65 79 69 80 72 81 66 82 67 83 70 84 68 85 47 86 48 87
REMARK SMILES IDX 56 88 49 89 50 90 54 91 57 92 51 93 52 94 55 95 53 96
REMARK H PARENT 14 5 3 17 18 30 77 49 45 60
REMARK Flexibility Score: inf
ROOT
ATOM      1  C   UNL A   1      33.629  27.842  25.232  1.00  0.00     0.118 C 
ENDROOT
BRANCH   1   2
ATOM      2  N   UNL A   1      33.771  27.344  23.910  1.00  0.00    -0.352 N 
ATOM      3  C   UNL A   1      33.647  26.057  23.504  1.00  0.00     0.251 C 
ATOM      4  O   UNL A   1      33.937  25.783  22.342  1.00  0.00    -0.269 OA
ATOM      5  H   UNL A   1      33.982  28.005  23.211  1.00  0.00     0.163 HD
BRANCH   3   6
ATOM      6  C   UNL A   1      33.230  24.965  24.415  1.00  0.00     0.048 A 
ATOM      7  C   UNL A   1      31.864  23.750  24.243  1.00  0.00     0.007 A 
ATOM      8  C   UNL A   1      31.802  22.254  25.317  1.00  0.00     0.010 A 
ATOM      9  C   UNL A   1      32.983  22.088  26.669  1.00  0.00     0.001 A 
ATOM     10  C   UNL A   1      34.494  24.666  25.675  1.00  0.00     0.014 A 
ATOM     11  C   UNL A   1      34.326  23.289  26.862  1.00  0.00     0.001 A 
BRANCH   7  12
ATOM     12  C   UNL A   1      30.956  23.608  23.138  1.00  0.00     0.142 C 
ATOM     13  N   UNL A   1      30.008  24.457  23.044  1.00  0.00    -0.180 NA
BRANCH  13  14
ATOM     14  N   UNL A   1      29.959  25.356  24.061  1.00  0.00    -0.239 N 
ATOM     15  O   UNL A   1      30.409  27.086  25.327  1.00  0.00    -0.262 OA
ATOM     16  C   UNL A   1      30.180  26.744  24.154  1.00  0.00     0.329 C 
ATOM     17  H   UNL A   1      29.714  24.946  24.922  1.00  0.00     0.194 HD
BRANCH  16  18
ATOM     18  C   UNL A   1      30.094  28.030  22.958  1.00  0.00     0.313 C 
ATOM     19  O   UNL A   1      31.003  27.526  22.202  1.00  0.00    -0.263 OA
ATOM     20  N   UNL A   1      28.918  29.629  22.712  1.00  0.00    -0.334 N 
ATOM     21  C   UNL A   1      27.939  30.170  21.421  1.00  0.00     0.120 C 
ATOM     22  C   UNL A   1      28.502  30.934  23.756  1.00  0.00     0.120 C 
ATOM     23  C   UNL A   1      28.273  31.583  20.917  1.00  0.00     0.022 C 
ATOM     24  C   UNL A   1      28.937  32.292  23.190  1.00  0.00     0.022 C 
ATOM     25  C   UNL A   1      28.120  32.654  21.975  1.00  0.00     0.004 C 
ENDBRANCH  16  18
ENDBRANCH  13  14
ENDBRANCH   7  12
ENDBRANCH   3   6
ENDBRANCH   1   2
BRANCH   1  26
ATOM     26  C   UNL A   1      33.163  29.270  25.295  1.00  0.00     0.042 C 
BRANCH  26  27
ATOM     27  C   UNL A   1      32.807  29.644  26.704  1.00  0.00     0.118 C 
BRANCH  27  28
ATOM     28  N   UNL A   1      32.661  31.089  26.903  1.00  0.00    -0.352 N 
ATOM     29  C   UNL A   1      33.554  31.979  27.442  1.00  0.00     0.251 C 
ATOM     30  H   UNL A   1      31.804  31.473  26.610  1.00  0.00     0.163 HD
ATOM     31  O   UNL A   1      33.252  33.152  27.612  1.00  0.00    -0.269 OA
BRANCH  29  32
ATOM     32  C   UNL A   1      34.856  31.458  27.874  1.00  0.00     0.039 A 
ATOM     33  C   UNL A   1      35.923  32.343  28.005  1.00  0.00     0.014 A 
ATOM     34  C   UNL A   1      34.953  30.135  28.303  1.00  0.00     0.014 A 
ATOM     35  C   UNL A   1      37.076  31.905  28.643  1.00  0.00     0.010 A 
ATOM     36  C   UNL A   1      36.013  29.770  29.105  1.00  0.00     0.010 A 
ATOM     37  C   UNL A   1      37.107  30.632  29.238  1.00  0.00    -0.014 A 
BRANCH  37  38
ATOM     38  C   UNL A   1      38.308  30.132  29.935  1.00  0.00     0.031 A 
ATOM     39  C   UNL A   1      38.569  30.590  31.343  1.00  0.00     0.074 A 
ATOM     40  C   UNL A   1      39.169  29.325  29.289  1.00  0.00     0.049 A 
ATOM     41  N   UNL A   1      39.587  30.332  32.120  1.00  0.00    -0.248 NA
ATOM     42  C   UNL A   1      37.581  31.506  31.941  1.00  0.00     0.031 C 
ATOM     43  C   UNL A   1      39.037  28.877  27.900  1.00  0.00     0.029 A 
ATOM     44  N   UNL A   1      40.325  28.734  29.721  1.00  0.00    -0.354 N 
ATOM     45  C   UNL A   1      39.365  31.068  33.276  1.00  0.00     0.074 A 
ATOM     46  C   UNL A   1      38.183  31.865  33.061  1.00  0.00     0.031 C 
ATOM     47  C   UNL A   1      40.043  28.037  27.614  1.00  0.00     0.029 A 
ATOM     48  C   UNL A   1      40.912  27.927  28.779  1.00  0.00     0.049 A 
ATOM     49  H   UNL A   1      40.699  28.874  30.621  1.00  0.00     0.167 HD
ATOM     50  C   UNL A   1      40.060  31.045  34.435  1.00  0.00     0.037 A 
ATOM     51  C   UNL A   1      42.029  27.181  28.861  1.00  0.00     0.037 A 
ATOM     52  C   UNL A   1      41.213  30.216  34.643  1.00  0.00     0.049 A 
ATOM     53  C   UNL A   1      42.791  27.173  30.160  1.00  0.00     0.074 A 
ATOM     54  C   UNL A   1      41.972  30.062  35.787  1.00  0.00     0.029 A 
ATOM     55  N   UNL A   1      41.775  29.398  33.671  1.00  0.00    -0.354 N 
ATOM     56  N   UNL A   1      42.535  27.815  31.275  1.00  0.00    -0.248 NA
ATOM     57  C   UNL A   1      43.990  26.328  30.213  1.00  0.00     0.031 C 
ATOM     58  C   UNL A   1      43.030  29.199  35.490  1.00  0.00     0.029 A 
ATOM     59  C   UNL A   1      42.888  28.756  34.182  1.00  0.00     0.049 A 
ATOM     60  H   UNL A   1      41.433  29.291  32.754  1.00  0.00     0.167 HD
ATOM     61  C   UNL A   1      43.519  27.426  32.174  1.00  0.00     0.074 A 
ATOM     62  C   UNL A   1      44.367  26.481  31.475  1.00  0.00     0.031 C 
ATOM     63  C   UNL A   1      43.706  27.812  33.462  1.00  0.00     0.037 A 
BRANCH  50  64
ATOM     64  C   UNL A   1      39.581  31.935  35.546  1.00  0.00     0.064 A 
ATOM     65  C   UNL A   1      38.608  31.514  36.469  1.00  0.00     0.173 A 
ATOM     66  C   UNL A   1      40.091  33.234  35.684  1.00  0.00     0.173 A 
ATOM     67  F   UNL A   1      38.068  30.289  36.372  1.00  0.00    -0.203 F 
ATOM     68  C   UNL A   1      38.133  32.375  37.455  1.00  0.00     0.198 A 
ATOM     69  C   UNL A   1      39.645  34.077  36.699  1.00  0.00     0.198 A 
ATOM     70  F   UNL A   1      41.020  33.690  34.831  1.00  0.00    -0.203 F 
ATOM     71  F   UNL A   1      37.147  31.975  38.272  1.00  0.00    -0.200 F 
ATOM     72  C   UNL A   1      38.657  33.652  37.574  1.00  0.00     0.200 A 
ATOM     73  F   UNL A   1      40.162  35.307  36.820  1.00  0.00    -0.200 F 
ATOM     74  F   UNL A   1      38.201  34.479  38.525  1.00  0.00    -0.200 F 
ENDBRANCH  50  64
BRANCH  51  75
ATOM     75  C   UNL A   1      42.459  26.353  27.705  1.00  0.00     0.064 A 
ATOM     76  C   UNL A   1      41.901  25.088  27.476  1.00  0.00     0.173 A 
ATOM     77  C   UNL A   1      43.427  26.810  26.797  1.00  0.00     0.173 A 
ATOM     78  F   UNL A   1      40.979  24.601  28.320  1.00  0.00    -0.203 F 
ATOM     79  C   UNL A   1      42.312  24.300  26.403  1.00  0.00     0.198 A 
ATOM     80  C   UNL A   1      43.814  26.036  25.706  1.00  0.00     0.198 A 
ATOM     81  F   UNL A   1      43.983  28.019  26.961  1.00  0.00    -0.203 F 
ATOM     82  F   UNL A   1      41.795  23.076  26.236  1.00  0.00    -0.200 F 
ATOM     83  C   UNL A   1      43.264  24.777  25.514  1.00  0.00     0.200 A 
ATOM     84  F   UNL A   1      44.717  26.511  24.838  1.00  0.00    -0.200 F 
ATOM     85  F   UNL A   1      43.654  24.024  24.477  1.00  0.00    -0.200 F 
ENDBRANCH  51  75
BRANCH  63  86
ATOM     86  C   UNL A   1      44.838  27.171  34.212  1.00  0.00     0.064 A 
ATOM     87  C   UNL A   1      46.105  27.765  34.291  1.00  0.00     0.173 A 
ATOM     88  C   UNL A   1      44.632  25.965  34.899  1.00  0.00     0.173 A 
ATOM     89  F   UNL A   1      46.356  28.913  33.643  1.00  0.00    -0.203 F 
ATOM     90  C   UNL A   1      47.135  27.156  35.003  1.00  0.00     0.198 A 
ATOM     91  C   UNL A   1      45.652  25.380  35.643  1.00  0.00     0.198 A 
ATOM     92  F   UNL A   1      43.434  25.361  34.864  1.00  0.00    -0.203 F 
ATOM     93  F   UNL A   1      48.355  27.710  35.015  1.00  0.00    -0.200 F 
ATOM     94  C   UNL A   1      46.905  25.970  35.685  1.00  0.00     0.200 A 
ATOM     95  F   UNL A   1      45.421  24.246  36.318  1.00  0.00    -0.200 F 
ATOM     96  F   UNL A   1      47.895  25.392  36.377  1.00  0.00    -0.200 F 
ENDBRANCH  63  86
ENDBRANCH  37  38
ENDBRANCH  29  32
ENDBRANCH  27  28
ENDBRANCH  26  27
ENDBRANCH   1  26
TORSDOF 13
ENDMDL
MODEL 3
REMARK VINA RESULT:     -14.2      0.153      1.582
REMARK SMILES O=C(N/N=C\c1ccccc1C(=O)NCCCNC(=O)c1ccc(-c2c3nc(c(-c4c(F)c(F)c(F)c(F)c4F)c4ccc([nH]4)c(-c4c(F)c(F)c(F)c(F)c4F)c4nc(c(-c5c(F)c(F)c(F)c(F)c5F)c5ccc2[nH]5)C=C4)C=C3)cc1)C(=O)N1CCCCC1
REMARK SMILES IDX 15 1 14 2 12 3 13 4 11 6 6 7 7 8 8 9 10 10 9 11 5 12 4 13
REMARK SMILES IDX 3 14 1 15 2 16 84 18 85 19 86 20 87 21 91 22 88 23 90 24
REMARK SMILES IDX 89 25 16 26 17 27 18 28 19 29 20 31 21 32 22 33 83 34 23 35
REMARK SMILES IDX 82 36 24 37 25 38 26 39 76 40 27 41 81 42 75 43 77 44 28 45
REMARK SMILES IDX 80 46 74 47 73 48 29 50 61 51 41 52 60 53 42 54 45 55 59 56
REMARK SMILES IDX 78 57 43 58 44 59 58 61 79 62 46 63 30 64 31 65 39 66 32 67
REMARK SMILES IDX 33 68 37 69 40 70 34 71 35 72 38 73 36 74 62 75 63 76 71 77
REMARK SMILES IDX 64 78 65 79 69 80 72 81 66 82 67 83 70 84 68 85 47 86 48 87
REMARK SMILES IDX 56 88 49 89 50 90 54 91 57 92 51 93 52 94 55 95 53 96
REMARK H PARENT 14 5 3 17 18 30 77 49 45 60
REMARK Flexibility Score: inf
ROOT
ATOM      1  C   UNL A   1      37.113  21.596  24.958  1.00  0.00     0.118 C 
ENDROOT
BRANCH   1   2
ATOM      2  N   UNL A   1      36.432  21.859  26.176  1.00  0.00    -0.352 N 
ATOM      3  C   UNL A   1      35.107  22.101  26.335  1.00  0.00     0.251 C 
ATOM      4  O   UNL A   1      34.709  22.443  27.445  1.00  0.00    -0.269 OA
ATOM      5  H   UNL A   1      36.980  21.866  26.994  1.00  0.00     0.163 HD
BRANCH   3   6
ATOM      6  C   UNL A   1      34.137  22.019  25.218  1.00  0.00     0.048 A 
ATOM      7  C   UNL A   1      33.784  23.226  23.880  1.00  0.00     0.007 A 
ATOM      8  C   UNL A   1      32.818  22.719  22.394  1.00  0.00     0.010 A 
ATOM      9  C   UNL A   1      32.058  21.086  22.349  1.00  0.00     0.001 A 
ATOM     10  C   UNL A   1      33.499  20.334  25.047  1.00  0.00     0.014 A 
ATOM     11  C   UNL A   1      32.384  19.890  23.671  1.00  0.00     0.001 A 
BRANCH   7  12
ATOM     12  C   UNL A   1      34.436  24.485  23.645  1.00  0.00     0.142 C 
ATOM     13  N   UNL A   1      33.967  25.511  24.242  1.00  0.00    -0.180 NA
BRANCH  13  14
ATOM     14  N   UNL A   1      32.854  25.267  24.982  1.00  0.00    -0.239 N 
ATOM     15  O   UNL A   1      31.240  25.501  26.445  1.00  0.00    -0.262 OA
ATOM     16  C   UNL A   1      31.836  26.079  25.519  1.00  0.00     0.329 C 
ATOM     17  H   UNL A   1      32.734  24.311  25.189  1.00  0.00     0.194 HD
BRANCH  16  18
ATOM     18  C   UNL A   1      31.230  27.663  25.055  1.00  0.00     0.313 C 
ATOM     19  O   UNL A   1      31.920  28.297  25.933  1.00  0.00    -0.263 OA
ATOM     20  N   UNL A   1      30.035  28.325  23.593  1.00  0.00    -0.334 N 
ATOM     21  C   UNL A   1      30.226  29.508  22.376  1.00  0.00     0.120 C 
ATOM     22  C   UNL A   1      28.453  27.865  23.091  1.00  0.00     0.120 C 
ATOM     23  C   UNL A   1      29.156  30.612  22.388  1.00  0.00     0.022 C 
ATOM     24  C   UNL A   1      27.450  29.021  23.204  1.00  0.00     0.022 C 
ATOM     25  C   UNL A   1      27.749  30.092  22.186  1.00  0.00     0.004 C 
ENDBRANCH  16  18
ENDBRANCH  13  14
ENDBRANCH   7  12
ENDBRANCH   3   6
ENDBRANCH   1   2
BRANCH   1  26
ATOM     26  C   UNL A   1      37.972  20.363  24.997  1.00  0.00     0.042 C 
BRANCH  26  27
ATOM     27  C   UNL A   1      39.149  20.570  25.905  1.00  0.00     0.118 C 
BRANCH  27  28
ATOM     28  N   UNL A   1      40.093  19.450  25.898  1.00  0.00    -0.352 N 
ATOM     29  C   UNL A   1      41.449  19.464  26.100  1.00  0.00     0.251 C 
ATOM     30  H   UNL A   1      39.699  18.565  25.723  1.00  0.00     0.163 HD
ATOM     31  O   UNL A   1      42.115  18.444  25.985  1.00  0.00    -0.269 OA
BRANCH  29  32
ATOM     32  C   UNL A   1      42.080  20.757  26.386  1.00  0.00     0.039 A 
ATOM     33  C   UNL A   1      42.304  21.642  25.334  1.00  0.00     0.014 A 
ATOM     34  C   UNL A   1      42.281  21.139  27.711  1.00  0.00     0.014 A 
ATOM     35  C   UNL A   1      42.667  22.949  25.630  1.00  0.00     0.010 A 
ATOM     36  C   UNL A   1      42.445  22.476  28.003  1.00  0.00     0.010 A 
ATOM     37  C   UNL A   1      42.692  23.383  26.966  1.00  0.00    -0.014 A 
BRANCH  37  38
ATOM     38  C   UNL A   1      43.061  24.766  27.324  1.00  0.00     0.031 A 
ATOM     39  C   UNL A   1      44.471  25.226  27.072  1.00  0.00     0.074 A 
ATOM     40  C   UNL A   1      42.156  25.570  27.912  1.00  0.00     0.049 A 
ATOM     41  N   UNL A   1      45.031  26.370  27.364  1.00  0.00    -0.248 NA
ATOM     42  C   UNL A   1      45.392  24.251  26.460  1.00  0.00     0.031 C 
ATOM     43  C   UNL A   1      40.782  25.195  28.257  1.00  0.00     0.029 A 
ATOM     44  N   UNL A   1      42.258  26.872  28.319  1.00  0.00    -0.354 N 
ATOM     45  C   UNL A   1      46.361  26.235  26.991  1.00  0.00     0.074 A 
ATOM     46  C   UNL A   1      46.553  24.873  26.556  1.00  0.00     0.031 C 
ATOM     47  C   UNL A   1      40.154  26.262  28.772  1.00  0.00     0.029 A 
ATOM     48  C   UNL A   1      41.091  27.377  28.837  1.00  0.00     0.049 A 
ATOM     49  H   UNL A   1      43.088  27.398  28.246  1.00  0.00     0.167 HD
ATOM     50  C   UNL A   1      47.328  27.179  26.966  1.00  0.00     0.037 A 
ATOM     51  C   UNL A   1      40.821  28.609  29.307  1.00  0.00     0.037 A 
ATOM     52  C   UNL A   1      47.109  28.539  27.367  1.00  0.00     0.049 A 
ATOM     53  C   UNL A   1      41.914  29.643  29.275  1.00  0.00     0.074 A 
ATOM     54  C   UNL A   1      47.990  29.602  27.338  1.00  0.00     0.029 A 
ATOM     55  N   UNL A   1      45.909  29.022  27.875  1.00  0.00    -0.354 N 
ATOM     56  N   UNL A   1      43.150  29.530  28.852  1.00  0.00    -0.248 NA
ATOM     57  C   UNL A   1      41.568  30.979  29.776  1.00  0.00     0.031 C 
ATOM     58  C   UNL A   1      47.344  30.713  27.888  1.00  0.00     0.029 A 
ATOM     59  C   UNL A   1      46.036  30.363  28.190  1.00  0.00     0.049 A 
ATOM     60  H   UNL A   1      45.090  28.488  27.996  1.00  0.00     0.167 HD
ATOM     61  C   UNL A   1      43.722  30.787  29.001  1.00  0.00     0.074 A 
ATOM     62  C   UNL A   1      42.689  31.648  29.542  1.00  0.00     0.031 C 
ATOM     63  C   UNL A   1      44.984  31.195  28.717  1.00  0.00     0.037 A 
BRANCH  50  64
ATOM     64  C   UNL A   1      48.690  26.761  26.488  1.00  0.00     0.064 A 
ATOM     65  C   UNL A   1      49.652  26.224  27.362  1.00  0.00     0.173 A 
ATOM     66  C   UNL A   1      49.046  26.913  25.141  1.00  0.00     0.173 A 
ATOM     67  F   UNL A   1      49.374  26.077  28.666  1.00  0.00    -0.203 F 
ATOM     68  C   UNL A   1      50.929  25.900  26.912  1.00  0.00     0.198 A 
ATOM     69  C   UNL A   1      50.311  26.546  24.686  1.00  0.00     0.198 A 
ATOM     70  F   UNL A   1      48.170  27.422  24.262  1.00  0.00    -0.203 F 
ATOM     71  F   UNL A   1      51.852  25.465  27.782  1.00  0.00    -0.200 F 
ATOM     72  C   UNL A   1      51.254  26.053  25.574  1.00  0.00     0.200 A 
ATOM     73  F   UNL A   1      50.620  26.684  23.390  1.00  0.00    -0.200 F 
ATOM     74  F   UNL A   1      52.483  25.738  25.142  1.00  0.00    -0.200 F 
ENDBRANCH  50  64
BRANCH  51  75
ATOM     75  C   UNL A   1      39.457  28.935  29.797  1.00  0.00     0.064 A 
ATOM     76  C   UNL A   1      38.491  29.474  28.936  1.00  0.00     0.173 A 
ATOM     77  C   UNL A   1      39.084  28.707  31.131  1.00  0.00     0.173 A 
ATOM     78  F   UNL A   1      38.799  29.720  27.654  1.00  0.00    -0.203 F 
ATOM     79  C   UNL A   1      37.215  29.798  29.395  1.00  0.00     0.198 A 
ATOM     80  C   UNL A   1      37.799  29.002  31.580  1.00  0.00     0.198 A 
ATOM     81  F   UNL A   1      39.965  28.181  31.994  1.00  0.00    -0.203 F 
ATOM     82  F   UNL A   1      36.328  30.355  28.560  1.00  0.00    -0.200 F 
ATOM     83  C   UNL A   1      36.868  29.556  30.715  1.00  0.00     0.200 A 
ATOM     84  F   UNL A   1      37.461  28.744  32.851  1.00  0.00    -0.200 F 
ATOM     85  F   UNL A   1      35.639  29.859  31.154  1.00  0.00    -0.200 F 
ENDBRANCH  51  75
BRANCH  63  86
ATOM     86  C   UNL A   1      45.300  32.647  28.934  1.00  0.00     0.064 A 
ATOM     87  C   UNL A   1      45.892  33.107  30.119  1.00  0.00     0.173 A 
ATOM     88  C   UNL A   1      45.047  33.581  27.918  1.00  0.00     0.173 A 
ATOM     89  F   UNL A   1      46.144  32.256  31.124  1.00  0.00    -0.203 F 
ATOM     90  C   UNL A   1      46.186  34.457  30.291  1.00  0.00     0.198 A 
ATOM     91  C   UNL A   1      45.380  34.922  28.078  1.00  0.00     0.198 A 
ATOM     92  F   UNL A   1      44.492  33.190  26.760  1.00  0.00    -0.203 F 
ATOM     93  F   UNL A   1      46.695  34.885  31.454  1.00  0.00    -0.200 F 
ATOM     94  C   UNL A   1      45.938  35.360  29.268  1.00  0.00     0.200 A 
ATOM     95  F   UNL A   1      45.160  35.789  27.080  1.00  0.00    -0.200 F 
ATOM     96  F   UNL A   1      46.231  36.657  29.433  1.00  0.00    -0.200 F 
ENDBRANCH  63  86
ENDBRANCH  37  38
ENDBRANCH  29  32
ENDBRANCH  27  28
ENDBRANCH  26  27
ENDBRANCH   1  26
TORSDOF 13
ENDMDL
