MODEL 1
REMARK VINA RESULT:     -13.3      0.000      0.000
REMARK SMILES CC(C)CN(C)c1cc2c(cc1Cl)C=C(C(=O)NCCCNC(=O)c1ccc(-c3c4nc(c(-c5c(F)c(F)c(F)c(F)c5F)c5ccc([nH]5)c(-c5c(F)c(F)c(F)c(F)c5F)c5nc(c(-c6c(F)c(F)c(F)c(F)c6F)c6ccc3[nH]6)C=C5)C=C4)cc1)[C@@H](C(F)(F)F)O2
REMARK SMILES IDX 19 1 18 2 16 3 17 4 15 6 7 7 8 8 12 9 9 10 11 11 13 12 10 13
REMARK SMILES IDX 93 14 14 15 88 16 5 17 6 18 4 19 2 20 1 21 3 22 89 23 90 24
REMARK SMILES IDX 91 25 92 26 20 27 21 28 22 29 23 30 24 32 25 33 26 34 87 35
REMARK SMILES IDX 27 36 86 37 28 38 29 39 30 40 80 41 31 42 85 43 79 44 81 45
REMARK SMILES IDX 32 46 84 47 78 48 77 49 33 51 65 52 45 53 64 54 46 55 49 56
REMARK SMILES IDX 63 57 82 58 47 59 48 60 62 62 83 63 50 64 34 65 35 66 43 67
REMARK SMILES IDX 36 68 37 69 41 70 44 71 38 72 39 73 42 74 40 75 66 76 67 77
REMARK SMILES IDX 75 78 68 79 69 80 73 81 76 82 70 83 71 84 74 85 72 86 51 87
REMARK SMILES IDX 52 88 60 89 53 90 54 91 58 92 61 93 55 94 56 95 59 96 57 97
REMARK H PARENT 18 5 22 31 81 50 49 61
REMARK Flexibility Score: inf
ROOT
ATOM      1  C   UNL A   1      31.630  30.769  26.270  1.00  0.00     0.118 C 
ENDROOT
BRANCH   1   2
ATOM      2  N   UNL A   1      31.121  30.442  24.949  1.00  0.00    -0.352 N 
ATOM      3  C   UNL A   1      31.103  29.361  24.139  1.00  0.00     0.251 C 
ATOM      4  O   UNL A   1      30.567  29.536  23.040  1.00  0.00    -0.270 OA
ATOM      5  H   UNL A   1      30.670  31.213  24.534  1.00  0.00     0.163 HD
BRANCH   3   6
ATOM      6  C   UNL A   1      31.662  28.030  24.485  1.00  0.00     0.067 C 
ATOM      7  C   UNL A   1      32.311  23.182  25.665  1.00  0.00     0.059 A 
ATOM      8  C   UNL A   1      33.089  24.135  24.986  1.00  0.00     0.074 A 
ATOM      9  C   UNL A   1      31.025  23.579  26.101  1.00  0.00     0.065 A 
ATOM     10  C   UNL A   1      32.588  25.410  24.743  1.00  0.00     0.130 A 
ATOM     11  C   UNL A   1      30.487  24.821  25.748  1.00  0.00     0.034 A 
ATOM     12  Cl  UNL A   1      30.057  22.594  27.146  1.00  0.00    -0.082 Cl
ATOM     13  C   UNL A   1      31.269  25.738  25.059  1.00  0.00     0.019 A 
ATOM     14  O   UNL A   1      33.442  26.345  24.211  1.00  0.00    -0.475 OA
ATOM     15  C   UNL A   1      30.760  27.051  24.688  1.00  0.00     0.025 C 
ATOM     16  C   UNL A   1      33.123  27.709  24.633  1.00  0.00     0.314 C 
BRANCH   7  17
ATOM     17  N   UNL A   1      32.810  21.888  25.886  1.00  0.00    -0.373 N 
ATOM     18  C   UNL A   1      33.526  21.699  27.146  1.00  0.00     0.143 C 
BRANCH  17  19
ATOM     19  C   UNL A   1      33.362  21.185  24.708  1.00  0.00     0.119 C 
BRANCH  19  20
ATOM     20  C   UNL A   1      32.267  20.537  23.834  1.00  0.00     0.002 C 
ATOM     21  C   UNL A   1      32.162  21.200  22.457  1.00  0.00     0.009 C 
ATOM     22  C   UNL A   1      32.521  19.040  23.643  1.00  0.00     0.009 C 
ENDBRANCH  19  20
ENDBRANCH  17  19
ENDBRANCH   7  17
BRANCH  16  23
ATOM     23  C   UNL A   1      33.641  27.982  26.067  1.00  0.00     0.429 C 
ATOM     24  F   UNL A   1      34.588  27.073  26.407  1.00  0.00    -0.167 F 
ATOM     25  F   UNL A   1      34.220  29.203  26.179  1.00  0.00    -0.167 F 
ATOM     26  F   UNL A   1      32.676  27.930  27.010  1.00  0.00    -0.167 F 
ENDBRANCH  16  23
ENDBRANCH   3   6
ENDBRANCH   1   2
BRANCH   1  27
ATOM     27  C   UNL A   1      31.425  32.239  26.592  1.00  0.00     0.042 C 
BRANCH  27  28
ATOM     28  C   UNL A   1      32.601  32.829  27.355  1.00  0.00     0.118 C 
BRANCH  28  29
ATOM     29  N   UNL A   1      32.398  34.241  27.668  1.00  0.00    -0.352 N 
ATOM     30  C   UNL A   1      32.982  35.028  28.632  1.00  0.00     0.251 C 
ATOM     31  H   UNL A   1      31.739  34.702  27.100  1.00  0.00     0.163 HD
ATOM     32  O   UNL A   1      32.511  36.130  28.898  1.00  0.00    -0.269 OA
BRANCH  30  33
ATOM     33  C   UNL A   1      34.165  34.533  29.364  1.00  0.00     0.039 A 
ATOM     34  C   UNL A   1      35.436  34.669  28.809  1.00  0.00     0.014 A 
ATOM     35  C   UNL A   1      34.003  33.916  30.608  1.00  0.00     0.014 A 
ATOM     36  C   UNL A   1      36.508  34.004  29.384  1.00  0.00     0.010 A 
ATOM     37  C   UNL A   1      35.110  33.350  31.248  1.00  0.00     0.010 A 
ATOM     38  C   UNL A   1      36.362  33.343  30.614  1.00  0.00    -0.014 A 
BRANCH  38  39
ATOM     39  C   UNL A   1      37.540  32.653  31.202  1.00  0.00     0.031 A 
ATOM     40  C   UNL A   1      38.005  32.978  32.596  1.00  0.00     0.074 A 
ATOM     41  C   UNL A   1      38.132  31.666  30.501  1.00  0.00     0.049 A 
ATOM     42  N   UNL A   1      39.001  32.463  33.272  1.00  0.00    -0.248 NA
ATOM     43  C   UNL A   1      37.261  34.014  33.330  1.00  0.00     0.031 C 
ATOM     44  C   UNL A   1      37.748  31.246  29.151  1.00  0.00     0.029 A 
ATOM     45  N   UNL A   1      39.148  30.809  30.835  1.00  0.00    -0.354 N 
ATOM     46  C   UNL A   1      39.016  33.122  34.494  1.00  0.00     0.074 A 
ATOM     47  C   UNL A   1      37.947  34.096  34.462  1.00  0.00     0.031 C 
ATOM     48  C   UNL A   1      38.463  30.167  28.804  1.00  0.00     0.029 A 
ATOM     49  C   UNL A   1      39.413  29.869  29.868  1.00  0.00     0.049 A 
ATOM     50  H   UNL A   1      39.642  30.861  31.686  1.00  0.00     0.167 HD
ATOM     51  C   UNL A   1      39.839  32.921  35.550  1.00  0.00     0.037 A 
ATOM     52  C   UNL A   1      40.332  28.887  29.834  1.00  0.00     0.037 A 
ATOM     53  C   UNL A   1      40.882  31.928  35.586  1.00  0.00     0.049 A 
ATOM     54  C   UNL A   1      41.264  28.724  31.000  1.00  0.00     0.074 A 
ATOM     55  C   UNL A   1      41.771  31.650  36.610  1.00  0.00     0.029 A 
ATOM     56  N   UNL A   1      41.166  31.044  34.557  1.00  0.00    -0.354 N 
ATOM     57  N   UNL A   1      41.281  29.373  32.138  1.00  0.00    -0.248 NA
ATOM     58  C   UNL A   1      42.316  27.708  30.869  1.00  0.00     0.031 C 
ATOM     59  C   UNL A   1      42.615  30.621  36.186  1.00  0.00     0.029 A 
ATOM     60  C   UNL A   1      42.225  30.228  34.917  1.00  0.00     0.049 A 
ATOM     61  H   UNL A   1      40.685  31.002  33.698  1.00  0.00     0.167 HD
ATOM     62  C   UNL A   1      42.335  28.837  32.864  1.00  0.00     0.074 A 
ATOM     63  C   UNL A   1      42.918  27.793  32.047  1.00  0.00     0.031 C 
ATOM     64  C   UNL A   1      42.785  29.187  34.093  1.00  0.00     0.037 A 
BRANCH  51  65
ATOM     65  C   UNL A   1      39.657  33.784  36.764  1.00  0.00     0.064 A 
ATOM     66  C   UNL A   1      40.215  35.068  36.840  1.00  0.00     0.173 A 
ATOM     67  C   UNL A   1      38.835  33.360  37.820  1.00  0.00     0.173 A 
ATOM     68  F   UNL A   1      41.018  35.515  35.863  1.00  0.00    -0.203 F 
ATOM     69  C   UNL A   1      39.961  35.896  37.932  1.00  0.00     0.198 A 
ATOM     70  C   UNL A   1      38.563  34.200  38.898  1.00  0.00     0.198 A 
ATOM     71  F   UNL A   1      38.272  32.143  37.793  1.00  0.00    -0.203 F 
ATOM     72  F   UNL A   1      40.523  37.110  37.995  1.00  0.00    -0.200 F 
ATOM     73  C   UNL A   1      39.127  35.465  38.954  1.00  0.00     0.200 A 
ATOM     74  F   UNL A   1      37.746  33.787  39.877  1.00  0.00    -0.200 F 
ATOM     75  F   UNL A   1      38.866  36.271  39.992  1.00  0.00    -0.200 F 
ENDBRANCH  51  65
BRANCH  52  76
ATOM     76  C   UNL A   1      40.417  27.992  28.650  1.00  0.00     0.064 A 
ATOM     77  C   UNL A   1      39.742  26.763  28.627  1.00  0.00     0.173 A 
ATOM     78  C   UNL A   1      41.159  28.349  27.515  1.00  0.00     0.173 A 
ATOM     79  F   UNL A   1      39.035  26.367  29.697  1.00  0.00    -0.203 F 
ATOM     80  C   UNL A   1      39.815  25.923  27.519  1.00  0.00     0.198 A 
ATOM     81  C   UNL A   1      41.205  27.524  26.394  1.00  0.00     0.198 A 
ATOM     82  F   UNL A   1      41.822  29.515  27.486  1.00  0.00    -0.203 F 
ATOM     83  F   UNL A   1      39.192  24.737  27.537  1.00  0.00    -0.200 F 
ATOM     84  C   UNL A   1      40.539  26.308  26.399  1.00  0.00     0.200 A 
ATOM     85  F   UNL A   1      41.891  27.908  25.310  1.00  0.00    -0.200 F 
ATOM     86  F   UNL A   1      40.599  25.506  25.329  1.00  0.00    -0.200 F 
ENDBRANCH  52  76
BRANCH  64  87
ATOM     87  C   UNL A   1      43.952  28.424  34.641  1.00  0.00     0.064 A 
ATOM     88  C   UNL A   1      45.266  28.888  34.484  1.00  0.00     0.173 A 
ATOM     89  C   UNL A   1      43.749  27.252  35.384  1.00  0.00     0.173 A 
ATOM     90  F   UNL A   1      45.509  29.996  33.769  1.00  0.00    -0.203 F 
ATOM     91  C   UNL A   1      46.338  28.197  35.041  1.00  0.00     0.198 A 
ATOM     92  C   UNL A   1      44.821  26.579  35.963  1.00  0.00     0.198 A 
ATOM     93  F   UNL A   1      42.510  26.773  35.567  1.00  0.00    -0.203 F 
ATOM     94  F   UNL A   1      47.588  28.639  34.850  1.00  0.00    -0.200 F 
ATOM     95  C   UNL A   1      46.114  27.049  35.787  1.00  0.00     0.200 A 
ATOM     96  F   UNL A   1      44.602  25.478  36.695  1.00  0.00    -0.200 F 
ATOM     97  F   UNL A   1      47.146  26.394  36.335  1.00  0.00    -0.200 F 
ENDBRANCH  64  87
ENDBRANCH  38  39
ENDBRANCH  30  33
ENDBRANCH  28  29
ENDBRANCH  27  28
ENDBRANCH   1  27
TORSDOF 14
ENDMDL
MODEL 2
REMARK VINA RESULT:     -13.2      0.265      1.624
REMARK SMILES CC(C)CN(C)c1cc2c(cc1Cl)C=C(C(=O)NCCCNC(=O)c1ccc(-c3c4nc(c(-c5c(F)c(F)c(F)c(F)c5F)c5ccc([nH]5)c(-c5c(F)c(F)c(F)c(F)c5F)c5nc(c(-c6c(F)c(F)c(F)c(F)c6F)c6ccc3[nH]6)C=C5)C=C4)cc1)[C@@H](C(F)(F)F)O2
REMARK SMILES IDX 19 1 18 2 16 3 17 4 15 6 7 7 8 8 12 9 9 10 11 11 13 12 10 13
REMARK SMILES IDX 93 14 14 15 88 16 5 17 6 18 4 19 2 20 1 21 3 22 89 23 90 24
REMARK SMILES IDX 91 25 92 26 20 27 21 28 22 29 23 30 24 32 25 33 26 34 87 35
REMARK SMILES IDX 27 36 86 37 28 38 29 39 30 40 80 41 31 42 85 43 79 44 81 45
REMARK SMILES IDX 32 46 84 47 78 48 77 49 33 51 65 52 45 53 64 54 46 55 49 56
REMARK SMILES IDX 63 57 82 58 47 59 48 60 62 62 83 63 50 64 34 65 35 66 43 67
REMARK SMILES IDX 36 68 37 69 41 70 44 71 38 72 39 73 42 74 40 75 66 76 67 77
REMARK SMILES IDX 75 78 68 79 69 80 73 81 76 82 70 83 71 84 74 85 72 86 51 87
REMARK SMILES IDX 52 88 60 89 53 90 54 91 58 92 61 93 55 94 56 95 59 96 57 97
REMARK H PARENT 18 5 22 31 81 50 49 61
REMARK Flexibility Score: inf
ROOT
ATOM      1  C   UNL A   1      31.606  30.751  26.172  1.00  0.00     0.118 C 
ENDROOT
BRANCH   1   2
ATOM      2  N   UNL A   1      31.088  30.440  24.851  1.00  0.00    -0.352 N 
ATOM      3  C   UNL A   1      31.037  29.359  24.041  1.00  0.00     0.251 C 
ATOM      4  O   UNL A   1      30.508  29.551  22.941  1.00  0.00    -0.270 OA
ATOM      5  H   UNL A   1      30.662  31.224  24.434  1.00  0.00     0.163 HD
BRANCH   3   6
ATOM      6  C   UNL A   1      31.553  28.011  24.389  1.00  0.00     0.067 C 
ATOM      7  C   UNL A   1      32.043  23.167  25.659  1.00  0.00     0.059 A 
ATOM      8  C   UNL A   1      32.822  24.064  24.909  1.00  0.00     0.074 A 
ATOM      9  C   UNL A   1      30.806  23.637  26.160  1.00  0.00     0.065 A 
ATOM     10  C   UNL A   1      32.368  25.357  24.662  1.00  0.00     0.130 A 
ATOM     11  C   UNL A   1      30.306  24.895  25.806  1.00  0.00     0.034 A 
ATOM     12  Cl  UNL A   1      29.858  22.725  27.287  1.00  0.00    -0.082 Cl
ATOM     13  C   UNL A   1      31.087  25.756  25.048  1.00  0.00     0.019 A 
ATOM     14  O   UNL A   1      33.231  26.235  24.055  1.00  0.00    -0.475 OA
ATOM     15  C   UNL A   1      30.619  27.083  24.672  1.00  0.00     0.025 C 
ATOM     16  C   UNL A   1      33.003  27.623  24.458  1.00  0.00     0.314 C 
BRANCH   7  17
ATOM     17  N   UNL A   1      32.493  21.856  25.885  1.00  0.00    -0.373 N 
ATOM     18  C   UNL A   1      33.931  21.716  26.103  1.00  0.00     0.143 C 
BRANCH  17  19
ATOM     19  C   UNL A   1      31.845  20.792  25.089  1.00  0.00     0.119 C 
BRANCH  19  20
ATOM     20  C   UNL A   1      32.655  20.409  23.832  1.00  0.00     0.002 C 
ATOM     21  C   UNL A   1      32.574  18.910  23.529  1.00  0.00     0.009 C 
ATOM     22  C   UNL A   1      32.179  21.189  22.604  1.00  0.00     0.009 C 
ENDBRANCH  19  20
ENDBRANCH  17  19
ENDBRANCH   7  17
BRANCH  16  23
ATOM     23  C   UNL A   1      33.620  27.905  25.850  1.00  0.00     0.429 C 
ATOM     24  F   UNL A   1      34.529  26.949  26.166  1.00  0.00    -0.167 F 
ATOM     25  F   UNL A   1      34.277  29.090  25.890  1.00  0.00    -0.167 F 
ATOM     26  F   UNL A   1      32.711  27.941  26.848  1.00  0.00    -0.167 F 
ENDBRANCH  16  23
ENDBRANCH   3   6
ENDBRANCH   1   2
BRANCH   1  27
ATOM     27  C   UNL A   1      31.363  32.207  26.530  1.00  0.00     0.042 C 
BRANCH  27  28
ATOM     28  C   UNL A   1      32.505  32.794  27.347  1.00  0.00     0.118 C 
BRANCH  28  29
ATOM     29  N   UNL A   1      32.313  34.219  27.610  1.00  0.00    -0.352 N 
ATOM     30  C   UNL A   1      32.907  35.035  28.543  1.00  0.00     0.251 C 
ATOM     31  H   UNL A   1      31.656  34.664  27.028  1.00  0.00     0.163 HD
ATOM     32  O   UNL A   1      32.445  36.150  28.770  1.00  0.00    -0.269 OA
BRANCH  30  33
ATOM     33  C   UNL A   1      34.089  34.557  29.289  1.00  0.00     0.039 A 
ATOM     34  C   UNL A   1      35.355  34.635  28.712  1.00  0.00     0.014 A 
ATOM     35  C   UNL A   1      33.930  34.015  30.567  1.00  0.00     0.014 A 
ATOM     36  C   UNL A   1      36.420  33.981  29.312  1.00  0.00     0.010 A 
ATOM     37  C   UNL A   1      35.033  33.463  31.225  1.00  0.00     0.010 A 
ATOM     38  C   UNL A   1      36.277  33.394  30.578  1.00  0.00    -0.014 A 
BRANCH  38  39
ATOM     39  C   UNL A   1      37.448  32.714  31.191  1.00  0.00     0.031 A 
ATOM     40  C   UNL A   1      37.893  33.057  32.587  1.00  0.00     0.074 A 
ATOM     41  C   UNL A   1      38.051  31.719  30.511  1.00  0.00     0.049 A 
ATOM     42  N   UNL A   1      38.881  32.553  33.283  1.00  0.00    -0.248 NA
ATOM     43  C   UNL A   1      37.138  34.101  33.297  1.00  0.00     0.031 C 
ATOM     44  C   UNL A   1      37.687  31.282  29.161  1.00  0.00     0.029 A 
ATOM     45  N   UNL A   1      39.064  30.868  30.869  1.00  0.00    -0.354 N 
ATOM     46  C   UNL A   1      38.878  33.227  34.497  1.00  0.00     0.074 A 
ATOM     47  C   UNL A   1      37.808  34.198  34.438  1.00  0.00     0.031 C 
ATOM     48  C   UNL A   1      38.408  30.200  28.838  1.00  0.00     0.029 A 
ATOM     49  C   UNL A   1      39.344  29.917  29.918  1.00  0.00     0.049 A 
ATOM     50  H   UNL A   1      39.546  30.932  31.727  1.00  0.00     0.167 HD
ATOM     51  C   UNL A   1      39.687  33.041  35.566  1.00  0.00     0.037 A 
ATOM     52  C   UNL A   1      40.265  28.936  29.909  1.00  0.00     0.037 A 
ATOM     53  C   UNL A   1      40.731  32.051  35.629  1.00  0.00     0.049 A 
ATOM     54  C   UNL A   1      41.181  28.790  31.089  1.00  0.00     0.074 A 
ATOM     55  C   UNL A   1      41.606  31.787  36.668  1.00  0.00     0.029 A 
ATOM     56  N   UNL A   1      41.030  31.154  34.615  1.00  0.00    -0.354 N 
ATOM     57  N   UNL A   1      41.182  29.453  32.220  1.00  0.00    -0.248 NA
ATOM     58  C   UNL A   1      42.237  27.774  30.986  1.00  0.00     0.031 C 
ATOM     59  C   UNL A   1      42.458  30.754  36.269  1.00  0.00     0.029 A 
ATOM     60  C   UNL A   1      42.086  30.344  35.000  1.00  0.00     0.049 A 
ATOM     61  H   UNL A   1      40.561  31.100  33.750  1.00  0.00     0.167 HD
ATOM     62  C   UNL A   1      42.226  28.929  32.966  1.00  0.00     0.074 A 
ATOM     63  C   UNL A   1      42.823  27.876  32.171  1.00  0.00     0.031 C 
ATOM     64  C   UNL A   1      42.659  29.295  34.197  1.00  0.00     0.037 A 
BRANCH  51  65
ATOM     65  C   UNL A   1      39.487  33.919  36.767  1.00  0.00     0.064 A 
ATOM     66  C   UNL A   1      38.720  33.498  37.863  1.00  0.00     0.173 A 
ATOM     67  C   UNL A   1      40.147  35.154  36.862  1.00  0.00     0.173 A 
ATOM     68  F   UNL A   1      38.059  32.331  37.816  1.00  0.00    -0.203 F 
ATOM     69  C   UNL A   1      38.618  34.283  39.009  1.00  0.00     0.198 A 
ATOM     70  C   UNL A   1      40.063  35.925  38.019  1.00  0.00     0.198 A 
ATOM     71  F   UNL A   1      40.897  35.600  35.843  1.00  0.00    -0.203 F 
ATOM     72  F   UNL A   1      37.863  33.871  40.036  1.00  0.00    -0.200 F 
ATOM     73  C   UNL A   1      39.298  35.489  39.090  1.00  0.00     0.200 A 
ATOM     74  F   UNL A   1      40.731  37.084  38.101  1.00  0.00    -0.200 F 
ATOM     75  F   UNL A   1      39.217  36.232  40.203  1.00  0.00    -0.200 F 
ENDBRANCH  51  65
BRANCH  52  76
ATOM     76  C   UNL A   1      40.367  28.026  28.738  1.00  0.00     0.064 A 
ATOM     77  C   UNL A   1      41.108  28.392  27.605  1.00  0.00     0.173 A 
ATOM     78  C   UNL A   1      39.741  26.771  28.730  1.00  0.00     0.173 A 
ATOM     79  F   UNL A   1      41.709  29.590  27.556  1.00  0.00    -0.203 F 
ATOM     80  C   UNL A   1      41.210  27.541  26.507  1.00  0.00     0.198 A 
ATOM     81  C   UNL A   1      39.870  25.908  27.645  1.00  0.00     0.198 A 
ATOM     82  F   UNL A   1      39.022  26.374  29.790  1.00  0.00    -0.203 F 
ATOM     83  F   UNL A   1      41.892  27.930  25.421  1.00  0.00    -0.200 F 
ATOM     84  C   UNL A   1      40.598  26.296  26.531  1.00  0.00     0.200 A 
ATOM     85  F   UNL A   1      39.292  24.700  27.681  1.00  0.00    -0.200 F 
ATOM     86  F   UNL A   1      40.706  25.473  25.480  1.00  0.00    -0.200 F 
ENDBRANCH  52  76
BRANCH  64  87
ATOM     87  C   UNL A   1      43.820  28.541  34.770  1.00  0.00     0.064 A 
ATOM     88  C   UNL A   1      45.135  29.005  34.624  1.00  0.00     0.173 A 
ATOM     89  C   UNL A   1      43.609  27.378  35.526  1.00  0.00     0.173 A 
ATOM     90  F   UNL A   1      45.386  30.104  33.898  1.00  0.00    -0.203 F 
ATOM     91  C   UNL A   1      46.200  28.323  35.205  1.00  0.00     0.198 A 
ATOM     92  C   UNL A   1      44.674  26.715  36.128  1.00  0.00     0.198 A 
ATOM     93  F   UNL A   1      42.368  26.899  35.699  1.00  0.00    -0.203 F 
ATOM     94  F   UNL A   1      47.453  28.765  35.025  1.00  0.00    -0.200 F 
ATOM     95  C   UNL A   1      45.968  27.184  35.963  1.00  0.00     0.200 A 
ATOM     96  F   UNL A   1      44.447  25.623  36.872  1.00  0.00    -0.200 F 
ATOM     97  F   UNL A   1      46.994  26.539  36.533  1.00  0.00    -0.200 F 
ENDBRANCH  64  87
ENDBRANCH  38  39
ENDBRANCH  30  33
ENDBRANCH  28  29
ENDBRANCH  27  28
ENDBRANCH   1  27
TORSDOF 14
ENDMDL
MODEL 3
REMARK VINA RESULT:     -13.2      5.270     10.574
REMARK SMILES CC(C)CN(C)c1cc2c(cc1Cl)C=C(C(=O)NCCCNC(=O)c1ccc(-c3c4nc(c(-c5c(F)c(F)c(F)c(F)c5F)c5ccc([nH]5)c(-c5c(F)c(F)c(F)c(F)c5F)c5nc(c(-c6c(F)c(F)c(F)c(F)c6F)c6ccc3[nH]6)C=C5)C=C4)cc1)[C@@H](C(F)(F)F)O2
REMARK SMILES IDX 19 1 18 2 16 3 17 4 15 6 7 7 8 8 12 9 9 10 11 11 13 12 10 13
REMARK SMILES IDX 93 14 14 15 88 16 5 17 6 18 4 19 2 20 1 21 3 22 89 23 90 24
REMARK SMILES IDX 91 25 92 26 20 27 21 28 22 29 23 30 24 32 25 33 26 34 87 35
REMARK SMILES IDX 27 36 86 37 28 38 29 39 30 40 80 41 31 42 85 43 79 44 81 45
REMARK SMILES IDX 32 46 84 47 78 48 77 49 33 51 65 52 45 53 64 54 46 55 49 56
REMARK SMILES IDX 63 57 82 58 47 59 48 60 62 62 83 63 50 64 34 65 35 66 43 67
REMARK SMILES IDX 36 68 37 69 41 70 44 71 38 72 39 73 42 74 40 75 66 76 67 77
REMARK SMILES IDX 75 78 68 79 69 80 73 81 76 82 70 83 71 84 74 85 72 86 51 87
REMARK SMILES IDX 52 88 60 89 53 90 54 91 58 92 61 93 55 94 56 95 59 96 57 97
REMARK H PARENT 18 5 22 31 81 50 49 61
REMARK Flexibility Score: inf
ROOT
ATOM      1  C   UNL A   1      36.758  20.574  25.246  1.00  0.00     0.118 C 
ENDROOT
BRANCH   1   2
ATOM      2  N   UNL A   1      35.591  19.792  24.877  1.00  0.00    -0.352 N 
ATOM      3  C   UNL A   1      34.264  20.006  24.742  1.00  0.00     0.251 C 
ATOM      4  O   UNL A   1      33.600  19.014  24.423  1.00  0.00    -0.270 OA
ATOM      5  H   UNL A   1      35.830  18.859  24.670  1.00  0.00     0.163 HD
BRANCH   3   6
ATOM      6  C   UNL A   1      33.589  21.314  24.941  1.00  0.00     0.067 C 
ATOM      7  C   UNL A   1      31.757  25.972  24.429  1.00  0.00     0.059 A 
ATOM      8  C   UNL A   1      31.350  24.835  25.146  1.00  0.00     0.074 A 
ATOM      9  C   UNL A   1      32.899  25.848  23.601  1.00  0.00     0.065 A 
ATOM     10  C   UNL A   1      32.042  23.635  25.020  1.00  0.00     0.130 A 
ATOM     11  C   UNL A   1      33.514  24.609  23.390  1.00  0.00     0.034 A 
ATOM     12  Cl  UNL A   1      33.648  27.215  22.848  1.00  0.00    -0.082 Cl
ATOM     13  C   UNL A   1      33.080  23.496  24.096  1.00  0.00     0.019 A 
ATOM     14  O   UNL A   1      31.694  22.601  25.854  1.00  0.00    -0.475 OA
ATOM     15  C   UNL A   1      33.703  22.191  23.926  1.00  0.00     0.025 C 
ATOM     16  C   UNL A   1      32.819  21.721  26.166  1.00  0.00     0.314 C 
BRANCH   7  17
ATOM     17  N   UNL A   1      31.040  27.174  24.539  1.00  0.00    -0.373 N 
ATOM     18  C   UNL A   1      30.151  27.480  23.420  1.00  0.00     0.143 C 
BRANCH  17  19
ATOM     19  C   UNL A   1      31.764  28.319  25.131  1.00  0.00     0.119 C 
BRANCH  19  20
ATOM     20  C   UNL A   1      32.452  27.964  26.466  1.00  0.00     0.002 C 
ATOM     21  C   UNL A   1      33.753  28.748  26.671  1.00  0.00     0.009 C 
ATOM     22  C   UNL A   1      31.526  28.224  27.657  1.00  0.00     0.009 C 
ENDBRANCH  19  20
ENDBRANCH  17  19
ENDBRANCH   7  17
BRANCH  16  23
ATOM     23  C   UNL A   1      33.732  22.350  27.249  1.00  0.00     0.429 C 
ATOM     24  F   UNL A   1      32.984  22.990  28.182  1.00  0.00    -0.167 F 
ATOM     25  F   UNL A   1      34.460  21.418  27.911  1.00  0.00    -0.167 F 
ATOM     26  F   UNL A   1      34.616  23.245  26.758  1.00  0.00    -0.167 F 
ENDBRANCH  16  23
ENDBRANCH   3   6
ENDBRANCH   1   2
BRANCH   1  27
ATOM     27  C   UNL A   1      38.044  19.848  24.886  1.00  0.00     0.042 C 
BRANCH  27  28
ATOM     28  C   UNL A   1      39.198  20.242  25.795  1.00  0.00     0.118 C 
BRANCH  28  29
ATOM     29  N   UNL A   1      40.204  19.186  25.891  1.00  0.00    -0.352 N 
ATOM     30  C   UNL A   1      41.560  19.270  26.097  1.00  0.00     0.251 C 
ATOM     31  H   UNL A   1      39.855  18.270  25.794  1.00  0.00     0.163 HD
ATOM     32  O   UNL A   1      42.274  18.289  25.910  1.00  0.00    -0.269 OA
BRANCH  30  33
ATOM     33  C   UNL A   1      42.159  20.552  26.520  1.00  0.00     0.039 A 
ATOM     34  C   UNL A   1      42.211  20.884  27.872  1.00  0.00     0.014 A 
ATOM     35  C   UNL A   1      42.660  21.434  25.560  1.00  0.00     0.014 A 
ATOM     36  C   UNL A   1      42.558  22.173  28.247  1.00  0.00     0.010 A 
ATOM     37  C   UNL A   1      43.125  22.692  25.953  1.00  0.00     0.010 A 
ATOM     38  C   UNL A   1      43.027  23.091  27.295  1.00  0.00    -0.014 A 
BRANCH  38  39
ATOM     39  C   UNL A   1      43.401  24.459  27.740  1.00  0.00     0.031 A 
ATOM     40  C   UNL A   1      44.840  24.899  27.750  1.00  0.00     0.074 A 
ATOM     41  C   UNL A   1      42.422  25.332  28.050  1.00  0.00     0.049 A 
ATOM     42  N   UNL A   1      45.344  26.059  28.091  1.00  0.00    -0.248 NA
ATOM     43  C   UNL A   1      45.848  23.915  27.325  1.00  0.00     0.031 C 
ATOM     44  C   UNL A   1      40.989  25.024  28.049  1.00  0.00     0.029 A 
ATOM     45  N   UNL A   1      42.471  26.661  28.384  1.00  0.00    -0.354 N 
ATOM     46  C   UNL A   1      46.719  25.937  27.943  1.00  0.00     0.074 A 
ATOM     47  C   UNL A   1      46.979  24.584  27.506  1.00  0.00     0.031 C 
ATOM     48  C   UNL A   1      40.297  26.146  28.289  1.00  0.00     0.029 A 
ATOM     49  C   UNL A   1      41.233  27.233  28.545  1.00  0.00     0.049 A 
ATOM     50  H   UNL A   1      43.315  27.158  28.497  1.00  0.00     0.167 HD
ATOM     51  C   UNL A   1      47.674  26.877  28.140  1.00  0.00     0.037 A 
ATOM     52  C   UNL A   1      40.888  28.490  28.879  1.00  0.00     0.037 A 
ATOM     53  C   UNL A   1      47.405  28.232  28.544  1.00  0.00     0.049 A 
ATOM     54  C   UNL A   1      41.974  29.494  29.141  1.00  0.00     0.074 A 
ATOM     55  C   UNL A   1      48.306  29.258  28.773  1.00  0.00     0.029 A 
ATOM     56  N   UNL A   1      46.139  28.753  28.768  1.00  0.00    -0.354 N 
ATOM     57  N   UNL A   1      43.271  29.356  29.020  1.00  0.00    -0.248 NA
ATOM     58  C   UNL A   1      41.549  30.821  29.605  1.00  0.00     0.031 C 
ATOM     59  C   UNL A   1      47.588  30.389  29.170  1.00  0.00     0.029 A 
ATOM     60  C   UNL A   1      46.238  30.082  29.145  1.00  0.00     0.049 A 
ATOM     61  H   UNL A   1      45.296  28.252  28.672  1.00  0.00     0.167 HD
ATOM     62  C   UNL A   1      43.818  30.579  29.381  1.00  0.00     0.074 A 
ATOM     63  C   UNL A   1      42.709  31.454  29.702  1.00  0.00     0.031 C 
ATOM     64  C   UNL A   1      45.122  30.940  29.451  1.00  0.00     0.037 A 
BRANCH  51  65
ATOM     65  C   UNL A   1      49.106  26.486  27.922  1.00  0.00     0.064 A 
ATOM     66  C   UNL A   1      49.671  26.457  26.638  1.00  0.00     0.173 A 
ATOM     67  C   UNL A   1      49.948  26.232  29.016  1.00  0.00     0.173 A 
ATOM     68  F   UNL A   1      48.906  26.680  25.559  1.00  0.00    -0.203 F 
ATOM     69  C   UNL A   1      51.025  26.184  26.458  1.00  0.00     0.198 A 
ATOM     70  C   UNL A   1      51.307  25.984  28.834  1.00  0.00     0.198 A 
ATOM     71  F   UNL A   1      49.459  26.254  30.265  1.00  0.00    -0.203 F 
ATOM     72  F   UNL A   1      51.538  26.139  25.221  1.00  0.00    -0.200 F 
ATOM     73  C   UNL A   1      51.843  25.958  27.555  1.00  0.00     0.200 A 
ATOM     74  F   UNL A   1      52.098  25.780  29.896  1.00  0.00    -0.200 F 
ATOM     75  F   UNL A   1      53.149  25.718  27.381  1.00  0.00    -0.200 F 
ENDBRANCH  51  65
BRANCH  52  76
ATOM     76  C   UNL A   1      39.453  28.860  28.991  1.00  0.00     0.064 A 
ATOM     77  C   UNL A   1      38.781  28.772  30.219  1.00  0.00     0.173 A 
ATOM     78  C   UNL A   1      38.728  29.321  27.882  1.00  0.00     0.173 A 
ATOM     79  F   UNL A   1      39.426  28.319  31.304  1.00  0.00    -0.203 F 
ATOM     80  C   UNL A   1      37.438  29.122  30.329  1.00  0.00     0.198 A 
ATOM     81  C   UNL A   1      37.394  29.701  28.001  1.00  0.00     0.198 A 
ATOM     82  F   UNL A   1      39.325  29.424  26.686  1.00  0.00    -0.203 F 
ATOM     83  F   UNL A   1      36.808  28.994  31.505  1.00  0.00    -0.200 F 
ATOM     84  C   UNL A   1      36.747  29.595  29.222  1.00  0.00     0.200 A 
ATOM     85  F   UNL A   1      36.737  30.173  26.933  1.00  0.00    -0.200 F 
ATOM     86  F   UNL A   1      35.459  29.942  29.332  1.00  0.00    -0.200 F 
ENDBRANCH  52  76
BRANCH  64  87
ATOM     87  C   UNL A   1      45.424  32.346  29.870  1.00  0.00     0.064 A 
ATOM     88  C   UNL A   1      45.709  32.664  31.206  1.00  0.00     0.173 A 
ATOM     89  C   UNL A   1      45.494  33.373  28.917  1.00  0.00     0.173 A 
ATOM     90  F   UNL A   1      45.640  31.717  32.154  1.00  0.00    -0.203 F 
ATOM     91  C   UNL A   1      46.039  33.964  31.575  1.00  0.00     0.198 A 
ATOM     92  C   UNL A   1      45.851  34.666  29.286  1.00  0.00     0.198 A 
ATOM     93  F   UNL A   1      45.237  33.116  27.626  1.00  0.00    -0.203 F 
ATOM     94  F   UNL A   1      46.273  34.254  32.862  1.00  0.00    -0.200 F 
ATOM     95  C   UNL A   1      46.118  34.962  30.614  1.00  0.00     0.200 A 
ATOM     96  F   UNL A   1      45.941  35.625  28.354  1.00  0.00    -0.200 F 
ATOM     97  F   UNL A   1      46.450  36.210  30.970  1.00  0.00    -0.200 F 
ENDBRANCH  64  87
ENDBRANCH  38  39
ENDBRANCH  30  33
ENDBRANCH  28  29
ENDBRANCH  27  28
ENDBRANCH   1  27
TORSDOF 14
ENDMDL
