MODEL 1
REMARK VINA RESULT:     -12.4      0.000      0.000
REMARK SMILES CSCC[C@@H](NS(=O)(=O)c1ccc(F)c(C)c1)C(=O)NCCCNC(=O)c1ccc(-c2c3nc(c(-c4c(F)c(F)c(F)c(F)c4F)c4ccc([nH]4)c(-c4c(F)c(F)c(F)c(F)c4F)c4nc(c(-c5c(F)c(F)c(F)c(F)c5F)c5ccc2[nH]5)C=C4)C=C3)cc1
REMARK SMILES IDX 21 1 20 2 18 3 19 4 5 6 4 7 3 8 2 9 1 10 6 11 7 13 8 14 9 15
REMARK SMILES IDX 10 16 11 17 17 18 12 19 15 20 13 21 16 22 14 23 22 24 23 25
REMARK SMILES IDX 24 26 25 27 26 29 27 30 28 31 89 32 29 33 88 34 30 35 31 36
REMARK SMILES IDX 32 37 82 38 33 39 87 40 81 41 83 42 34 43 86 44 80 45 79 46
REMARK SMILES IDX 35 48 67 49 47 50 66 51 48 52 51 53 65 54 84 55 49 56 50 57
REMARK SMILES IDX 64 59 85 60 52 61 36 62 37 63 45 64 38 65 39 66 43 67 46 68
REMARK SMILES IDX 40 69 41 70 44 71 42 72 68 73 69 74 77 75 70 76 71 77 75 78
REMARK SMILES IDX 78 79 72 80 73 81 76 82 74 83 53 84 54 85 62 86 55 87 56 88
REMARK SMILES IDX 60 89 63 90 57 91 58 92 61 93 59 94
REMARK H PARENT 20 5 6 12 24 28 83 47 51 58
REMARK Flexibility Score: inf
ROOT
ATOM      1  C   UNL A   1      33.081  29.093  24.408  1.00  0.00     0.117 C 
ENDROOT
BRANCH   1   2
ATOM      2  N   UNL A   1      31.956  29.405  23.527  1.00  0.00    -0.355 N 
ATOM      3  C   UNL A   1      31.129  28.573  22.825  1.00  0.00     0.238 C 
ATOM      4  O   UNL A   1      30.295  29.075  22.071  1.00  0.00    -0.273 OA
ATOM      5  H   UNL A   1      31.764  30.365  23.424  1.00  0.00     0.163 HD
BRANCH   3   6
ATOM      6  C   UNL A   1      31.262  27.057  22.985  1.00  0.00     0.159 C 
BRANCH   6   7
ATOM      7  C   UNL A   1      29.955  26.541  23.610  1.00  0.00     0.041 C 
BRANCH   7   8
ATOM      8  C   UNL A   1      29.932  26.151  25.080  1.00  0.00     0.071 C 
BRANCH   8   9
ATOM      9  S   UNL A   1      30.651  24.533  25.443  1.00  0.00    -0.165 SA
ATOM     10  C   UNL A   1      32.082  25.043  26.422  1.00  0.00     0.085 C 
ENDBRANCH   8   9
ENDBRANCH   7   8
ENDBRANCH   6   7
BRANCH   6  11
ATOM     11  N   UNL A   1      31.553  26.444  21.680  1.00  0.00    -0.199 NA
ATOM     12  H   UNL A   1      31.374  27.168  20.984  1.00  0.00     0.142 HD
BRANCH  11  13
ATOM     13  S   UNL A   1      33.041  25.788  21.286  1.00  0.00     0.241 S 
ATOM     14  O   UNL A   1      32.925  25.264  19.953  1.00  0.00    -0.207 OA
ATOM     15  O   UNL A   1      33.996  26.839  21.608  1.00  0.00    -0.207 OA
BRANCH  13  16
ATOM     16  C   UNL A   1      33.359  24.445  22.413  1.00  0.00     0.082 A 
ATOM     17  C   UNL A   1      32.578  23.281  22.391  1.00  0.00     0.025 A 
ATOM     18  C   UNL A   1      34.370  24.594  23.373  1.00  0.00     0.028 A 
ATOM     19  C   UNL A   1      32.887  22.226  23.257  1.00  0.00     0.041 A 
ATOM     20  C   UNL A   1      34.652  23.555  24.272  1.00  0.00    -0.014 A 
ATOM     21  C   UNL A   1      33.921  22.369  24.181  1.00  0.00     0.126 A 
ATOM     22  C   UNL A   1      35.706  23.712  25.326  1.00  0.00     0.047 C 
ATOM     23  F   UNL A   1      34.202  21.346  25.001  1.00  0.00    -0.207 F 
ENDBRANCH  13  16
ENDBRANCH  11  13
ENDBRANCH   6  11
ENDBRANCH   3   6
ENDBRANCH   1   2
BRANCH   1  24
ATOM     24  C   UNL A   1      32.731  29.313  25.871  1.00  0.00     0.042 C 
BRANCH  24  25
ATOM     25  C   UNL A   1      34.005  29.394  26.640  1.00  0.00     0.118 C 
BRANCH  25  26
ATOM     26  N   UNL A   1      34.305  30.734  27.102  1.00  0.00    -0.352 N 
ATOM     27  C   UNL A   1      35.258  31.103  28.016  1.00  0.00     0.251 C 
ATOM     28  H   UNL A   1      33.765  31.461  26.716  1.00  0.00     0.163 HD
ATOM     29  O   UNL A   1      35.198  32.200  28.557  1.00  0.00    -0.269 OA
BRANCH  27  30
ATOM     30  C   UNL A   1      36.396  30.198  28.273  1.00  0.00     0.039 A 
ATOM     31  C   UNL A   1      36.493  29.506  29.485  1.00  0.00     0.014 A 
ATOM     32  C   UNL A   1      37.464  30.178  27.380  1.00  0.00     0.014 A 
ATOM     33  C   UNL A   1      37.709  28.928  29.831  1.00  0.00     0.010 A 
ATOM     34  C   UNL A   1      38.567  29.447  27.612  1.00  0.00     0.010 A 
ATOM     35  C   UNL A   1      38.738  28.978  28.897  1.00  0.00    -0.014 A 
BRANCH  35  36
ATOM     36  C   UNL A   1      40.102  28.568  29.071  1.00  0.00     0.031 A 
ATOM     37  C   UNL A   1      40.381  27.193  28.697  1.00  0.00     0.074 A 
ATOM     38  C   UNL A   1      40.986  29.581  29.221  1.00  0.00     0.049 A 
ATOM     39  N   UNL A   1      41.283  26.461  29.228  1.00  0.00    -0.248 NA
ATOM     40  C   UNL A   1      39.572  26.491  27.699  1.00  0.00     0.031 C 
ATOM     41  C   UNL A   1      42.427  29.621  29.060  1.00  0.00     0.029 A 
ATOM     42  N   UNL A   1      40.667  30.883  29.654  1.00  0.00    -0.354 N 
ATOM     43  C   UNL A   1      41.450  25.395  28.374  1.00  0.00     0.074 A 
ATOM     44  C   UNL A   1      40.238  25.341  27.597  1.00  0.00     0.031 C 
ATOM     45  C   UNL A   1      42.897  30.696  29.728  1.00  0.00     0.029 A 
ATOM     46  C   UNL A   1      41.770  31.328  30.403  1.00  0.00     0.049 A 
ATOM     47  H   UNL A   1      39.838  31.381  29.469  1.00  0.00     0.167 HD
ATOM     48  C   UNL A   1      42.704  24.869  28.260  1.00  0.00     0.037 A 
ATOM     49  C   UNL A   1      41.601  31.438  31.756  1.00  0.00     0.037 A 
ATOM     50  C   UNL A   1      43.625  25.636  29.124  1.00  0.00     0.049 A 
ATOM     51  C   UNL A   1      42.294  30.305  32.467  1.00  0.00     0.074 A 
ATOM     52  C   UNL A   1      44.513  26.664  28.841  1.00  0.00     0.029 A 
ATOM     53  N   UNL A   1      43.377  25.712  30.498  1.00  0.00    -0.354 N 
ATOM     54  N   UNL A   1      42.590  29.161  31.908  1.00  0.00    -0.248 NA
ATOM     55  C   UNL A   1      42.784  30.415  33.832  1.00  0.00     0.031 C 
ATOM     56  C   UNL A   1      44.713  27.414  30.037  1.00  0.00     0.029 A 
ATOM     57  C   UNL A   1      43.959  26.843  31.051  1.00  0.00     0.049 A 
ATOM     58  H   UNL A   1      42.858  25.048  31.007  1.00  0.00     0.167 HD
ATOM     59  C   UNL A   1      43.321  28.405  32.779  1.00  0.00     0.074 A 
ATOM     60  C   UNL A   1      43.425  29.241  33.965  1.00  0.00     0.031 C 
ATOM     61  C   UNL A   1      43.796  27.159  32.470  1.00  0.00     0.037 A 
BRANCH  48  62
ATOM     62  C   UNL A   1      43.158  23.941  27.147  1.00  0.00     0.064 A 
ATOM     63  C   UNL A   1      42.829  22.569  27.188  1.00  0.00     0.173 A 
ATOM     64  C   UNL A   1      43.920  24.318  26.020  1.00  0.00     0.173 A 
ATOM     65  F   UNL A   1      42.041  22.070  28.149  1.00  0.00    -0.203 F 
ATOM     66  C   UNL A   1      43.282  21.652  26.232  1.00  0.00     0.198 A 
ATOM     67  C   UNL A   1      44.411  23.395  25.089  1.00  0.00     0.198 A 
ATOM     68  F   UNL A   1      44.166  25.596  25.724  1.00  0.00    -0.203 F 
ATOM     69  F   UNL A   1      42.923  20.365  26.327  1.00  0.00    -0.200 F 
ATOM     70  C   UNL A   1      44.092  22.061  25.194  1.00  0.00     0.200 A 
ATOM     71  F   UNL A   1      45.181  23.822  24.076  1.00  0.00    -0.200 F 
ATOM     72  F   UNL A   1      44.534  21.183  24.284  1.00  0.00    -0.200 F 
ENDBRANCH  48  62
BRANCH  49  73
ATOM     73  C   UNL A   1      40.262  32.039  32.081  1.00  0.00     0.064 A 
ATOM     74  C   UNL A   1      39.359  31.153  32.708  1.00  0.00     0.173 A 
ATOM     75  C   UNL A   1      40.121  33.405  32.366  1.00  0.00     0.173 A 
ATOM     76  F   UNL A   1      39.391  29.845  32.406  1.00  0.00    -0.203 F 
ATOM     77  C   UNL A   1      38.591  31.564  33.793  1.00  0.00     0.198 A 
ATOM     78  C   UNL A   1      39.284  33.824  33.407  1.00  0.00     0.198 A 
ATOM     79  F   UNL A   1      40.889  34.313  31.748  1.00  0.00    -0.203 F 
ATOM     80  F   UNL A   1      37.944  30.656  34.539  1.00  0.00    -0.200 F 
ATOM     81  C   UNL A   1      38.598  32.893  34.177  1.00  0.00     0.200 A 
ATOM     82  F   UNL A   1      39.215  35.124  33.725  1.00  0.00    -0.200 F 
ATOM     83  F   UNL A   1      37.985  33.256  35.312  1.00  0.00    -0.200 F 
ENDBRANCH  49  73
BRANCH  61  84
ATOM     84  C   UNL A   1      44.260  26.164  33.506  1.00  0.00     0.064 A 
ATOM     85  C   UNL A   1      43.424  25.633  34.504  1.00  0.00     0.173 A 
ATOM     86  C   UNL A   1      45.556  25.599  33.442  1.00  0.00     0.173 A 
ATOM     87  F   UNL A   1      42.121  25.936  34.568  1.00  0.00    -0.203 F 
ATOM     88  C   UNL A   1      43.887  24.716  35.447  1.00  0.00     0.198 A 
ATOM     89  C   UNL A   1      45.981  24.609  34.323  1.00  0.00     0.198 A 
ATOM     90  F   UNL A   1      46.444  25.964  32.506  1.00  0.00    -0.203 F 
ATOM     91  F   UNL A   1      43.075  24.320  36.436  1.00  0.00    -0.200 F 
ATOM     92  C   UNL A   1      45.161  24.196  35.350  1.00  0.00     0.200 A 
ATOM     93  F   UNL A   1      47.189  24.051  34.158  1.00  0.00    -0.200 F 
ATOM     94  F   UNL A   1      45.587  23.280  36.228  1.00  0.00    -0.200 F 
ENDBRANCH  61  84
ENDBRANCH  35  36
ENDBRANCH  27  30
ENDBRANCH  25  26
ENDBRANCH  24  25
ENDBRANCH   1  24
TORSDOF 16
ENDMDL
MODEL 2
REMARK VINA RESULT:     -12.0      1.371      2.217
REMARK SMILES CSCC[C@@H](NS(=O)(=O)c1ccc(F)c(C)c1)C(=O)NCCCNC(=O)c1ccc(-c2c3nc(c(-c4c(F)c(F)c(F)c(F)c4F)c4ccc([nH]4)c(-c4c(F)c(F)c(F)c(F)c4F)c4nc(c(-c5c(F)c(F)c(F)c(F)c5F)c5ccc2[nH]5)C=C4)C=C3)cc1
REMARK SMILES IDX 21 1 20 2 18 3 19 4 5 6 4 7 3 8 2 9 1 10 6 11 7 13 8 14 9 15
REMARK SMILES IDX 10 16 11 17 17 18 12 19 15 20 13 21 16 22 14 23 22 24 23 25
REMARK SMILES IDX 24 26 25 27 26 29 27 30 28 31 89 32 29 33 88 34 30 35 31 36
REMARK SMILES IDX 32 37 82 38 33 39 87 40 81 41 83 42 34 43 86 44 80 45 79 46
REMARK SMILES IDX 35 48 67 49 47 50 66 51 48 52 51 53 65 54 84 55 49 56 50 57
REMARK SMILES IDX 64 59 85 60 52 61 36 62 37 63 45 64 38 65 39 66 43 67 46 68
REMARK SMILES IDX 40 69 41 70 44 71 42 72 68 73 69 74 77 75 70 76 71 77 75 78
REMARK SMILES IDX 78 79 72 80 73 81 76 82 74 83 53 84 54 85 62 86 55 87 56 88
REMARK SMILES IDX 60 89 63 90 57 91 58 92 61 93 59 94
REMARK H PARENT 20 5 6 12 24 28 83 47 51 58
REMARK Flexibility Score: inf
ROOT
ATOM      1  C   UNL A   1      31.786  29.707  26.012  1.00  0.00     0.117 C 
ENDROOT
BRANCH   1   2
ATOM      2  N   UNL A   1      32.194  29.724  24.609  1.00  0.00    -0.355 N 
ATOM      3  C   UNL A   1      31.846  28.896  23.578  1.00  0.00     0.238 C 
ATOM      4  O   UNL A   1      32.392  29.056  22.486  1.00  0.00    -0.273 OA
ATOM      5  H   UNL A   1      32.818  30.447  24.367  1.00  0.00     0.163 HD
BRANCH   3   6
ATOM      6  C   UNL A   1      30.803  27.799  23.805  1.00  0.00     0.159 C 
BRANCH   6   7
ATOM      7  C   UNL A   1      29.655  28.039  22.811  1.00  0.00     0.041 C 
BRANCH   7   8
ATOM      8  C   UNL A   1      28.761  29.257  22.982  1.00  0.00     0.071 C 
BRANCH   8   9
ATOM      9  S   UNL A   1      29.013  30.558  21.752  1.00  0.00    -0.165 SA
ATOM     10  C   UNL A   1      28.205  31.939  22.592  1.00  0.00     0.085 C 
ENDBRANCH   8   9
ENDBRANCH   7   8
ENDBRANCH   6   7
BRANCH   6  11
ATOM     11  N   UNL A   1      31.431  26.477  23.645  1.00  0.00    -0.199 NA
ATOM     12  H   UNL A   1      32.438  26.642  23.666  1.00  0.00     0.142 HD
BRANCH  11  13
ATOM     13  S   UNL A   1      31.153  25.198  24.686  1.00  0.00     0.241 S 
ATOM     14  O   UNL A   1      30.479  25.736  25.835  1.00  0.00    -0.207 OA
ATOM     15  O   UNL A   1      30.535  24.179  23.850  1.00  0.00    -0.207 OA
BRANCH  13  16
ATOM     16  C   UNL A   1      32.736  24.554  25.191  1.00  0.00     0.082 A 
ATOM     17  C   UNL A   1      33.924  25.006  24.601  1.00  0.00     0.025 A 
ATOM     18  C   UNL A   1      32.774  23.533  26.152  1.00  0.00     0.028 A 
ATOM     19  C   UNL A   1      35.152  24.514  25.056  1.00  0.00     0.041 A 
ATOM     20  C   UNL A   1      34.002  23.007  26.578  1.00  0.00    -0.014 A 
ATOM     21  C   UNL A   1      35.181  23.529  26.041  1.00  0.00     0.126 A 
ATOM     22  C   UNL A   1      34.058  21.892  27.578  1.00  0.00     0.047 C 
ATOM     23  F   UNL A   1      36.367  23.071  26.465  1.00  0.00    -0.207 F 
ENDBRANCH  13  16
ENDBRANCH  11  13
ENDBRANCH   6  11
ENDBRANCH   3   6
ENDBRANCH   1   2
BRANCH   1  24
ATOM     24  C   UNL A   1      32.749  28.905  26.872  1.00  0.00     0.042 C 
BRANCH  24  25
ATOM     25  C   UNL A   1      34.130  29.390  26.588  1.00  0.00     0.118 C 
BRANCH  25  26
ATOM     26  N   UNL A   1      34.399  30.699  27.147  1.00  0.00    -0.352 N 
ATOM     27  C   UNL A   1      35.322  31.016  28.110  1.00  0.00     0.251 C 
ATOM     28  H   UNL A   1      33.859  31.443  26.796  1.00  0.00     0.163 HD
ATOM     29  O   UNL A   1      35.231  32.073  28.722  1.00  0.00    -0.269 OA
BRANCH  27  30
ATOM     30  C   UNL A   1      36.464  30.110  28.337  1.00  0.00     0.039 A 
ATOM     31  C   UNL A   1      36.567  29.381  29.527  1.00  0.00     0.014 A 
ATOM     32  C   UNL A   1      37.531  30.124  27.443  1.00  0.00     0.014 A 
ATOM     33  C   UNL A   1      37.787  28.799  29.853  1.00  0.00     0.010 A 
ATOM     34  C   UNL A   1      38.639  29.392  27.650  1.00  0.00     0.010 A 
ATOM     35  C   UNL A   1      38.814  28.885  28.919  1.00  0.00    -0.014 A 
BRANCH  35  36
ATOM     36  C   UNL A   1      40.181  28.476  29.079  1.00  0.00     0.031 A 
ATOM     37  C   UNL A   1      40.460  27.104  28.692  1.00  0.00     0.074 A 
ATOM     38  C   UNL A   1      41.063  29.491  29.228  1.00  0.00     0.049 A 
ATOM     39  N   UNL A   1      41.368  26.371  29.211  1.00  0.00    -0.248 NA
ATOM     40  C   UNL A   1      39.644  26.408  27.697  1.00  0.00     0.031 C 
ATOM     41  C   UNL A   1      42.503  29.536  29.054  1.00  0.00     0.029 A 
ATOM     42  N   UNL A   1      40.745  30.789  29.673  1.00  0.00    -0.354 N 
ATOM     43  C   UNL A   1      41.531  25.312  28.347  1.00  0.00     0.074 A 
ATOM     44  C   UNL A   1      40.312  25.260  27.580  1.00  0.00     0.031 C 
ATOM     45  C   UNL A   1      42.976  30.608  29.726  1.00  0.00     0.029 A 
ATOM     46  C   UNL A   1      41.853  31.231  30.415  1.00  0.00     0.049 A 
ATOM     47  H   UNL A   1      39.913  31.286  29.499  1.00  0.00     0.167 HD
ATOM     48  C   UNL A   1      42.784  24.790  28.219  1.00  0.00     0.037 A 
ATOM     49  C   UNL A   1      41.696  31.331  31.770  1.00  0.00     0.037 A 
ATOM     50  C   UNL A   1      43.711  25.553  29.080  1.00  0.00     0.049 A 
ATOM     51  C   UNL A   1      42.398  30.196  32.467  1.00  0.00     0.074 A 
ATOM     52  C   UNL A   1      44.594  26.586  28.796  1.00  0.00     0.029 A 
ATOM     53  N   UNL A   1      43.476  25.619  30.456  1.00  0.00    -0.354 N 
ATOM     54  N   UNL A   1      42.692  29.056  31.897  1.00  0.00    -0.248 NA
ATOM     55  C   UNL A   1      42.899  30.297  33.829  1.00  0.00     0.031 C 
ATOM     56  C   UNL A   1      44.803  27.328  29.996  1.00  0.00     0.029 A 
ATOM     57  C   UNL A   1      44.059  26.748  31.012  1.00  0.00     0.049 A 
ATOM     58  H   UNL A   1      42.963  24.950  30.965  1.00  0.00     0.167 HD
ATOM     59  C   UNL A   1      43.432  28.296  32.756  1.00  0.00     0.074 A 
ATOM     60  C   UNL A   1      43.545  29.124  33.948  1.00  0.00     0.031 C 
ATOM     61  C   UNL A   1      43.908  27.054  32.435  1.00  0.00     0.037 A 
BRANCH  48  62
ATOM     62  C   UNL A   1      43.231  23.871  27.095  1.00  0.00     0.064 A 
ATOM     63  C   UNL A   1      42.894  22.501  27.122  1.00  0.00     0.173 A 
ATOM     64  C   UNL A   1      43.994  24.255  25.972  1.00  0.00     0.173 A 
ATOM     65  F   UNL A   1      42.104  21.996  28.079  1.00  0.00    -0.203 F 
ATOM     66  C   UNL A   1      43.339  21.591  26.156  1.00  0.00     0.198 A 
ATOM     67  C   UNL A   1      44.478  23.339  25.030  1.00  0.00     0.198 A 
ATOM     68  F   UNL A   1      44.248  25.534  25.689  1.00  0.00    -0.203 F 
ATOM     69  F   UNL A   1      42.973  20.306  26.237  1.00  0.00    -0.200 F 
ATOM     70  C   UNL A   1      44.151  22.006  25.121  1.00  0.00     0.200 A 
ATOM     71  F   UNL A   1      45.250  23.771  24.020  1.00  0.00    -0.200 F 
ATOM     72  F   UNL A   1      44.586  21.135  24.201  1.00  0.00    -0.200 F 
ENDBRANCH  48  62
BRANCH  49  73
ATOM     73  C   UNL A   1      40.359  31.927  32.111  1.00  0.00     0.064 A 
ATOM     74  C   UNL A   1      39.471  31.040  32.760  1.00  0.00     0.173 A 
ATOM     75  C   UNL A   1      40.213  33.294  32.387  1.00  0.00     0.173 A 
ATOM     76  F   UNL A   1      39.507  29.731  32.468  1.00  0.00    -0.203 F 
ATOM     77  C   UNL A   1      38.717  31.456  33.854  1.00  0.00     0.198 A 
ATOM     78  C   UNL A   1      39.390  33.717  33.438  1.00  0.00     0.198 A 
ATOM     79  F   UNL A   1      40.965  34.202  31.749  1.00  0.00    -0.203 F 
ATOM     80  F   UNL A   1      38.089  30.550  34.617  1.00  0.00    -0.200 F 
ATOM     81  C   UNL A   1      38.722  32.788  34.226  1.00  0.00     0.200 A 
ATOM     82  F   UNL A   1      39.317  35.019  33.745  1.00  0.00    -0.200 F 
ATOM     83  F   UNL A   1      38.125  33.157  35.367  1.00  0.00    -0.200 F 
ENDBRANCH  49  73
BRANCH  61  84
ATOM     84  C   UNL A   1      44.384  26.052  33.460  1.00  0.00     0.064 A 
ATOM     85  C   UNL A   1      45.712  25.601  33.547  1.00  0.00     0.173 A 
ATOM     86  C   UNL A   1      43.528  25.608  34.495  1.00  0.00     0.173 A 
ATOM     87  F   UNL A   1      46.675  26.082  32.749  1.00  0.00    -0.203 F 
ATOM     88  C   UNL A   1      46.118  24.675  34.507  1.00  0.00     0.198 A 
ATOM     89  C   UNL A   1      43.963  24.762  35.511  1.00  0.00     0.198 A 
ATOM     90  F   UNL A   1      42.248  26.002  34.577  1.00  0.00    -0.203 F 
ATOM     91  F   UNL A   1      47.372  24.204  34.480  1.00  0.00    -0.200 F 
ATOM     92  C   UNL A   1      45.247  24.263  35.494  1.00  0.00     0.200 A 
ATOM     93  F   UNL A   1      43.129  24.445  36.511  1.00  0.00    -0.200 F 
ATOM     94  F   UNL A   1      45.653  23.410  36.442  1.00  0.00    -0.200 F 
ENDBRANCH  61  84
ENDBRANCH  35  36
ENDBRANCH  27  30
ENDBRANCH  25  26
ENDBRANCH  24  25
ENDBRANCH   1  24
TORSDOF 16
ENDMDL
MODEL 3
REMARK VINA RESULT:     -12.0      3.641      9.354
REMARK SMILES CSCC[C@@H](NS(=O)(=O)c1ccc(F)c(C)c1)C(=O)NCCCNC(=O)c1ccc(-c2c3nc(c(-c4c(F)c(F)c(F)c(F)c4F)c4ccc([nH]4)c(-c4c(F)c(F)c(F)c(F)c4F)c4nc(c(-c5c(F)c(F)c(F)c(F)c5F)c5ccc2[nH]5)C=C4)C=C3)cc1
REMARK SMILES IDX 21 1 20 2 18 3 19 4 5 6 4 7 3 8 2 9 1 10 6 11 7 13 8 14 9 15
REMARK SMILES IDX 10 16 11 17 17 18 12 19 15 20 13 21 16 22 14 23 22 24 23 25
REMARK SMILES IDX 24 26 25 27 26 29 27 30 28 31 89 32 29 33 88 34 30 35 31 36
REMARK SMILES IDX 32 37 82 38 33 39 87 40 81 41 83 42 34 43 86 44 80 45 79 46
REMARK SMILES IDX 35 48 67 49 47 50 66 51 48 52 51 53 65 54 84 55 49 56 50 57
REMARK SMILES IDX 64 59 85 60 52 61 36 62 37 63 45 64 38 65 39 66 43 67 46 68
REMARK SMILES IDX 40 69 41 70 44 71 42 72 68 73 69 74 77 75 70 76 71 77 75 78
REMARK SMILES IDX 78 79 72 80 73 81 76 82 74 83 53 84 54 85 62 86 55 87 56 88
REMARK SMILES IDX 60 89 63 90 57 91 58 92 61 93 59 94
REMARK H PARENT 20 5 6 12 24 28 83 47 51 58
REMARK Flexibility Score: inf
ROOT
ATOM      1  C   UNL A   1      36.507  21.406  25.232  1.00  0.00     0.117 C 
ENDROOT
BRANCH   1   2
ATOM      2  N   UNL A   1      35.649  21.407  26.415  1.00  0.00    -0.355 N 
ATOM      3  C   UNL A   1      34.305  21.632  26.529  1.00  0.00     0.238 C 
ATOM      4  O   UNL A   1      33.810  21.666  27.657  1.00  0.00    -0.273 OA
ATOM      5  H   UNL A   1      36.111  21.214  27.263  1.00  0.00     0.163 HD
BRANCH   3   6
ATOM      6  C   UNL A   1      33.459  21.841  25.271  1.00  0.00     0.159 C 
BRANCH   6   7
ATOM      7  C   UNL A   1      32.617  20.571  25.064  1.00  0.00     0.041 C 
BRANCH   7   8
ATOM      8  C   UNL A   1      33.008  19.585  23.974  1.00  0.00     0.071 C 
BRANCH   8   9
ATOM      9  S   UNL A   1      33.889  18.119  24.563  1.00  0.00    -0.165 SA
ATOM     10  C   UNL A   1      32.601  17.378  25.591  1.00  0.00     0.085 C 
ENDBRANCH   8   9
ENDBRANCH   7   8
ENDBRANCH   6   7
BRANCH   6  11
ATOM     11  N   UNL A   1      32.639  23.054  25.420  1.00  0.00    -0.199 NA
ATOM     12  H   UNL A   1      32.795  23.381  26.374  1.00  0.00     0.142 HD
BRANCH  11  13
ATOM     13  S   UNL A   1      32.806  24.399  24.441  1.00  0.00     0.241 S 
ATOM     14  O   UNL A   1      34.164  24.406  23.971  1.00  0.00    -0.207 OA
ATOM     15  O   UNL A   1      31.684  24.316  23.518  1.00  0.00    -0.207 OA
BRANCH  13  16
ATOM     16  C   UNL A   1      32.534  25.843  25.449  1.00  0.00     0.082 A 
ATOM     17  C   UNL A   1      31.258  26.156  25.935  1.00  0.00     0.025 A 
ATOM     18  C   UNL A   1      33.611  26.705  25.699  1.00  0.00     0.028 A 
ATOM     19  C   UNL A   1      31.089  27.270  26.764  1.00  0.00     0.041 A 
ATOM     20  C   UNL A   1      33.435  27.847  26.492  1.00  0.00    -0.014 A 
ATOM     21  C   UNL A   1      32.175  28.099  27.040  1.00  0.00     0.126 A 
ATOM     22  C   UNL A   1      34.568  28.796  26.741  1.00  0.00     0.047 C 
ATOM     23  F   UNL A   1      31.994  29.161  27.838  1.00  0.00    -0.207 F 
ENDBRANCH  13  16
ENDBRANCH  11  13
ENDBRANCH   6  11
ENDBRANCH   3   6
ENDBRANCH   1   2
BRANCH   1  24
ATOM     24  C   UNL A   1      36.879  22.816  24.802  1.00  0.00     0.042 C 
BRANCH  24  25
ATOM     25  C   UNL A   1      37.476  23.511  25.977  1.00  0.00     0.118 C 
BRANCH  25  26
ATOM     26  N   UNL A   1      38.714  22.908  26.425  1.00  0.00    -0.352 N 
ATOM     27  C   UNL A   1      39.857  23.554  26.822  1.00  0.00     0.251 C 
ATOM     28  H   UNL A   1      38.738  21.924  26.448  1.00  0.00     0.163 HD
ATOM     29  O   UNL A   1      40.921  22.949  26.864  1.00  0.00    -0.269 OA
BRANCH  27  30
ATOM     30  C   UNL A   1      39.769  24.957  27.274  1.00  0.00     0.039 A 
ATOM     31  C   UNL A   1      40.303  25.988  26.496  1.00  0.00     0.014 A 
ATOM     32  C   UNL A   1      39.317  25.228  28.562  1.00  0.00     0.014 A 
ATOM     33  C   UNL A   1      40.498  27.236  27.078  1.00  0.00     0.010 A 
ATOM     34  C   UNL A   1      39.307  26.476  29.061  1.00  0.00     0.010 A 
ATOM     35  C   UNL A   1      40.048  27.418  28.382  1.00  0.00    -0.014 A 
BRANCH  35  36
ATOM     36  C   UNL A   1      40.246  28.561  29.226  1.00  0.00     0.031 A 
ATOM     37  C   UNL A   1      39.215  29.580  29.131  1.00  0.00     0.074 A 
ATOM     38  C   UNL A   1      41.146  28.384  30.220  1.00  0.00     0.049 A 
ATOM     39  N   UNL A   1      39.405  30.829  29.317  1.00  0.00    -0.248 NA
ATOM     40  C   UNL A   1      37.848  29.251  28.725  1.00  0.00     0.031 C 
ATOM     41  C   UNL A   1      41.359  29.115  31.455  1.00  0.00     0.029 A 
ATOM     42  N   UNL A   1      42.171  27.418  30.229  1.00  0.00    -0.354 N 
ATOM     43  C   UNL A   1      38.153  31.376  29.481  1.00  0.00     0.074 A 
ATOM     44  C   UNL A   1      37.246  30.429  28.884  1.00  0.00     0.031 C 
ATOM     45  C   UNL A   1      42.610  28.854  31.890  1.00  0.00     0.029 A 
ATOM     46  C   UNL A   1      43.258  28.008  30.896  1.00  0.00     0.049 A 
ATOM     47  H   UNL A   1      42.133  26.513  29.845  1.00  0.00     0.167 HD
ATOM     48  C   UNL A   1      38.034  32.431  30.338  1.00  0.00     0.037 A 
ATOM     49  C   UNL A   1      44.346  28.345  30.138  1.00  0.00     0.037 A 
ATOM     50  C   UNL A   1      39.358  32.726  30.922  1.00  0.00     0.049 A 
ATOM     51  C   UNL A   1      44.398  29.835  29.925  1.00  0.00     0.074 A 
ATOM     52  C   UNL A   1      39.929  32.376  32.137  1.00  0.00     0.029 A 
ATOM     53  N   UNL A   1      40.425  33.051  30.079  1.00  0.00    -0.354 N 
ATOM     54  N   UNL A   1      43.360  30.625  30.017  1.00  0.00    -0.248 NA
ATOM     55  C   UNL A   1      45.640  30.553  29.682  1.00  0.00     0.031 C 
ATOM     56  C   UNL A   1      41.346  32.398  31.981  1.00  0.00     0.029 A 
ATOM     57  C   UNL A   1      41.644  32.769  30.679  1.00  0.00     0.049 A 
ATOM     58  H   UNL A   1      40.325  33.432  29.176  1.00  0.00     0.167 HD
ATOM     59  C   UNL A   1      43.765  31.923  29.893  1.00  0.00     0.074 A 
ATOM     60  C   UNL A   1      45.203  31.824  29.698  1.00  0.00     0.031 C 
ATOM     61  C   UNL A   1      42.904  32.984  29.968  1.00  0.00     0.037 A 
BRANCH  48  62
ATOM     62  C   UNL A   1      36.722  32.944  30.907  1.00  0.00     0.064 A 
ATOM     63  C   UNL A   1      35.890  33.780  30.131  1.00  0.00     0.173 A 
ATOM     64  C   UNL A   1      36.220  32.668  32.197  1.00  0.00     0.173 A 
ATOM     65  F   UNL A   1      36.186  34.068  28.857  1.00  0.00    -0.203 F 
ATOM     66  C   UNL A   1      34.709  34.343  30.626  1.00  0.00     0.198 A 
ATOM     67  C   UNL A   1      35.063  33.267  32.708  1.00  0.00     0.198 A 
ATOM     68  F   UNL A   1      36.779  31.757  32.996  1.00  0.00    -0.203 F 
ATOM     69  F   UNL A   1      33.962  35.121  29.831  1.00  0.00    -0.200 F 
ATOM     70  C   UNL A   1      34.306  34.105  31.923  1.00  0.00     0.200 A 
ATOM     71  F   UNL A   1      34.680  33.002  33.967  1.00  0.00    -0.200 F 
ATOM     72  F   UNL A   1      33.180  34.651  32.401  1.00  0.00    -0.200 F 
ENDBRANCH  48  62
BRANCH  49  73
ATOM     73  C   UNL A   1      44.656  27.266  29.137  1.00  0.00     0.064 A 
ATOM     74  C   UNL A   1      44.463  27.644  27.790  1.00  0.00     0.173 A 
ATOM     75  C   UNL A   1      45.622  26.282  29.394  1.00  0.00     0.173 A 
ATOM     76  F   UNL A   1      43.493  28.517  27.476  1.00  0.00    -0.203 F 
ATOM     77  C   UNL A   1      45.396  27.309  26.813  1.00  0.00     0.198 A 
ATOM     78  C   UNL A   1      46.509  25.886  28.386  1.00  0.00     0.198 A 
ATOM     79  F   UNL A   1      45.805  25.815  30.636  1.00  0.00    -0.203 F 
ATOM     80  F   UNL A   1      45.341  27.892  25.606  1.00  0.00    -0.200 F 
ATOM     81  C   UNL A   1      46.451  26.473  27.128  1.00  0.00     0.200 A 
ATOM     82  F   UNL A   1      47.479  25.004  28.660  1.00  0.00    -0.200 F 
ATOM     83  F   UNL A   1      47.430  26.279  26.233  1.00  0.00    -0.200 F 
ENDBRANCH  49  73
BRANCH  61  84
ATOM     84  C   UNL A   1      43.241  34.367  29.465  1.00  0.00     0.064 A 
ATOM     85  C   UNL A   1      43.369  35.489  30.302  1.00  0.00     0.173 A 
ATOM     86  C   UNL A   1      43.585  34.584  28.110  1.00  0.00     0.173 A 
ATOM     87  F   UNL A   1      43.256  35.393  31.634  1.00  0.00    -0.203 F 
ATOM     88  C   UNL A   1      43.681  36.753  29.803  1.00  0.00     0.198 A 
ATOM     89  C   UNL A   1      43.994  35.827  27.634  1.00  0.00     0.198 A 
ATOM     90  F   UNL A   1      43.567  33.594  27.205  1.00  0.00    -0.203 F 
ATOM     91  F   UNL A   1      43.690  37.806  30.633  1.00  0.00    -0.200 F 
ATOM     92  C   UNL A   1      44.003  36.921  28.473  1.00  0.00     0.200 A 
ATOM     93  F   UNL A   1      44.390  35.951  26.360  1.00  0.00    -0.200 F 
ATOM     94  F   UNL A   1      44.348  38.127  28.006  1.00  0.00    -0.200 F 
ENDBRANCH  61  84
ENDBRANCH  35  36
ENDBRANCH  27  30
ENDBRANCH  25  26
ENDBRANCH  24  25
ENDBRANCH   1  24
TORSDOF 16
ENDMDL
