MODEL 1
REMARK VINA RESULT:     -12.2      0.000      0.000
REMARK SMILES CC1(C)O[C@](C)(C(C)(C)O)CC[C@H]1C(=O)NCCCNC(=O)c1ccc(-c2c3nc(c(-c4c(F)c(F)c(F)c(F)c4F)c4ccc([nH]4)c(-c4c(F)c(F)c(F)c(F)c4F)c4nc(c(-c5c(F)c(F)c(F)c(F)c5F)c5ccc2[nH]5)C=C4)C=C3)cc1
REMARK SMILES IDX 18 1 17 2 16 3 14 4 15 5 13 7 1 8 2 9 3 10 4 11 5 12 12 13
REMARK SMILES IDX 6 14 11 15 7 16 8 17 9 18 10 19 19 21 20 22 21 23 22 25
REMARK SMILES IDX 23 26 24 27 85 28 25 29 84 30 26 31 27 32 28 33 78 34 29 35
REMARK SMILES IDX 83 36 77 37 79 38 30 39 82 40 76 41 75 42 31 44 63 45 43 46
REMARK SMILES IDX 62 47 44 48 47 49 61 50 80 51 45 52 46 53 60 55 81 56 48 57
REMARK SMILES IDX 32 58 33 59 41 60 34 61 35 62 39 63 42 64 36 65 37 66 40 67
REMARK SMILES IDX 38 68 64 69 65 70 73 71 66 72 67 73 71 74 74 75 68 76 69 77
REMARK SMILES IDX 72 78 70 79 49 80 50 81 58 82 51 83 52 84 56 85 59 86 53 87
REMARK SMILES IDX 54 88 57 89 55 90
REMARK H PARENT 16 6 10 20 20 24 79 43 47 54
REMARK Flexibility Score: inf
ROOT
ATOM      1  C   UNL A   1      33.126  29.282  24.362  1.00  0.00     0.042 C 
ENDROOT
BRANCH   1   2
ATOM      2  C   UNL A   1      34.034  28.118  23.987  1.00  0.00     0.117 C 
BRANCH   2   3
ATOM      3  N   UNL A   1      33.621  27.511  22.736  1.00  0.00    -0.356 N 
ATOM      4  C   UNL A   1      33.475  26.221  22.346  1.00  0.00     0.226 C 
ATOM      5  O   UNL A   1      33.261  26.042  21.143  1.00  0.00    -0.275 OA
ATOM      6  H   UNL A   1      33.404  28.165  22.032  1.00  0.00     0.163 HD
BRANCH   4   7
ATOM      7  C   UNL A   1      33.535  25.025  23.293  1.00  0.00     0.110 C 
ATOM      8  C   UNL A   1      30.941  24.440  23.130  1.00  0.00     0.043 C 
ATOM      9  C   UNL A   1      32.204  24.603  23.974  1.00  0.00     0.075 C 
ATOM     10  C   UNL A   1      31.834  25.686  25.019  1.00  0.00     0.043 C 
ATOM     11  O   UNL A   1      32.355  23.393  24.736  1.00  0.00    -0.366 OA
ATOM     12  C   UNL A   1      33.061  22.272  24.173  1.00  0.00     0.094 C 
ATOM     13  C   UNL A   1      34.451  23.898  22.800  1.00  0.00     0.019 C 
ATOM     14  C   UNL A   1      32.363  21.675  22.928  1.00  0.00     0.045 C 
ATOM     15  C   UNL A   1      34.481  22.737  23.792  1.00  0.00     0.039 C 
BRANCH  12  16
ATOM     16  C   UNL A   1      33.081  21.165  25.305  1.00  0.00     0.088 C 
ATOM     17  C   UNL A   1      34.062  20.021  25.004  1.00  0.00     0.045 C 
ATOM     18  C   UNL A   1      33.464  21.771  26.672  1.00  0.00     0.045 C 
BRANCH  16  19
ATOM     19  O   UNL A   1      31.774  20.584  25.435  1.00  0.00    -0.387 OA
ATOM     20  H   UNL A   1      31.642  20.286  26.348  1.00  0.00     0.211 HD
ENDBRANCH  16  19
ENDBRANCH  12  16
ENDBRANCH   4   7
ENDBRANCH   2   3
ENDBRANCH   1   2
BRANCH   1  21
ATOM     21  C   UNL A   1      32.926  29.444  25.855  1.00  0.00     0.118 C 
BRANCH  21  22
ATOM     22  N   UNL A   1      32.720  30.831  26.224  1.00  0.00    -0.352 N 
ATOM     23  C   UNL A   1      33.349  31.595  27.170  1.00  0.00     0.251 C 
ATOM     24  H   UNL A   1      32.019  31.297  25.713  1.00  0.00     0.163 HD
ATOM     25  O   UNL A   1      32.845  32.672  27.500  1.00  0.00    -0.269 OA
BRANCH  23  26
ATOM     26  C   UNL A   1      34.610  31.153  27.809  1.00  0.00     0.039 A 
ATOM     27  C   UNL A   1      34.687  29.852  28.315  1.00  0.00     0.014 A 
ATOM     28  C   UNL A   1      35.692  32.021  27.981  1.00  0.00     0.014 A 
ATOM     29  C   UNL A   1      35.847  29.421  28.961  1.00  0.00     0.010 A 
ATOM     30  C   UNL A   1      36.889  31.556  28.513  1.00  0.00     0.010 A 
ATOM     31  C   UNL A   1      36.966  30.265  29.050  1.00  0.00    -0.014 A 
BRANCH  31  32
ATOM     32  C   UNL A   1      38.193  29.845  29.773  1.00  0.00     0.031 A 
ATOM     33  C   UNL A   1      38.456  30.362  31.165  1.00  0.00     0.074 A 
ATOM     34  C   UNL A   1      39.087  29.039  29.170  1.00  0.00     0.049 A 
ATOM     35  N   UNL A   1      39.487  30.156  31.946  1.00  0.00    -0.248 NA
ATOM     36  C   UNL A   1      37.441  31.258  31.744  1.00  0.00     0.031 C 
ATOM     37  C   UNL A   1      38.974  28.522  27.806  1.00  0.00     0.029 A 
ATOM     38  N   UNL A   1      40.270  28.517  29.627  1.00  0.00    -0.354 N 
ATOM     39  C   UNL A   1      39.255  30.917  33.086  1.00  0.00     0.074 A 
ATOM     40  C   UNL A   1      38.021  31.637  32.872  1.00  0.00     0.031 C 
ATOM     41  C   UNL A   1      40.026  27.727  27.548  1.00  0.00     0.029 A 
ATOM     42  C   UNL A   1      40.903  27.708  28.715  1.00  0.00     0.049 A 
ATOM     43  H   UNL A   1      40.631  28.703  30.524  1.00  0.00     0.167 HD
ATOM     44  C   UNL A   1      39.986  30.983  34.223  1.00  0.00     0.037 A 
ATOM     45  C   UNL A   1      42.058  27.025  28.815  1.00  0.00     0.037 A 
ATOM     46  C   UNL A   1      41.187  30.226  34.452  1.00  0.00     0.049 A 
ATOM     47  C   UNL A   1      42.834  27.085  30.103  1.00  0.00     0.074 A 
ATOM     48  C   UNL A   1      41.969  30.167  35.591  1.00  0.00     0.029 A 
ATOM     49  N   UNL A   1      41.774  29.385  33.517  1.00  0.00    -0.354 N 
ATOM     50  N   UNL A   1      42.569  27.754  31.198  1.00  0.00    -0.248 NA
ATOM     51  C   UNL A   1      44.062  26.282  30.172  1.00  0.00     0.031 C 
ATOM     52  C   UNL A   1      43.051  29.320  35.334  1.00  0.00     0.029 A 
ATOM     53  C   UNL A   1      42.917  28.811  34.052  1.00  0.00     0.049 A 
ATOM     54  H   UNL A   1      41.431  29.219  32.610  1.00  0.00     0.167 HD
ATOM     55  C   UNL A   1      43.577  27.430  32.097  1.00  0.00     0.074 A 
ATOM     56  C   UNL A   1      44.450  26.492  31.422  1.00  0.00     0.031 C 
ATOM     57  C   UNL A   1      43.764  27.870  33.366  1.00  0.00     0.037 A 
BRANCH  44  58
ATOM     58  C   UNL A   1      39.499  31.898  35.311  1.00  0.00     0.064 A 
ATOM     59  C   UNL A   1      39.894  33.244  35.375  1.00  0.00     0.173 A 
ATOM     60  C   UNL A   1      38.609  31.431  36.289  1.00  0.00     0.173 A 
ATOM     61  F   UNL A   1      40.754  33.739  34.473  1.00  0.00    -0.203 F 
ATOM     62  C   UNL A   1      39.442  34.077  36.395  1.00  0.00     0.198 A 
ATOM     63  C   UNL A   1      38.134  32.275  37.290  1.00  0.00     0.198 A 
ATOM     64  F   UNL A   1      38.196  30.155  36.275  1.00  0.00    -0.203 F 
ATOM     65  F   UNL A   1      39.878  35.343  36.467  1.00  0.00    -0.200 F 
ATOM     66  C   UNL A   1      38.557  33.594  37.347  1.00  0.00     0.200 A 
ATOM     67  F   UNL A   1      37.269  31.811  38.202  1.00  0.00    -0.200 F 
ATOM     68  F   UNL A   1      38.119  34.398  38.325  1.00  0.00    -0.200 F 
ENDBRANCH  44  58
BRANCH  45  69
ATOM     69  C   UNL A   1      42.528  26.192  27.678  1.00  0.00     0.064 A 
ATOM     70  C   UNL A   1      42.013  24.904  27.469  1.00  0.00     0.173 A 
ATOM     71  C   UNL A   1      43.495  26.662  26.777  1.00  0.00     0.173 A 
ATOM     72  F   UNL A   1      41.099  24.404  28.313  1.00  0.00    -0.203 F 
ATOM     73  C   UNL A   1      42.465  24.109  26.417  1.00  0.00     0.198 A 
ATOM     74  C   UNL A   1      43.925  25.878  25.708  1.00  0.00     0.198 A 
ATOM     75  F   UNL A   1      44.012  27.890  26.927  1.00  0.00    -0.203 F 
ATOM     76  F   UNL A   1      41.990  22.866  26.268  1.00  0.00    -0.200 F 
ATOM     77  C   UNL A   1      43.416  24.599  25.534  1.00  0.00     0.200 A 
ATOM     78  F   UNL A   1      44.832  26.359  24.848  1.00  0.00    -0.200 F 
ATOM     79  F   UNL A   1      43.847  23.836  24.520  1.00  0.00    -0.200 F 
ENDBRANCH  45  69
BRANCH  57  80
ATOM     80  C   UNL A   1      44.933  27.307  34.120  1.00  0.00     0.064 A 
ATOM     81  C   UNL A   1      44.829  26.123  34.863  1.00  0.00     0.173 A 
ATOM     82  C   UNL A   1      46.182  27.944  34.066  1.00  0.00     0.173 A 
ATOM     83  F   UNL A   1      43.652  25.485  34.956  1.00  0.00    -0.203 F 
ATOM     84  C   UNL A   1      45.926  25.615  35.554  1.00  0.00     0.198 A 
ATOM     85  C   UNL A   1      47.284  27.417  34.733  1.00  0.00     0.198 A 
ATOM     86  F   UNL A   1      46.336  29.074  33.360  1.00  0.00    -0.203 F 
ATOM     87  F   UNL A   1      45.791  24.512  36.302  1.00  0.00    -0.200 F 
ATOM     88  C   UNL A   1      47.153  26.258  35.482  1.00  0.00     0.200 A 
ATOM     89  F   UNL A   1      48.472  28.030  34.651  1.00  0.00    -0.200 F 
ATOM     90  F   UNL A   1      48.208  25.765  36.144  1.00  0.00    -0.200 F 
ENDBRANCH  57  80
ENDBRANCH  31  32
ENDBRANCH  23  26
ENDBRANCH  21  22
ENDBRANCH   1  21
TORSDOF 12
ENDMDL
MODEL 2
REMARK VINA RESULT:     -12.2      0.152      2.001
REMARK SMILES CC1(C)O[C@](C)(C(C)(C)O)CC[C@H]1C(=O)NCCCNC(=O)c1ccc(-c2c3nc(c(-c4c(F)c(F)c(F)c(F)c4F)c4ccc([nH]4)c(-c4c(F)c(F)c(F)c(F)c4F)c4nc(c(-c5c(F)c(F)c(F)c(F)c5F)c5ccc2[nH]5)C=C4)C=C3)cc1
REMARK SMILES IDX 18 1 17 2 16 3 14 4 15 5 13 7 1 8 2 9 3 10 4 11 5 12 12 13
REMARK SMILES IDX 6 14 11 15 7 16 8 17 9 18 10 19 19 21 20 22 21 23 22 25
REMARK SMILES IDX 23 26 24 27 85 28 25 29 84 30 26 31 27 32 28 33 78 34 29 35
REMARK SMILES IDX 83 36 77 37 79 38 30 39 82 40 76 41 75 42 31 44 63 45 43 46
REMARK SMILES IDX 62 47 44 48 47 49 61 50 80 51 45 52 46 53 60 55 81 56 48 57
REMARK SMILES IDX 32 58 33 59 41 60 34 61 35 62 39 63 42 64 36 65 37 66 40 67
REMARK SMILES IDX 38 68 64 69 65 70 73 71 66 72 67 73 71 74 74 75 68 76 69 77
REMARK SMILES IDX 72 78 70 79 49 80 50 81 58 82 51 83 52 84 56 85 59 86 53 87
REMARK SMILES IDX 54 88 57 89 55 90
REMARK H PARENT 16 6 10 20 20 24 79 43 47 54
REMARK Flexibility Score: inf
ROOT
ATOM      1  C   UNL A   1      32.994  29.107  24.390  1.00  0.00     0.042 C 
ENDROOT
BRANCH   1   2
ATOM      2  C   UNL A   1      34.028  28.112  23.881  1.00  0.00     0.117 C 
BRANCH   2   3
ATOM      3  N   UNL A   1      33.583  27.469  22.660  1.00  0.00    -0.356 N 
ATOM      4  C   UNL A   1      33.421  26.169  22.313  1.00  0.00     0.226 C 
ATOM      5  O   UNL A   1      33.178  25.954  21.122  1.00  0.00    -0.275 OA
ATOM      6  H   UNL A   1      33.351  28.102  21.942  1.00  0.00     0.163 HD
BRANCH   4   7
ATOM      7  C   UNL A   1      33.499  25.002  23.295  1.00  0.00     0.110 C 
ATOM      8  C   UNL A   1      30.919  24.355  23.126  1.00  0.00     0.043 C 
ATOM      9  C   UNL A   1      32.171  24.569  23.977  1.00  0.00     0.075 C 
ATOM     10  C   UNL A   1      31.768  25.674  24.986  1.00  0.00     0.043 C 
ATOM     11  O   UNL A   1      32.341  23.386  24.775  1.00  0.00    -0.366 OA
ATOM     12  C   UNL A   1      33.078  22.265  24.250  1.00  0.00     0.094 C 
ATOM     13  C   UNL A   1      34.444  23.882  22.843  1.00  0.00     0.019 C 
ATOM     14  C   UNL A   1      32.405  21.618  23.016  1.00  0.00     0.045 C 
ATOM     15  C   UNL A   1      34.490  22.751  23.868  1.00  0.00     0.039 C 
BRANCH  12  16
ATOM     16  C   UNL A   1      33.111  21.192  25.414  1.00  0.00     0.088 C 
ATOM     17  C   UNL A   1      33.958  19.959  25.064  1.00  0.00     0.045 C 
ATOM     18  C   UNL A   1      33.672  21.799  26.717  1.00  0.00     0.045 C 
BRANCH  16  19
ATOM     19  O   UNL A   1      31.778  20.731  25.684  1.00  0.00    -0.387 OA
ATOM     20  H   UNL A   1      31.311  21.390  26.221  1.00  0.00     0.211 HD
ENDBRANCH  16  19
ENDBRANCH  12  16
ENDBRANCH   4   7
ENDBRANCH   2   3
ENDBRANCH   1   2
BRANCH   1  21
ATOM     21  C   UNL A   1      33.032  29.313  25.891  1.00  0.00     0.118 C 
BRANCH  21  22
ATOM     22  N   UNL A   1      32.818  30.702  26.249  1.00  0.00    -0.352 N 
ATOM     23  C   UNL A   1      33.440  31.476  27.192  1.00  0.00     0.251 C 
ATOM     24  H   UNL A   1      32.116  31.161  25.734  1.00  0.00     0.163 HD
ATOM     25  O   UNL A   1      32.930  32.552  27.513  1.00  0.00    -0.269 OA
BRANCH  23  26
ATOM     26  C   UNL A   1      34.701  31.045  27.838  1.00  0.00     0.039 A 
ATOM     27  C   UNL A   1      34.781  29.749  28.358  1.00  0.00     0.014 A 
ATOM     28  C   UNL A   1      35.780  31.917  28.001  1.00  0.00     0.014 A 
ATOM     29  C   UNL A   1      35.942  29.329  29.011  1.00  0.00     0.010 A 
ATOM     30  C   UNL A   1      36.978  31.461  28.540  1.00  0.00     0.010 A 
ATOM     31  C   UNL A   1      37.058  30.177  29.092  1.00  0.00    -0.014 A 
BRANCH  31  32
ATOM     32  C   UNL A   1      38.286  29.769  29.822  1.00  0.00     0.031 A 
ATOM     33  C   UNL A   1      38.530  30.278  31.219  1.00  0.00     0.074 A 
ATOM     34  C   UNL A   1      39.196  28.980  29.219  1.00  0.00     0.049 A 
ATOM     35  N   UNL A   1      39.557  30.081  32.007  1.00  0.00    -0.248 NA
ATOM     36  C   UNL A   1      37.498  31.156  31.797  1.00  0.00     0.031 C 
ATOM     37  C   UNL A   1      39.100  28.472  27.850  1.00  0.00     0.029 A 
ATOM     38  N   UNL A   1      40.382  28.471  29.681  1.00  0.00    -0.354 N 
ATOM     39  C   UNL A   1      39.306  30.829  33.151  1.00  0.00     0.074 A 
ATOM     40  C   UNL A   1      38.064  31.534  32.932  1.00  0.00     0.031 C 
ATOM     41  C   UNL A   1      40.165  27.695  27.595  1.00  0.00     0.029 A 
ATOM     42  C   UNL A   1      41.034  27.679  28.768  1.00  0.00     0.049 A 
ATOM     43  H   UNL A   1      40.733  28.655  30.582  1.00  0.00     0.167 HD
ATOM     44  C   UNL A   1      40.027  30.897  34.294  1.00  0.00     0.037 A 
ATOM     45  C   UNL A   1      42.198  27.012  28.872  1.00  0.00     0.037 A 
ATOM     46  C   UNL A   1      41.237  30.154  34.527  1.00  0.00     0.049 A 
ATOM     47  C   UNL A   1      42.962  27.073  30.166  1.00  0.00     0.074 A 
ATOM     48  C   UNL A   1      42.011  30.098  35.672  1.00  0.00     0.029 A 
ATOM     49  N   UNL A   1      41.843  29.329  33.590  1.00  0.00    -0.354 N 
ATOM     50  N   UNL A   1      42.679  27.728  31.265  1.00  0.00    -0.248 NA
ATOM     51  C   UNL A   1      44.201  26.286  30.239  1.00  0.00     0.031 C 
ATOM     52  C   UNL A   1      43.107  29.268  35.416  1.00  0.00     0.029 A 
ATOM     53  C   UNL A   1      42.990  28.768  34.129  1.00  0.00     0.049 A 
ATOM     54  H   UNL A   1      41.509  29.166  32.679  1.00  0.00     0.167 HD
ATOM     55  C   UNL A   1      43.685  27.412  32.169  1.00  0.00     0.074 A 
ATOM     56  C   UNL A   1      44.576  26.492  31.494  1.00  0.00     0.031 C 
ATOM     57  C   UNL A   1      43.855  27.844  33.443  1.00  0.00     0.037 A 
BRANCH  44  58
ATOM     58  C   UNL A   1      39.519  31.796  35.385  1.00  0.00     0.064 A 
ATOM     59  C   UNL A   1      38.616  31.337  36.359  1.00  0.00     0.173 A 
ATOM     60  C   UNL A   1      39.955  33.126  35.474  1.00  0.00     0.173 A 
ATOM     61  F   UNL A   1      38.156  30.078  36.312  1.00  0.00    -0.203 F 
ATOM     62  C   UNL A   1      38.147  32.185  37.358  1.00  0.00     0.198 A 
ATOM     63  C   UNL A   1      39.508  33.962  36.494  1.00  0.00     0.198 A 
ATOM     64  F   UNL A   1      40.820  33.617  34.573  1.00  0.00    -0.203 F 
ATOM     65  F   UNL A   1      37.242  31.740  38.242  1.00  0.00    -0.200 F 
ATOM     66  C   UNL A   1      38.598  33.494  37.430  1.00  0.00     0.200 A 
ATOM     67  F   UNL A   1      39.955  35.223  36.570  1.00  0.00    -0.200 F 
ATOM     68  F   UNL A   1      38.149  34.307  38.395  1.00  0.00    -0.200 F 
ENDBRANCH  44  58
BRANCH  45  69
ATOM     69  C   UNL A   1      42.688  26.194  27.732  1.00  0.00     0.064 A 
ATOM     70  C   UNL A   1      43.614  26.718  26.817  1.00  0.00     0.173 A 
ATOM     71  C   UNL A   1      42.249  24.877  27.533  1.00  0.00     0.173 A 
ATOM     72  F   UNL A   1      44.051  27.978  26.955  1.00  0.00    -0.203 F 
ATOM     73  C   UNL A   1      44.062  25.964  25.734  1.00  0.00     0.198 A 
ATOM     74  C   UNL A   1      42.719  24.114  26.467  1.00  0.00     0.198 A 
ATOM     75  F   UNL A   1      41.371  24.327  28.385  1.00  0.00    -0.203 F 
ATOM     76  F   UNL A   1      44.910  26.505  24.850  1.00  0.00    -0.200 F 
ATOM     77  C   UNL A   1      43.619  24.661  25.564  1.00  0.00     0.200 A 
ATOM     78  F   UNL A   1      42.301  22.850  26.313  1.00  0.00    -0.200 F 
ATOM     79  F   UNL A   1      44.053  23.935  24.524  1.00  0.00    -0.200 F 
ENDBRANCH  45  69
BRANCH  57  80
ATOM     80  C   UNL A   1      45.026  27.292  34.201  1.00  0.00     0.064 A 
ATOM     81  C   UNL A   1      46.271  27.938  34.209  1.00  0.00     0.173 A 
ATOM     82  C   UNL A   1      44.888  26.119  34.958  1.00  0.00     0.173 A 
ATOM     83  F   UNL A   1      46.456  29.055  33.490  1.00  0.00    -0.203 F 
ATOM     84  C   UNL A   1      47.344  27.409  34.921  1.00  0.00     0.198 A 
ATOM     85  C   UNL A   1      45.955  25.610  35.694  1.00  0.00     0.198 A 
ATOM     86  F   UNL A   1      43.715  25.468  34.991  1.00  0.00    -0.203 F 
ATOM     87  F   UNL A   1      48.539  28.014  34.872  1.00  0.00    -0.200 F 
ATOM     88  C   UNL A   1      47.184  26.252  35.668  1.00  0.00     0.200 A 
ATOM     89  F   UNL A   1      45.794  24.500  36.426  1.00  0.00    -0.200 F 
ATOM     90  F   UNL A   1      48.217  25.748  36.356  1.00  0.00    -0.200 F 
ENDBRANCH  57  80
ENDBRANCH  31  32
ENDBRANCH  23  26
ENDBRANCH  21  22
ENDBRANCH   1  21
TORSDOF 12
ENDMDL
MODEL 3
REMARK VINA RESULT:     -12.2      0.708      1.906
REMARK SMILES CC1(C)O[C@](C)(C(C)(C)O)CC[C@H]1C(=O)NCCCNC(=O)c1ccc(-c2c3nc(c(-c4c(F)c(F)c(F)c(F)c4F)c4ccc([nH]4)c(-c4c(F)c(F)c(F)c(F)c4F)c4nc(c(-c5c(F)c(F)c(F)c(F)c5F)c5ccc2[nH]5)C=C4)C=C3)cc1
REMARK SMILES IDX 18 1 17 2 16 3 14 4 15 5 13 7 1 8 2 9 3 10 4 11 5 12 12 13
REMARK SMILES IDX 6 14 11 15 7 16 8 17 9 18 10 19 19 21 20 22 21 23 22 25
REMARK SMILES IDX 23 26 24 27 85 28 25 29 84 30 26 31 27 32 28 33 78 34 29 35
REMARK SMILES IDX 83 36 77 37 79 38 30 39 82 40 76 41 75 42 31 44 63 45 43 46
REMARK SMILES IDX 62 47 44 48 47 49 61 50 80 51 45 52 46 53 60 55 81 56 48 57
REMARK SMILES IDX 32 58 33 59 41 60 34 61 35 62 39 63 42 64 36 65 37 66 40 67
REMARK SMILES IDX 38 68 64 69 65 70 73 71 66 72 67 73 71 74 74 75 68 76 69 77
REMARK SMILES IDX 72 78 70 79 49 80 50 81 58 82 51 83 52 84 56 85 59 86 53 87
REMARK SMILES IDX 54 88 57 89 55 90
REMARK H PARENT 16 6 10 20 20 24 79 43 47 54
REMARK Flexibility Score: inf
ROOT
ATOM      1  C   UNL A   1      33.145  29.038  24.099  1.00  0.00     0.042 C 
ENDROOT
BRANCH   1   2
ATOM      2  C   UNL A   1      32.034  28.245  23.423  1.00  0.00     0.117 C 
BRANCH   2   3
ATOM      3  N   UNL A   1      32.556  27.419  22.352  1.00  0.00    -0.356 N 
ATOM      4  C   UNL A   1      33.115  26.184  22.333  1.00  0.00     0.226 C 
ATOM      5  O   UNL A   1      33.610  25.832  21.257  1.00  0.00    -0.275 OA
ATOM      6  H   UNL A   1      32.490  27.837  21.462  1.00  0.00     0.163 HD
BRANCH   4   7
ATOM      7  C   UNL A   1      33.139  25.234  23.527  1.00  0.00     0.110 C 
ATOM      8  C   UNL A   1      33.054  23.000  22.077  1.00  0.00     0.043 C 
ATOM      9  C   UNL A   1      32.588  23.800  23.293  1.00  0.00     0.075 C 
ATOM     10  C   UNL A   1      31.051  23.897  23.126  1.00  0.00     0.043 C 
ATOM     11  O   UNL A   1      32.781  22.960  24.444  1.00  0.00    -0.366 OA
ATOM     12  C   UNL A   1      34.049  22.954  25.126  1.00  0.00     0.094 C 
ATOM     13  C   UNL A   1      34.403  25.361  24.386  1.00  0.00     0.019 C 
ATOM     14  C   UNL A   1      35.209  22.420  24.252  1.00  0.00     0.045 C 
ATOM     15  C   UNL A   1      34.364  24.397  25.570  1.00  0.00     0.039 C 
BRANCH  12  16
ATOM     16  C   UNL A   1      33.869  21.977  26.358  1.00  0.00     0.088 C 
ATOM     17  C   UNL A   1      33.000  22.578  27.474  1.00  0.00     0.045 C 
ATOM     18  C   UNL A   1      33.227  20.643  25.923  1.00  0.00     0.045 C 
BRANCH  16  19
ATOM     19  O   UNL A   1      35.152  21.679  26.930  1.00  0.00    -0.387 OA
ATOM     20  H   UNL A   1      35.414  22.394  27.529  1.00  0.00     0.211 HD
ENDBRANCH  16  19
ENDBRANCH  12  16
ENDBRANCH   4   7
ENDBRANCH   2   3
ENDBRANCH   1   2
BRANCH   1  21
ATOM     21  C   UNL A   1      32.963  29.188  25.596  1.00  0.00     0.118 C 
BRANCH  21  22
ATOM     22  N   UNL A   1      32.688  30.563  25.970  1.00  0.00    -0.352 N 
ATOM     23  C   UNL A   1      33.262  31.346  26.936  1.00  0.00     0.251 C 
ATOM     24  H   UNL A   1      31.979  31.002  25.446  1.00  0.00     0.163 HD
ATOM     25  O   UNL A   1      32.703  32.397  27.262  1.00  0.00    -0.269 OA
BRANCH  23  26
ATOM     26  C   UNL A   1      34.525  30.953  27.601  1.00  0.00     0.039 A 
ATOM     27  C   UNL A   1      34.685  29.626  28.011  1.00  0.00     0.014 A 
ATOM     28  C   UNL A   1      35.525  31.886  27.890  1.00  0.00     0.014 A 
ATOM     29  C   UNL A   1      35.848  29.237  28.679  1.00  0.00     0.010 A 
ATOM     30  C   UNL A   1      36.732  31.474  28.444  1.00  0.00     0.010 A 
ATOM     31  C   UNL A   1      36.889  30.155  28.887  1.00  0.00    -0.014 A 
BRANCH  31  32
ATOM     32  C   UNL A   1      38.115  29.775  29.635  1.00  0.00     0.031 A 
ATOM     33  C   UNL A   1      38.332  30.303  31.031  1.00  0.00     0.074 A 
ATOM     34  C   UNL A   1      39.046  28.997  29.052  1.00  0.00     0.049 A 
ATOM     35  N   UNL A   1      39.353  30.131  31.834  1.00  0.00    -0.248 NA
ATOM     36  C   UNL A   1      37.278  31.168  31.587  1.00  0.00     0.031 C 
ATOM     37  C   UNL A   1      38.977  28.474  27.687  1.00  0.00     0.029 A 
ATOM     38  N   UNL A   1      40.236  28.514  29.534  1.00  0.00    -0.354 N 
ATOM     39  C   UNL A   1      39.074  30.886  32.966  1.00  0.00     0.074 A 
ATOM     40  C   UNL A   1      37.822  31.567  32.725  1.00  0.00     0.031 C 
ATOM     41  C   UNL A   1      40.059  27.714  27.453  1.00  0.00     0.029 A 
ATOM     42  C   UNL A   1      40.912  27.724  28.638  1.00  0.00     0.049 A 
ATOM     43  H   UNL A   1      40.572  28.713  30.438  1.00  0.00     0.167 HD
ATOM     44  C   UNL A   1      39.779  30.978  34.118  1.00  0.00     0.037 A 
ATOM     45  C   UNL A   1      42.087  27.079  28.762  1.00  0.00     0.037 A 
ATOM     46  C   UNL A   1      40.998  30.260  34.373  1.00  0.00     0.049 A 
ATOM     47  C   UNL A   1      42.834  27.166  30.066  1.00  0.00     0.074 A 
ATOM     48  C   UNL A   1      41.759  30.228  35.528  1.00  0.00     0.029 A 
ATOM     49  N   UNL A   1      41.632  29.436  33.453  1.00  0.00    -0.354 N 
ATOM     50  N   UNL A   1      42.524  27.827  31.154  1.00  0.00    -0.248 NA
ATOM     51  C   UNL A   1      44.085  26.402  30.162  1.00  0.00     0.031 C 
ATOM     52  C   UNL A   1      42.873  29.415  35.295  1.00  0.00     0.029 A 
ATOM     53  C   UNL A   1      42.781  28.900  34.011  1.00  0.00     0.049 A 
ATOM     54  H   UNL A   1      41.312  29.258  32.539  1.00  0.00     0.167 HD
ATOM     55  C   UNL A   1      43.524  27.538  32.074  1.00  0.00     0.074 A 
ATOM     56  C   UNL A   1      44.440  26.627  31.420  1.00  0.00     0.031 C 
ATOM     57  C   UNL A   1      43.671  27.986  33.346  1.00  0.00     0.037 A 
BRANCH  44  58
ATOM     58  C   UNL A   1      39.242  31.879  35.193  1.00  0.00     0.064 A 
ATOM     59  C   UNL A   1      38.464  31.381  36.252  1.00  0.00     0.173 A 
ATOM     60  C   UNL A   1      39.525  33.252  35.181  1.00  0.00     0.173 A 
ATOM     61  F   UNL A   1      38.151  30.078  36.305  1.00  0.00    -0.203 F 
ATOM     62  C   UNL A   1      37.964  32.230  37.236  1.00  0.00     0.198 A 
ATOM     63  C   UNL A   1      39.050  34.094  36.184  1.00  0.00     0.198 A 
ATOM     64  F   UNL A   1      40.266  33.782  34.195  1.00  0.00    -0.203 F 
ATOM     65  F   UNL A   1      37.177  31.740  38.204  1.00  0.00    -0.200 F 
ATOM     66  C   UNL A   1      38.263  33.583  37.206  1.00  0.00     0.200 A 
ATOM     67  F   UNL A   1      39.350  35.399  36.161  1.00  0.00    -0.200 F 
ATOM     68  F   UNL A   1      37.786  34.397  38.156  1.00  0.00    -0.200 F 
ENDBRANCH  44  58
BRANCH  45  69
ATOM     69  C   UNL A   1      42.606  26.259  27.637  1.00  0.00     0.064 A 
ATOM     70  C   UNL A   1      42.176  24.937  27.452  1.00  0.00     0.173 A 
ATOM     71  C   UNL A   1      43.536  26.776  26.724  1.00  0.00     0.173 A 
ATOM     72  F   UNL A   1      41.300  24.392  28.309  1.00  0.00    -0.203 F 
ATOM     73  C   UNL A   1      42.674  24.155  26.412  1.00  0.00     0.198 A 
ATOM     74  C   UNL A   1      44.013  26.004  25.667  1.00  0.00     0.198 A 
ATOM     75  F   UNL A   1      43.972  28.037  26.851  1.00  0.00    -0.203 F 
ATOM     76  F   UNL A   1      42.281  22.881  26.286  1.00  0.00    -0.200 F 
ATOM     77  C   UNL A   1      43.588  24.692  25.516  1.00  0.00     0.200 A 
ATOM     78  F   UNL A   1      44.883  26.529  24.794  1.00  0.00    -0.200 F 
ATOM     79  F   UNL A   1      44.064  23.941  24.513  1.00  0.00    -0.200 F 
ENDBRANCH  45  69
BRANCH  57  80
ATOM     80  C   UNL A   1      44.842  27.461  34.124  1.00  0.00     0.064 A 
ATOM     81  C   UNL A   1      46.071  28.135  34.151  1.00  0.00     0.173 A 
ATOM     82  C   UNL A   1      44.718  26.287  34.881  1.00  0.00     0.173 A 
ATOM     83  F   UNL A   1      46.242  29.255  33.433  1.00  0.00    -0.203 F 
ATOM     84  C   UNL A   1      47.144  27.633  34.881  1.00  0.00     0.198 A 
ATOM     85  C   UNL A   1      45.784  25.804  35.635  1.00  0.00     0.198 A 
ATOM     86  F   UNL A   1      43.560  25.610  34.897  1.00  0.00    -0.203 F 
ATOM     87  F   UNL A   1      48.326  28.265  34.850  1.00  0.00    -0.200 F 
ATOM     88  C   UNL A   1      46.998  26.473  35.628  1.00  0.00     0.200 A 
ATOM     89  F   UNL A   1      45.637  24.692  36.367  1.00  0.00    -0.200 F 
ATOM     90  F   UNL A   1      48.032  25.995  36.333  1.00  0.00    -0.200 F 
ENDBRANCH  57  80
ENDBRANCH  31  32
ENDBRANCH  23  26
ENDBRANCH  21  22
ENDBRANCH   1  21
TORSDOF 12
ENDMDL
