MODEL 1
REMARK VINA RESULT:     -14.5      0.000      0.000
REMARK SMILES CC1=NN(c2ccccc2)C(=O)/C1=C\c1ccc(-c2cc(C(=O)NCCCNC(=O)c3ccc(-c4c5nc(c(-c6c(F)c(F)c(F)c(F)c6F)c6ccc([nH]6)c(-c6c(F)c(F)c(F)c(F)c6F)c6nc(c(-c7c(F)c(F)c(F)c(F)c7F)c7ccc4[nH]7)C=C6)C=C5)cc3)ccc2Cl)o1
REMARK SMILES IDX 25 1 24 2 22 3 23 4 21 6 19 7 20 8 96 9 95 10 97 11 94 12
REMARK SMILES IDX 18 13 15 14 16 15 98 16 17 17 14 18 1 19 2 20 3 21 13 22
REMARK SMILES IDX 4 23 11 24 12 25 5 26 6 27 10 28 7 29 9 30 8 31 26 32 27 33
REMARK SMILES IDX 28 34 29 35 30 37 31 38 32 39 93 40 33 41 92 42 34 43 35 44
REMARK SMILES IDX 36 45 86 46 37 47 91 48 85 49 87 50 38 51 90 52 84 53 83 54
REMARK SMILES IDX 39 56 71 57 51 58 70 59 52 60 55 61 69 62 88 63 53 64 54 65
REMARK SMILES IDX 68 67 89 68 56 69 40 70 41 71 49 72 42 73 43 74 47 75 50 76
REMARK SMILES IDX 44 77 45 78 48 79 46 80 72 81 73 82 81 83 74 84 75 85 79 86
REMARK SMILES IDX 82 87 76 88 77 89 80 90 78 91 57 92 58 93 66 94 59 95 60 96
REMARK SMILES IDX 64 97 67 98 61 99 62 100 65 101 63 102
REMARK H PARENT 24 5 28 36 87 55 55 66
REMARK Flexibility Score: inf
ROOT
ATOM      1  C   UNL A   1      31.560  30.911  25.868  1.00  0.00     0.118 C 
ENDROOT
BRANCH   1   2
ATOM      2  N   UNL A   1      30.620  30.706  24.772  1.00  0.00    -0.352 N 
ATOM      3  C   UNL A   1      30.502  29.719  23.817  1.00  0.00     0.251 C 
ATOM      4  O   UNL A   1      29.623  29.835  22.967  1.00  0.00    -0.269 OA
ATOM      5  H   UNL A   1      29.936  31.409  24.701  1.00  0.00     0.163 HD
BRANCH   3   6
ATOM      6  C   UNL A   1      31.429  28.555  23.757  1.00  0.00     0.040 A 
ATOM      7  C   UNL A   1      31.839  26.182  24.163  1.00  0.00     0.037 A 
ATOM      8  C   UNL A   1      31.017  27.318  24.284  1.00  0.00     0.027 A 
ATOM      9  C   UNL A   1      33.024  26.290  23.409  1.00  0.00     0.052 A 
ATOM     10  C   UNL A   1      33.477  27.534  22.982  1.00  0.00     0.022 A 
ATOM     11  Cl  UNL A   1      33.991  24.922  22.966  1.00  0.00    -0.084 Cl
ATOM     12  C   UNL A   1      32.719  28.670  23.236  1.00  0.00     0.015 A 
BRANCH   7  13
ATOM     13  C   UNL A   1      31.573  24.977  24.939  1.00  0.00     0.136 A 
ATOM     14  C   UNL A   1      31.563  22.800  25.352  1.00  0.00     0.128 A 
ATOM     15  C   UNL A   1      30.977  23.445  26.436  1.00  0.00     0.051 A 
ATOM     16  O   UNL A   1      31.966  23.764  24.447  1.00  0.00    -0.457 OA
ATOM     17  C   UNL A   1      30.928  24.814  26.145  1.00  0.00     0.051 A 
BRANCH  14  18
ATOM     18  C   UNL A   1      31.735  21.395  25.200  1.00  0.00     0.063 C 
ATOM     19  C   UNL A   1      32.405  18.477  24.286  1.00  0.00     0.069 C 
ATOM     20  C   UNL A   1      33.370  19.545  24.681  1.00  0.00     0.071 C 
ATOM     21  N   UNL A   1      34.670  19.427  24.577  1.00  0.00    -0.169 NA
ATOM     22  C   UNL A   1      32.967  20.866  25.192  1.00  0.00     0.068 C 
ATOM     23  N   UNL A   1      35.197  20.594  25.119  1.00  0.00    -0.196 N 
ATOM     24  C   UNL A   1      34.246  21.520  25.563  1.00  0.00     0.280 C 
ATOM     25  O   UNL A   1      34.390  22.595  26.108  1.00  0.00    -0.267 OA
BRANCH  23  26
ATOM     26  C   UNL A   1      36.591  20.732  25.268  1.00  0.00     0.069 A 
ATOM     27  C   UNL A   1      37.150  21.946  25.679  1.00  0.00     0.028 A 
ATOM     28  C   UNL A   1      37.437  19.639  25.029  1.00  0.00     0.028 A 
ATOM     29  C   UNL A   1      38.529  22.048  25.890  1.00  0.00     0.002 A 
ATOM     30  C   UNL A   1      38.817  19.757  25.188  1.00  0.00     0.002 A 
ATOM     31  C   UNL A   1      39.362  20.957  25.634  1.00  0.00     0.000 A 
ENDBRANCH  23  26
ENDBRANCH  14  18
ENDBRANCH   7  13
ENDBRANCH   3   6
ENDBRANCH   1   2
BRANCH   1  32
ATOM     32  C   UNL A   1      31.322  32.184  26.659  1.00  0.00     0.042 C 
BRANCH  32  33
ATOM     33  C   UNL A   1      32.580  32.818  27.225  1.00  0.00     0.118 C 
BRANCH  33  34
ATOM     34  N   UNL A   1      32.386  34.207  27.628  1.00  0.00    -0.352 N 
ATOM     35  C   UNL A   1      32.983  34.959  28.612  1.00  0.00     0.251 C 
ATOM     36  H   UNL A   1      31.709  34.691  27.103  1.00  0.00     0.163 HD
ATOM     37  O   UNL A   1      32.520  36.061  28.891  1.00  0.00    -0.269 OA
BRANCH  35  38
ATOM     38  C   UNL A   1      34.155  34.450  29.358  1.00  0.00     0.039 A 
ATOM     39  C   UNL A   1      33.959  33.869  30.616  1.00  0.00     0.014 A 
ATOM     40  C   UNL A   1      35.448  34.559  28.845  1.00  0.00     0.014 A 
ATOM     41  C   UNL A   1      35.043  33.328  31.310  1.00  0.00     0.010 A 
ATOM     42  C   UNL A   1      36.507  33.919  29.481  1.00  0.00     0.010 A 
ATOM     43  C   UNL A   1      36.320  33.303  30.726  1.00  0.00    -0.014 A 
BRANCH  43  44
ATOM     44  C   UNL A   1      37.471  32.644  31.396  1.00  0.00     0.031 A 
ATOM     45  C   UNL A   1      38.161  31.476  30.744  1.00  0.00     0.074 A 
ATOM     46  C   UNL A   1      37.850  33.052  32.623  1.00  0.00     0.049 A 
ATOM     47  N   UNL A   1      39.131  30.725  31.203  1.00  0.00    -0.248 NA
ATOM     48  C   UNL A   1      37.677  31.079  29.412  1.00  0.00     0.031 C 
ATOM     49  C   UNL A   1      37.227  34.136  33.384  1.00  0.00     0.029 A 
ATOM     50  N   UNL A   1      38.844  32.594  33.453  1.00  0.00    -0.354 N 
ATOM     51  C   UNL A   1      39.358  29.763  30.227  1.00  0.00     0.074 A 
ATOM     52  C   UNL A   1      38.384  29.983  29.181  1.00  0.00     0.031 C 
ATOM     53  C   UNL A   1      37.870  34.282  34.552  1.00  0.00     0.029 A 
ATOM     54  C   UNL A   1      38.918  33.271  34.647  1.00  0.00     0.049 A 
ATOM     55  H   UNL A   1      39.444  31.853  33.215  1.00  0.00     0.167 HD
ATOM     56  C   UNL A   1      40.309  28.799  30.194  1.00  0.00     0.037 A 
ATOM     57  C   UNL A   1      39.733  33.089  35.704  1.00  0.00     0.037 A 
ATOM     58  C   UNL A   1      41.290  28.598  31.228  1.00  0.00     0.049 A 
ATOM     59  C   UNL A   1      40.770  32.000  35.648  1.00  0.00     0.074 A 
ATOM     60  C   UNL A   1      42.335  27.691  31.262  1.00  0.00     0.029 A 
ATOM     61  N   UNL A   1      41.341  29.310  32.418  1.00  0.00    -0.354 N 
ATOM     62  N   UNL A   1      41.026  31.146  34.687  1.00  0.00    -0.248 NA
ATOM     63  C   UNL A   1      41.638  31.853  36.826  1.00  0.00     0.031 C 
ATOM     64  C   UNL A   1      42.978  27.812  32.496  1.00  0.00     0.029 A 
ATOM     65  C   UNL A   1      42.380  28.841  33.205  1.00  0.00     0.049 A 
ATOM     66  H   UNL A   1      40.729  30.041  32.665  1.00  0.00     0.167 HD
ATOM     67  C   UNL A   1      42.100  30.385  35.126  1.00  0.00     0.074 A 
ATOM     68  C   UNL A   1      42.460  30.890  36.436  1.00  0.00     0.031 C 
ATOM     69  C   UNL A   1      42.732  29.359  34.503  1.00  0.00     0.037 A 
BRANCH  56  70
ATOM     70  C   UNL A   1      40.336  27.887  28.999  1.00  0.00     0.064 A 
ATOM     71  C   UNL A   1      41.096  28.185  27.857  1.00  0.00     0.173 A 
ATOM     72  C   UNL A   1      39.624  26.678  29.010  1.00  0.00     0.173 A 
ATOM     73  F   UNL A   1      41.789  29.333  27.788  1.00  0.00    -0.203 F 
ATOM     74  C   UNL A   1      41.113  27.327  26.760  1.00  0.00     0.198 A 
ATOM     75  C   UNL A   1      39.672  25.804  27.927  1.00  0.00     0.198 A 
ATOM     76  F   UNL A   1      38.887  26.337  30.078  1.00  0.00    -0.203 F 
ATOM     77  F   UNL A   1      41.800  27.664  25.659  1.00  0.00    -0.200 F 
ATOM     78  C   UNL A   1      40.409  26.134  26.799  1.00  0.00     0.200 A 
ATOM     79  F   UNL A   1      39.004  24.644  27.974  1.00  0.00    -0.200 F 
ATOM     80  F   UNL A   1      40.433  25.305  25.748  1.00  0.00    -0.200 F 
ENDBRANCH  56  70
BRANCH  57  81
ATOM     81  C   UNL A   1      39.614  33.969  36.897  1.00  0.00     0.064 A 
ATOM     82  C   UNL A   1      38.859  33.576  38.011  1.00  0.00     0.173 A 
ATOM     83  C   UNL A   1      40.241  35.222  36.948  1.00  0.00     0.173 A 
ATOM     84  F   UNL A   1      38.223  32.394  38.005  1.00  0.00    -0.203 F 
ATOM     85  C   UNL A   1      38.713  34.411  39.117  1.00  0.00     0.198 A 
ATOM     86  C   UNL A   1      40.124  36.044  38.068  1.00  0.00     0.198 A 
ATOM     87  F   UNL A   1      40.982  35.645  35.913  1.00  0.00    -0.203 F 
ATOM     88  F   UNL A   1      37.941  34.032  40.143  1.00  0.00    -0.200 F 
ATOM     89  C   UNL A   1      39.350  35.642  39.147  1.00  0.00     0.200 A 
ATOM     90  F   UNL A   1      40.756  37.224  38.099  1.00  0.00    -0.200 F 
ATOM     91  F   UNL A   1      39.213  36.445  40.211  1.00  0.00    -0.200 F 
ENDBRANCH  57  81
BRANCH  69  92
ATOM     92  C   UNL A   1      43.906  28.740  35.209  1.00  0.00     0.064 A 
ATOM     93  C   UNL A   1      45.214  29.209  35.021  1.00  0.00     0.173 A 
ATOM     94  C   UNL A   1      43.710  27.688  36.118  1.00  0.00     0.173 A 
ATOM     95  F   UNL A   1      45.457  30.202  34.154  1.00  0.00    -0.203 F 
ATOM     96  C   UNL A   1      46.286  28.626  35.691  1.00  0.00     0.198 A 
ATOM     97  C   UNL A   1      44.780  27.133  36.814  1.00  0.00     0.198 A 
ATOM     98  F   UNL A   1      42.478  27.207  36.342  1.00  0.00    -0.203 F 
ATOM     99  F   UNL A   1      47.535  29.052  35.453  1.00  0.00    -0.200 F 
ATOM    100  C   UNL A   1      46.067  27.596  36.593  1.00  0.00     0.200 A 
ATOM    101  F   UNL A   1      44.563  26.150  37.699  1.00  0.00    -0.200 F 
ATOM    102  F   UNL A   1      47.101  27.042  37.244  1.00  0.00    -0.200 F 
ENDBRANCH  69  92
ENDBRANCH  43  44
ENDBRANCH  35  38
ENDBRANCH  33  34
ENDBRANCH  32  33
ENDBRANCH   1  32
TORSDOF 13
ENDMDL
MODEL 2
REMARK VINA RESULT:     -14.5      1.416      2.109
REMARK SMILES CC1=NN(c2ccccc2)C(=O)/C1=C\c1ccc(-c2cc(C(=O)NCCCNC(=O)c3ccc(-c4c5nc(c(-c6c(F)c(F)c(F)c(F)c6F)c6ccc([nH]6)c(-c6c(F)c(F)c(F)c(F)c6F)c6nc(c(-c7c(F)c(F)c(F)c(F)c7F)c7ccc4[nH]7)C=C6)C=C5)cc3)ccc2Cl)o1
REMARK SMILES IDX 25 1 24 2 22 3 23 4 21 6 19 7 20 8 96 9 95 10 97 11 94 12
REMARK SMILES IDX 18 13 15 14 16 15 98 16 17 17 14 18 1 19 2 20 3 21 13 22
REMARK SMILES IDX 4 23 11 24 12 25 5 26 6 27 10 28 7 29 9 30 8 31 26 32 27 33
REMARK SMILES IDX 28 34 29 35 30 37 31 38 32 39 93 40 33 41 92 42 34 43 35 44
REMARK SMILES IDX 36 45 86 46 37 47 91 48 85 49 87 50 38 51 90 52 84 53 83 54
REMARK SMILES IDX 39 56 71 57 51 58 70 59 52 60 55 61 69 62 88 63 53 64 54 65
REMARK SMILES IDX 68 67 89 68 56 69 40 70 41 71 49 72 42 73 43 74 47 75 50 76
REMARK SMILES IDX 44 77 45 78 48 79 46 80 72 81 73 82 81 83 74 84 75 85 79 86
REMARK SMILES IDX 82 87 76 88 77 89 80 90 78 91 57 92 58 93 66 94 59 95 60 96
REMARK SMILES IDX 64 97 67 98 61 99 62 100 65 101 63 102
REMARK H PARENT 24 5 28 36 87 55 55 66
REMARK Flexibility Score: inf
ROOT
ATOM      1  C   UNL A   1      31.784  30.835  26.457  1.00  0.00     0.118 C 
ENDROOT
BRANCH   1   2
ATOM      2  N   UNL A   1      33.125  30.362  26.780  1.00  0.00    -0.352 N 
ATOM      3  C   UNL A   1      33.687  29.104  26.810  1.00  0.00     0.251 C 
ATOM      4  O   UNL A   1      34.855  28.998  27.177  1.00  0.00    -0.269 OA
ATOM      5  H   UNL A   1      33.751  31.081  27.022  1.00  0.00     0.163 HD
BRANCH   3   6
ATOM      6  C   UNL A   1      32.916  27.879  26.464  1.00  0.00     0.040 A 
ATOM      7  C   UNL A   1      32.904  25.559  25.701  1.00  0.00     0.037 A 
ATOM      8  C   UNL A   1      33.596  26.757  25.955  1.00  0.00     0.027 A 
ATOM      9  C   UNL A   1      31.547  25.477  26.070  1.00  0.00     0.052 A 
ATOM     10  C   UNL A   1      30.856  26.616  26.472  1.00  0.00     0.022 A 
ATOM     11  Cl  UNL A   1      30.648  23.995  26.052  1.00  0.00    -0.084 Cl
ATOM     12  C   UNL A   1      31.526  27.828  26.581  1.00  0.00     0.015 A 
BRANCH   7  13
ATOM     13  C   UNL A   1      33.513  24.492  24.915  1.00  0.00     0.136 A 
ATOM     14  C   UNL A   1      34.176  22.421  24.490  1.00  0.00     0.128 A 
ATOM     15  C   UNL A   1      34.528  23.216  23.404  1.00  0.00     0.051 A 
ATOM     16  O   UNL A   1      33.511  23.216  25.404  1.00  0.00    -0.457 OA
ATOM     17  C   UNL A   1      34.163  24.534  23.702  1.00  0.00     0.051 A 
BRANCH  14  18
ATOM     18  C   UNL A   1      34.439  21.030  24.637  1.00  0.00     0.063 C 
ATOM     19  C   UNL A   1      35.420  18.064  24.433  1.00  0.00     0.069 C 
ATOM     20  C   UNL A   1      36.227  19.259  24.819  1.00  0.00     0.071 C 
ATOM     21  N   UNL A   1      37.522  19.233  25.012  1.00  0.00    -0.169 NA
ATOM     22  C   UNL A   1      35.664  20.610  24.983  1.00  0.00     0.068 C 
ATOM     23  N   UNL A   1      37.865  20.515  25.429  1.00  0.00    -0.196 N 
ATOM     24  C   UNL A   1      36.800  21.421  25.488  1.00  0.00     0.280 C 
ATOM     25  O   UNL A   1      36.773  22.580  25.844  1.00  0.00    -0.267 OA
BRANCH  23  26
ATOM     26  C   UNL A   1      39.184  20.790  25.838  1.00  0.00     0.069 A 
ATOM     27  C   UNL A   1      39.558  22.080  26.228  1.00  0.00     0.028 A 
ATOM     28  C   UNL A   1      40.137  19.762  25.885  1.00  0.00     0.028 A 
ATOM     29  C   UNL A   1      40.852  22.323  26.698  1.00  0.00     0.002 A 
ATOM     30  C   UNL A   1      41.442  20.017  26.304  1.00  0.00     0.002 A 
ATOM     31  C   UNL A   1      41.796  21.295  26.725  1.00  0.00     0.000 A 
ENDBRANCH  23  26
ENDBRANCH  14  18
ENDBRANCH   7  13
ENDBRANCH   3   6
ENDBRANCH   1   2
BRANCH   1  32
ATOM     32  C   UNL A   1      31.538  32.291  26.812  1.00  0.00     0.042 C 
BRANCH  32  33
ATOM     33  C   UNL A   1      32.790  33.075  27.157  1.00  0.00     0.118 C 
BRANCH  33  34
ATOM     34  N   UNL A   1      32.502  34.402  27.692  1.00  0.00    -0.352 N 
ATOM     35  C   UNL A   1      33.017  35.076  28.773  1.00  0.00     0.251 C 
ATOM     36  H   UNL A   1      31.819  34.902  27.190  1.00  0.00     0.163 HD
ATOM     37  O   UNL A   1      32.482  36.117  29.144  1.00  0.00    -0.269 OA
BRANCH  35  38
ATOM     38  C   UNL A   1      34.187  34.554  29.514  1.00  0.00     0.039 A 
ATOM     39  C   UNL A   1      33.979  33.879  30.722  1.00  0.00     0.014 A 
ATOM     40  C   UNL A   1      35.487  34.742  29.045  1.00  0.00     0.014 A 
ATOM     41  C   UNL A   1      35.064  33.326  31.406  1.00  0.00     0.010 A 
ATOM     42  C   UNL A   1      36.552  34.093  29.663  1.00  0.00     0.010 A 
ATOM     43  C   UNL A   1      36.355  33.384  30.856  1.00  0.00    -0.014 A 
BRANCH  43  44
ATOM     44  C   UNL A   1      37.511  32.718  31.510  1.00  0.00     0.031 A 
ATOM     45  C   UNL A   1      38.193  31.555  30.841  1.00  0.00     0.074 A 
ATOM     46  C   UNL A   1      37.902  33.113  32.738  1.00  0.00     0.049 A 
ATOM     47  N   UNL A   1      39.166  30.797  31.284  1.00  0.00    -0.248 NA
ATOM     48  C   UNL A   1      37.697  31.170  29.510  1.00  0.00     0.031 C 
ATOM     49  C   UNL A   1      37.287  34.192  33.513  1.00  0.00     0.029 A 
ATOM     50  N   UNL A   1      38.902  32.647  33.554  1.00  0.00    -0.354 N 
ATOM     51  C   UNL A   1      39.383  29.844  30.297  1.00  0.00     0.074 A 
ATOM     52  C   UNL A   1      38.400  30.076  29.263  1.00  0.00     0.031 C 
ATOM     53  C   UNL A   1      37.942  34.326  34.677  1.00  0.00     0.029 A 
ATOM     54  C   UNL A   1      38.989  33.312  34.753  1.00  0.00     0.049 A 
ATOM     55  H   UNL A   1      39.500  31.907  33.304  1.00  0.00     0.167 HD
ATOM     56  C   UNL A   1      40.332  28.879  30.247  1.00  0.00     0.037 A 
ATOM     57  C   UNL A   1      39.813  33.120  35.802  1.00  0.00     0.037 A 
ATOM     58  C   UNL A   1      41.322  28.667  31.270  1.00  0.00     0.049 A 
ATOM     59  C   UNL A   1      40.848  32.029  35.726  1.00  0.00     0.074 A 
ATOM     60  C   UNL A   1      42.365  27.759  31.286  1.00  0.00     0.029 A 
ATOM     61  N   UNL A   1      41.385  29.369  32.466  1.00  0.00    -0.354 N 
ATOM     62  N   UNL A   1      41.093  31.184  34.754  1.00  0.00    -0.248 NA
ATOM     63  C   UNL A   1      41.726  31.870  36.894  1.00  0.00     0.031 C 
ATOM     64  C   UNL A   1      43.020  27.867  32.516  1.00  0.00     0.029 A 
ATOM     65  C   UNL A   1      42.431  28.891  33.239  1.00  0.00     0.049 A 
ATOM     66  H   UNL A   1      40.776  30.098  32.725  1.00  0.00     0.167 HD
ATOM     67  C   UNL A   1      42.170  30.417  35.177  1.00  0.00     0.074 A 
ATOM     68  C   UNL A   1      42.543  30.909  36.488  1.00  0.00     0.031 C 
ATOM     69  C   UNL A   1      42.794  29.395  34.539  1.00  0.00     0.037 A 
BRANCH  56  70
ATOM     70  C   UNL A   1      40.347  27.978  29.044  1.00  0.00     0.064 A 
ATOM     71  C   UNL A   1      41.124  28.269  27.910  1.00  0.00     0.173 A 
ATOM     72  C   UNL A   1      39.605  26.787  29.037  1.00  0.00     0.173 A 
ATOM     73  F   UNL A   1      41.845  29.400  27.858  1.00  0.00    -0.203 F 
ATOM     74  C   UNL A   1      41.129  27.421  26.806  1.00  0.00     0.198 A 
ATOM     75  C   UNL A   1      39.641  25.923  27.946  1.00  0.00     0.198 A 
ATOM     76  F   UNL A   1      38.851  26.454  30.095  1.00  0.00    -0.203 F 
ATOM     77  F   UNL A   1      41.833  27.751  25.714  1.00  0.00    -0.200 F 
ATOM     78  C   UNL A   1      40.395  26.245  26.827  1.00  0.00     0.200 A 
ATOM     79  F   UNL A   1      38.945  24.779  27.976  1.00  0.00    -0.200 F 
ATOM     80  F   UNL A   1      40.408  25.426  25.768  1.00  0.00    -0.200 F 
ENDBRANCH  56  70
BRANCH  57  81
ATOM     81  C   UNL A   1      39.706  33.988  37.004  1.00  0.00     0.064 A 
ATOM     82  C   UNL A   1      38.925  33.605  38.104  1.00  0.00     0.173 A 
ATOM     83  C   UNL A   1      40.371  35.221  37.077  1.00  0.00     0.173 A 
ATOM     84  F   UNL A   1      38.254  32.443  38.075  1.00  0.00    -0.203 F 
ATOM     85  C   UNL A   1      38.791  34.432  39.217  1.00  0.00     0.198 A 
ATOM     86  C   UNL A   1      40.264  36.032  38.206  1.00  0.00     0.198 A 
ATOM     87  F   UNL A   1      41.137  35.633  36.056  1.00  0.00    -0.203 F 
ATOM     88  F   UNL A   1      37.995  34.064  40.230  1.00  0.00    -0.200 F 
ATOM     89  C   UNL A   1      39.466  35.642  39.270  1.00  0.00     0.200 A 
ATOM     90  F   UNL A   1      40.932  37.192  38.259  1.00  0.00    -0.200 F 
ATOM     91  F   UNL A   1      39.340  36.436  40.343  1.00  0.00    -0.200 F 
ENDBRANCH  57  81
BRANCH  69  92
ATOM     92  C   UNL A   1      43.974  28.769  35.229  1.00  0.00     0.064 A 
ATOM     93  C   UNL A   1      43.827  27.694  36.117  1.00  0.00     0.173 A 
ATOM     94  C   UNL A   1      45.274  29.229  34.965  1.00  0.00     0.173 A 
ATOM     95  F   UNL A   1      42.606  27.225  36.415  1.00  0.00    -0.203 F 
ATOM     96  C   UNL A   1      44.934  27.123  36.739  1.00  0.00     0.198 A 
ATOM     97  C   UNL A   1      46.381  28.632  35.559  1.00  0.00     0.198 A 
ATOM     98  F   UNL A   1      45.471  30.249  34.117  1.00  0.00    -0.203 F 
ATOM     99  F   UNL A   1      44.766  26.134  37.628  1.00  0.00    -0.200 F 
ATOM    100  C   UNL A   1      46.210  27.587  36.454  1.00  0.00     0.200 A 
ATOM    101  F   UNL A   1      47.613  29.069  35.268  1.00  0.00    -0.200 F 
ATOM    102  F   UNL A   1      47.275  27.030  37.047  1.00  0.00    -0.200 F 
ENDBRANCH  69  92
ENDBRANCH  43  44
ENDBRANCH  35  38
ENDBRANCH  33  34
ENDBRANCH  32  33
ENDBRANCH   1  32
TORSDOF 13
ENDMDL
MODEL 3
REMARK VINA RESULT:     -14.3      5.221     11.514
REMARK SMILES CC1=NN(c2ccccc2)C(=O)/C1=C\c1ccc(-c2cc(C(=O)NCCCNC(=O)c3ccc(-c4c5nc(c(-c6c(F)c(F)c(F)c(F)c6F)c6ccc([nH]6)c(-c6c(F)c(F)c(F)c(F)c6F)c6nc(c(-c7c(F)c(F)c(F)c(F)c7F)c7ccc4[nH]7)C=C6)C=C5)cc3)ccc2Cl)o1
REMARK SMILES IDX 25 1 24 2 22 3 23 4 21 6 19 7 20 8 96 9 95 10 97 11 94 12
REMARK SMILES IDX 18 13 15 14 16 15 98 16 17 17 14 18 1 19 2 20 3 21 13 22
REMARK SMILES IDX 4 23 11 24 12 25 5 26 6 27 10 28 7 29 9 30 8 31 26 32 27 33
REMARK SMILES IDX 28 34 29 35 30 37 31 38 32 39 93 40 33 41 92 42 34 43 35 44
REMARK SMILES IDX 36 45 86 46 37 47 91 48 85 49 87 50 38 51 90 52 84 53 83 54
REMARK SMILES IDX 39 56 71 57 51 58 70 59 52 60 55 61 69 62 88 63 53 64 54 65
REMARK SMILES IDX 68 67 89 68 56 69 40 70 41 71 49 72 42 73 43 74 47 75 50 76
REMARK SMILES IDX 44 77 45 78 48 79 46 80 72 81 73 82 81 83 74 84 75 85 79 86
REMARK SMILES IDX 82 87 76 88 77 89 80 90 78 91 57 92 58 93 66 94 59 95 60 96
REMARK SMILES IDX 64 97 67 98 61 99 62 100 65 101 63 102
REMARK H PARENT 24 5 28 36 87 55 55 66
REMARK Flexibility Score: inf
ROOT
ATOM      1  C   UNL A   1      37.460  20.947  24.647  1.00  0.00     0.118 C 
ENDROOT
BRANCH   1   2
ATOM      2  N   UNL A   1      37.837  22.139  25.398  1.00  0.00    -0.352 N 
ATOM      3  C   UNL A   1      37.245  23.374  25.546  1.00  0.00     0.251 C 
ATOM      4  O   UNL A   1      37.828  24.223  26.216  1.00  0.00    -0.269 OA
ATOM      5  H   UNL A   1      38.680  22.042  25.898  1.00  0.00     0.163 HD
BRANCH   3   6
ATOM      6  C   UNL A   1      35.957  23.723  24.886  1.00  0.00     0.040 A 
ATOM      7  C   UNL A   1      34.026  25.209  24.717  1.00  0.00     0.037 A 
ATOM      8  C   UNL A   1      35.202  24.805  25.375  1.00  0.00     0.027 A 
ATOM      9  C   UNL A   1      33.687  24.579  23.504  1.00  0.00     0.052 A 
ATOM     10  C   UNL A   1      34.373  23.445  23.082  1.00  0.00     0.022 A 
ATOM     11  Cl  UNL A   1      32.419  25.145  22.467  1.00  0.00    -0.084 Cl
ATOM     12  C   UNL A   1      35.448  22.973  23.824  1.00  0.00     0.015 A 
BRANCH   7  13
ATOM     13  C   UNL A   1      33.086  26.124  25.355  1.00  0.00     0.136 A 
ATOM     14  C   UNL A   1      32.018  28.042  25.651  1.00  0.00     0.128 A 
ATOM     15  C   UNL A   1      31.572  27.149  26.620  1.00  0.00     0.051 A 
ATOM     16  O   UNL A   1      32.927  27.382  24.846  1.00  0.00    -0.457 OA
ATOM     17  C   UNL A   1      32.294  25.959  26.469  1.00  0.00     0.051 A 
BRANCH  14  18
ATOM     18  C   UNL A   1      31.604  29.396  25.499  1.00  0.00     0.063 C 
ATOM     19  C   UNL A   1      30.540  32.322  25.813  1.00  0.00     0.069 C 
ATOM     20  C   UNL A   1      31.768  31.736  26.425  1.00  0.00     0.071 C 
ATOM     21  N   UNL A   1      32.517  32.363  27.298  1.00  0.00    -0.169 NA
ATOM     22  C   UNL A   1      32.251  30.372  26.149  1.00  0.00     0.068 C 
ATOM     23  N   UNL A   1      33.588  31.512  27.552  1.00  0.00    -0.196 N 
ATOM     24  C   UNL A   1      33.547  30.291  26.870  1.00  0.00     0.280 C 
ATOM     25  O   UNL A   1      34.339  29.373  26.852  1.00  0.00    -0.267 OA
BRANCH  23  26
ATOM     26  C   UNL A   1      34.650  31.946  28.369  1.00  0.00     0.069 A 
ATOM     27  C   UNL A   1      35.850  32.393  27.806  1.00  0.00     0.028 A 
ATOM     28  C   UNL A   1      34.507  31.960  29.764  1.00  0.00     0.028 A 
ATOM     29  C   UNL A   1      36.869  32.885  28.626  1.00  0.00     0.002 A 
ATOM     30  C   UNL A   1      35.544  32.402  30.584  1.00  0.00     0.002 A 
ATOM     31  C   UNL A   1      36.720  32.880  30.013  1.00  0.00     0.000 A 
ENDBRANCH  23  26
ENDBRANCH  14  18
ENDBRANCH   7  13
ENDBRANCH   3   6
ENDBRANCH   1   2
BRANCH   1  32
ATOM     32  C   UNL A   1      38.285  19.717  24.980  1.00  0.00     0.042 C 
BRANCH  32  33
ATOM     33  C   UNL A   1      39.352  19.940  26.035  1.00  0.00     0.118 C 
BRANCH  33  34
ATOM     34  N   UNL A   1      40.442  18.974  25.957  1.00  0.00    -0.352 N 
ATOM     35  C   UNL A   1      41.806  19.138  25.999  1.00  0.00     0.251 C 
ATOM     36  H   UNL A   1      40.149  18.040  25.857  1.00  0.00     0.163 HD
ATOM     37  O   UNL A   1      42.535  18.190  25.723  1.00  0.00    -0.269 OA
BRANCH  35  38
ATOM     38  C   UNL A   1      42.409  20.446  26.343  1.00  0.00     0.039 A 
ATOM     39  C   UNL A   1      43.047  21.183  25.339  1.00  0.00     0.014 A 
ATOM     40  C   UNL A   1      42.374  20.942  27.645  1.00  0.00     0.014 A 
ATOM     41  C   UNL A   1      43.569  22.445  25.629  1.00  0.00     0.010 A 
ATOM     42  C   UNL A   1      42.789  22.244  27.906  1.00  0.00     0.010 A 
ATOM     43  C   UNL A   1      43.400  23.009  26.903  1.00  0.00    -0.014 A 
BRANCH  43  44
ATOM     44  C   UNL A   1      43.854  24.390  27.211  1.00  0.00     0.031 A 
ATOM     45  C   UNL A   1      42.891  25.396  27.783  1.00  0.00     0.074 A 
ATOM     46  C   UNL A   1      45.115  24.759  26.911  1.00  0.00     0.049 A 
ATOM     47  N   UNL A   1      43.078  26.665  28.047  1.00  0.00    -0.248 NA
ATOM     48  C   UNL A   1      41.527  24.922  28.066  1.00  0.00     0.031 C 
ATOM     49  C   UNL A   1      46.128  23.893  26.305  1.00  0.00     0.029 A 
ATOM     50  N   UNL A   1      45.758  25.963  27.064  1.00  0.00    -0.354 N 
ATOM     51  C   UNL A   1      41.856  27.139  28.509  1.00  0.00     0.074 A 
ATOM     52  C   UNL A   1      40.919  26.041  28.428  1.00  0.00     0.031 C 
ATOM     53  C   UNL A   1      47.271  24.582  26.166  1.00  0.00     0.029 A 
ATOM     54  C   UNL A   1      47.060  25.951  26.626  1.00  0.00     0.049 A 
ATOM     55  H   UNL A   1      45.326  26.758  27.450  1.00  0.00     0.167 HD
ATOM     56  C   UNL A   1      41.551  28.370  28.982  1.00  0.00     0.037 A 
ATOM     57  C   UNL A   1      47.979  26.936  26.589  1.00  0.00     0.037 A 
ATOM     58  C   UNL A   1      42.493  29.454  29.080  1.00  0.00     0.049 A 
ATOM     59  C   UNL A   1      47.607  28.300  27.106  1.00  0.00     0.074 A 
ATOM     60  C   UNL A   1      42.301  30.720  29.603  1.00  0.00     0.029 A 
ATOM     61  N   UNL A   1      43.807  29.400  28.637  1.00  0.00    -0.354 N 
ATOM     62  N   UNL A   1      46.471  28.715  27.612  1.00  0.00    -0.248 NA
ATOM     63  C   UNL A   1      48.651  29.334  27.051  1.00  0.00     0.031 C 
ATOM     64  C   UNL A   1      43.477  31.452  29.419  1.00  0.00     0.029 A 
ATOM     65  C   UNL A   1      44.426  30.622  28.847  1.00  0.00     0.049 A 
ATOM     66  H   UNL A   1      44.236  28.610  28.234  1.00  0.00     0.167 HD
ATOM     67  C   UNL A   1      46.671  30.043  27.965  1.00  0.00     0.074 A 
ATOM     68  C   UNL A   1      48.045  30.360  27.631  1.00  0.00     0.031 C 
ATOM     69  C   UNL A   1      45.797  30.921  28.515  1.00  0.00     0.037 A 
BRANCH  56  70
ATOM     70  C   UNL A   1      40.137  28.614  29.431  1.00  0.00     0.064 A 
ATOM     71  C   UNL A   1      39.126  28.979  28.528  1.00  0.00     0.173 A 
ATOM     72  C   UNL A   1      39.777  28.442  30.777  1.00  0.00     0.173 A 
ATOM     73  F   UNL A   1      39.415  29.168  27.231  1.00  0.00    -0.203 F 
ATOM     74  C   UNL A   1      37.820  29.197  28.960  1.00  0.00     0.198 A 
ATOM     75  C   UNL A   1      38.463  28.624  31.199  1.00  0.00     0.198 A 
ATOM     76  F   UNL A   1      40.700  28.085  31.683  1.00  0.00    -0.203 F 
ATOM     77  F   UNL A   1      36.887  29.602  28.087  1.00  0.00    -0.200 F 
ATOM     78  C   UNL A   1      37.488  29.011  30.292  1.00  0.00     0.200 A 
ATOM     79  F   UNL A   1      38.141  28.427  32.485  1.00  0.00    -0.200 F 
ATOM     80  F   UNL A   1      36.229  29.211  30.705  1.00  0.00    -0.200 F 
ENDBRANCH  56  70
BRANCH  57  81
ATOM     81  C   UNL A   1      49.342  26.665  26.062  1.00  0.00     0.064 A 
ATOM     82  C   UNL A   1      49.685  26.998  24.743  1.00  0.00     0.173 A 
ATOM     83  C   UNL A   1      50.328  26.060  26.856  1.00  0.00     0.173 A 
ATOM     84  F   UNL A   1      48.772  27.561  23.937  1.00  0.00    -0.203 F 
ATOM     85  C   UNL A   1      50.949  26.713  24.232  1.00  0.00     0.198 A 
ATOM     86  C   UNL A   1      51.604  25.806  26.355  1.00  0.00     0.198 A 
ATOM     87  F   UNL A   1      50.056  25.728  28.127  1.00  0.00    -0.203 F 
ATOM     88  F   UNL A   1      51.231  26.992  22.953  1.00  0.00    -0.200 F 
ATOM     89  C   UNL A   1      51.909  26.123  25.039  1.00  0.00     0.200 A 
ATOM     90  F   UNL A   1      52.533  25.252  27.145  1.00  0.00    -0.200 F 
ATOM     91  F   UNL A   1      53.127  25.851  24.549  1.00  0.00    -0.200 F 
ENDBRANCH  57  81
BRANCH  69  92
ATOM     92  C   UNL A   1      46.309  32.298  28.832  1.00  0.00     0.064 A 
ATOM     93  C   UNL A   1      46.915  32.599  30.060  1.00  0.00     0.173 A 
ATOM     94  C   UNL A   1      46.227  33.321  27.873  1.00  0.00     0.173 A 
ATOM     95  F   UNL A   1      47.006  31.662  31.016  1.00  0.00    -0.203 F 
ATOM     96  C   UNL A   1      47.389  33.880  30.330  1.00  0.00     0.198 A 
ATOM     97  C   UNL A   1      46.737  34.590  28.132  1.00  0.00     0.198 A 
ATOM     98  F   UNL A   1      45.665  33.085  26.678  1.00  0.00    -0.203 F 
ATOM     99  F   UNL A   1      47.913  34.160  31.532  1.00  0.00    -0.200 F 
ATOM    100  C   UNL A   1      47.308  34.871  29.363  1.00  0.00     0.200 A 
ATOM    101  F   UNL A   1      46.673  35.540  27.190  1.00  0.00    -0.200 F 
ATOM    102  F   UNL A   1      47.774  36.101  29.622  1.00  0.00    -0.200 F 
ENDBRANCH  69  92
ENDBRANCH  43  44
ENDBRANCH  35  38
ENDBRANCH  33  34
ENDBRANCH  32  33
ENDBRANCH   1  32
TORSDOF 13
ENDMDL
