MODEL 1
REMARK VINA RESULT:     -13.1      0.000      0.000
REMARK SMILES O=C(N/N=C/c1ccc(C(=O)NCCCNC(=O)c2ccc(-c3c4nc(c(-c5c(F)c(F)c(F)c(F)c5F)c5ccc([nH]5)c(-c5c(F)c(F)c(F)c(F)c5F)c5nc(c(-c6c(F)c(F)c(F)c(F)c6F)c6ccc3[nH]6)C=C5)C=C4)cc2)cc1)C(=O)Nc1cccc(Br)c1
REMARK SMILES IDX 13 1 12 2 10 3 11 4 9 6 6 7 7 8 83 9 8 10 82 11 5 12 4 13
REMARK SMILES IDX 3 14 1 15 2 16 84 18 85 19 86 20 87 22 88 23 93 24 89 25
REMARK SMILES IDX 91 26 90 27 92 28 14 29 15 30 16 31 17 32 18 34 19 35 20 36
REMARK SMILES IDX 81 37 21 38 80 39 22 40 23 41 24 42 74 43 25 44 79 45 73 46
REMARK SMILES IDX 75 47 26 48 78 49 72 50 71 51 27 53 59 54 39 55 58 56 40 57
REMARK SMILES IDX 43 58 57 59 76 60 41 61 42 62 56 64 77 65 44 66 28 67 29 68
REMARK SMILES IDX 37 69 30 70 31 71 35 72 38 73 32 74 33 75 36 76 34 77 60 78
REMARK SMILES IDX 61 79 69 80 62 81 63 82 67 83 70 84 64 85 65 86 68 87 66 88
REMARK SMILES IDX 45 89 46 90 54 91 47 92 48 93 52 94 55 95 49 96 50 97 53 98
REMARK SMILES IDX 51 99
REMARK H PARENT 12 5 3 17 86 21 16 33 75 52 43 63
REMARK Flexibility Score: inf
ROOT
ATOM      1  C   UNL A   1      41.243  19.697  27.503  1.00  0.00     0.118 C 
ENDROOT
BRANCH   1   2
ATOM      2  N   UNL A   1      41.595  20.913  28.219  1.00  0.00    -0.352 N 
ATOM      3  C   UNL A   1      41.167  22.205  28.043  1.00  0.00     0.251 C 
ATOM      4  O   UNL A   1      41.607  23.093  28.767  1.00  0.00    -0.269 OA
ATOM      5  H   UNL A   1      42.246  20.790  28.947  1.00  0.00     0.163 HD
BRANCH   3   6
ATOM      6  C   UNL A   1      40.077  22.502  27.092  1.00  0.00     0.039 A 
ATOM      7  C   UNL A   1      37.346  23.019  25.761  1.00  0.00    -0.005 A 
ATOM      8  C   UNL A   1      38.252  23.977  26.512  1.00  0.00     0.010 A 
ATOM      9  C   UNL A   1      38.336  21.902  25.510  1.00  0.00     0.010 A 
ATOM     10  C   UNL A   1      39.501  23.743  27.144  1.00  0.00     0.014 A 
ATOM     11  C   UNL A   1      39.574  21.631  26.159  1.00  0.00     0.014 A 
BRANCH   7  12
ATOM     12  C   UNL A   1      35.279  23.203  25.268  1.00  0.00     0.141 C 
ATOM     13  N   UNL A   1      34.095  23.298  25.959  1.00  0.00    -0.180 NA
BRANCH  13  14
ATOM     14  N   UNL A   1      33.039  22.694  25.360  1.00  0.00    -0.239 N 
ATOM     15  O   UNL A   1      31.118  23.180  24.306  1.00  0.00    -0.262 OA
ATOM     16  C   UNL A   1      31.786  23.309  25.337  1.00  0.00     0.329 C 
ATOM     17  H   UNL A   1      33.158  21.813  24.937  1.00  0.00     0.194 HD
BRANCH  16  18
ATOM     18  C   UNL A   1      31.121  24.053  26.536  1.00  0.00     0.315 C 
ATOM     19  O   UNL A   1      30.607  23.347  27.412  1.00  0.00    -0.263 OA
ATOM     20  N   UNL A   1      31.129  25.416  26.804  1.00  0.00    -0.318 N 
ATOM     21  H   UNL A   1      30.695  25.695  27.641  1.00  0.00     0.170 HD
BRANCH  20  22
ATOM     22  C   UNL A   1      31.676  26.433  26.032  1.00  0.00     0.042 A 
ATOM     23  C   UNL A   1      30.608  26.989  24.667  1.00  0.00     0.026 A 
ATOM     24  C   UNL A   1      32.832  27.582  26.845  1.00  0.00     0.041 A 
ATOM     25  C   UNL A   1      30.732  28.730  24.074  1.00  0.00     0.003 A 
ATOM     26  C   UNL A   1      32.837  29.353  26.332  1.00  0.00     0.020 A 
ATOM     27  C   UNL A   1      31.827  29.897  24.930  1.00  0.00     0.016 A 
ATOM     28  Br  UNL A   1      33.780  30.637  27.362  1.00  0.00    -0.051 Br
ENDBRANCH  20  22
ENDBRANCH  16  18
ENDBRANCH  13  14
ENDBRANCH   7  12
ENDBRANCH   3   6
ENDBRANCH   1   2
BRANCH   1  29
ATOM     29  C   UNL A   1      42.471  19.107  26.818  1.00  0.00     0.042 C 
BRANCH  29  30
ATOM     30  C   UNL A   1      42.539  19.448  25.338  1.00  0.00     0.118 C 
BRANCH  30  31
ATOM     31  N   UNL A   1      43.755  18.945  24.720  1.00  0.00    -0.352 N 
ATOM     32  C   UNL A   1      44.878  19.632  24.336  1.00  0.00     0.251 C 
ATOM     33  H   UNL A   1      43.775  17.975  24.554  1.00  0.00     0.163 HD
ATOM     34  O   UNL A   1      45.713  19.089  23.620  1.00  0.00    -0.269 OA
BRANCH  32  35
ATOM     35  C   UNL A   1      45.075  21.031  24.772  1.00  0.00     0.039 A 
ATOM     36  C   UNL A   1      44.843  22.061  23.858  1.00  0.00     0.014 A 
ATOM     37  C   UNL A   1      45.507  21.328  26.068  1.00  0.00     0.014 A 
ATOM     38  C   UNL A   1      44.999  23.390  24.258  1.00  0.00     0.010 A 
ATOM     39  C   UNL A   1      45.573  22.650  26.492  1.00  0.00     0.010 A 
ATOM     40  C   UNL A   1      45.341  23.694  25.585  1.00  0.00    -0.014 A 
BRANCH  40  41
ATOM     41  C   UNL A   1      45.490  25.099  26.039  1.00  0.00     0.031 A 
ATOM     42  C   UNL A   1      46.837  25.765  25.983  1.00  0.00     0.074 A 
ATOM     43  C   UNL A   1      44.429  25.752  26.551  1.00  0.00     0.049 A 
ATOM     44  N   UNL A   1      47.190  26.958  26.391  1.00  0.00    -0.248 NA
ATOM     45  C   UNL A   1      47.944  24.974  25.421  1.00  0.00     0.031 C 
ATOM     46  C   UNL A   1      43.084  25.193  26.700  1.00  0.00     0.029 A 
ATOM     47  N   UNL A   1      44.317  27.025  27.050  1.00  0.00    -0.354 N 
ATOM     48  C   UNL A   1      48.555  27.051  26.149  1.00  0.00     0.074 A 
ATOM     49  C   UNL A   1      48.979  25.775  25.617  1.00  0.00     0.031 C 
ATOM     50  C   UNL A   1      42.277  26.126  27.228  1.00  0.00     0.029 A 
ATOM     51  C   UNL A   1      43.054  27.333  27.493  1.00  0.00     0.049 A 
ATOM     52  H   UNL A   1      45.071  27.657  27.087  1.00  0.00     0.167 HD
ATOM     53  C   UNL A   1      49.375  28.113  26.329  1.00  0.00     0.037 A 
ATOM     54  C   UNL A   1      42.580  28.462  28.054  1.00  0.00     0.037 A 
ATOM     55  C   UNL A   1      48.938  29.388  26.834  1.00  0.00     0.049 A 
ATOM     56  C   UNL A   1      43.514  29.627  28.248  1.00  0.00     0.074 A 
ATOM     57  C   UNL A   1      49.674  30.549  27.001  1.00  0.00     0.029 A 
ATOM     58  N   UNL A   1      47.647  29.669  27.256  1.00  0.00    -0.354 N 
ATOM     59  N   UNL A   1      44.786  29.727  27.952  1.00  0.00    -0.248 NA
ATOM     60  C   UNL A   1      42.941  30.839  28.849  1.00  0.00     0.031 C 
ATOM     61  C   UNL A   1      48.839  31.516  27.569  1.00  0.00     0.029 A 
ATOM     62  C   UNL A   1      47.569  30.978  27.704  1.00  0.00     0.049 A 
ATOM     63  H   UNL A   1      46.896  29.032  27.238  1.00  0.00     0.167 HD
ATOM     64  C   UNL A   1      45.160  31.017  28.302  1.00  0.00     0.074 A 
ATOM     65  C   UNL A   1      43.974  31.669  28.817  1.00  0.00     0.031 C 
ATOM     66  C   UNL A   1      46.375  31.610  28.206  1.00  0.00     0.037 A 
BRANCH  53  67
ATOM     67  C   UNL A   1      50.824  27.943  25.974  1.00  0.00     0.064 A 
ATOM     68  C   UNL A   1      51.284  28.103  24.658  1.00  0.00     0.173 A 
ATOM     69  C   UNL A   1      51.770  27.645  26.967  1.00  0.00     0.173 A 
ATOM     70  F   UNL A   1      50.420  28.374  23.669  1.00  0.00    -0.203 F 
ATOM     71  C   UNL A   1      52.632  27.940  24.344  1.00  0.00     0.198 A 
ATOM     72  C   UNL A   1      53.121  27.516  26.655  1.00  0.00     0.198 A 
ATOM     73  F   UNL A   1      51.387  27.486  28.242  1.00  0.00    -0.203 F 
ATOM     74  F   UNL A   1      53.038  28.045  23.071  1.00  0.00    -0.200 F 
ATOM     75  C   UNL A   1      53.550  27.655  25.344  1.00  0.00     0.200 A 
ATOM     76  F   UNL A   1      54.009  27.254  27.624  1.00  0.00    -0.200 F 
ATOM     77  F   UNL A   1      54.847  27.506  25.041  1.00  0.00    -0.200 F 
ENDBRANCH  53  67
BRANCH  54  78
ATOM     78  C   UNL A   1      41.149  28.554  28.446  1.00  0.00     0.064 A 
ATOM     79  C   UNL A   1      40.727  28.163  29.724  1.00  0.00     0.173 A 
ATOM     80  C   UNL A   1      40.177  29.031  27.556  1.00  0.00     0.173 A 
ATOM     81  F   UNL A   1      41.618  27.683  30.605  1.00  0.00    -0.203 F 
ATOM     82  C   UNL A   1      39.384  28.224  30.090  1.00  0.00     0.198 A 
ATOM     83  C   UNL A   1      38.838  29.120  27.933  1.00  0.00     0.198 A 
ATOM     84  F   UNL A   1      40.529  29.424  26.322  1.00  0.00    -0.203 F 
ATOM     85  F   UNL A   1      39.002  27.801  31.302  1.00  0.00    -0.200 F 
ATOM     86  C   UNL A   1      38.442  28.709  29.196  1.00  0.00     0.200 A 
ATOM     87  F   UNL A   1      37.933  29.604  27.071  1.00  0.00    -0.200 F 
ATOM     88  F   UNL A   1      37.150  28.772  29.549  1.00  0.00    -0.200 F 
ENDBRANCH  54  78
BRANCH  66  89
ATOM     89  C   UNL A   1      46.475  33.046  28.631  1.00  0.00     0.064 A 
ATOM     90  C   UNL A   1      46.242  34.098  27.735  1.00  0.00     0.173 A 
ATOM     91  C   UNL A   1      46.765  33.371  29.965  1.00  0.00     0.173 A 
ATOM     92  F   UNL A   1      45.976  33.840  26.445  1.00  0.00    -0.203 F 
ATOM     93  C   UNL A   1      46.324  35.424  28.151  1.00  0.00     0.198 A 
ATOM     94  C   UNL A   1      46.814  34.697  30.386  1.00  0.00     0.198 A 
ATOM     95  F   UNL A   1      46.987  32.401  30.866  1.00  0.00    -0.203 F 
ATOM     96  F   UNL A   1      46.148  36.414  27.265  1.00  0.00    -0.200 F 
ATOM     97  C   UNL A   1      46.601  35.722  29.477  1.00  0.00     0.200 A 
ATOM     98  F   UNL A   1      47.066  34.982  31.671  1.00  0.00    -0.200 F 
ATOM     99  F   UNL A   1      46.671  36.998  29.877  1.00  0.00    -0.200 F 
ENDBRANCH  66  89
ENDBRANCH  40  41
ENDBRANCH  32  35
ENDBRANCH  30  31
ENDBRANCH  29  30
ENDBRANCH   1  29
TORSDOF 14
ENDMDL
MODEL 2
REMARK VINA RESULT:     -13.1      1.060      2.323
REMARK SMILES O=C(N/N=C/c1ccc(C(=O)NCCCNC(=O)c2ccc(-c3c4nc(c(-c5c(F)c(F)c(F)c(F)c5F)c5ccc([nH]5)c(-c5c(F)c(F)c(F)c(F)c5F)c5nc(c(-c6c(F)c(F)c(F)c(F)c6F)c6ccc3[nH]6)C=C5)C=C4)cc2)cc1)C(=O)Nc1cccc(Br)c1
REMARK SMILES IDX 13 1 12 2 10 3 11 4 9 6 6 7 7 8 83 9 8 10 82 11 5 12 4 13
REMARK SMILES IDX 3 14 1 15 2 16 84 18 85 19 86 20 87 22 88 23 93 24 89 25
REMARK SMILES IDX 91 26 90 27 92 28 14 29 15 30 16 31 17 32 18 34 19 35 20 36
REMARK SMILES IDX 81 37 21 38 80 39 22 40 23 41 24 42 74 43 25 44 79 45 73 46
REMARK SMILES IDX 75 47 26 48 78 49 72 50 71 51 27 53 59 54 39 55 58 56 40 57
REMARK SMILES IDX 43 58 57 59 76 60 41 61 42 62 56 64 77 65 44 66 28 67 29 68
REMARK SMILES IDX 37 69 30 70 31 71 35 72 38 73 32 74 33 75 36 76 34 77 60 78
REMARK SMILES IDX 61 79 69 80 62 81 63 82 67 83 70 84 64 85 65 86 68 87 66 88
REMARK SMILES IDX 45 89 46 90 54 91 47 92 48 93 52 94 55 95 49 96 50 97 53 98
REMARK SMILES IDX 51 99
REMARK H PARENT 12 5 3 17 86 21 16 33 75 52 43 63
REMARK Flexibility Score: inf
ROOT
ATOM      1  C   UNL A   1      41.176  19.689  27.456  1.00  0.00     0.118 C 
ENDROOT
BRANCH   1   2
ATOM      2  N   UNL A   1      41.570  20.879  28.192  1.00  0.00    -0.352 N 
ATOM      3  C   UNL A   1      41.182  22.187  28.043  1.00  0.00     0.251 C 
ATOM      4  O   UNL A   1      41.655  23.048  28.780  1.00  0.00    -0.269 OA
ATOM      5  H   UNL A   1      42.222  20.723  28.913  1.00  0.00     0.163 HD
BRANCH   3   6
ATOM      6  C   UNL A   1      40.096  22.537  27.106  1.00  0.00     0.039 A 
ATOM      7  C   UNL A   1      37.377  23.188  25.810  1.00  0.00    -0.005 A 
ATOM      8  C   UNL A   1      38.342  24.100  26.544  1.00  0.00     0.010 A 
ATOM      9  C   UNL A   1      38.305  22.020  25.550  1.00  0.00     0.010 A 
ATOM     10  C   UNL A   1      39.585  23.805  27.160  1.00  0.00     0.014 A 
ATOM     11  C   UNL A   1      39.536  21.689  26.184  1.00  0.00     0.014 A 
BRANCH   7  12
ATOM     12  C   UNL A   1      35.316  23.476  25.344  1.00  0.00     0.141 C 
ATOM     13  N   UNL A   1      34.588  23.858  24.242  1.00  0.00    -0.180 NA
BRANCH  13  14
ATOM     14  N   UNL A   1      33.479  24.587  24.521  1.00  0.00    -0.239 N 
ATOM     15  O   UNL A   1      31.416  24.993  23.737  1.00  0.00    -0.262 OA
ATOM     16  C   UNL A   1      32.627  25.007  23.498  1.00  0.00     0.329 C 
ATOM     17  H   UNL A   1      33.272  24.822  25.454  1.00  0.00     0.194 HD
BRANCH  16  18
ATOM     18  C   UNL A   1      33.082  25.585  22.122  1.00  0.00     0.315 C 
ATOM     19  O   UNL A   1      33.294  24.767  21.219  1.00  0.00    -0.263 OA
ATOM     20  N   UNL A   1      33.174  26.919  21.745  1.00  0.00    -0.318 N 
ATOM     21  H   UNL A   1      33.434  27.089  20.812  1.00  0.00     0.170 HD
BRANCH  20  22
ATOM     22  C   UNL A   1      32.943  28.043  22.528  1.00  0.00     0.042 A 
ATOM     23  C   UNL A   1      31.196  28.552  22.603  1.00  0.00     0.026 A 
ATOM     24  C   UNL A   1      34.066  28.341  23.930  1.00  0.00     0.041 A 
ATOM     25  C   UNL A   1      30.571  29.421  24.104  1.00  0.00     0.003 A 
ATOM     26  C   UNL A   1      33.386  29.082  25.476  1.00  0.00     0.020 A 
ATOM     27  C   UNL A   1      31.667  29.653  25.531  1.00  0.00     0.016 A 
ATOM     28  Br  UNL A   1      34.434  29.111  27.057  1.00  0.00    -0.051 Br
ENDBRANCH  20  22
ENDBRANCH  16  18
ENDBRANCH  13  14
ENDBRANCH   7  12
ENDBRANCH   3   6
ENDBRANCH   1   2
BRANCH   1  29
ATOM     29  C   UNL A   1      42.384  19.060  26.771  1.00  0.00     0.042 C 
BRANCH  29  30
ATOM     30  C   UNL A   1      42.532  19.499  25.323  1.00  0.00     0.118 C 
BRANCH  30  31
ATOM     31  N   UNL A   1      43.755  18.990  24.723  1.00  0.00    -0.352 N 
ATOM     32  C   UNL A   1      44.887  19.672  24.357  1.00  0.00     0.251 C 
ATOM     33  H   UNL A   1      43.773  18.020  24.558  1.00  0.00     0.163 HD
ATOM     34  O   UNL A   1      45.730  19.125  23.653  1.00  0.00    -0.269 OA
BRANCH  32  35
ATOM     35  C   UNL A   1      45.083  21.071  24.794  1.00  0.00     0.039 A 
ATOM     36  C   UNL A   1      44.834  22.102  23.886  1.00  0.00     0.014 A 
ATOM     37  C   UNL A   1      45.532  21.365  26.085  1.00  0.00     0.014 A 
ATOM     38  C   UNL A   1      44.990  23.430  24.289  1.00  0.00     0.010 A 
ATOM     39  C   UNL A   1      45.598  22.686  26.512  1.00  0.00     0.010 A 
ATOM     40  C   UNL A   1      45.348  23.732  25.612  1.00  0.00    -0.014 A 
BRANCH  40  41
ATOM     41  C   UNL A   1      45.497  25.136  26.068  1.00  0.00     0.031 A 
ATOM     42  C   UNL A   1      46.844  25.802  26.014  1.00  0.00     0.074 A 
ATOM     43  C   UNL A   1      44.436  25.788  26.581  1.00  0.00     0.049 A 
ATOM     44  N   UNL A   1      47.197  26.994  26.424  1.00  0.00    -0.248 NA
ATOM     45  C   UNL A   1      47.951  25.012  25.451  1.00  0.00     0.031 C 
ATOM     46  C   UNL A   1      43.091  25.228  26.729  1.00  0.00     0.029 A 
ATOM     47  N   UNL A   1      44.324  27.060  27.083  1.00  0.00    -0.354 N 
ATOM     48  C   UNL A   1      48.562  27.088  26.183  1.00  0.00     0.074 A 
ATOM     49  C   UNL A   1      48.986  25.813  25.648  1.00  0.00     0.031 C 
ATOM     50  C   UNL A   1      42.283  26.161  27.259  1.00  0.00     0.029 A 
ATOM     51  C   UNL A   1      43.060  27.367  27.525  1.00  0.00     0.049 A 
ATOM     52  H   UNL A   1      45.077  27.692  27.121  1.00  0.00     0.167 HD
ATOM     53  C   UNL A   1      49.381  28.150  26.365  1.00  0.00     0.037 A 
ATOM     54  C   UNL A   1      42.586  28.495  28.088  1.00  0.00     0.037 A 
ATOM     55  C   UNL A   1      48.945  29.424  26.872  1.00  0.00     0.049 A 
ATOM     56  C   UNL A   1      43.520  29.660  28.285  1.00  0.00     0.074 A 
ATOM     57  C   UNL A   1      49.680  30.584  27.041  1.00  0.00     0.029 A 
ATOM     58  N   UNL A   1      47.653  29.704  27.294  1.00  0.00    -0.354 N 
ATOM     59  N   UNL A   1      44.793  29.761  27.989  1.00  0.00    -0.248 NA
ATOM     60  C   UNL A   1      42.946  30.871  28.887  1.00  0.00     0.031 C 
ATOM     61  C   UNL A   1      48.845  31.551  27.610  1.00  0.00     0.029 A 
ATOM     62  C   UNL A   1      47.576  31.012  27.744  1.00  0.00     0.049 A 
ATOM     63  H   UNL A   1      46.902  29.067  27.275  1.00  0.00     0.167 HD
ATOM     64  C   UNL A   1      45.166  31.050  28.341  1.00  0.00     0.074 A 
ATOM     65  C   UNL A   1      43.980  31.701  28.857  1.00  0.00     0.031 C 
ATOM     66  C   UNL A   1      46.381  31.643  28.247  1.00  0.00     0.037 A 
BRANCH  53  67
ATOM     67  C   UNL A   1      50.831  27.980  26.010  1.00  0.00     0.064 A 
ATOM     68  C   UNL A   1      51.797  27.676  26.981  1.00  0.00     0.173 A 
ATOM     69  C   UNL A   1      51.255  28.093  24.677  1.00  0.00     0.173 A 
ATOM     70  F   UNL A   1      51.447  27.570  28.272  1.00  0.00    -0.203 F 
ATOM     71  C   UNL A   1      53.138  27.523  26.637  1.00  0.00     0.198 A 
ATOM     72  C   UNL A   1      52.591  27.906  24.331  1.00  0.00     0.198 A 
ATOM     73  F   UNL A   1      50.374  28.378  23.707  1.00  0.00    -0.203 F 
ATOM     74  F   UNL A   1      54.050  27.286  27.590  1.00  0.00    -0.200 F 
ATOM     75  C   UNL A   1      53.532  27.629  25.312  1.00  0.00     0.200 A 
ATOM     76  F   UNL A   1      52.969  27.997  23.049  1.00  0.00    -0.200 F 
ATOM     77  F   UNL A   1      54.822  27.474  24.981  1.00  0.00    -0.200 F 
ENDBRANCH  53  67
BRANCH  54  78
ATOM     78  C   UNL A   1      41.156  28.586  28.480  1.00  0.00     0.064 A 
ATOM     79  C   UNL A   1      40.187  29.032  27.569  1.00  0.00     0.173 A 
ATOM     80  C   UNL A   1      40.725  28.232  29.766  1.00  0.00     0.173 A 
ATOM     81  F   UNL A   1      40.552  29.400  26.331  1.00  0.00    -0.203 F 
ATOM     82  C   UNL A   1      38.848  29.143  27.937  1.00  0.00     0.198 A 
ATOM     83  C   UNL A   1      39.381  28.314  30.124  1.00  0.00     0.198 A 
ATOM     84  F   UNL A   1      41.610  27.792  30.674  1.00  0.00    -0.203 F 
ATOM     85  F   UNL A   1      37.952  29.617  27.061  1.00  0.00    -0.200 F 
ATOM     86  C   UNL A   1      38.445  28.778  29.212  1.00  0.00     0.200 A 
ATOM     87  F   UNL A   1      38.994  27.945  31.352  1.00  0.00    -0.200 F 
ATOM     88  F   UNL A   1      37.156  28.880  29.565  1.00  0.00    -0.200 F 
ENDBRANCH  54  78
BRANCH  66  89
ATOM     89  C   UNL A   1      46.480  33.078  28.674  1.00  0.00     0.064 A 
ATOM     90  C   UNL A   1      46.827  33.435  29.985  1.00  0.00     0.173 A 
ATOM     91  C   UNL A   1      46.266  34.110  27.747  1.00  0.00     0.173 A 
ATOM     92  F   UNL A   1      47.027  32.486  30.913  1.00  0.00    -0.203 F 
ATOM     93  C   UNL A   1      46.929  34.772  30.360  1.00  0.00     0.198 A 
ATOM     94  C   UNL A   1      46.401  35.445  28.117  1.00  0.00     0.198 A 
ATOM     95  F   UNL A   1      45.940  33.823  26.478  1.00  0.00    -0.203 F 
ATOM     96  F   UNL A   1      47.212  35.090  31.630  1.00  0.00    -0.200 F 
ATOM     97  C   UNL A   1      46.724  35.775  29.423  1.00  0.00     0.200 A 
ATOM     98  F   UNL A   1      46.218  36.413  27.208  1.00  0.00    -0.200 F 
ATOM     99  F   UNL A   1      46.831  37.061  29.784  1.00  0.00    -0.200 F 
ENDBRANCH  66  89
ENDBRANCH  40  41
ENDBRANCH  32  35
ENDBRANCH  30  31
ENDBRANCH  29  30
ENDBRANCH   1  29
TORSDOF 14
ENDMDL
MODEL 3
REMARK VINA RESULT:     -12.9      6.060     11.775
REMARK SMILES O=C(N/N=C/c1ccc(C(=O)NCCCNC(=O)c2ccc(-c3c4nc(c(-c5c(F)c(F)c(F)c(F)c5F)c5ccc([nH]5)c(-c5c(F)c(F)c(F)c(F)c5F)c5nc(c(-c6c(F)c(F)c(F)c(F)c6F)c6ccc3[nH]6)C=C5)C=C4)cc2)cc1)C(=O)Nc1cccc(Br)c1
REMARK SMILES IDX 13 1 12 2 10 3 11 4 9 6 6 7 7 8 83 9 8 10 82 11 5 12 4 13
REMARK SMILES IDX 3 14 1 15 2 16 84 18 85 19 86 20 87 22 88 23 93 24 89 25
REMARK SMILES IDX 91 26 90 27 92 28 14 29 15 30 16 31 17 32 18 34 19 35 20 36
REMARK SMILES IDX 81 37 21 38 80 39 22 40 23 41 24 42 74 43 25 44 79 45 73 46
REMARK SMILES IDX 75 47 26 48 78 49 72 50 71 51 27 53 59 54 39 55 58 56 40 57
REMARK SMILES IDX 43 58 57 59 76 60 41 61 42 62 56 64 77 65 44 66 28 67 29 68
REMARK SMILES IDX 37 69 30 70 31 71 35 72 38 73 32 74 33 75 36 76 34 77 60 78
REMARK SMILES IDX 61 79 69 80 62 81 63 82 67 83 70 84 64 85 65 86 68 87 66 88
REMARK SMILES IDX 45 89 46 90 54 91 47 92 48 93 52 94 55 95 49 96 50 97 53 98
REMARK SMILES IDX 51 99
REMARK H PARENT 12 5 3 17 86 21 16 33 75 52 43 63
REMARK Flexibility Score: inf
ROOT
ATOM      1  C   UNL A   1      31.309  30.421  25.674  1.00  0.00     0.118 C 
ENDROOT
BRANCH   1   2
ATOM      2  N   UNL A   1      30.629  30.613  24.403  1.00  0.00    -0.352 N 
ATOM      3  C   UNL A   1      30.307  29.710  23.421  1.00  0.00     0.251 C 
ATOM      4  O   UNL A   1      29.730  30.096  22.408  1.00  0.00    -0.269 OA
ATOM      5  H   UNL A   1      30.357  31.540  24.215  1.00  0.00     0.163 HD
BRANCH   3   6
ATOM      6  C   UNL A   1      30.516  28.265  23.644  1.00  0.00     0.039 A 
ATOM      7  C   UNL A   1      30.837  25.459  24.876  1.00  0.00    -0.005 A 
ATOM      8  C   UNL A   1      29.577  26.193  24.458  1.00  0.00     0.010 A 
ATOM      9  C   UNL A   1      31.858  26.306  24.148  1.00  0.00     0.010 A 
ATOM     10  C   UNL A   1      29.419  27.492  23.909  1.00  0.00     0.014 A 
ATOM     11  C   UNL A   1      31.728  27.624  23.623  1.00  0.00     0.014 A 
BRANCH   7  12
ATOM     12  C   UNL A   1      31.068  23.768  26.155  1.00  0.00     0.141 C 
ATOM     13  N   UNL A   1      31.496  23.544  27.442  1.00  0.00    -0.180 NA
BRANCH  13  14
ATOM     14  N   UNL A   1      32.154  22.373  27.624  1.00  0.00    -0.239 N 
ATOM     15  O   UNL A   1      34.217  21.569  27.990  1.00  0.00    -0.262 OA
ATOM     16  C   UNL A   1      33.493  22.242  27.251  1.00  0.00     0.329 C 
ATOM     17  H   UNL A   1      31.683  21.607  28.025  1.00  0.00     0.194 HD
BRANCH  16  18
ATOM     18  C   UNL A   1      34.121  22.787  25.931  1.00  0.00     0.315 C 
ATOM     19  O   UNL A   1      34.953  23.696  26.046  1.00  0.00    -0.263 OA
ATOM     20  N   UNL A   1      33.946  22.305  24.640  1.00  0.00    -0.318 N 
ATOM     21  H   UNL A   1      34.468  22.752  23.937  1.00  0.00     0.170 HD
BRANCH  20  22
ATOM     22  C   UNL A   1      33.124  21.267  24.223  1.00  0.00     0.042 A 
ATOM     23  C   UNL A   1      32.235  21.599  22.668  1.00  0.00     0.026 A 
ATOM     24  C   UNL A   1      33.603  19.572  24.683  1.00  0.00     0.041 A 
ATOM     25  C   UNL A   1      31.779  20.192  21.569  1.00  0.00     0.003 A 
ATOM     26  C   UNL A   1      33.263  18.197  23.501  1.00  0.00     0.020 A 
ATOM     27  C   UNL A   1      32.320  18.511  21.987  1.00  0.00     0.016 A 
ATOM     28  Br  UNL A   1      34.027  16.485  23.792  1.00  0.00    -0.051 Br
ENDBRANCH  20  22
ENDBRANCH  16  18
ENDBRANCH  13  14
ENDBRANCH   7  12
ENDBRANCH   3   6
ENDBRANCH   1   2
BRANCH   1  29
ATOM     29  C   UNL A   1      31.247  31.695  26.510  1.00  0.00     0.042 C 
BRANCH  29  30
ATOM     30  C   UNL A   1      32.622  32.280  26.791  1.00  0.00     0.118 C 
BRANCH  30  31
ATOM     31  N   UNL A   1      32.541  33.643  27.290  1.00  0.00    -0.352 N 
ATOM     32  C   UNL A   1      33.225  34.227  28.325  1.00  0.00     0.251 C 
ATOM     33  H   UNL A   1      31.907  34.230  26.818  1.00  0.00     0.163 HD
ATOM     34  O   UNL A   1      32.865  35.316  28.760  1.00  0.00    -0.269 OA
BRANCH  32  35
ATOM     35  C   UNL A   1      34.384  33.536  28.930  1.00  0.00     0.039 A 
ATOM     36  C   UNL A   1      35.671  33.990  28.633  1.00  0.00     0.014 A 
ATOM     37  C   UNL A   1      34.206  32.430  29.768  1.00  0.00     0.014 A 
ATOM     38  C   UNL A   1      36.776  33.364  29.213  1.00  0.00     0.010 A 
ATOM     39  C   UNL A   1      35.299  31.868  30.416  1.00  0.00     0.010 A 
ATOM     40  C   UNL A   1      36.597  32.316  30.129  1.00  0.00    -0.014 A 
BRANCH  40  41
ATOM     41  C   UNL A   1      37.755  31.652  30.776  1.00  0.00     0.031 A 
ATOM     42  C   UNL A   1      38.181  32.068  32.157  1.00  0.00     0.074 A 
ATOM     43  C   UNL A   1      38.454  30.720  30.100  1.00  0.00     0.049 A 
ATOM     44  N   UNL A   1      39.202  31.659  32.868  1.00  0.00    -0.248 NA
ATOM     45  C   UNL A   1      37.369  33.102  32.818  1.00  0.00     0.031 C 
ATOM     46  C   UNL A   1      38.164  30.270  28.738  1.00  0.00     0.029 A 
ATOM     47  N   UNL A   1      39.558  29.990  30.464  1.00  0.00    -0.354 N 
ATOM     48  C   UNL A   1      39.162  32.396  34.045  1.00  0.00     0.074 A 
ATOM     49  C   UNL A   1      38.054  33.318  33.929  1.00  0.00     0.031 C 
ATOM     50  C   UNL A   1      39.050  29.323  28.390  1.00  0.00     0.029 A 
ATOM     51  C   UNL A   1      39.994  29.129  29.486  1.00  0.00     0.049 A 
ATOM     52  H   UNL A   1      39.995  30.077  31.341  1.00  0.00     0.167 HD
ATOM     53  C   UNL A   1      39.959  32.294  35.134  1.00  0.00     0.037 A 
ATOM     54  C   UNL A   1      41.040  28.282  29.478  1.00  0.00     0.037 A 
ATOM     55  C   UNL A   1      41.042  31.354  35.252  1.00  0.00     0.049 A 
ATOM     56  C   UNL A   1      41.915  28.191  30.700  1.00  0.00     0.074 A 
ATOM     57  C   UNL A   1      41.876  31.127  36.333  1.00  0.00     0.029 A 
ATOM     58  N   UNL A   1      41.444  30.485  34.247  1.00  0.00    -0.354 N 
ATOM     59  N   UNL A   1      41.826  28.843  31.833  1.00  0.00    -0.248 NA
ATOM     60  C   UNL A   1      43.033  27.239  30.642  1.00  0.00     0.031 C 
ATOM     61  C   UNL A   1      42.811  30.154  35.966  1.00  0.00     0.029 A 
ATOM     62  C   UNL A   1      42.527  29.735  34.676  1.00  0.00     0.049 A 
ATOM     63  H   UNL A   1      41.020  30.411  33.362  1.00  0.00     0.167 HD
ATOM     64  C   UNL A   1      42.853  28.363  32.633  1.00  0.00     0.074 A 
ATOM     65  C   UNL A   1      43.544  27.351  31.860  1.00  0.00     0.031 C 
ATOM     66  C   UNL A   1      43.195  28.726  33.893  1.00  0.00     0.037 A 
BRANCH  53  67
ATOM     67  C   UNL A   1      39.687  33.218  36.286  1.00  0.00     0.064 A 
ATOM     68  C   UNL A   1      40.311  34.471  36.390  1.00  0.00     0.173 A 
ATOM     69  C   UNL A   1      38.767  32.860  37.284  1.00  0.00     0.173 A 
ATOM     70  F   UNL A   1      41.208  34.857  35.471  1.00  0.00    -0.203 F 
ATOM     71  C   UNL A   1      40.048  35.317  37.466  1.00  0.00     0.198 A 
ATOM     72  C   UNL A   1      38.482  33.722  38.340  1.00  0.00     0.198 A 
ATOM     73  F   UNL A   1      38.138  31.677  37.233  1.00  0.00    -0.203 F 
ATOM     74  F   UNL A   1      40.697  36.485  37.571  1.00  0.00    -0.200 F 
ATOM     75  C   UNL A   1      39.128  34.945  38.434  1.00  0.00     0.200 A 
ATOM     76  F   UNL A   1      37.583  33.368  39.269  1.00  0.00    -0.200 F 
ATOM     77  F   UNL A   1      38.872  35.764  39.465  1.00  0.00    -0.200 F 
ENDBRANCH  53  67
BRANCH  54  78
ATOM     78  C   UNL A   1      41.302  27.436  28.284  1.00  0.00     0.064 A 
ATOM     79  C   UNL A   1      40.629  26.219  28.103  1.00  0.00     0.173 A 
ATOM     80  C   UNL A   1      42.226  27.821  27.303  1.00  0.00     0.173 A 
ATOM     81  F   UNL A   1      39.748  25.799  29.024  1.00  0.00    -0.203 F 
ATOM     82  C   UNL A   1      40.887  25.410  26.999  1.00  0.00     0.198 A 
ATOM     83  C   UNL A   1      42.462  27.025  26.183  1.00  0.00     0.198 A 
ATOM     84  F   UNL A   1      42.892  28.979  27.424  1.00  0.00    -0.203 F 
ATOM     85  F   UNL A   1      40.264  24.230  26.876  1.00  0.00    -0.200 F 
ATOM     86  C   UNL A   1      41.799  25.816  26.037  1.00  0.00     0.200 A 
ATOM     87  F   UNL A   1      43.332  27.430  25.248  1.00  0.00    -0.200 F 
ATOM     88  F   UNL A   1      42.044  25.040  24.972  1.00  0.00    -0.200 F 
ENDBRANCH  54  78
BRANCH  66  89
ATOM     89  C   UNL A   1      44.343  27.999  34.530  1.00  0.00     0.064 A 
ATOM     90  C   UNL A   1      45.634  28.546  34.568  1.00  0.00     0.173 A 
ATOM     91  C   UNL A   1      44.139  26.755  35.148  1.00  0.00     0.173 A 
ATOM     92  F   UNL A   1      45.884  29.726  33.978  1.00  0.00    -0.203 F 
ATOM     93  C   UNL A   1      46.683  27.863  35.176  1.00  0.00     0.198 A 
ATOM     94  C   UNL A   1      45.183  26.090  35.784  1.00  0.00     0.198 A 
ATOM     95  F   UNL A   1      42.921  26.191  35.147  1.00  0.00    -0.203 F 
ATOM     96  F   UNL A   1      47.918  28.383  35.156  1.00  0.00    -0.200 F 
ATOM     97  C   UNL A   1      46.455  26.641  35.790  1.00  0.00     0.200 A 
ATOM     98  F   UNL A   1      44.958  24.916  36.390  1.00  0.00    -0.200 F 
ATOM     99  F   UNL A   1      47.465  25.989  36.383  1.00  0.00    -0.200 F 
ENDBRANCH  66  89
ENDBRANCH  40  41
ENDBRANCH  32  35
ENDBRANCH  30  31
ENDBRANCH  29  30
ENDBRANCH   1  29
TORSDOF 14
ENDMDL
