MODEL 1
REMARK VINA RESULT:     -14.5      0.000      0.000
REMARK SMILES Cc1c(C(=O)NCCCNC(=O)c2ccc(-c3c4nc(c(-c5c(F)c(F)c(F)c(F)c5F)c5ccc([nH]5)c(-c5c(F)c(F)c(F)c(F)c5F)c5nc(c(-c6c(F)c(F)c(F)c(F)c6F)c6ccc3[nH]6)C=C5)C=C4)cc2)oc2c1/C(=N/NC(=O)C(c1ccccc1)c1ccccc1)CCC2
REMARK SMILES IDX 7 1 6 2 4 3 5 4 3 6 1 7 2 8 78 9 76 10 77 11 79 12 99 13
REMARK SMILES IDX 80 14 97 15 98 16 81 17 82 18 83 20 84 21 85 22 86 23 90 24
REMARK SMILES IDX 87 25 89 26 88 27 91 28 92 29 96 30 93 31 95 32 94 33 8 34
REMARK SMILES IDX 9 35 10 36 11 37 12 39 13 40 14 41 75 42 15 43 74 44 16 45
REMARK SMILES IDX 17 46 18 47 68 48 19 49 73 50 67 51 69 52 20 53 72 54 66 55
REMARK SMILES IDX 65 56 21 58 53 59 33 60 52 61 34 62 37 63 51 64 70 65 35 66
REMARK SMILES IDX 36 67 50 69 71 70 38 71 22 72 23 73 31 74 24 75 25 76 29 77
REMARK SMILES IDX 32 78 26 79 27 80 30 81 28 82 54 83 55 84 63 85 56 86 57 87
REMARK SMILES IDX 61 88 64 89 58 90 59 91 62 92 60 93 39 94 40 95 48 96 41 97
REMARK SMILES IDX 42 98 46 99 49 100 43 101 44 102 47 103 45 104
REMARK H PARENT 6 5 81 19 10 38 69 57 37 68
REMARK Flexibility Score: inf
ROOT
ATOM      1  C   UNL A   1      37.254  21.321  25.191  1.00  0.00     0.118 C 
ENDROOT
BRANCH   1   2
ATOM      2  N   UNL A   1      36.329  20.174  25.139  1.00  0.00    -0.349 N 
ATOM      3  C   UNL A   1      34.948  20.144  24.912  1.00  0.00     0.287 C 
ATOM      4  O   UNL A   1      34.428  19.053  24.686  1.00  0.00    -0.266 OA
ATOM      5  H   UNL A   1      36.746  19.295  25.287  1.00  0.00     0.163 HD
BRANCH   3   6
ATOM      6  C   UNL A   1      34.230  21.402  24.915  1.00  0.00     0.195 A 
ATOM      7  C   UNL A   1      34.465  22.570  27.225  1.00  0.00     0.049 C 
ATOM      8  C   UNL A   1      33.950  22.421  25.840  1.00  0.00     0.010 A 
ATOM      9  C   UNL A   1      32.894  23.193  25.237  1.00  0.00     0.043 A 
ATOM     10  O   UNL A   1      33.589  21.671  23.756  1.00  0.00    -0.455 OA
ATOM     11  C   UNL A   1      32.689  22.599  24.010  1.00  0.00     0.114 A 
ATOM     12  C   UNL A   1      31.951  24.236  25.641  1.00  0.00     0.072 C 
ATOM     13  C   UNL A   1      31.575  22.689  23.053  1.00  0.00     0.076 C 
ATOM     14  N   UNL A   1      32.250  25.072  26.586  1.00  0.00    -0.177 NA
ATOM     15  C   UNL A   1      30.674  24.102  24.873  1.00  0.00     0.059 C 
ATOM     16  C   UNL A   1      30.836  23.958  23.365  1.00  0.00     0.014 C 
BRANCH  14  17
ATOM     17  N   UNL A   1      31.558  26.141  27.132  1.00  0.00    -0.246 N 
ATOM     18  C   UNL A   1      31.380  27.509  27.045  1.00  0.00     0.252 C 
ATOM     19  H   UNL A   1      30.976  25.798  27.849  1.00  0.00     0.193 HD
ATOM     20  O   UNL A   1      30.683  27.998  27.955  1.00  0.00    -0.272 OA
BRANCH  18  21
ATOM     21  C   UNL A   1      31.914  28.497  25.951  1.00  0.00     0.140 C 
BRANCH  21  22
ATOM     22  C   UNL A   1      33.176  29.245  26.513  1.00  0.00    -0.031 A 
ATOM     23  C   UNL A   1      34.442  28.659  26.669  1.00  0.00     0.005 A 
ATOM     24  C   UNL A   1      33.077  30.603  26.914  1.00  0.00     0.005 A 
ATOM     25  C   UNL A   1      35.477  29.328  27.353  1.00  0.00     0.000 A 
ATOM     26  C   UNL A   1      34.099  31.269  27.598  1.00  0.00     0.000 A 
ATOM     27  C   UNL A   1      35.294  30.618  27.846  1.00  0.00     0.000 A 
ENDBRANCH  21  22
BRANCH  21  28
ATOM     28  C   UNL A   1      31.872  27.734  24.566  1.00  0.00    -0.031 A 
ATOM     29  C   UNL A   1      30.760  27.672  23.705  1.00  0.00     0.005 A 
ATOM     30  C   UNL A   1      33.093  27.239  24.038  1.00  0.00     0.005 A 
ATOM     31  C   UNL A   1      30.922  27.385  22.336  1.00  0.00     0.000 A 
ATOM     32  C   UNL A   1      33.257  26.970  22.677  1.00  0.00     0.000 A 
ATOM     33  C   UNL A   1      32.178  27.089  21.815  1.00  0.00     0.000 A 
ENDBRANCH  21  28
ENDBRANCH  18  21
ENDBRANCH  14  17
ENDBRANCH   3   6
ENDBRANCH   1   2
BRANCH   1  34
ATOM     34  C   UNL A   1      38.701  20.980  25.603  1.00  0.00     0.042 C 
BRANCH  34  35
ATOM     35  C   UNL A   1      39.447  22.166  26.179  1.00  0.00     0.118 C 
BRANCH  35  36
ATOM     36  N   UNL A   1      40.872  22.152  25.850  1.00  0.00    -0.352 N 
ATOM     37  C   UNL A   1      41.784  23.193  25.909  1.00  0.00     0.251 C 
ATOM     38  H   UNL A   1      41.231  21.287  25.546  1.00  0.00     0.163 HD
ATOM     39  O   UNL A   1      42.836  23.140  25.304  1.00  0.00    -0.269 OA
BRANCH  37  40
ATOM     40  C   UNL A   1      41.432  24.385  26.704  1.00  0.00     0.039 A 
ATOM     41  C   UNL A   1      41.892  24.529  28.013  1.00  0.00     0.014 A 
ATOM     42  C   UNL A   1      40.700  25.396  26.092  1.00  0.00     0.014 A 
ATOM     43  C   UNL A   1      41.703  25.748  28.659  1.00  0.00     0.010 A 
ATOM     44  C   UNL A   1      40.667  26.645  26.663  1.00  0.00     0.010 A 
ATOM     45  C   UNL A   1      41.126  26.826  27.964  1.00  0.00    -0.014 A 
BRANCH  45  46
ATOM     46  C   UNL A   1      41.099  28.160  28.566  1.00  0.00     0.031 A 
ATOM     47  C   UNL A   1      42.208  29.076  28.162  1.00  0.00     0.074 A 
ATOM     48  C   UNL A   1      40.068  28.641  29.297  1.00  0.00     0.049 A 
ATOM     49  N   UNL A   1      43.117  29.597  28.921  1.00  0.00    -0.248 NA
ATOM     50  C   UNL A   1      42.378  29.386  26.734  1.00  0.00     0.031 C 
ATOM     51  C   UNL A   1      38.760  28.036  29.568  1.00  0.00     0.029 A 
ATOM     52  N   UNL A   1      39.957  29.862  29.891  1.00  0.00    -0.354 N 
ATOM     53  C   UNL A   1      43.889  30.421  28.104  1.00  0.00     0.074 A 
ATOM     54  C   UNL A   1      43.466  30.161  26.752  1.00  0.00     0.031 C 
ATOM     55  C   UNL A   1      37.918  28.971  30.059  1.00  0.00     0.029 A 
ATOM     56  C   UNL A   1      38.675  30.180  30.316  1.00  0.00     0.049 A 
ATOM     57  H   UNL A   1      40.722  30.468  30.008  1.00  0.00     0.167 HD
ATOM     58  C   UNL A   1      44.691  31.391  28.628  1.00  0.00     0.037 A 
ATOM     59  C   UNL A   1      38.260  31.359  30.838  1.00  0.00     0.037 A 
ATOM     60  C   UNL A   1      44.955  31.157  30.025  1.00  0.00     0.049 A 
ATOM     61  C   UNL A   1      39.462  32.066  31.339  1.00  0.00     0.074 A 
ATOM     62  C   UNL A   1      45.539  30.126  30.738  1.00  0.00     0.029 A 
ATOM     63  N   UNL A   1      44.271  31.897  30.957  1.00  0.00    -0.354 N 
ATOM     64  N   UNL A   1      40.158  31.675  32.369  1.00  0.00    -0.248 NA
ATOM     65  C   UNL A   1      40.146  32.965  30.424  1.00  0.00     0.031 C 
ATOM     66  C   UNL A   1      44.746  30.004  31.918  1.00  0.00     0.029 A 
ATOM     67  C   UNL A   1      43.779  31.007  31.879  1.00  0.00     0.049 A 
ATOM     68  H   UNL A   1      44.158  32.875  30.964  1.00  0.00     0.167 HD
ATOM     69  C   UNL A   1      41.474  31.911  32.010  1.00  0.00     0.074 A 
ATOM     70  C   UNL A   1      41.401  32.791  30.847  1.00  0.00     0.031 C 
ATOM     71  C   UNL A   1      42.490  31.149  32.512  1.00  0.00     0.037 A 
BRANCH  58  72
ATOM     72  C   UNL A   1      44.967  32.723  27.972  1.00  0.00     0.064 A 
ATOM     73  C   UNL A   1      46.288  33.054  27.603  1.00  0.00     0.173 A 
ATOM     74  C   UNL A   1      44.049  33.794  27.971  1.00  0.00     0.173 A 
ATOM     75  F   UNL A   1      47.249  32.118  27.586  1.00  0.00    -0.203 F 
ATOM     76  C   UNL A   1      46.673  34.371  27.336  1.00  0.00     0.198 A 
ATOM     77  C   UNL A   1      44.426  35.099  27.653  1.00  0.00     0.198 A 
ATOM     78  F   UNL A   1      42.786  33.647  28.386  1.00  0.00    -0.203 F 
ATOM     79  F   UNL A   1      47.963  34.656  27.117  1.00  0.00    -0.200 F 
ATOM     80  C   UNL A   1      45.742  35.394  27.369  1.00  0.00     0.200 A 
ATOM     81  F   UNL A   1      43.514  36.079  27.709  1.00  0.00    -0.200 F 
ATOM     82  F   UNL A   1      46.120  36.665  27.179  1.00  0.00    -0.200 F 
ENDBRANCH  58  72
BRANCH  59  83
ATOM     83  C   UNL A   1      36.946  32.024  30.707  1.00  0.00     0.064 A 
ATOM     84  C   UNL A   1      35.999  31.955  31.741  1.00  0.00     0.173 A 
ATOM     85  C   UNL A   1      36.711  32.979  29.700  1.00  0.00     0.173 A 
ATOM     86  F   UNL A   1      36.169  31.096  32.755  1.00  0.00    -0.203 F 
ATOM     87  C   UNL A   1      34.903  32.823  31.788  1.00  0.00     0.198 A 
ATOM     88  C   UNL A   1      35.614  33.840  29.744  1.00  0.00     0.198 A 
ATOM     89  F   UNL A   1      37.596  33.163  28.708  1.00  0.00    -0.203 F 
ATOM     90  F   UNL A   1      34.060  32.778  32.828  1.00  0.00    -0.200 F 
ATOM     91  C   UNL A   1      34.720  33.773  30.798  1.00  0.00     0.200 A 
ATOM     92  F   UNL A   1      35.466  34.779  28.800  1.00  0.00    -0.200 F 
ATOM     93  F   UNL A   1      33.711  34.651  30.880  1.00  0.00    -0.200 F 
ENDBRANCH  59  83
BRANCH  71  94
ATOM     94  C   UNL A   1      42.176  30.214  33.647  1.00  0.00     0.064 A 
ATOM     95  C   UNL A   1      41.738  28.887  33.481  1.00  0.00     0.173 A 
ATOM     96  C   UNL A   1      42.455  30.636  34.954  1.00  0.00     0.173 A 
ATOM     97  F   UNL A   1      41.553  28.368  32.261  1.00  0.00    -0.203 F 
ATOM     98  C   UNL A   1      41.538  28.047  34.574  1.00  0.00     0.198 A 
ATOM     99  C   UNL A   1      42.290  29.782  36.041  1.00  0.00     0.198 A 
ATOM    100  F   UNL A   1      42.930  31.872  35.174  1.00  0.00    -0.203 F 
ATOM    101  F   UNL A   1      41.101  26.792  34.387  1.00  0.00    -0.200 F 
ATOM    102  C   UNL A   1      41.819  28.493  35.854  1.00  0.00     0.200 A 
ATOM    103  F   UNL A   1      42.612  30.203  37.273  1.00  0.00    -0.200 F 
ATOM    104  F   UNL A   1      41.663  27.674  36.903  1.00  0.00    -0.200 F 
ENDBRANCH  71  94
ENDBRANCH  45  46
ENDBRANCH  37  40
ENDBRANCH  35  36
ENDBRANCH  34  35
ENDBRANCH   1  34
TORSDOF 14
ENDMDL
MODEL 2
REMARK VINA RESULT:     -14.3      3.013      9.009
REMARK SMILES Cc1c(C(=O)NCCCNC(=O)c2ccc(-c3c4nc(c(-c5c(F)c(F)c(F)c(F)c5F)c5ccc([nH]5)c(-c5c(F)c(F)c(F)c(F)c5F)c5nc(c(-c6c(F)c(F)c(F)c(F)c6F)c6ccc3[nH]6)C=C5)C=C4)cc2)oc2c1/C(=N/NC(=O)C(c1ccccc1)c1ccccc1)CCC2
REMARK SMILES IDX 7 1 6 2 4 3 5 4 3 6 1 7 2 8 78 9 76 10 77 11 79 12 99 13
REMARK SMILES IDX 80 14 97 15 98 16 81 17 82 18 83 20 84 21 85 22 86 23 90 24
REMARK SMILES IDX 87 25 89 26 88 27 91 28 92 29 96 30 93 31 95 32 94 33 8 34
REMARK SMILES IDX 9 35 10 36 11 37 12 39 13 40 14 41 75 42 15 43 74 44 16 45
REMARK SMILES IDX 17 46 18 47 68 48 19 49 73 50 67 51 69 52 20 53 72 54 66 55
REMARK SMILES IDX 65 56 21 58 53 59 33 60 52 61 34 62 37 63 51 64 70 65 35 66
REMARK SMILES IDX 36 67 50 69 71 70 38 71 22 72 23 73 31 74 24 75 25 76 29 77
REMARK SMILES IDX 32 78 26 79 27 80 30 81 28 82 54 83 55 84 63 85 56 86 57 87
REMARK SMILES IDX 61 88 64 89 58 90 59 91 62 92 60 93 39 94 40 95 48 96 41 97
REMARK SMILES IDX 42 98 46 99 49 100 43 101 44 102 47 103 45 104
REMARK H PARENT 6 5 81 19 10 38 69 57 37 68
REMARK Flexibility Score: inf
ROOT
ATOM      1  C   UNL A   1      32.534  29.891  25.418  1.00  0.00     0.118 C 
ENDROOT
BRANCH   1   2
ATOM      2  N   UNL A   1      31.374  30.049  24.521  1.00  0.00    -0.349 N 
ATOM      3  C   UNL A   1      30.549  29.079  23.940  1.00  0.00     0.287 C 
ATOM      4  O   UNL A   1      29.505  29.456  23.412  1.00  0.00    -0.266 OA
ATOM      5  H   UNL A   1      31.145  30.979  24.295  1.00  0.00     0.163 HD
BRANCH   3   6
ATOM      6  C   UNL A   1      30.957  27.692  24.036  1.00  0.00     0.195 A 
ATOM      7  C   UNL A   1      30.958  26.923  26.519  1.00  0.00     0.049 C 
ATOM      8  C   UNL A   1      31.191  26.762  25.062  1.00  0.00     0.010 A 
ATOM      9  C   UNL A   1      31.900  25.679  24.428  1.00  0.00     0.043 A 
ATOM     10  O   UNL A   1      31.265  27.126  22.849  1.00  0.00    -0.455 OA
ATOM     11  C   UNL A   1      31.971  26.042  23.101  1.00  0.00     0.114 A 
ATOM     12  C   UNL A   1      32.653  24.493  24.838  1.00  0.00     0.072 C 
ATOM     13  C   UNL A   1      32.811  25.556  21.996  1.00  0.00     0.076 C 
ATOM     14  N   UNL A   1      32.381  23.886  25.951  1.00  0.00    -0.177 NA
ATOM     15  C   UNL A   1      33.738  24.205  23.850  1.00  0.00     0.059 C 
ATOM     16  C   UNL A   1      33.300  24.192  22.391  1.00  0.00     0.014 C 
BRANCH  14  17
ATOM     17  N   UNL A   1      32.918  22.755  26.547  1.00  0.00    -0.246 N 
ATOM     18  C   UNL A   1      33.643  21.606  26.293  1.00  0.00     0.252 C 
ATOM     19  H   UNL A   1      32.704  22.781  27.508  1.00  0.00     0.193 HD
ATOM     20  O   UNL A   1      33.716  20.819  27.257  1.00  0.00    -0.272 OA
BRANCH  18  21
ATOM     21  C   UNL A   1      34.389  21.190  24.979  1.00  0.00     0.140 C 
BRANCH  21  22
ATOM     22  C   UNL A   1      35.926  21.460  25.159  1.00  0.00    -0.031 A 
ATOM     23  C   UNL A   1      36.934  20.524  24.880  1.00  0.00     0.005 A 
ATOM     24  C   UNL A   1      36.375  22.716  25.644  1.00  0.00     0.005 A 
ATOM     25  C   UNL A   1      38.275  20.765  25.242  1.00  0.00     0.000 A 
ATOM     26  C   UNL A   1      37.702  22.959  26.010  1.00  0.00     0.000 A 
ATOM     27  C   UNL A   1      38.652  21.967  25.837  1.00  0.00     0.000 A 
ENDBRANCH  21  22
BRANCH  21  28
ATOM     28  C   UNL A   1      33.775  19.811  24.505  1.00  0.00    -0.031 A 
ATOM     29  C   UNL A   1      32.584  19.662  23.769  1.00  0.00     0.005 A 
ATOM     30  C   UNL A   1      34.567  18.643  24.645  1.00  0.00     0.005 A 
ATOM     31  C   UNL A   1      32.345  18.500  23.010  1.00  0.00     0.000 A 
ATOM     32  C   UNL A   1      34.339  17.496  23.879  1.00  0.00     0.000 A 
ATOM     33  C   UNL A   1      33.250  17.442  23.024  1.00  0.00     0.000 A 
ENDBRANCH  21  28
ENDBRANCH  18  21
ENDBRANCH  14  17
ENDBRANCH   3   6
ENDBRANCH   1   2
BRANCH   1  34
ATOM     34  C   UNL A   1      32.326  30.410  26.856  1.00  0.00     0.042 C 
BRANCH  34  35
ATOM     35  C   UNL A   1      33.630  30.627  27.599  1.00  0.00     0.118 C 
BRANCH  35  36
ATOM     36  N   UNL A   1      34.233  31.928  27.312  1.00  0.00    -0.352 N 
ATOM     37  C   UNL A   1      35.454  32.427  27.734  1.00  0.00     0.251 C 
ATOM     38  H   UNL A   1      33.700  32.530  26.742  1.00  0.00     0.163 HD
ATOM     39  O   UNL A   1      35.688  33.619  27.707  1.00  0.00    -0.269 OA
BRANCH  37  40
ATOM     40  C   UNL A   1      36.458  31.475  28.247  1.00  0.00     0.039 A 
ATOM     41  C   UNL A   1      36.543  30.183  27.730  1.00  0.00     0.014 A 
ATOM     42  C   UNL A   1      37.367  31.921  29.199  1.00  0.00     0.014 A 
ATOM     43  C   UNL A   1      37.622  29.383  28.099  1.00  0.00     0.010 A 
ATOM     44  C   UNL A   1      38.514  31.200  29.427  1.00  0.00     0.010 A 
ATOM     45  C   UNL A   1      38.635  29.911  28.918  1.00  0.00    -0.014 A 
BRANCH  45  46
ATOM     46  C   UNL A   1      39.863  29.149  29.155  1.00  0.00     0.031 A 
ATOM     47  C   UNL A   1      40.200  28.892  30.587  1.00  0.00     0.074 A 
ATOM     48  C   UNL A   1      40.579  28.543  28.181  1.00  0.00     0.049 A 
ATOM     49  N   UNL A   1      41.243  29.296  31.238  1.00  0.00    -0.248 NA
ATOM     50  C   UNL A   1      39.224  28.170  31.420  1.00  0.00     0.031 C 
ATOM     51  C   UNL A   1      40.276  28.409  26.752  1.00  0.00     0.029 A 
ATOM     52  N   UNL A   1      41.725  27.818  28.309  1.00  0.00    -0.354 N 
ATOM     53  C   UNL A   1      41.141  28.761  32.520  1.00  0.00     0.074 A 
ATOM     54  C   UNL A   1      39.827  28.179  32.612  1.00  0.00     0.031 C 
ATOM     55  C   UNL A   1      41.073  27.467  26.203  1.00  0.00     0.029 A 
ATOM     56  C   UNL A   1      42.063  27.074  27.187  1.00  0.00     0.049 A 
ATOM     57  H   UNL A   1      42.268  27.821  29.129  1.00  0.00     0.167 HD
ATOM     58  C   UNL A   1      42.224  28.678  33.344  1.00  0.00     0.037 A 
ATOM     59  C   UNL A   1      43.083  26.190  27.074  1.00  0.00     0.037 A 
ATOM     60  C   UNL A   1      43.278  29.561  32.916  1.00  0.00     0.049 A 
ATOM     61  C   UNL A   1      44.060  26.506  28.143  1.00  0.00     0.074 A 
ATOM     62  C   UNL A   1      43.379  30.928  32.729  1.00  0.00     0.029 A 
ATOM     63  N   UNL A   1      44.354  29.028  32.249  1.00  0.00    -0.354 N 
ATOM     64  N   UNL A   1      44.790  27.585  28.163  1.00  0.00    -0.248 NA
ATOM     65  C   UNL A   1      43.906  25.828  29.419  1.00  0.00     0.031 C 
ATOM     66  C   UNL A   1      44.164  31.078  31.547  1.00  0.00     0.029 A 
ATOM     67  C   UNL A   1      44.545  29.803  31.133  1.00  0.00     0.049 A 
ATOM     68  H   UNL A   1      44.883  28.243  32.518  1.00  0.00     0.167 HD
ATOM     69  C   UNL A   1      44.818  27.963  29.495  1.00  0.00     0.074 A 
ATOM     70  C   UNL A   1      44.340  26.795  30.232  1.00  0.00     0.031 C 
ATOM     71  C   UNL A   1      44.956  29.272  29.855  1.00  0.00     0.037 A 
BRANCH  58  72
ATOM     72  C   UNL A   1      42.462  27.567  34.339  1.00  0.00     0.064 A 
ATOM     73  C   UNL A   1      43.014  26.346  33.898  1.00  0.00     0.173 A 
ATOM     74  C   UNL A   1      41.894  27.545  35.630  1.00  0.00     0.173 A 
ATOM     75  F   UNL A   1      43.566  26.245  32.678  1.00  0.00    -0.203 F 
ATOM     76  C   UNL A   1      42.927  25.177  34.659  1.00  0.00     0.198 A 
ATOM     77  C   UNL A   1      41.855  26.389  36.408  1.00  0.00     0.198 A 
ATOM     78  F   UNL A   1      41.255  28.603  36.142  1.00  0.00    -0.203 F 
ATOM     79  F   UNL A   1      43.349  24.014  34.144  1.00  0.00    -0.200 F 
ATOM     80  C   UNL A   1      42.340  25.198  35.911  1.00  0.00     0.200 A 
ATOM     81  F   UNL A   1      41.266  26.425  37.612  1.00  0.00    -0.200 F 
ATOM     82  F   UNL A   1      42.196  24.068  36.615  1.00  0.00    -0.200 F 
ENDBRANCH  58  72
BRANCH  59  83
ATOM     83  C   UNL A   1      43.152  24.945  26.279  1.00  0.00     0.064 A 
ATOM     84  C   UNL A   1      44.139  24.773  25.296  1.00  0.00     0.173 A 
ATOM     85  C   UNL A   1      42.444  23.793  26.669  1.00  0.00     0.173 A 
ATOM     86  F   UNL A   1      44.882  25.815  24.896  1.00  0.00    -0.203 F 
ATOM     87  C   UNL A   1      44.432  23.513  24.767  1.00  0.00     0.198 A 
ATOM     88  C   UNL A   1      42.732  22.537  26.135  1.00  0.00     0.198 A 
ATOM     89  F   UNL A   1      41.529  23.848  27.649  1.00  0.00    -0.203 F 
ATOM     90  F   UNL A   1      45.431  23.375  23.884  1.00  0.00    -0.200 F 
ATOM     91  C   UNL A   1      43.739  22.394  25.197  1.00  0.00     0.200 A 
ATOM     92  F   UNL A   1      42.079  21.456  26.585  1.00  0.00    -0.200 F 
ATOM     93  F   UNL A   1      44.067  21.177  24.742  1.00  0.00    -0.200 F 
ENDBRANCH  59  83
BRANCH  71  94
ATOM     94  C   UNL A   1      45.324  30.263  28.786  1.00  0.00     0.064 A 
ATOM     95  C   UNL A   1      44.391  30.935  27.975  1.00  0.00     0.173 A 
ATOM     96  C   UNL A   1      46.667  30.645  28.666  1.00  0.00     0.173 A 
ATOM     97  F   UNL A   1      43.077  30.711  28.101  1.00  0.00    -0.203 F 
ATOM     98  C   UNL A   1      44.792  31.900  27.053  1.00  0.00     0.198 A 
ATOM     99  C   UNL A   1      47.061  31.636  27.771  1.00  0.00     0.198 A 
ATOM    100  F   UNL A   1      47.599  30.082  29.451  1.00  0.00    -0.203 F 
ATOM    101  F   UNL A   1      43.883  32.511  26.279  1.00  0.00    -0.200 F 
ATOM    102  C   UNL A   1      46.127  32.254  26.955  1.00  0.00     0.200 A 
ATOM    103  F   UNL A   1      48.347  32.010  27.716  1.00  0.00    -0.200 F 
ATOM    104  F   UNL A   1      46.510  33.208  26.096  1.00  0.00    -0.200 F 
ENDBRANCH  71  94
ENDBRANCH  45  46
ENDBRANCH  37  40
ENDBRANCH  35  36
ENDBRANCH  34  35
ENDBRANCH   1  34
TORSDOF 14
ENDMDL
MODEL 3
REMARK VINA RESULT:     -14.2      0.727      2.362
REMARK SMILES Cc1c(C(=O)NCCCNC(=O)c2ccc(-c3c4nc(c(-c5c(F)c(F)c(F)c(F)c5F)c5ccc([nH]5)c(-c5c(F)c(F)c(F)c(F)c5F)c5nc(c(-c6c(F)c(F)c(F)c(F)c6F)c6ccc3[nH]6)C=C5)C=C4)cc2)oc2c1/C(=N/NC(=O)C(c1ccccc1)c1ccccc1)CCC2
REMARK SMILES IDX 7 1 6 2 4 3 5 4 3 6 1 7 2 8 78 9 76 10 77 11 79 12 99 13
REMARK SMILES IDX 80 14 97 15 98 16 81 17 82 18 83 20 84 21 85 22 86 23 90 24
REMARK SMILES IDX 87 25 89 26 88 27 91 28 92 29 96 30 93 31 95 32 94 33 8 34
REMARK SMILES IDX 9 35 10 36 11 37 12 39 13 40 14 41 75 42 15 43 74 44 16 45
REMARK SMILES IDX 17 46 18 47 68 48 19 49 73 50 67 51 69 52 20 53 72 54 66 55
REMARK SMILES IDX 65 56 21 58 53 59 33 60 52 61 34 62 37 63 51 64 70 65 35 66
REMARK SMILES IDX 36 67 50 69 71 70 38 71 22 72 23 73 31 74 24 75 25 76 29 77
REMARK SMILES IDX 32 78 26 79 27 80 30 81 28 82 54 83 55 84 63 85 56 86 57 87
REMARK SMILES IDX 61 88 64 89 58 90 59 91 62 92 60 93 39 94 40 95 48 96 41 97
REMARK SMILES IDX 42 98 46 99 49 100 43 101 44 102 47 103 45 104
REMARK H PARENT 6 5 81 19 10 38 69 57 37 68
REMARK Flexibility Score: inf
ROOT
ATOM      1  C   UNL A   1      37.751  20.881  24.967  1.00  0.00     0.118 C 
ENDROOT
BRANCH   1   2
ATOM      2  N   UNL A   1      36.726  19.824  25.049  1.00  0.00    -0.349 N 
ATOM      3  C   UNL A   1      35.337  19.907  24.900  1.00  0.00     0.287 C 
ATOM      4  O   UNL A   1      34.709  18.856  24.783  1.00  0.00    -0.266 OA
ATOM      5  H   UNL A   1      37.071  18.922  25.236  1.00  0.00     0.163 HD
BRANCH   3   6
ATOM      6  C   UNL A   1      34.734  21.223  24.851  1.00  0.00     0.195 A 
ATOM      7  C   UNL A   1      34.345  22.127  27.257  1.00  0.00     0.049 C 
ATOM      8  C   UNL A   1      34.258  22.168  25.776  1.00  0.00     0.010 A 
ATOM      9  C   UNL A   1      33.484  23.097  24.994  1.00  0.00     0.043 A 
ATOM     10  O   UNL A   1      34.487  21.669  23.600  1.00  0.00    -0.455 OA
ATOM     11  C   UNL A   1      33.615  22.652  23.696  1.00  0.00     0.114 A 
ATOM     12  C   UNL A   1      32.533  24.184  25.234  1.00  0.00     0.072 C 
ATOM     13  C   UNL A   1      32.847  22.947  22.477  1.00  0.00     0.076 C 
ATOM     14  N   UNL A   1      32.591  24.887  26.323  1.00  0.00    -0.177 NA
ATOM     15  C   UNL A   1      31.538  24.254  24.120  1.00  0.00     0.059 C 
ATOM     16  C   UNL A   1      32.133  24.246  22.718  1.00  0.00     0.014 C 
BRANCH  14  17
ATOM     17  N   UNL A   1      31.838  25.961  26.774  1.00  0.00    -0.246 N 
ATOM     18  C   UNL A   1      31.618  27.314  26.597  1.00  0.00     0.252 C 
ATOM     19  H   UNL A   1      31.238  25.639  27.485  1.00  0.00     0.193 HD
ATOM     20  O   UNL A   1      30.865  27.829  27.446  1.00  0.00    -0.272 OA
BRANCH  18  21
ATOM     21  C   UNL A   1      32.165  28.255  25.469  1.00  0.00     0.140 C 
BRANCH  21  22
ATOM     22  C   UNL A   1      30.980  28.653  24.518  1.00  0.00    -0.031 A 
ATOM     23  C   UNL A   1      30.604  29.974  24.229  1.00  0.00     0.005 A 
ATOM     24  C   UNL A   1      30.200  27.644  23.894  1.00  0.00     0.005 A 
ATOM     25  C   UNL A   1      29.419  30.257  23.521  1.00  0.00     0.000 A 
ATOM     26  C   UNL A   1      29.020  27.920  23.196  1.00  0.00     0.000 A 
ATOM     27  C   UNL A   1      28.610  29.232  23.036  1.00  0.00     0.000 A 
ENDBRANCH  21  22
BRANCH  21  28
ATOM     28  C   UNL A   1      33.146  29.290  26.155  1.00  0.00    -0.031 A 
ATOM     29  C   UNL A   1      32.776  30.556  26.648  1.00  0.00     0.005 A 
ATOM     30  C   UNL A   1      34.454  28.852  26.489  1.00  0.00     0.005 A 
ATOM     31  C   UNL A   1      33.559  31.208  27.620  1.00  0.00     0.000 A 
ATOM     32  C   UNL A   1      35.222  29.491  27.466  1.00  0.00     0.000 A 
ATOM     33  C   UNL A   1      34.752  30.647  28.067  1.00  0.00     0.000 A 
ENDBRANCH  21  28
ENDBRANCH  18  21
ENDBRANCH  14  17
ENDBRANCH   3   6
ENDBRANCH   1   2
BRANCH   1  34
ATOM     34  C   UNL A   1      38.965  20.690  25.899  1.00  0.00     0.042 C 
BRANCH  34  35
ATOM     35  C   UNL A   1      39.643  21.997  26.261  1.00  0.00     0.118 C 
BRANCH  35  36
ATOM     36  N   UNL A   1      41.045  22.041  25.846  1.00  0.00    -0.352 N 
ATOM     37  C   UNL A   1      41.911  23.121  25.837  1.00  0.00     0.251 C 
ATOM     38  H   UNL A   1      41.424  21.187  25.532  1.00  0.00     0.163 HD
ATOM     39  O   UNL A   1      42.926  23.106  25.171  1.00  0.00    -0.269 OA
BRANCH  37  40
ATOM     40  C   UNL A   1      41.555  24.308  26.637  1.00  0.00     0.039 A 
ATOM     41  C   UNL A   1      41.987  24.433  27.957  1.00  0.00     0.014 A 
ATOM     42  C   UNL A   1      40.847  25.334  26.020  1.00  0.00     0.014 A 
ATOM     43  C   UNL A   1      41.796  25.648  28.612  1.00  0.00     0.010 A 
ATOM     44  C   UNL A   1      40.815  26.577  26.604  1.00  0.00     0.010 A 
ATOM     45  C   UNL A   1      41.247  26.739  27.916  1.00  0.00    -0.014 A 
BRANCH  45  46
ATOM     46  C   UNL A   1      41.220  28.067  28.532  1.00  0.00     0.031 A 
ATOM     47  C   UNL A   1      42.352  28.972  28.170  1.00  0.00     0.074 A 
ATOM     48  C   UNL A   1      40.176  28.554  29.240  1.00  0.00     0.049 A 
ATOM     49  N   UNL A   1      43.247  29.473  28.959  1.00  0.00    -0.248 NA
ATOM     50  C   UNL A   1      42.567  29.295  26.750  1.00  0.00     0.031 C 
ATOM     51  C   UNL A   1      38.853  27.964  29.468  1.00  0.00     0.029 A 
ATOM     52  N   UNL A   1      40.064  29.770  29.843  1.00  0.00    -0.354 N 
ATOM     53  C   UNL A   1      44.052  30.294  28.173  1.00  0.00     0.074 A 
ATOM     54  C   UNL A   1      43.663  30.055  26.807  1.00  0.00     0.031 C 
ATOM     55  C   UNL A   1      38.010  28.905  29.945  1.00  0.00     0.029 A 
ATOM     56  C   UNL A   1      38.775  30.101  30.236  1.00  0.00     0.049 A 
ATOM     57  H   UNL A   1      40.834  30.365  29.989  1.00  0.00     0.167 HD
ATOM     58  C   UNL A   1      44.851  31.248  28.730  1.00  0.00     0.037 A 
ATOM     59  C   UNL A   1      38.361  31.280  30.759  1.00  0.00     0.037 A 
ATOM     60  C   UNL A   1      45.073  30.995  30.130  1.00  0.00     0.049 A 
ATOM     61  C   UNL A   1      39.559  31.965  31.301  1.00  0.00     0.074 A 
ATOM     62  C   UNL A   1      45.624  29.949  30.849  1.00  0.00     0.029 A 
ATOM     63  N   UNL A   1      44.374  31.735  31.052  1.00  0.00    -0.354 N 
ATOM     64  N   UNL A   1      40.220  31.554  32.346  1.00  0.00    -0.248 NA
ATOM     65  C   UNL A   1      40.280  32.864  30.416  1.00  0.00     0.031 C 
ATOM     66  C   UNL A   1      44.797  29.826  32.005  1.00  0.00     0.029 A 
ATOM     67  C   UNL A   1      43.844  30.842  31.949  1.00  0.00     0.049 A 
ATOM     68  H   UNL A   1      44.273  32.714  31.066  1.00  0.00     0.167 HD
ATOM     69  C   UNL A   1      41.549  31.775  32.027  1.00  0.00     0.074 A 
ATOM     70  C   UNL A   1      41.520  32.669  30.871  1.00  0.00     0.031 C 
ATOM     71  C   UNL A   1      42.540  30.995  32.548  1.00  0.00     0.037 A 
BRANCH  58  72
ATOM     72  C   UNL A   1      45.164  32.583  28.096  1.00  0.00     0.064 A 
ATOM     73  C   UNL A   1      44.130  33.526  27.920  1.00  0.00     0.173 A 
ATOM     74  C   UNL A   1      46.354  32.847  27.388  1.00  0.00     0.173 A 
ATOM     75  F   UNL A   1      42.946  33.367  28.531  1.00  0.00    -0.203 F 
ATOM     76  C   UNL A   1      44.254  34.603  27.036  1.00  0.00     0.198 A 
ATOM     77  C   UNL A   1      46.493  33.951  26.547  1.00  0.00     0.198 A 
ATOM     78  F   UNL A   1      47.385  31.993  27.387  1.00  0.00    -0.203 F 
ATOM     79  F   UNL A   1      43.201  35.398  26.803  1.00  0.00    -0.200 F 
ATOM     80  C   UNL A   1      45.434  34.810  26.345  1.00  0.00     0.200 A 
ATOM     81  F   UNL A   1      47.638  34.124  25.872  1.00  0.00    -0.200 F 
ATOM     82  F   UNL A   1      45.534  35.801  25.449  1.00  0.00    -0.200 F 
ENDBRANCH  58  72
BRANCH  59  83
ATOM     83  C   UNL A   1      37.060  31.964  30.599  1.00  0.00     0.064 A 
ATOM     84  C   UNL A   1      36.092  31.913  31.614  1.00  0.00     0.173 A 
ATOM     85  C   UNL A   1      36.860  32.918  29.584  1.00  0.00     0.173 A 
ATOM     86  F   UNL A   1      36.228  31.056  32.634  1.00  0.00    -0.203 F 
ATOM     87  C   UNL A   1      35.009  32.797  31.635  1.00  0.00     0.198 A 
ATOM     88  C   UNL A   1      35.776  33.795  29.603  1.00  0.00     0.198 A 
ATOM     89  F   UNL A   1      37.768  33.086  28.610  1.00  0.00    -0.203 F 
ATOM     90  F   UNL A   1      34.144  32.769  32.659  1.00  0.00    -0.200 F 
ATOM     91  C   UNL A   1      34.860  33.746  30.638  1.00  0.00     0.200 A 
ATOM     92  F   UNL A   1      35.661  34.733  28.652  1.00  0.00    -0.200 F 
ATOM     93  F   UNL A   1      33.862  34.640  30.696  1.00  0.00    -0.200 F 
ENDBRANCH  59  83
BRANCH  71  94
ATOM     94  C   UNL A   1      42.182  30.052  33.664  1.00  0.00     0.064 A 
ATOM     95  C   UNL A   1      41.712  28.740  33.470  1.00  0.00     0.173 A 
ATOM     96  C   UNL A   1      42.450  30.447  34.981  1.00  0.00     0.173 A 
ATOM     97  F   UNL A   1      41.533  28.244  32.240  1.00  0.00    -0.203 F 
ATOM     98  C   UNL A   1      41.470  27.889  34.547  1.00  0.00     0.198 A 
ATOM     99  C   UNL A   1      42.245  29.582  36.053  1.00  0.00     0.198 A 
ATOM    100  F   UNL A   1      42.954  31.666  35.228  1.00  0.00    -0.203 F 
ATOM    101  F   UNL A   1      41.004  26.650  34.334  1.00  0.00    -0.200 F 
ATOM    102  C   UNL A   1      41.742  28.309  35.838  1.00  0.00     0.200 A 
ATOM    103  F   UNL A   1      42.557  29.976  37.295  1.00  0.00    -0.200 F 
ATOM    104  F   UNL A   1      41.546  27.480  36.872  1.00  0.00    -0.200 F 
ENDBRANCH  71  94
ENDBRANCH  45  46
ENDBRANCH  37  40
ENDBRANCH  35  36
ENDBRANCH  34  35
ENDBRANCH   1  34
TORSDOF 14
ENDMDL
