MODEL 1
REMARK VINA RESULT:     -13.6      0.000      0.000
REMARK SMILES Cc1ccc(C(=O)NCCCNC(=O)c2ccc(-c3c4nc(c(-c5c(F)c(F)c(F)c(F)c5F)c5ccc([nH]5)c(-c5c(F)c(F)c(F)c(F)c5F)c5nc(c(-c6c(F)c(F)c(F)c(F)c6F)c6ccc3[nH]6)C=C5)C=C4)cc2)cc1N1CC(C)C1
REMARK SMILES IDX 10 1 9 2 8 3 6 4 7 5 5 7 1 8 2 9 3 10 79 11 4 12 78 13 80 14
REMARK SMILES IDX 81 15 84 16 82 17 83 18 11 19 12 20 13 21 14 23 15 24 16 25
REMARK SMILES IDX 77 26 17 27 76 28 18 29 19 30 20 31 70 32 21 33 75 34 69 35
REMARK SMILES IDX 71 36 22 37 74 38 68 39 67 40 23 42 55 43 35 44 54 45 36 46
REMARK SMILES IDX 39 47 53 48 72 49 37 50 38 51 52 53 73 54 40 55 24 56 25 57
REMARK SMILES IDX 33 58 26 59 27 60 31 61 34 62 28 63 29 64 32 65 30 66 56 67
REMARK SMILES IDX 57 68 65 69 58 70 59 71 63 72 66 73 60 74 61 75 64 76 62 77
REMARK SMILES IDX 41 78 42 79 50 80 43 81 44 82 48 83 51 84 45 85 46 86 49 87
REMARK SMILES IDX 47 88
REMARK H PARENT 8 6 12 22 71 41 39 52
REMARK Flexibility Score: inf
ROOT
ATOM      1  C   UNL A   1      33.922  31.477  27.597  1.00  0.00     0.042 C 
ENDROOT
BRANCH   1   2
ATOM      2  C   UNL A   1      33.898  30.034  27.091  1.00  0.00     0.118 C 
BRANCH   2   3
ATOM      3  N   UNL A   1      32.847  29.234  27.704  1.00  0.00    -0.352 N 
ATOM      4  C   UNL A   1      31.982  28.262  27.266  1.00  0.00     0.251 C 
ATOM      5  O   UNL A   1      31.221  27.796  28.120  1.00  0.00    -0.269 OA
ATOM      6  H   UNL A   1      32.728  29.439  28.660  1.00  0.00     0.163 HD
BRANCH   4   7
ATOM      7  C   UNL A   1      31.870  27.762  25.862  1.00  0.00     0.041 A 
ATOM      8  C   UNL A   1      31.731  26.027  21.885  1.00  0.00     0.046 C 
ATOM      9  C   UNL A   1      31.718  26.644  23.257  1.00  0.00    -0.028 A 
ATOM     10  C   UNL A   1      32.488  26.033  24.258  1.00  0.00     0.006 A 
ATOM     11  C   UNL A   1      31.021  27.827  23.560  1.00  0.00     0.040 A 
ATOM     12  C   UNL A   1      32.551  26.578  25.544  1.00  0.00     0.014 A 
ATOM     13  C   UNL A   1      31.139  28.379  24.849  1.00  0.00     0.040 A 
BRANCH  11  14
ATOM     14  N   UNL A   1      30.157  28.429  22.614  1.00  0.00    -0.371 N 
ATOM     15  C   UNL A   1      30.331  29.637  21.857  1.00  0.00     0.121 C 
ATOM     16  C   UNL A   1      28.768  28.696  22.891  1.00  0.00     0.121 C 
ATOM     17  C   UNL A   1      28.992  30.132  22.408  1.00  0.00     0.025 C 
ATOM     18  C   UNL A   1      27.995  30.672  21.405  1.00  0.00     0.011 C 
ENDBRANCH  11  14
ENDBRANCH   4   7
ENDBRANCH   2   3
ENDBRANCH   1   2
BRANCH   1  19
ATOM     19  C   UNL A   1      35.327  31.920  27.985  1.00  0.00     0.118 C 
BRANCH  19  20
ATOM     20  N   UNL A   1      35.539  32.087  29.423  1.00  0.00    -0.352 N 
ATOM     21  C   UNL A   1      36.198  31.236  30.296  1.00  0.00     0.251 C 
ATOM     22  H   UNL A   1      35.167  32.907  29.821  1.00  0.00     0.163 HD
ATOM     23  O   UNL A   1      36.285  31.494  31.492  1.00  0.00    -0.269 OA
BRANCH  21  24
ATOM     24  C   UNL A   1      36.893  30.061  29.729  1.00  0.00     0.039 A 
ATOM     25  C   UNL A   1      37.251  29.027  30.598  1.00  0.00     0.014 A 
ATOM     26  C   UNL A   1      37.437  30.144  28.449  1.00  0.00     0.014 A 
ATOM     27  C   UNL A   1      38.350  28.232  30.282  1.00  0.00     0.010 A 
ATOM     28  C   UNL A   1      38.583  29.421  28.178  1.00  0.00     0.010 A 
ATOM     29  C   UNL A   1      39.081  28.518  29.126  1.00  0.00    -0.014 A 
BRANCH  29  30
ATOM     30  C   UNL A   1      40.416  27.982  28.889  1.00  0.00     0.031 A 
ATOM     31  C   UNL A   1      40.590  26.558  28.539  1.00  0.00     0.074 A 
ATOM     32  C   UNL A   1      41.511  28.771  28.982  1.00  0.00     0.049 A 
ATOM     33  N   UNL A   1      41.602  25.845  28.906  1.00  0.00    -0.248 NA
ATOM     34  C   UNL A   1      39.604  25.815  27.766  1.00  0.00     0.031 C 
ATOM     35  C   UNL A   1      42.873  28.423  28.580  1.00  0.00     0.029 A 
ATOM     36  N   UNL A   1      41.645  30.011  29.629  1.00  0.00    -0.354 N 
ATOM     37  C   UNL A   1      41.541  24.654  28.221  1.00  0.00     0.074 A 
ATOM     38  C   UNL A   1      40.247  24.658  27.575  1.00  0.00     0.031 C 
ATOM     39  C   UNL A   1      43.734  29.230  29.218  1.00  0.00     0.029 A 
ATOM     40  C   UNL A   1      42.968  30.050  30.136  1.00  0.00     0.049 A 
ATOM     41  H   UNL A   1      40.958  30.712  29.714  1.00  0.00     0.167 HD
ATOM     42  C   UNL A   1      42.643  23.851  28.160  1.00  0.00     0.037 A 
ATOM     43  C   UNL A   1      43.238  30.215  31.463  1.00  0.00     0.037 A 
ATOM     44  C   UNL A   1      43.775  24.442  28.869  1.00  0.00     0.049 A 
ATOM     45  C   UNL A   1      44.017  29.081  32.078  1.00  0.00     0.074 A 
ATOM     46  C   UNL A   1      44.851  25.193  28.422  1.00  0.00     0.029 A 
ATOM     47  N   UNL A   1      43.753  24.569  30.253  1.00  0.00    -0.354 N 
ATOM     48  N   UNL A   1      44.170  27.921  31.506  1.00  0.00    -0.248 NA
ATOM     49  C   UNL A   1      44.611  29.132  33.412  1.00  0.00     0.031 C 
ATOM     50  C   UNL A   1      45.464  25.796  29.544  1.00  0.00     0.029 A 
ATOM     51  C   UNL A   1      44.766  25.411  30.675  1.00  0.00     0.049 A 
ATOM     52  H   UNL A   1      43.107  24.124  30.848  1.00  0.00     0.167 HD
ATOM     53  C   UNL A   1      44.780  27.062  32.381  1.00  0.00     0.074 A 
ATOM     54  C   UNL A   1      45.077  27.878  33.543  1.00  0.00     0.031 C 
ATOM     55  C   UNL A   1      44.948  25.741  32.080  1.00  0.00     0.037 A 
BRANCH  42  56
ATOM     56  C   UNL A   1      42.783  22.700  27.187  1.00  0.00     0.064 A 
ATOM     57  C   UNL A   1      42.071  21.495  27.373  1.00  0.00     0.173 A 
ATOM     58  C   UNL A   1      43.643  22.707  26.074  1.00  0.00     0.173 A 
ATOM     59  F   UNL A   1      41.115  21.379  28.304  1.00  0.00    -0.203 F 
ATOM     60  C   UNL A   1      42.314  20.352  26.606  1.00  0.00     0.198 A 
ATOM     61  C   UNL A   1      43.931  21.549  25.343  1.00  0.00     0.198 A 
ATOM     62  F   UNL A   1      44.193  23.846  25.631  1.00  0.00    -0.203 F 
ATOM     63  F   UNL A   1      41.616  19.232  26.843  1.00  0.00    -0.200 F 
ATOM     64  C   UNL A   1      43.278  20.366  25.621  1.00  0.00     0.200 A 
ATOM     65  F   UNL A   1      44.849  21.590  24.367  1.00  0.00    -0.200 F 
ATOM     66  F   UNL A   1      43.553  19.256  24.924  1.00  0.00    -0.200 F 
ENDBRANCH  42  56
BRANCH  43  67
ATOM     67  C   UNL A   1      42.190  30.999  32.164  1.00  0.00     0.064 A 
ATOM     68  C   UNL A   1      42.184  32.392  31.968  1.00  0.00     0.173 A 
ATOM     69  C   UNL A   1      41.006  30.390  32.594  1.00  0.00     0.173 A 
ATOM     70  F   UNL A   1      43.303  33.020  31.574  1.00  0.00    -0.203 F 
ATOM     71  C   UNL A   1      40.997  33.115  32.019  1.00  0.00     0.198 A 
ATOM     72  C   UNL A   1      39.824  31.125  32.667  1.00  0.00     0.198 A 
ATOM     73  F   UNL A   1      40.961  29.068  32.807  1.00  0.00    -0.203 F 
ATOM     74  F   UNL A   1      40.987  34.408  31.667  1.00  0.00    -0.200 F 
ATOM     75  C   UNL A   1      39.810  32.470  32.326  1.00  0.00     0.200 A 
ATOM     76  F   UNL A   1      38.673  30.504  32.964  1.00  0.00    -0.200 F 
ATOM     77  F   UNL A   1      38.650  33.134  32.241  1.00  0.00    -0.200 F 
ENDBRANCH  43  67
BRANCH  55  78
ATOM     78  C   UNL A   1      45.396  24.675  33.046  1.00  0.00     0.064 A 
ATOM     79  C   UNL A   1      44.594  23.591  33.443  1.00  0.00     0.173 A 
ATOM     80  C   UNL A   1      46.730  24.651  33.518  1.00  0.00     0.173 A 
ATOM     81  F   UNL A   1      43.358  23.424  32.954  1.00  0.00    -0.203 F 
ATOM     82  C   UNL A   1      45.061  22.607  34.319  1.00  0.00     0.198 A 
ATOM     83  C   UNL A   1      47.209  23.637  34.346  1.00  0.00     0.198 A 
ATOM     84  F   UNL A   1      47.611  25.602  33.172  1.00  0.00    -0.203 F 
ATOM     85  F   UNL A   1      44.238  21.625  34.711  1.00  0.00    -0.200 F 
ATOM     86  C   UNL A   1      46.369  22.628  34.765  1.00  0.00     0.200 A 
ATOM     87  F   UNL A   1      48.497  23.637  34.722  1.00  0.00    -0.200 F 
ATOM     88  F   UNL A   1      46.822  21.665  35.578  1.00  0.00    -0.200 F 
ENDBRANCH  55  78
ENDBRANCH  29  30
ENDBRANCH  21  24
ENDBRANCH  19  20
ENDBRANCH   1  19
TORSDOF 11
ENDMDL
MODEL 2
REMARK VINA RESULT:     -13.5      1.788      3.354
REMARK SMILES Cc1ccc(C(=O)NCCCNC(=O)c2ccc(-c3c4nc(c(-c5c(F)c(F)c(F)c(F)c5F)c5ccc([nH]5)c(-c5c(F)c(F)c(F)c(F)c5F)c5nc(c(-c6c(F)c(F)c(F)c(F)c6F)c6ccc3[nH]6)C=C5)C=C4)cc2)cc1N1CC(C)C1
REMARK SMILES IDX 10 1 9 2 8 3 6 4 7 5 5 7 1 8 2 9 3 10 79 11 4 12 78 13 80 14
REMARK SMILES IDX 81 15 84 16 82 17 83 18 11 19 12 20 13 21 14 23 15 24 16 25
REMARK SMILES IDX 77 26 17 27 76 28 18 29 19 30 20 31 70 32 21 33 75 34 69 35
REMARK SMILES IDX 71 36 22 37 74 38 68 39 67 40 23 42 55 43 35 44 54 45 36 46
REMARK SMILES IDX 39 47 53 48 72 49 37 50 38 51 52 53 73 54 40 55 24 56 25 57
REMARK SMILES IDX 33 58 26 59 27 60 31 61 34 62 28 63 29 64 32 65 30 66 56 67
REMARK SMILES IDX 57 68 65 69 58 70 59 71 63 72 66 73 60 74 61 75 64 76 62 77
REMARK SMILES IDX 41 78 42 79 50 80 43 81 44 82 48 83 51 84 45 85 46 86 49 87
REMARK SMILES IDX 47 88
REMARK H PARENT 8 6 12 22 71 41 39 52
REMARK Flexibility Score: inf
ROOT
ATOM      1  C   UNL A   1      32.282  31.074  26.876  1.00  0.00     0.042 C 
ENDROOT
BRANCH   1   2
ATOM      2  C   UNL A   1      31.781  30.128  25.784  1.00  0.00     0.118 C 
BRANCH   2   3
ATOM      3  N   UNL A   1      32.822  29.754  24.836  1.00  0.00    -0.352 N 
ATOM      4  C   UNL A   1      33.430  28.578  24.471  1.00  0.00     0.251 C 
ATOM      5  O   UNL A   1      34.288  28.669  23.587  1.00  0.00    -0.269 OA
ATOM      6  H   UNL A   1      33.173  30.528  24.338  1.00  0.00     0.163 HD
BRANCH   4   7
ATOM      7  C   UNL A   1      33.165  27.236  25.072  1.00  0.00     0.041 A 
ATOM      8  C   UNL A   1      32.065  23.446  26.883  1.00  0.00     0.046 C 
ATOM      9  C   UNL A   1      32.477  24.728  26.210  1.00  0.00    -0.028 A 
ATOM     10  C   UNL A   1      31.571  25.799  26.228  1.00  0.00     0.006 A 
ATOM     11  C   UNL A   1      33.740  24.914  25.621  1.00  0.00     0.040 A 
ATOM     12  C   UNL A   1      31.907  27.029  25.655  1.00  0.00     0.014 A 
ATOM     13  C   UNL A   1      34.070  26.176  25.094  1.00  0.00     0.040 A 
BRANCH  11  14
ATOM     14  N   UNL A   1      34.652  23.839  25.494  1.00  0.00    -0.371 N 
ATOM     15  C   UNL A   1      35.372  23.127  26.512  1.00  0.00     0.121 C 
ATOM     16  C   UNL A   1      35.781  23.881  24.598  1.00  0.00     0.121 C 
ATOM     17  C   UNL A   1      36.671  23.448  25.767  1.00  0.00     0.025 C 
ATOM     18  C   UNL A   1      37.616  22.295  25.508  1.00  0.00     0.011 C 
ENDBRANCH  11  14
ENDBRANCH   4   7
ENDBRANCH   2   3
ENDBRANCH   1   2
BRANCH   1  19
ATOM     19  C   UNL A   1      33.584  30.584  27.498  1.00  0.00     0.118 C 
BRANCH  19  20
ATOM     20  N   UNL A   1      34.213  31.530  28.421  1.00  0.00    -0.352 N 
ATOM     21  C   UNL A   1      35.379  31.367  29.150  1.00  0.00     0.251 C 
ATOM     22  H   UNL A   1      33.749  32.391  28.538  1.00  0.00     0.163 HD
ATOM     23  O   UNL A   1      35.784  32.244  29.907  1.00  0.00    -0.269 OA
BRANCH  21  24
ATOM     24  C   UNL A   1      36.186  30.153  28.908  1.00  0.00     0.039 A 
ATOM     25  C   UNL A   1      36.668  29.453  30.017  1.00  0.00     0.014 A 
ATOM     26  C   UNL A   1      36.697  29.917  27.633  1.00  0.00     0.014 A 
ATOM     27  C   UNL A   1      37.841  28.712  29.888  1.00  0.00     0.010 A 
ATOM     28  C   UNL A   1      37.909  29.263  27.524  1.00  0.00     0.010 A 
ATOM     29  C   UNL A   1      38.517  28.724  28.665  1.00  0.00    -0.014 A 
BRANCH  29  30
ATOM     30  C   UNL A   1      39.897  28.276  28.527  1.00  0.00     0.031 A 
ATOM     31  C   UNL A   1      40.190  26.856  28.247  1.00  0.00     0.074 A 
ATOM     32  C   UNL A   1      40.928  29.144  28.649  1.00  0.00     0.049 A 
ATOM     33  N   UNL A   1      41.225  26.231  28.701  1.00  0.00    -0.248 NA
ATOM     34  C   UNL A   1      39.306  26.015  27.451  1.00  0.00     0.031 C 
ATOM     35  C   UNL A   1      42.332  28.879  28.341  1.00  0.00     0.029 A 
ATOM     36  N   UNL A   1      40.937  30.414  29.250  1.00  0.00    -0.354 N 
ATOM     37  C   UNL A   1      41.288  25.014  28.064  1.00  0.00     0.074 A 
ATOM     38  C   UNL A   1      40.037  24.901  27.346  1.00  0.00     0.031 C 
ATOM     39  C   UNL A   1      43.096  29.769  28.992  1.00  0.00     0.029 A 
ATOM     40  C   UNL A   1      42.221  30.566  29.830  1.00  0.00     0.049 A 
ATOM     41  H   UNL A   1      40.200  31.066  29.267  1.00  0.00     0.167 HD
ATOM     42  C   UNL A   1      42.444  24.290  28.100  1.00  0.00     0.037 A 
ATOM     43  C   UNL A   1      42.399  30.800  31.162  1.00  0.00     0.037 A 
ATOM     44  C   UNL A   1      43.488  24.987  28.846  1.00  0.00     0.049 A 
ATOM     45  C   UNL A   1      43.217  29.748  31.868  1.00  0.00     0.074 A 
ATOM     46  C   UNL A   1      44.535  25.795  28.430  1.00  0.00     0.029 A 
ATOM     47  N   UNL A   1      43.374  25.164  30.221  1.00  0.00    -0.354 N 
ATOM     48  N   UNL A   1      43.484  28.581  31.354  1.00  0.00    -0.248 NA
ATOM     49  C   UNL A   1      43.725  29.892  33.230  1.00  0.00     0.031 C 
ATOM     50  C   UNL A   1      45.036  26.482  29.559  1.00  0.00     0.029 A 
ATOM     51  C   UNL A   1      44.300  26.091  30.664  1.00  0.00     0.049 A 
ATOM     52  H   UNL A   1      42.727  24.696  30.796  1.00  0.00     0.167 HD
ATOM     53  C   UNL A   1      44.098  27.802  32.298  1.00  0.00     0.074 A 
ATOM     54  C   UNL A   1      44.268  28.680  33.439  1.00  0.00     0.031 C 
ATOM     55  C   UNL A   1      44.375  26.486  32.062  1.00  0.00     0.037 A 
BRANCH  42  56
ATOM     56  C   UNL A   1      42.721  23.116  27.184  1.00  0.00     0.064 A 
ATOM     57  C   UNL A   1      42.153  21.847  27.431  1.00  0.00     0.173 A 
ATOM     58  C   UNL A   1      43.580  23.167  26.072  1.00  0.00     0.173 A 
ATOM     59  F   UNL A   1      41.213  21.668  28.368  1.00  0.00    -0.203 F 
ATOM     60  C   UNL A   1      42.530  20.703  26.723  1.00  0.00     0.198 A 
ATOM     61  C   UNL A   1      44.004  22.016  25.399  1.00  0.00     0.198 A 
ATOM     62  F   UNL A   1      43.996  24.339  25.573  1.00  0.00    -0.203 F 
ATOM     63  F   UNL A   1      41.966  19.523  27.016  1.00  0.00    -0.200 F 
ATOM     64  C   UNL A   1      43.491  20.780  25.737  1.00  0.00     0.200 A 
ATOM     65  F   UNL A   1      44.915  22.115  24.421  1.00  0.00    -0.200 F 
ATOM     66  F   UNL A   1      43.896  19.677  25.095  1.00  0.00    -0.200 F 
ENDBRANCH  42  56
BRANCH  43  67
ATOM     67  C   UNL A   1      41.260  31.533  31.769  1.00  0.00     0.064 A 
ATOM     68  C   UNL A   1      40.308  30.780  32.480  1.00  0.00     0.173 A 
ATOM     69  C   UNL A   1      41.355  32.902  32.045  1.00  0.00     0.173 A 
ATOM     70  F   UNL A   1      40.171  29.468  32.233  1.00  0.00    -0.203 F 
ATOM     71  C   UNL A   1      39.615  31.333  33.551  1.00  0.00     0.198 A 
ATOM     72  C   UNL A   1      40.639  33.456  33.104  1.00  0.00     0.198 A 
ATOM     73  F   UNL A   1      42.237  33.668  31.388  1.00  0.00    -0.203 F 
ATOM     74  F   UNL A   1      38.838  30.555  34.317  1.00  0.00    -0.200 F 
ATOM     75  C   UNL A   1      39.814  32.662  33.888  1.00  0.00     0.200 A 
ATOM     76  F   UNL A   1      40.830  34.742  33.434  1.00  0.00    -0.200 F 
ATOM     77  F   UNL A   1      39.254  33.158  34.999  1.00  0.00    -0.200 F 
ENDBRANCH  43  67
BRANCH  55  78
ATOM     78  C   UNL A   1      44.837  25.491  33.095  1.00  0.00     0.064 A 
ATOM     79  C   UNL A   1      46.145  24.980  33.160  1.00  0.00     0.173 A 
ATOM     80  C   UNL A   1      43.979  25.106  34.153  1.00  0.00     0.173 A 
ATOM     81  F   UNL A   1      47.090  25.377  32.298  1.00  0.00    -0.203 F 
ATOM     82  C   UNL A   1      46.539  24.080  34.154  1.00  0.00     0.198 A 
ATOM     83  C   UNL A   1      44.393  24.254  35.175  1.00  0.00     0.198 A 
ATOM     84  F   UNL A   1      42.721  25.564  34.234  1.00  0.00    -0.203 F 
ATOM     85  F   UNL A   1      47.781  23.579  34.140  1.00  0.00    -0.200 F 
ATOM     86  C   UNL A   1      45.665  23.722  35.163  1.00  0.00     0.200 A 
ATOM     87  F   UNL A   1      43.554  23.963  36.180  1.00  0.00    -0.200 F 
ATOM     88  F   UNL A   1      46.057  22.886  36.134  1.00  0.00    -0.200 F 
ENDBRANCH  55  78
ENDBRANCH  29  30
ENDBRANCH  21  24
ENDBRANCH  19  20
ENDBRANCH   1  19
TORSDOF 11
ENDMDL
MODEL 3
REMARK VINA RESULT:     -13.5      1.526      2.716
REMARK SMILES Cc1ccc(C(=O)NCCCNC(=O)c2ccc(-c3c4nc(c(-c5c(F)c(F)c(F)c(F)c5F)c5ccc([nH]5)c(-c5c(F)c(F)c(F)c(F)c5F)c5nc(c(-c6c(F)c(F)c(F)c(F)c6F)c6ccc3[nH]6)C=C5)C=C4)cc2)cc1N1CC(C)C1
REMARK SMILES IDX 10 1 9 2 8 3 6 4 7 5 5 7 1 8 2 9 3 10 79 11 4 12 78 13 80 14
REMARK SMILES IDX 81 15 84 16 82 17 83 18 11 19 12 20 13 21 14 23 15 24 16 25
REMARK SMILES IDX 77 26 17 27 76 28 18 29 19 30 20 31 70 32 21 33 75 34 69 35
REMARK SMILES IDX 71 36 22 37 74 38 68 39 67 40 23 42 55 43 35 44 54 45 36 46
REMARK SMILES IDX 39 47 53 48 72 49 37 50 38 51 52 53 73 54 40 55 24 56 25 57
REMARK SMILES IDX 33 58 26 59 27 60 31 61 34 62 28 63 29 64 32 65 30 66 56 67
REMARK SMILES IDX 57 68 65 69 58 70 59 71 63 72 66 73 60 74 61 75 64 76 62 77
REMARK SMILES IDX 41 78 42 79 50 80 43 81 44 82 48 83 51 84 45 85 46 86 49 87
REMARK SMILES IDX 47 88
REMARK H PARENT 8 6 12 22 71 41 39 52
REMARK Flexibility Score: inf
ROOT
ATOM      1  C   UNL A   1      33.198  31.292  27.266  1.00  0.00     0.042 C 
ENDROOT
BRANCH   1   2
ATOM      2  C   UNL A   1      32.304  30.310  26.509  1.00  0.00     0.118 C 
BRANCH   2   3
ATOM      3  N   UNL A   1      32.846  29.933  25.211  1.00  0.00    -0.352 N 
ATOM      4  C   UNL A   1      33.072  28.746  24.557  1.00  0.00     0.251 C 
ATOM      5  O   UNL A   1      33.548  28.840  23.422  1.00  0.00    -0.269 OA
ATOM      6  H   UNL A   1      33.114  30.714  24.674  1.00  0.00     0.163 HD
BRANCH   4   7
ATOM      7  C   UNL A   1      32.826  27.382  25.116  1.00  0.00     0.041 A 
ATOM      8  C   UNL A   1      31.772  23.514  26.782  1.00  0.00     0.046 C 
ATOM      9  C   UNL A   1      32.172  24.825  26.161  1.00  0.00    -0.028 A 
ATOM     10  C   UNL A   1      31.222  25.857  26.139  1.00  0.00     0.006 A 
ATOM     11  C   UNL A   1      33.461  25.074  25.659  1.00  0.00     0.040 A 
ATOM     12  C   UNL A   1      31.542  27.112  25.612  1.00  0.00     0.014 A 
ATOM     13  C   UNL A   1      33.771  26.360  25.178  1.00  0.00     0.040 A 
BRANCH  11  14
ATOM     14  N   UNL A   1      34.424  24.041  25.572  1.00  0.00    -0.371 N 
ATOM     15  C   UNL A   1      35.213  23.438  26.610  1.00  0.00     0.121 C 
ATOM     16  C   UNL A   1      35.520  24.077  24.637  1.00  0.00     0.121 C 
ATOM     17  C   UNL A   1      36.468  23.772  25.800  1.00  0.00     0.025 C 
ATOM     18  C   UNL A   1      37.464  22.652  25.586  1.00  0.00     0.011 C 
ENDBRANCH  11  14
ENDBRANCH   4   7
ENDBRANCH   2   3
ENDBRANCH   1   2
BRANCH   1  19
ATOM     19  C   UNL A   1      34.396  30.595  27.901  1.00  0.00     0.118 C 
BRANCH  19  20
ATOM     20  N   UNL A   1      35.082  31.378  28.930  1.00  0.00    -0.352 N 
ATOM     21  C   UNL A   1      36.232  31.050  29.630  1.00  0.00     0.251 C 
ATOM     22  H   UNL A   1      34.677  32.247  29.152  1.00  0.00     0.163 HD
ATOM     23  O   UNL A   1      36.691  31.799  30.487  1.00  0.00    -0.269 OA
BRANCH  21  24
ATOM     24  C   UNL A   1      36.957  29.823  29.240  1.00  0.00     0.039 A 
ATOM     25  C   UNL A   1      37.365  28.950  30.252  1.00  0.00     0.014 A 
ATOM     26  C   UNL A   1      37.477  29.720  27.951  1.00  0.00     0.014 A 
ATOM     27  C   UNL A   1      38.485  28.151  30.041  1.00  0.00     0.010 A 
ATOM     28  C   UNL A   1      38.642  29.000  27.771  1.00  0.00     0.010 A 
ATOM     29  C   UNL A   1      39.187  28.274  28.838  1.00  0.00    -0.014 A 
BRANCH  29  30
ATOM     30  C   UNL A   1      40.535  27.748  28.659  1.00  0.00     0.031 A 
ATOM     31  C   UNL A   1      40.736  26.327  28.314  1.00  0.00     0.074 A 
ATOM     32  C   UNL A   1      41.618  28.546  28.802  1.00  0.00     0.049 A 
ATOM     33  N   UNL A   1      41.736  25.621  28.724  1.00  0.00    -0.248 NA
ATOM     34  C   UNL A   1      39.791  25.578  27.497  1.00  0.00     0.031 C 
ATOM     35  C   UNL A   1      43.000  28.210  28.460  1.00  0.00     0.029 A 
ATOM     36  N   UNL A   1      41.713  29.786  29.457  1.00  0.00    -0.354 N 
ATOM     37  C   UNL A   1      41.716  24.431  28.035  1.00  0.00     0.074 A 
ATOM     38  C   UNL A   1      40.451  24.426  27.332  1.00  0.00     0.031 C 
ATOM     39  C   UNL A   1      43.825  29.023  29.136  1.00  0.00     0.029 A 
ATOM     40  C   UNL A   1      43.012  29.834  30.022  1.00  0.00     0.049 A 
ATOM     41  H   UNL A   1      41.018  30.480  29.513  1.00  0.00     0.167 HD
ATOM     42  C   UNL A   1      42.826  23.638  28.020  1.00  0.00     0.037 A 
ATOM     43  C   UNL A   1      43.222  29.998  31.360  1.00  0.00     0.037 A 
ATOM     44  C   UNL A   1      43.921  24.236  28.780  1.00  0.00     0.049 A 
ATOM     45  C   UNL A   1      43.983  28.869  32.006  1.00  0.00     0.074 A 
ATOM     46  C   UNL A   1      45.009  24.997  28.382  1.00  0.00     0.029 A 
ATOM     47  N   UNL A   1      43.836  24.360  30.162  1.00  0.00    -0.354 N 
ATOM     48  N   UNL A   1      44.171  27.711  31.439  1.00  0.00    -0.248 NA
ATOM     49  C   UNL A   1      44.517  28.922  33.365  1.00  0.00     0.031 C 
ATOM     50  C   UNL A   1      45.567  25.602  29.531  1.00  0.00     0.029 A 
ATOM     51  C   UNL A   1      44.823  25.209  30.630  1.00  0.00     0.049 A 
ATOM     52  H   UNL A   1      43.169  23.908  30.727  1.00  0.00     0.167 HD
ATOM     53  C   UNL A   1      44.749  26.856  32.338  1.00  0.00     0.074 A 
ATOM     54  C   UNL A   1      44.988  27.671  33.514  1.00  0.00     0.031 C 
ATOM     55  C   UNL A   1      44.941  25.537  32.042  1.00  0.00     0.037 A 
BRANCH  42  56
ATOM     56  C   UNL A   1      43.018  22.490  27.051  1.00  0.00     0.064 A 
ATOM     57  C   UNL A   1      42.304  21.282  27.200  1.00  0.00     0.173 A 
ATOM     58  C   UNL A   1      43.931  22.505  25.982  1.00  0.00     0.173 A 
ATOM     59  F   UNL A   1      41.304  21.159  28.083  1.00  0.00    -0.203 F 
ATOM     60  C   UNL A   1      42.588  20.142  26.443  1.00  0.00     0.198 A 
ATOM     61  C   UNL A   1      44.260  21.350  25.262  1.00  0.00     0.198 A 
ATOM     62  F   UNL A   1      44.496  23.647  25.570  1.00  0.00    -0.203 F 
ATOM     63  F   UNL A   1      41.885  19.019  26.642  1.00  0.00    -0.200 F 
ATOM     64  C   UNL A   1      43.599  20.163  25.505  1.00  0.00     0.200 A 
ATOM     65  F   UNL A   1      45.223  21.398  24.332  1.00  0.00    -0.200 F 
ATOM     66  F   UNL A   1      43.913  19.057  24.819  1.00  0.00    -0.200 F 
ENDBRANCH  42  56
BRANCH  43  67
ATOM     67  C   UNL A   1      42.139  30.772  32.016  1.00  0.00     0.064 A 
ATOM     68  C   UNL A   1      42.173  32.172  31.887  1.00  0.00     0.173 A 
ATOM     69  C   UNL A   1      40.914  30.170  32.324  1.00  0.00     0.173 A 
ATOM     70  F   UNL A   1      43.331  32.793  31.610  1.00  0.00    -0.203 F 
ATOM     71  C   UNL A   1      40.999  32.918  31.881  1.00  0.00     0.198 A 
ATOM     72  C   UNL A   1      39.744  30.926  32.342  1.00  0.00     0.198 A 
ATOM     73  F   UNL A   1      40.828  28.840  32.470  1.00  0.00    -0.203 F 
ATOM     74  F   UNL A   1      41.041  34.227  31.592  1.00  0.00    -0.200 F 
ATOM     75  C   UNL A   1      39.781  32.286  32.066  1.00  0.00     0.200 A 
ATOM     76  F   UNL A   1      38.562  30.318  32.521  1.00  0.00    -0.200 F 
ATOM     77  F   UNL A   1      38.643  32.979  31.925  1.00  0.00    -0.200 F 
ENDBRANCH  43  67
BRANCH  55  78
ATOM     78  C   UNL A   1      45.354  24.472  33.024  1.00  0.00     0.064 A 
ATOM     79  C   UNL A   1      44.538  23.388  33.394  1.00  0.00     0.173 A 
ATOM     80  C   UNL A   1      46.671  24.448  33.543  1.00  0.00     0.173 A 
ATOM     81  F   UNL A   1      43.321  23.221  32.862  1.00  0.00    -0.203 F 
ATOM     82  C   UNL A   1      44.974  22.406  34.288  1.00  0.00     0.198 A 
ATOM     83  C   UNL A   1      47.121  23.436  34.388  1.00  0.00     0.198 A 
ATOM     84  F   UNL A   1      47.563  25.398  33.227  1.00  0.00    -0.203 F 
ATOM     85  F   UNL A   1      44.138  21.424  34.652  1.00  0.00    -0.200 F 
ATOM     86  C   UNL A   1      46.266  22.427  34.780  1.00  0.00     0.200 A 
ATOM     87  F   UNL A   1      48.394  23.436  34.809  1.00  0.00    -0.200 F 
ATOM     88  F   UNL A   1      46.690  21.465  35.609  1.00  0.00    -0.200 F 
ENDBRANCH  55  78
ENDBRANCH  29  30
ENDBRANCH  21  24
ENDBRANCH  19  20
ENDBRANCH   1  19
TORSDOF 11
ENDMDL
