MODEL 1
REMARK VINA RESULT:     -13.6      0.000      0.000
REMARK SMILES O=C(NCCCNC(=O)c1ccc(Cl)c(NC(=S)NC(=O)c2cc([N+](=O)[O-])ccc2Cl)c1)c1ccc(-c2c3nc(c(-c4c(F)c(F)c(F)c(F)c4F)c4ccc([nH]4)c(-c4c(F)c(F)c(F)c(F)c4F)c4nc(c(-c5c(F)c(F)c(F)c(F)c5F)c5ccc2[nH]5)C=C4)C=C3)cc1
REMARK SMILES IDX 7 1 8 2 9 3 6 5 5 6 4 7 3 8 1 9 2 10 33 12 34 13 95 14 35 15
REMARK SMILES IDX 94 16 36 17 37 18 38 19 88 20 39 21 93 22 87 23 89 24 40 25
REMARK SMILES IDX 92 26 86 27 85 28 41 30 73 31 53 32 72 33 54 34 57 35 71 36
REMARK SMILES IDX 90 37 55 38 56 39 70 41 91 42 58 43 42 44 43 45 51 46 44 47
REMARK SMILES IDX 45 48 49 49 52 50 46 51 47 52 50 53 48 54 74 55 75 56 83 57
REMARK SMILES IDX 76 58 77 59 81 60 84 61 78 62 79 63 82 64 80 65 59 66 60 67
REMARK SMILES IDX 68 68 61 69 62 70 66 71 69 72 63 73 64 74 67 75 65 76 10 77
REMARK SMILES IDX 11 78 32 79 12 80 15 81 13 82 14 83 16 84 17 86 18 87 19 88
REMARK SMILES IDX 20 89 21 91 22 92 23 93 30 94 24 95 29 96 31 97 28 98 25 99
REMARK SMILES IDX 26 100 27 101
REMARK H PARENT 7 4 3 11 89 29 57 40 16 85 19 90
REMARK Flexibility Score: inf
ROOT
ATOM      1  N   UNL A   1      32.816  30.609  26.950  1.00  0.00    -0.352 N 
ATOM      2  C   UNL A   1      33.201  29.305  26.864  1.00  0.00     0.251 C 
ATOM      3  O   UNL A   1      34.158  28.958  27.544  1.00  0.00    -0.269 OA
ATOM      4  H   UNL A   1      33.533  31.257  27.141  1.00  0.00     0.163 HD
ENDROOT
BRANCH   1   5
ATOM      5  C   UNL A   1      31.489  31.167  26.798  1.00  0.00     0.118 C 
BRANCH   5   6
ATOM      6  C   UNL A   1      31.573  32.683  26.692  1.00  0.00     0.042 C 
BRANCH   6   7
ATOM      7  C   UNL A   1      32.795  33.254  27.402  1.00  0.00     0.118 C 
BRANCH   7   8
ATOM      8  N   UNL A   1      32.574  34.618  27.880  1.00  0.00    -0.352 N 
ATOM      9  O   UNL A   1      32.592  36.310  29.374  1.00  0.00    -0.269 OA
ATOM     10  C   UNL A   1      33.088  35.261  28.978  1.00  0.00     0.251 C 
ATOM     11  H   UNL A   1      31.962  35.158  27.329  1.00  0.00     0.163 HD
BRANCH  10  12
ATOM     12  C   UNL A   1      34.227  34.657  29.688  1.00  0.00     0.039 A 
ATOM     13  C   UNL A   1      35.498  34.722  29.122  1.00  0.00     0.014 A 
ATOM     14  C   UNL A   1      34.025  34.002  30.904  1.00  0.00     0.014 A 
ATOM     15  C   UNL A   1      36.516  33.948  29.645  1.00  0.00     0.010 A 
ATOM     16  C   UNL A   1      35.098  33.348  31.514  1.00  0.00     0.010 A 
ATOM     17  C   UNL A   1      36.343  33.284  30.868  1.00  0.00    -0.014 A 
BRANCH  17  18
ATOM     18  C   UNL A   1      37.512  32.602  31.472  1.00  0.00     0.031 A 
ATOM     19  C   UNL A   1      37.995  32.946  32.850  1.00  0.00     0.074 A 
ATOM     20  C   UNL A   1      38.109  31.625  30.762  1.00  0.00     0.049 A 
ATOM     21  N   UNL A   1      38.985  32.424  33.529  1.00  0.00    -0.248 NA
ATOM     22  C   UNL A   1      37.287  34.023  33.558  1.00  0.00     0.031 C 
ATOM     23  C   UNL A   1      37.720  31.209  29.409  1.00  0.00     0.029 A 
ATOM     24  N   UNL A   1      39.143  30.785  31.078  1.00  0.00    -0.354 N 
ATOM     25  C   UNL A   1      39.035  33.120  34.729  1.00  0.00     0.074 A 
ATOM     26  C   UNL A   1      37.995  34.126  34.674  1.00  0.00     0.031 C 
ATOM     27  C   UNL A   1      38.453  30.151  29.044  1.00  0.00     0.029 A 
ATOM     28  C   UNL A   1      39.429  29.876  30.090  1.00  0.00     0.049 A 
ATOM     29  H   UNL A   1      39.634  30.829  31.931  1.00  0.00     0.167 HD
ATOM     30  C   UNL A   1      39.870  32.928  35.780  1.00  0.00     0.037 A 
ATOM     31  C   UNL A   1      40.389  28.938  30.019  1.00  0.00     0.037 A 
ATOM     32  C   UNL A   1      40.899  31.918  35.816  1.00  0.00     0.049 A 
ATOM     33  C   UNL A   1      41.335  28.793  31.174  1.00  0.00     0.074 A 
ATOM     34  C   UNL A   1      41.779  31.619  36.842  1.00  0.00     0.029 A 
ATOM     35  N   UNL A   1      41.199  31.052  34.773  1.00  0.00    -0.354 N 
ATOM     36  N   UNL A   1      41.349  29.430  32.320  1.00  0.00    -0.248 NA
ATOM     37  C   UNL A   1      42.401  27.796  31.025  1.00  0.00     0.031 C 
ATOM     38  C   UNL A   1      42.657  30.628  36.392  1.00  0.00     0.029 A 
ATOM     39  C   UNL A   1      42.275  30.246  35.117  1.00  0.00     0.049 A 
ATOM     40  H   UNL A   1      40.719  31.015  33.914  1.00  0.00     0.167 HD
ATOM     41  C   UNL A   1      42.405  28.891  33.040  1.00  0.00     0.074 A 
ATOM     42  C   UNL A   1      42.991  27.860  32.208  1.00  0.00     0.031 C 
ATOM     43  C   UNL A   1      42.847  29.220  34.279  1.00  0.00     0.037 A 
BRANCH  30  44
ATOM     44  C   UNL A   1      39.735  33.853  36.958  1.00  0.00     0.064 A 
ATOM     45  C   UNL A   1      40.350  35.115  36.993  1.00  0.00     0.173 A 
ATOM     46  C   UNL A   1      38.953  33.480  38.064  1.00  0.00     0.173 A 
ATOM     47  F   UNL A   1      41.117  35.522  35.970  1.00  0.00    -0.203 F 
ATOM     48  C   UNL A   1      40.219  35.948  38.102  1.00  0.00     0.198 A 
ATOM     49  C   UNL A   1      38.793  34.332  39.154  1.00  0.00     0.198 A 
ATOM     50  F   UNL A   1      38.335  32.291  38.085  1.00  0.00    -0.203 F 
ATOM     51  F   UNL A   1      40.870  37.120  38.137  1.00  0.00    -0.200 F 
ATOM     52  C   UNL A   1      39.437  35.559  39.178  1.00  0.00     0.200 A 
ATOM     53  F   UNL A   1      38.021  33.961  40.185  1.00  0.00    -0.200 F 
ATOM     54  F   UNL A   1      39.310  36.363  40.243  1.00  0.00    -0.200 F 
ENDBRANCH  30  44
BRANCH  31  55
ATOM     55  C   UNL A   1      40.502  28.081  28.811  1.00  0.00     0.064 A 
ATOM     56  C   UNL A   1      41.285  28.476  27.719  1.00  0.00     0.173 A 
ATOM     57  C   UNL A   1      39.831  26.851  28.722  1.00  0.00     0.173 A 
ATOM     58  F   UNL A   1      41.935  29.648  27.750  1.00  0.00    -0.203 F 
ATOM     59  C   UNL A   1      41.369  27.689  26.573  1.00  0.00     0.198 A 
ATOM     60  C   UNL A   1      39.949  26.046  27.591  1.00  0.00     0.198 A 
ATOM     61  F   UNL A   1      39.076  26.420  29.744  1.00  0.00    -0.203 F 
ATOM     62  F   UNL A   1      42.079  28.118  25.521  1.00  0.00    -0.200 F 
ATOM     63  C   UNL A   1      40.707  26.471  26.512  1.00  0.00     0.200 A 
ATOM     64  F   UNL A   1      39.326  24.860  27.549  1.00  0.00    -0.200 F 
ATOM     65  F   UNL A   1      40.794  25.713  25.412  1.00  0.00    -0.200 F 
ENDBRANCH  31  55
BRANCH  43  66
ATOM     66  C   UNL A   1      43.991  28.416  34.830  1.00  0.00     0.064 A 
ATOM     67  C   UNL A   1      43.789  27.222  35.540  1.00  0.00     0.173 A 
ATOM     68  C   UNL A   1      45.313  28.844  34.632  1.00  0.00     0.173 A 
ATOM     69  F   UNL A   1      42.546  26.776  35.771  1.00  0.00    -0.203 F 
ATOM     70  C   UNL A   1      44.865  26.512  36.067  1.00  0.00     0.198 A 
ATOM     71  C   UNL A   1      46.387  28.109  35.124  1.00  0.00     0.198 A 
ATOM     72  F   UNL A   1      45.565  29.975  33.955  1.00  0.00    -0.203 F 
ATOM     73  F   UNL A   1      44.643  25.414  36.803  1.00  0.00    -0.200 F 
ATOM     74  C   UNL A   1      46.162  26.952  35.852  1.00  0.00     0.200 A 
ATOM     75  F   UNL A   1      47.641  28.525  34.898  1.00  0.00    -0.200 F 
ATOM     76  F   UNL A   1      47.196  26.264  36.356  1.00  0.00    -0.200 F 
ENDBRANCH  43  66
ENDBRANCH  17  18
ENDBRANCH  10  12
ENDBRANCH   7   8
ENDBRANCH   6   7
ENDBRANCH   5   6
ENDBRANCH   1   5
BRANCH   2  77
ATOM     77  C   UNL A   1      32.564  28.421  25.776  1.00  0.00     0.041 A 
ATOM     78  C   UNL A   1      33.132  29.082  24.168  1.00  0.00     0.015 A 
ATOM     79  C   UNL A   1      31.580  26.679  25.665  1.00  0.00     0.041 A 
ATOM     80  C   UNL A   1      32.792  28.104  22.700  1.00  0.00     0.023 A 
ATOM     81  C   UNL A   1      31.411  25.771  24.248  1.00  0.00     0.060 A 
ATOM     82  C   UNL A   1      31.971  26.503  22.769  1.00  0.00     0.064 A 
ATOM     83  Cl  UNL A   1      31.820  25.610  21.301  1.00  0.00    -0.082 Cl
BRANCH  81  84
ATOM     84  N   UNL A   1      31.126  24.433  24.577  1.00  0.00    -0.331 N 
ATOM     85  H   UNL A   1      30.650  23.928  23.879  1.00  0.00     0.169 HD
BRANCH  84  86
ATOM     86  C   UNL A   1      31.408  23.715  25.728  1.00  0.00     0.177 C 
ATOM     87  S   UNL A   1      30.097  23.353  26.718  1.00  0.00    -0.040 S 
BRANCH  86  88
ATOM     88  N   UNL A   1      32.683  23.219  26.192  1.00  0.00    -0.299 N 
ATOM     89  C   UNL A   1      34.002  22.499  26.073  1.00  0.00     0.259 C 
ATOM     90  H   UNL A   1      32.701  23.533  27.125  1.00  0.00     0.172 HD
ATOM     91  O   UNL A   1      34.759  22.475  27.039  1.00  0.00    -0.269 OA
BRANCH  89  92
ATOM     92  C   UNL A   1      34.433  21.816  24.778  1.00  0.00     0.065 A 
ATOM     93  C   UNL A   1      33.738  20.214  24.913  1.00  0.00     0.101 A 
ATOM     94  C   UNL A   1      34.176  22.877  23.347  1.00  0.00     0.054 A 
ATOM     95  C   UNL A   1      32.500  19.712  23.724  1.00  0.00     0.270 A 
ATOM     96  C   UNL A   1      32.954  22.541  22.095  1.00  0.00     0.028 A 
ATOM     97  Cl  UNL A   1      34.721  24.521  23.432  1.00  0.00    -0.083 Cl
ATOM     98  C   UNL A   1      32.008  20.995  22.243  1.00  0.00     0.087 A 
BRANCH  95  99
ATOM     99  N   UNL A   1      32.383  18.180  24.015  1.00  0.00     0.062 N 
ATOM    100  O   UNL A   1      32.805  17.430  23.120  1.00  0.00    -0.258 OA
ATOM    101  O   UNL A   1      32.000  17.808  25.129  1.00  0.00    -0.258 OA
ENDBRANCH  95  99
ENDBRANCH  89  92
ENDBRANCH  86  88
ENDBRANCH  84  86
ENDBRANCH  81  84
ENDBRANCH   2  77
TORSDOF 15
ENDMDL
MODEL 2
REMARK VINA RESULT:     -13.6      0.966      2.000
REMARK SMILES O=C(NCCCNC(=O)c1ccc(Cl)c(NC(=S)NC(=O)c2cc([N+](=O)[O-])ccc2Cl)c1)c1ccc(-c2c3nc(c(-c4c(F)c(F)c(F)c(F)c4F)c4ccc([nH]4)c(-c4c(F)c(F)c(F)c(F)c4F)c4nc(c(-c5c(F)c(F)c(F)c(F)c5F)c5ccc2[nH]5)C=C4)C=C3)cc1
REMARK SMILES IDX 7 1 8 2 9 3 6 5 5 6 4 7 3 8 1 9 2 10 33 12 34 13 95 14 35 15
REMARK SMILES IDX 94 16 36 17 37 18 38 19 88 20 39 21 93 22 87 23 89 24 40 25
REMARK SMILES IDX 92 26 86 27 85 28 41 30 73 31 53 32 72 33 54 34 57 35 71 36
REMARK SMILES IDX 90 37 55 38 56 39 70 41 91 42 58 43 42 44 43 45 51 46 44 47
REMARK SMILES IDX 45 48 49 49 52 50 46 51 47 52 50 53 48 54 74 55 75 56 83 57
REMARK SMILES IDX 76 58 77 59 81 60 84 61 78 62 79 63 82 64 80 65 59 66 60 67
REMARK SMILES IDX 68 68 61 69 62 70 66 71 69 72 63 73 64 74 67 75 65 76 10 77
REMARK SMILES IDX 11 78 32 79 12 80 15 81 13 82 14 83 16 84 17 86 18 87 19 88
REMARK SMILES IDX 20 89 21 91 22 92 23 93 30 94 24 95 29 96 31 97 28 98 25 99
REMARK SMILES IDX 26 100 27 101
REMARK H PARENT 7 4 3 11 89 29 57 40 16 85 19 90
REMARK Flexibility Score: inf
ROOT
ATOM      1  N   UNL A   1      32.651  30.555  26.821  1.00  0.00    -0.352 N 
ATOM      2  C   UNL A   1      33.003  29.238  26.822  1.00  0.00     0.251 C 
ATOM      3  O   UNL A   1      33.843  28.884  27.640  1.00  0.00    -0.269 OA
ATOM      4  H   UNL A   1      33.354  31.187  27.096  1.00  0.00     0.163 HD
ENDROOT
BRANCH   1   5
ATOM      5  C   UNL A   1      31.378  31.145  26.467  1.00  0.00     0.118 C 
BRANCH   5   6
ATOM      6  C   UNL A   1      31.481  32.662  26.503  1.00  0.00     0.042 C 
BRANCH   6   7
ATOM      7  C   UNL A   1      32.620  33.152  27.392  1.00  0.00     0.118 C 
BRANCH   7   8
ATOM      8  N   UNL A   1      32.450  34.546  27.797  1.00  0.00    -0.352 N 
ATOM      9  O   UNL A   1      32.554  36.317  29.193  1.00  0.00    -0.269 OA
ATOM     10  C   UNL A   1      33.009  35.234  28.844  1.00  0.00     0.251 C 
ATOM     11  H   UNL A   1      31.839  35.072  27.232  1.00  0.00     0.163 HD
BRANCH  10  12
ATOM     12  C   UNL A   1      34.150  34.638  29.559  1.00  0.00     0.039 A 
ATOM     13  C   UNL A   1      35.410  34.647  28.964  1.00  0.00     0.014 A 
ATOM     14  C   UNL A   1      33.960  34.044  30.807  1.00  0.00     0.014 A 
ATOM     15  C   UNL A   1      36.422  33.875  29.502  1.00  0.00     0.010 A 
ATOM     16  C   UNL A   1      35.030  33.395  31.426  1.00  0.00     0.010 A 
ATOM     17  C   UNL A   1      36.259  33.272  30.759  1.00  0.00    -0.014 A 
BRANCH  17  18
ATOM     18  C   UNL A   1      37.425  32.592  31.370  1.00  0.00     0.031 A 
ATOM     19  C   UNL A   1      37.905  32.943  32.748  1.00  0.00     0.074 A 
ATOM     20  C   UNL A   1      38.024  31.610  30.667  1.00  0.00     0.049 A 
ATOM     21  N   UNL A   1      38.892  32.424  33.433  1.00  0.00    -0.248 NA
ATOM     22  C   UNL A   1      37.196  34.025  33.447  1.00  0.00     0.031 C 
ATOM     23  C   UNL A   1      37.638  31.186  29.316  1.00  0.00     0.029 A 
ATOM     24  N   UNL A   1      39.055  30.770  30.992  1.00  0.00    -0.354 N 
ATOM     25  C   UNL A   1      38.939  33.126  34.630  1.00  0.00     0.074 A 
ATOM     26  C   UNL A   1      37.901  34.133  34.565  1.00  0.00     0.031 C 
ATOM     27  C   UNL A   1      38.372  30.126  28.960  1.00  0.00     0.029 A 
ATOM     28  C   UNL A   1      39.343  29.855  30.010  1.00  0.00     0.049 A 
ATOM     29  H   UNL A   1      39.544  30.818  31.847  1.00  0.00     0.167 HD
ATOM     30  C   UNL A   1      39.771  32.939  35.684  1.00  0.00     0.037 A 
ATOM     31  C   UNL A   1      40.302  28.915  29.947  1.00  0.00     0.037 A 
ATOM     32  C   UNL A   1      40.798  31.928  35.730  1.00  0.00     0.049 A 
ATOM     33  C   UNL A   1      41.245  28.775  31.107  1.00  0.00     0.074 A 
ATOM     34  C   UNL A   1      41.674  31.634  36.760  1.00  0.00     0.029 A 
ATOM     35  N   UNL A   1      41.100  31.055  34.692  1.00  0.00    -0.354 N 
ATOM     36  N   UNL A   1      41.256  29.419  32.248  1.00  0.00    -0.248 NA
ATOM     37  C   UNL A   1      42.310  27.777  30.966  1.00  0.00     0.031 C 
ATOM     38  C   UNL A   1      42.552  30.639  36.319  1.00  0.00     0.029 A 
ATOM     39  C   UNL A   1      42.174  30.250  35.044  1.00  0.00     0.049 A 
ATOM     40  H   UNL A   1      40.622  31.015  33.832  1.00  0.00     0.167 HD
ATOM     41  C   UNL A   1      42.308  28.883  32.975  1.00  0.00     0.074 A 
ATOM     42  C   UNL A   1      42.896  27.847  32.151  1.00  0.00     0.031 C 
ATOM     43  C   UNL A   1      42.747  29.219  34.214  1.00  0.00     0.037 A 
BRANCH  30  44
ATOM     44  C   UNL A   1      39.633  33.871  36.856  1.00  0.00     0.064 A 
ATOM     45  C   UNL A   1      40.240  35.136  36.881  1.00  0.00     0.173 A 
ATOM     46  C   UNL A   1      38.857  33.501  37.967  1.00  0.00     0.173 A 
ATOM     47  F   UNL A   1      41.002  35.541  35.854  1.00  0.00    -0.203 F 
ATOM     48  C   UNL A   1      40.108  35.976  37.986  1.00  0.00     0.198 A 
ATOM     49  C   UNL A   1      38.694  34.358  39.052  1.00  0.00     0.198 A 
ATOM     50  F   UNL A   1      38.246  32.307  37.998  1.00  0.00    -0.203 F 
ATOM     51  F   UNL A   1      40.751  37.152  38.011  1.00  0.00    -0.200 F 
ATOM     52  C   UNL A   1      39.330  35.590  39.066  1.00  0.00     0.200 A 
ATOM     53  F   UNL A   1      37.927  33.989  40.087  1.00  0.00    -0.200 F 
ATOM     54  F   UNL A   1      39.201  36.400  40.126  1.00  0.00    -0.200 F 
ENDBRANCH  30  44
BRANCH  31  55
ATOM     55  C   UNL A   1      40.418  28.051  28.745  1.00  0.00     0.064 A 
ATOM     56  C   UNL A   1      39.771  26.809  28.686  1.00  0.00     0.173 A 
ATOM     57  C   UNL A   1      41.175  28.445  27.631  1.00  0.00     0.173 A 
ATOM     58  F   UNL A   1      39.046  26.382  29.730  1.00  0.00    -0.203 F 
ATOM     59  C   UNL A   1      39.902  25.983  27.572  1.00  0.00     0.198 A 
ATOM     60  C   UNL A   1      41.273  27.636  26.502  1.00  0.00     0.198 A 
ATOM     61  F   UNL A   1      41.806  29.630  27.631  1.00  0.00    -0.203 F 
ATOM     62  F   UNL A   1      39.320  24.777  27.566  1.00  0.00    -0.200 F 
ATOM     63  C   UNL A   1      40.647  26.400  26.478  1.00  0.00     0.200 A 
ATOM     64  F   UNL A   1      41.973  28.055  25.439  1.00  0.00    -0.200 F 
ATOM     65  F   UNL A   1      40.767  25.607  25.407  1.00  0.00    -0.200 F 
ENDBRANCH  31  55
BRANCH  43  66
ATOM     66  C   UNL A   1      43.888  28.416  34.773  1.00  0.00     0.064 A 
ATOM     67  C   UNL A   1      45.225  28.815  34.618  1.00  0.00     0.173 A 
ATOM     68  C   UNL A   1      43.636  27.233  35.484  1.00  0.00     0.173 A 
ATOM     69  F   UNL A   1      45.523  29.929  33.933  1.00  0.00    -0.203 F 
ATOM     70  C   UNL A   1      46.267  28.036  35.118  1.00  0.00     0.198 A 
ATOM     71  C   UNL A   1      44.678  26.481  36.019  1.00  0.00     0.198 A 
ATOM     72  F   UNL A   1      42.377  26.808  35.667  1.00  0.00    -0.203 F 
ATOM     73  F   UNL A   1      47.537  28.400  34.896  1.00  0.00    -0.200 F 
ATOM     74  C   UNL A   1      45.991  26.876  35.825  1.00  0.00     0.200 A 
ATOM     75  F   UNL A   1      44.408  25.369  36.718  1.00  0.00    -0.200 F 
ATOM     76  F   UNL A   1      46.995  26.132  36.310  1.00  0.00    -0.200 F 
ENDBRANCH  43  66
ENDBRANCH  17  18
ENDBRANCH  10  12
ENDBRANCH   7   8
ENDBRANCH   6   7
ENDBRANCH   5   6
ENDBRANCH   1   5
BRANCH   2  77
ATOM     77  C   UNL A   1      32.500  28.342  25.675  1.00  0.00     0.041 A 
ATOM     78  C   UNL A   1      33.666  28.569  24.285  1.00  0.00     0.015 A 
ATOM     79  C   UNL A   1      31.165  26.870  25.418  1.00  0.00     0.041 A 
ATOM     80  C   UNL A   1      33.521  27.450  22.887  1.00  0.00     0.023 A 
ATOM     81  C   UNL A   1      31.181  25.790  24.117  1.00  0.00     0.060 A 
ATOM     82  C   UNL A   1      32.321  26.109  22.838  1.00  0.00     0.064 A 
ATOM     83  Cl  UNL A   1      32.372  25.030  21.493  1.00  0.00    -0.082 Cl
BRANCH  81  84
ATOM     84  N   UNL A   1      30.467  24.627  24.461  1.00  0.00    -0.331 N 
ATOM     85  H   UNL A   1      29.490  24.699  24.369  1.00  0.00     0.169 HD
BRANCH  84  86
ATOM     86  C   UNL A   1      30.922  23.398  24.911  1.00  0.00     0.177 C 
ATOM     87  S   UNL A   1      30.719  23.084  26.551  1.00  0.00    -0.040 S 
BRANCH  86  88
ATOM     88  N   UNL A   1      31.542  22.334  24.155  1.00  0.00    -0.299 N 
ATOM     89  C   UNL A   1      32.392  21.105  23.958  1.00  0.00     0.259 C 
ATOM     90  H   UNL A   1      31.228  22.519  23.241  1.00  0.00     0.172 HD
ATOM     91  O   UNL A   1      32.490  20.620  22.835  1.00  0.00    -0.269 OA
BRANCH  89  92
ATOM     92  C   UNL A   1      33.120  20.434  25.120  1.00  0.00     0.065 A 
ATOM     93  C   UNL A   1      33.194  18.752  24.636  1.00  0.00     0.101 A 
ATOM     94  C   UNL A   1      34.570  21.370  25.628  1.00  0.00     0.054 A 
ATOM     95  C   UNL A   1      34.796  18.005  24.364  1.00  0.00     0.270 A 
ATOM     96  C   UNL A   1      36.236  20.787  25.389  1.00  0.00     0.028 A 
ATOM     97  Cl  UNL A   1      34.407  23.081  25.860  1.00  0.00    -0.083 Cl
ATOM     98  C   UNL A   1      36.448  19.122  24.689  1.00  0.00     0.087 A 
BRANCH  95  99
ATOM     99  N   UNL A   1      34.426  16.491  24.253  1.00  0.00     0.062 N 
ATOM    100  O   UNL A   1      33.950  16.132  23.164  1.00  0.00    -0.258 OA
ATOM    101  O   UNL A   1      34.725  15.730  25.180  1.00  0.00    -0.258 OA
ENDBRANCH  95  99
ENDBRANCH  89  92
ENDBRANCH  86  88
ENDBRANCH  84  86
ENDBRANCH  81  84
ENDBRANCH   2  77
TORSDOF 15
ENDMDL
MODEL 3
REMARK VINA RESULT:     -13.2      5.551     10.386
REMARK SMILES O=C(NCCCNC(=O)c1ccc(Cl)c(NC(=S)NC(=O)c2cc([N+](=O)[O-])ccc2Cl)c1)c1ccc(-c2c3nc(c(-c4c(F)c(F)c(F)c(F)c4F)c4ccc([nH]4)c(-c4c(F)c(F)c(F)c(F)c4F)c4nc(c(-c5c(F)c(F)c(F)c(F)c5F)c5ccc2[nH]5)C=C4)C=C3)cc1
REMARK SMILES IDX 7 1 8 2 9 3 6 5 5 6 4 7 3 8 1 9 2 10 33 12 34 13 95 14 35 15
REMARK SMILES IDX 94 16 36 17 37 18 38 19 88 20 39 21 93 22 87 23 89 24 40 25
REMARK SMILES IDX 92 26 86 27 85 28 41 30 73 31 53 32 72 33 54 34 57 35 71 36
REMARK SMILES IDX 90 37 55 38 56 39 70 41 91 42 58 43 42 44 43 45 51 46 44 47
REMARK SMILES IDX 45 48 49 49 52 50 46 51 47 52 50 53 48 54 74 55 75 56 83 57
REMARK SMILES IDX 76 58 77 59 81 60 84 61 78 62 79 63 82 64 80 65 59 66 60 67
REMARK SMILES IDX 68 68 61 69 62 70 66 71 69 72 63 73 64 74 67 75 65 76 10 77
REMARK SMILES IDX 11 78 32 79 12 80 15 81 13 82 14 83 16 84 17 86 18 87 19 88
REMARK SMILES IDX 20 89 21 91 22 92 23 93 30 94 24 95 29 96 31 97 28 98 25 99
REMARK SMILES IDX 26 100 27 101
REMARK H PARENT 7 4 3 11 89 29 57 40 16 85 19 90
REMARK Flexibility Score: inf
ROOT
ATOM      1  N   UNL A   1      37.722  21.633  25.456  1.00  0.00    -0.352 N 
ATOM      2  C   UNL A   1      37.019  22.801  25.426  1.00  0.00     0.251 C 
ATOM      3  O   UNL A   1      37.628  23.827  25.699  1.00  0.00    -0.269 OA
ATOM      4  H   UNL A   1      38.466  21.597  26.099  1.00  0.00     0.163 HD
ENDROOT
BRANCH   1   5
ATOM      5  C   UNL A   1      37.515  20.439  24.664  1.00  0.00     0.118 C 
BRANCH   5   6
ATOM      6  C   UNL A   1      38.477  19.348  25.111  1.00  0.00     0.042 C 
BRANCH   6   7
ATOM      7  C   UNL A   1      39.594  19.879  26.004  1.00  0.00     0.118 C 
BRANCH   7   8
ATOM      8  N   UNL A   1      40.690  18.924  26.152  1.00  0.00    -0.352 N 
ATOM      9  O   UNL A   1      42.828  18.207  26.062  1.00  0.00    -0.269 OA
ATOM     10  C   UNL A   1      42.045  19.138  26.202  1.00  0.00     0.251 C 
ATOM     11  H   UNL A   1      40.414  17.982  26.226  1.00  0.00     0.163 HD
BRANCH  10  12
ATOM     12  C   UNL A   1      42.541  20.510  26.401  1.00  0.00     0.039 A 
ATOM     13  C   UNL A   1      42.634  21.022  27.693  1.00  0.00     0.014 A 
ATOM     14  C   UNL A   1      42.886  21.295  25.300  1.00  0.00     0.014 A 
ATOM     15  C   UNL A   1      42.852  22.375  27.875  1.00  0.00     0.010 A 
ATOM     16  C   UNL A   1      43.259  22.626  25.500  1.00  0.00     0.010 A 
ATOM     17  C   UNL A   1      43.206  23.186  26.786  1.00  0.00    -0.014 A 
BRANCH  17  18
ATOM     18  C   UNL A   1      43.590  24.593  27.052  1.00  0.00     0.031 A 
ATOM     19  C   UNL A   1      42.618  25.574  27.639  1.00  0.00     0.074 A 
ATOM     20  C   UNL A   1      44.859  24.962  26.791  1.00  0.00     0.049 A 
ATOM     21  N   UNL A   1      42.805  26.830  27.955  1.00  0.00    -0.248 NA
ATOM     22  C   UNL A   1      41.252  25.091  27.895  1.00  0.00     0.031 C 
ATOM     23  C   UNL A   1      45.889  24.087  26.218  1.00  0.00     0.029 A 
ATOM     24  N   UNL A   1      45.513  26.147  26.995  1.00  0.00    -0.354 N 
ATOM     25  C   UNL A   1      41.584  27.294  28.424  1.00  0.00     0.074 A 
ATOM     26  C   UNL A   1      40.650  26.193  28.321  1.00  0.00     0.031 C 
ATOM     27  C   UNL A   1      47.056  24.741  26.185  1.00  0.00     0.029 A 
ATOM     28  C   UNL A   1      46.838  26.107  26.640  1.00  0.00     0.049 A 
ATOM     29  H   UNL A   1      45.075  26.950  27.361  1.00  0.00     0.167 HD
ATOM     30  C   UNL A   1      41.278  28.526  28.901  1.00  0.00     0.037 A 
ATOM     31  C   UNL A   1      47.774  27.071  26.651  1.00  0.00     0.037 A 
ATOM     32  C   UNL A   1      42.224  29.610  28.997  1.00  0.00     0.049 A 
ATOM     33  C   UNL A   1      47.386  28.440  27.129  1.00  0.00     0.074 A 
ATOM     34  C   UNL A   1      42.025  30.887  29.494  1.00  0.00     0.029 A 
ATOM     35  N   UNL A   1      43.545  29.551  28.573  1.00  0.00    -0.354 N 
ATOM     36  N   UNL A   1      46.239  28.858  27.606  1.00  0.00    -0.248 NA
ATOM     37  C   UNL A   1      48.426  29.473  27.068  1.00  0.00     0.031 C 
ATOM     38  C   UNL A   1      43.200  31.620  29.299  1.00  0.00     0.029 A 
ATOM     39  C   UNL A   1      44.161  30.780  28.760  1.00  0.00     0.049 A 
ATOM     40  H   UNL A   1      43.981  28.754  28.194  1.00  0.00     0.167 HD
ATOM     41  C   UNL A   1      46.426  30.192  27.930  1.00  0.00     0.074 A 
ATOM     42  C   UNL A   1      47.805  30.506  27.616  1.00  0.00     0.031 C 
ATOM     43  C   UNL A   1      45.537  31.077  28.444  1.00  0.00     0.037 A 
BRANCH  30  44
ATOM     44  C   UNL A   1      39.855  28.780  29.317  1.00  0.00     0.064 A 
ATOM     45  C   UNL A   1      38.888  29.258  28.419  1.00  0.00     0.173 A 
ATOM     46  C   UNL A   1      39.444  28.516  30.633  1.00  0.00     0.173 A 
ATOM     47  F   UNL A   1      39.223  29.539  27.150  1.00  0.00    -0.203 F 
ATOM     48  C   UNL A   1      37.579  29.498  28.832  1.00  0.00     0.198 A 
ATOM     49  C   UNL A   1      38.126  28.719  31.033  1.00  0.00     0.198 A 
ATOM     50  F   UNL A   1      40.321  28.050  31.535  1.00  0.00    -0.203 F 
ATOM     51  F   UNL A   1      36.691  30.017  27.971  1.00  0.00    -0.200 F 
ATOM     52  C   UNL A   1      37.197  29.223  30.136  1.00  0.00     0.200 A 
ATOM     53  F   UNL A   1      37.756  28.434  32.290  1.00  0.00    -0.200 F 
ATOM     54  F   UNL A   1      35.937  29.450  30.531  1.00  0.00    -0.200 F 
ENDBRANCH  30  44
BRANCH  31  55
ATOM     55  C   UNL A   1      49.154  26.774  26.189  1.00  0.00     0.064 A 
ATOM     56  C   UNL A   1      49.527  26.986  24.855  1.00  0.00     0.173 A 
ATOM     57  C   UNL A   1      50.127  26.272  27.066  1.00  0.00     0.173 A 
ATOM     58  F   UNL A   1      48.630  27.451  23.974  1.00  0.00    -0.203 F 
ATOM     59  C   UNL A   1      50.812  26.679  24.411  1.00  0.00     0.198 A 
ATOM     60  C   UNL A   1      51.422  26.004  26.630  1.00  0.00     0.198 A 
ATOM     61  F   UNL A   1      49.826  26.061  28.357  1.00  0.00    -0.203 F 
ATOM     62  F   UNL A   1      51.125  26.838  23.118  1.00  0.00    -0.200 F 
ATOM     63  C   UNL A   1      51.760  26.196  25.300  1.00  0.00     0.200 A 
ATOM     64  F   UNL A   1      52.341  25.561  27.499  1.00  0.00    -0.200 F 
ATOM     65  F   UNL A   1      52.996  25.907  24.873  1.00  0.00    -0.200 F 
ENDBRANCH  31  55
BRANCH  43  66
ATOM     66  C   UNL A   1      46.048  32.459  28.748  1.00  0.00     0.064 A 
ATOM     67  C   UNL A   1      46.034  33.485  27.791  1.00  0.00     0.173 A 
ATOM     68  C   UNL A   1      46.550  32.759  30.024  1.00  0.00     0.173 A 
ATOM     69  F   UNL A   1      45.580  33.247  26.551  1.00  0.00    -0.203 F 
ATOM     70  C   UNL A   1      46.543  34.747  28.088  1.00  0.00     0.198 A 
ATOM     71  C   UNL A   1      47.018  34.034  30.329  1.00  0.00     0.198 A 
ATOM     72  F   UNL A   1      46.581  31.818  30.979  1.00  0.00    -0.203 F 
ATOM     73  F   UNL A   1      46.585  35.690  27.136  1.00  0.00    -0.200 F 
ATOM     74  C   UNL A   1      47.026  35.022  29.358  1.00  0.00     0.200 A 
ATOM     75  F   UNL A   1      47.466  34.303  31.563  1.00  0.00    -0.200 F 
ATOM     76  F   UNL A   1      47.510  36.239  29.642  1.00  0.00    -0.200 F 
ENDBRANCH  43  66
ENDBRANCH  17  18
ENDBRANCH  10  12
ENDBRANCH   7   8
ENDBRANCH   6   7
ENDBRANCH   5   6
ENDBRANCH   1   5
BRANCH   2  77
ATOM     77  C   UNL A   1      35.488  22.733  25.273  1.00  0.00     0.041 A 
ATOM     78  C   UNL A   1      34.793  22.735  26.964  1.00  0.00     0.015 A 
ATOM     79  C   UNL A   1      34.133  22.926  23.809  1.00  0.00     0.041 A 
ATOM     80  C   UNL A   1      33.017  22.946  27.134  1.00  0.00     0.023 A 
ATOM     81  C   UNL A   1      32.491  23.238  24.070  1.00  0.00     0.060 A 
ATOM     82  C   UNL A   1      31.931  23.199  25.720  1.00  0.00     0.064 A 
ATOM     83  Cl  UNL A   1      30.263  23.515  26.030  1.00  0.00    -0.082 Cl
BRANCH  81  84
ATOM     84  N   UNL A   1      31.926  23.791  22.906  1.00  0.00    -0.331 N 
ATOM     85  H   UNL A   1      31.639  23.133  22.232  1.00  0.00     0.169 HD
BRANCH  84  86
ATOM     86  C   UNL A   1      31.712  25.115  22.556  1.00  0.00     0.177 C 
ATOM     87  S   UNL A   1      32.763  25.762  21.415  1.00  0.00    -0.040 S 
BRANCH  86  88
ATOM     88  N   UNL A   1      30.691  26.019  23.035  1.00  0.00    -0.299 N 
ATOM     89  C   UNL A   1      30.094  27.363  23.366  1.00  0.00     0.259 C 
ATOM     90  H   UNL A   1      29.971  25.401  23.294  1.00  0.00     0.172 HD
ATOM     91  O   UNL A   1      28.952  27.415  23.813  1.00  0.00    -0.269 OA
BRANCH  89  92
ATOM     92  C   UNL A   1      30.861  28.663  23.142  1.00  0.00     0.065 A 
ATOM     93  C   UNL A   1      29.595  29.837  22.849  1.00  0.00     0.101 A 
ATOM     94  C   UNL A   1      32.147  28.900  24.378  1.00  0.00     0.054 A 
ATOM     95  C   UNL A   1      29.395  31.191  23.999  1.00  0.00     0.270 A 
ATOM     96  C   UNL A   1      32.079  30.174  25.620  1.00  0.00     0.028 A 
ATOM     97  Cl  UNL A   1      33.203  27.571  24.733  1.00  0.00    -0.083 Cl
ATOM     98  C   UNL A   1      30.683  31.337  25.550  1.00  0.00     0.087 A 
BRANCH  95  99
ATOM     99  N   UNL A   1      28.402  32.120  23.228  1.00  0.00     0.062 N 
ATOM    100  O   UNL A   1      27.199  31.839  23.350  1.00  0.00    -0.258 OA
ATOM    101  O   UNL A   1      28.840  33.122  22.654  1.00  0.00    -0.258 OA
ENDBRANCH  95  99
ENDBRANCH  89  92
ENDBRANCH  86  88
ENDBRANCH  84  86
ENDBRANCH  81  84
ENDBRANCH   2  77
TORSDOF 15
ENDMDL
