MODEL 1
REMARK VINA RESULT:     -13.0      0.000      0.000
REMARK SMILES CC1=CC2=[NH+]C(=O)C[C@@](C)(C(=O)NCCCNC(=O)c3ccc(-c4c5nc(c(-c6c(F)c(F)c(F)c(F)c6F)c6ccc([nH]6)c(-c6c(F)c(F)c(F)c(F)c6F)c6nc(c(-c7c(F)c(F)c(F)c(F)c7F)c7ccc4[nH]7)C=C6)C=C5)cc3)N2C=C1
REMARK SMILES IDX 16 1 15 2 14 3 13 4 11 5 12 6 9 8 1 9 2 10 3 11 85 12 4 13
REMARK SMILES IDX 84 14 5 15 83 16 6 17 7 19 8 20 10 21 17 22 18 23 19 25
REMARK SMILES IDX 20 26 21 27 82 28 22 29 81 30 23 31 24 32 25 33 75 34 26 35
REMARK SMILES IDX 80 36 74 37 76 38 27 39 79 40 73 41 72 42 28 44 60 45 40 46
REMARK SMILES IDX 59 47 41 48 44 49 58 50 77 51 42 52 43 53 57 55 78 56 45 57
REMARK SMILES IDX 29 58 30 59 38 60 31 61 32 62 36 63 39 64 33 65 34 66 37 67
REMARK SMILES IDX 35 68 61 69 62 70 70 71 63 72 64 73 68 74 71 75 65 76 66 77
REMARK SMILES IDX 69 78 67 79 46 80 47 81 55 82 48 83 49 84 53 85 56 86 50 87
REMARK SMILES IDX 51 88 54 89 52 90
REMARK H PARENT 13 7 5 18 17 24 76 43 44 54
REMARK Flexibility Score: inf
ROOT
ATOM      1  C   UNL A   1      32.673  29.535  25.605  1.00  0.00     0.118 C 
ENDROOT
BRANCH   1   2
ATOM      2  C   UNL A   1      31.732  28.525  26.246  1.00  0.00     0.042 C 
BRANCH   2   3
ATOM      3  C   UNL A   1      32.284  27.126  26.519  1.00  0.00     0.118 C 
BRANCH   3   4
ATOM      4  N   UNL A   1      31.365  25.998  26.463  1.00  0.00    -0.352 N 
ATOM      5  C   UNL A   1      31.281  24.963  25.563  1.00  0.00     0.268 C 
ATOM      6  O   UNL A   1      31.029  23.858  26.059  1.00  0.00    -0.270 OA
ATOM      7  H   UNL A   1      30.697  25.972  27.188  1.00  0.00     0.163 HD
BRANCH   5   8
ATOM      8  C   UNL A   1      31.261  25.205  24.020  1.00  0.00     0.197 C 
ATOM      9  C   UNL A   1      27.914  29.712  22.460  1.00  0.00     0.045 C 
ATOM     10  C   UNL A   1      28.842  28.603  22.852  1.00  0.00    -0.039 C 
ATOM     11  C   UNL A   1      30.150  28.614  22.538  1.00  0.00     0.102 C 
ATOM     12  C   UNL A   1      28.273  27.478  23.577  1.00  0.00     0.047 C 
ATOM     13  C   UNL A   1      30.970  27.400  22.861  1.00  0.00     0.282 C 
ATOM     14  C   UNL A   1      29.062  26.468  23.976  1.00  0.00     0.202 C 
ATOM     15  N   UNL A   1      32.129  27.360  22.279  1.00  0.00    -0.210 N 
ATOM     16  N   UNL A   1      30.425  26.397  23.675  1.00  0.00    -0.219 N 
ATOM     17  C   UNL A   1      32.845  26.206  22.411  1.00  0.00     0.312 C 
ATOM     18  H   UNL A   1      32.475  28.126  21.765  1.00  0.00     0.315 HD
ATOM     19  O   UNL A   1      33.590  25.771  21.544  1.00  0.00    -0.247 OA
ATOM     20  C   UNL A   1      32.730  25.507  23.722  1.00  0.00     0.191 C 
ATOM     21  C   UNL A   1      30.706  24.043  23.187  1.00  0.00     0.074 C 
ENDBRANCH   5   8
ENDBRANCH   3   4
ENDBRANCH   2   3
ENDBRANCH   1   2
BRANCH   1  22
ATOM     22  N   UNL A   1      32.445  30.902  26.035  1.00  0.00    -0.352 N 
ATOM     23  C   UNL A   1      33.067  31.694  26.968  1.00  0.00     0.251 C 
ATOM     24  H   UNL A   1      31.701  31.347  25.568  1.00  0.00     0.163 HD
ATOM     25  O   UNL A   1      32.566  32.786  27.228  1.00  0.00    -0.269 OA
BRANCH  23  26
ATOM     26  C   UNL A   1      34.295  31.278  27.694  1.00  0.00     0.039 A 
ATOM     27  C   UNL A   1      35.273  32.252  27.938  1.00  0.00     0.014 A 
ATOM     28  C   UNL A   1      34.554  29.955  28.061  1.00  0.00     0.014 A 
ATOM     29  C   UNL A   1      36.464  31.918  28.592  1.00  0.00     0.010 A 
ATOM     30  C   UNL A   1      35.710  29.635  28.784  1.00  0.00     0.010 A 
ATOM     31  C   UNL A   1      36.680  30.612  29.055  1.00  0.00    -0.014 A 
BRANCH  31  32
ATOM     32  C   UNL A   1      37.909  30.262  29.822  1.00  0.00     0.031 A 
ATOM     33  C   UNL A   1      38.932  29.315  29.252  1.00  0.00     0.074 A 
ATOM     34  C   UNL A   1      38.085  30.761  31.062  1.00  0.00     0.049 A 
ATOM     35  N   UNL A   1      40.030  28.853  29.799  1.00  0.00    -0.248 NA
ATOM     36  C   UNL A   1      38.679  28.805  27.897  1.00  0.00     0.031 C 
ATOM     37  C   UNL A   1      37.155  31.658  31.750  1.00  0.00     0.029 A 
ATOM     38  N   UNL A   1      39.099  30.576  31.971  1.00  0.00    -0.354 N 
ATOM     39  C   UNL A   1      40.586  27.988  28.864  1.00  0.00     0.074 A 
ATOM     40  C   UNL A   1      39.684  27.956  27.734  1.00  0.00     0.031 C 
ATOM     41  C   UNL A   1      37.647  31.958  32.962  1.00  0.00     0.029 A 
ATOM     42  C   UNL A   1      38.905  31.243  33.157  1.00  0.00     0.049 A 
ATOM     43  H   UNL A   1      39.889  30.018  31.790  1.00  0.00     0.167 HD
ATOM     44  C   UNL A   1      41.751  27.298  28.936  1.00  0.00     0.037 A 
ATOM     45  C   UNL A   1      39.647  31.267  34.281  1.00  0.00     0.037 A 
ATOM     46  C   UNL A   1      42.661  27.347  30.052  1.00  0.00     0.049 A 
ATOM     47  C   UNL A   1      40.930  30.484  34.337  1.00  0.00     0.074 A 
ATOM     48  C   UNL A   1      43.896  26.734  30.185  1.00  0.00     0.029 A 
ATOM     49  N   UNL A   1      42.433  28.044  31.229  1.00  0.00    -0.354 N 
ATOM     50  N   UNL A   1      41.477  29.725  33.421  1.00  0.00    -0.248 NA
ATOM     51  C   UNL A   1      41.704  30.569  35.585  1.00  0.00     0.031 C 
ATOM     52  C   UNL A   1      44.389  27.014  31.463  1.00  0.00     0.029 A 
ATOM     53  C   UNL A   1      43.492  27.852  32.105  1.00  0.00     0.049 A 
ATOM     54  H   UNL A   1      41.638  28.593  31.417  1.00  0.00     0.167 HD
ATOM     55  C   UNL A   1      42.667  29.263  33.967  1.00  0.00     0.074 A 
ATOM     56  C   UNL A   1      42.773  29.842  35.290  1.00  0.00     0.031 C 
ATOM     57  C   UNL A   1      43.590  28.435  33.419  1.00  0.00     0.037 A 
BRANCH  44  58
ATOM     58  C   UNL A   1      42.115  26.418  27.773  1.00  0.00     0.064 A 
ATOM     59  C   UNL A   1      43.029  26.832  26.793  1.00  0.00     0.173 A 
ATOM     60  C   UNL A   1      41.585  25.122  27.668  1.00  0.00     0.173 A 
ATOM     61  F   UNL A   1      43.561  28.063  26.841  1.00  0.00    -0.203 F 
ATOM     62  C   UNL A   1      43.379  25.993  25.738  1.00  0.00     0.198 A 
ATOM     63  C   UNL A   1      41.960  24.275  26.628  1.00  0.00     0.198 A 
ATOM     64  F   UNL A   1      40.713  24.672  28.583  1.00  0.00    -0.203 F 
ATOM     65  F   UNL A   1      44.221  26.427  24.789  1.00  0.00    -0.200 F 
ATOM     66  C   UNL A   1      42.851  24.713  25.660  1.00  0.00     0.200 A 
ATOM     67  F   UNL A   1      41.462  23.032  26.565  1.00  0.00    -0.200 F 
ATOM     68  F   UNL A   1      43.198  23.903  24.651  1.00  0.00    -0.200 F 
ENDBRANCH  44  58
BRANCH  45  69
ATOM     69  C   UNL A   1      39.196  32.073  35.447  1.00  0.00     0.064 A 
ATOM     70  C   UNL A   1      38.435  31.495  36.473  1.00  0.00     0.173 A 
ATOM     71  C   UNL A   1      39.518  33.434  35.560  1.00  0.00     0.173 A 
ATOM     72  F   UNL A   1      38.085  30.203  36.399  1.00  0.00    -0.203 F 
ATOM     73  C   UNL A   1      37.996  32.253  37.557  1.00  0.00     0.198 A 
ATOM     74  C   UNL A   1      39.104  34.182  36.660  1.00  0.00     0.198 A 
ATOM     75  F   UNL A   1      40.248  34.033  34.608  1.00  0.00    -0.203 F 
ATOM     76  F   UNL A   1      37.233  31.687  38.501  1.00  0.00    -0.200 F 
ATOM     77  C   UNL A   1      38.337  33.593  37.654  1.00  0.00     0.200 A 
ATOM     78  F   UNL A   1      39.450  35.473  36.757  1.00  0.00    -0.200 F 
ATOM     79  F   UNL A   1      37.922  34.319  38.700  1.00  0.00    -0.200 F 
ENDBRANCH  45  69
BRANCH  57  80
ATOM     80  C   UNL A   1      44.814  28.129  34.233  1.00  0.00     0.064 A 
ATOM     81  C   UNL A   1      45.965  28.928  34.168  1.00  0.00     0.173 A 
ATOM     82  C   UNL A   1      44.821  27.043  35.123  1.00  0.00     0.173 A 
ATOM     83  F   UNL A   1      46.016  29.970  33.323  1.00  0.00    -0.203 F 
ATOM     84  C   UNL A   1      47.085  28.636  34.942  1.00  0.00     0.198 A 
ATOM     85  C   UNL A   1      45.931  26.773  35.919  1.00  0.00     0.198 A 
ATOM     86  F   UNL A   1      43.744  26.249  35.230  1.00  0.00    -0.203 F 
ATOM     87  F   UNL A   1      48.191  29.386  34.826  1.00  0.00    -0.200 F 
ATOM     88  C   UNL A   1      47.065  27.565  35.822  1.00  0.00     0.200 A 
ATOM     89  F   UNL A   1      45.904  25.745  36.779  1.00  0.00    -0.200 F 
ATOM     90  F   UNL A   1      48.140  27.291  36.572  1.00  0.00    -0.200 F 
ENDBRANCH  57  80
ENDBRANCH  31  32
ENDBRANCH  23  26
ENDBRANCH   1  22
TORSDOF 10
ENDMDL
MODEL 2
REMARK VINA RESULT:     -13.0      0.102      1.156
REMARK SMILES CC1=CC2=[NH+]C(=O)C[C@@](C)(C(=O)NCCCNC(=O)c3ccc(-c4c5nc(c(-c6c(F)c(F)c(F)c(F)c6F)c6ccc([nH]6)c(-c6c(F)c(F)c(F)c(F)c6F)c6nc(c(-c7c(F)c(F)c(F)c(F)c7F)c7ccc4[nH]7)C=C6)C=C5)cc3)N2C=C1
REMARK SMILES IDX 16 1 15 2 14 3 13 4 11 5 12 6 9 8 1 9 2 10 3 11 85 12 4 13
REMARK SMILES IDX 84 14 5 15 83 16 6 17 7 19 8 20 10 21 17 22 18 23 19 25
REMARK SMILES IDX 20 26 21 27 82 28 22 29 81 30 23 31 24 32 25 33 75 34 26 35
REMARK SMILES IDX 80 36 74 37 76 38 27 39 79 40 73 41 72 42 28 44 60 45 40 46
REMARK SMILES IDX 59 47 41 48 44 49 58 50 77 51 42 52 43 53 57 55 78 56 45 57
REMARK SMILES IDX 29 58 30 59 38 60 31 61 32 62 36 63 39 64 33 65 34 66 37 67
REMARK SMILES IDX 35 68 61 69 62 70 70 71 63 72 64 73 68 74 71 75 65 76 66 77
REMARK SMILES IDX 69 78 67 79 46 80 47 81 55 82 48 83 49 84 53 85 56 86 50 87
REMARK SMILES IDX 51 88 54 89 52 90
REMARK H PARENT 13 7 5 18 17 24 76 43 44 54
REMARK Flexibility Score: inf
ROOT
ATOM      1  C   UNL A   1      32.675  29.606  25.664  1.00  0.00     0.118 C 
ENDROOT
BRANCH   1   2
ATOM      2  C   UNL A   1      31.727  28.618  26.332  1.00  0.00     0.042 C 
BRANCH   2   3
ATOM      3  C   UNL A   1      32.245  27.199  26.569  1.00  0.00     0.118 C 
BRANCH   3   4
ATOM      4  N   UNL A   1      31.301  26.096  26.474  1.00  0.00    -0.352 N 
ATOM      5  C   UNL A   1      31.222  25.067  25.565  1.00  0.00     0.268 C 
ATOM      6  O   UNL A   1      30.925  23.967  26.045  1.00  0.00    -0.270 OA
ATOM      7  H   UNL A   1      30.607  26.083  27.174  1.00  0.00     0.163 HD
BRANCH   5   8
ATOM      8  C   UNL A   1      31.264  25.318  24.023  1.00  0.00     0.197 C 
ATOM      9  C   UNL A   1      27.995  29.846  22.360  1.00  0.00     0.045 C 
ATOM     10  C   UNL A   1      28.904  28.732  22.781  1.00  0.00    -0.039 C 
ATOM     11  C   UNL A   1      30.223  28.739  22.519  1.00  0.00     0.102 C 
ATOM     12  C   UNL A   1      28.302  27.604  23.478  1.00  0.00     0.047 C 
ATOM     13  C   UNL A   1      31.025  27.521  22.867  1.00  0.00     0.282 C 
ATOM     14  C   UNL A   1      29.073  26.590  23.901  1.00  0.00     0.202 C 
ATOM     15  N   UNL A   1      32.206  27.480  22.330  1.00  0.00    -0.210 N 
ATOM     16  N   UNL A   1      30.446  26.516  23.653  1.00  0.00    -0.219 N 
ATOM     17  C   UNL A   1      32.912  26.323  22.483  1.00  0.00     0.312 C 
ATOM     18  H   UNL A   1      32.575  28.248  21.834  1.00  0.00     0.315 HD
ATOM     19  O   UNL A   1      33.689  25.890  21.643  1.00  0.00    -0.247 OA
ATOM     20  C   UNL A   1      32.744  25.617  23.785  1.00  0.00     0.191 C 
ATOM     21  C   UNL A   1      30.738  24.163  23.163  1.00  0.00     0.074 C 
ENDBRANCH   5   8
ENDBRANCH   3   4
ENDBRANCH   2   3
ENDBRANCH   1   2
BRANCH   1  22
ATOM     22  N   UNL A   1      32.471  30.982  26.075  1.00  0.00    -0.352 N 
ATOM     23  C   UNL A   1      33.107  31.775  26.998  1.00  0.00     0.251 C 
ATOM     24  H   UNL A   1      31.735  31.434  25.603  1.00  0.00     0.163 HD
ATOM     25  O   UNL A   1      32.625  32.879  27.244  1.00  0.00    -0.269 OA
BRANCH  23  26
ATOM     26  C   UNL A   1      34.327  31.347  27.730  1.00  0.00     0.039 A 
ATOM     27  C   UNL A   1      35.327  32.304  27.952  1.00  0.00     0.014 A 
ATOM     28  C   UNL A   1      34.559  30.027  28.123  1.00  0.00     0.014 A 
ATOM     29  C   UNL A   1      36.512  31.957  28.610  1.00  0.00     0.010 A 
ATOM     30  C   UNL A   1      35.709  29.696  28.850  1.00  0.00     0.010 A 
ATOM     31  C   UNL A   1      36.701  30.656  29.099  1.00  0.00    -0.014 A 
BRANCH  31  32
ATOM     32  C   UNL A   1      37.923  30.295  29.870  1.00  0.00     0.031 A 
ATOM     33  C   UNL A   1      38.949  29.354  29.297  1.00  0.00     0.074 A 
ATOM     34  C   UNL A   1      38.091  30.779  31.118  1.00  0.00     0.049 A 
ATOM     35  N   UNL A   1      40.042  28.883  29.846  1.00  0.00    -0.248 NA
ATOM     36  C   UNL A   1      38.705  28.860  27.934  1.00  0.00     0.031 C 
ATOM     37  C   UNL A   1      37.159  31.670  31.809  1.00  0.00     0.029 A 
ATOM     38  N   UNL A   1      39.099  30.582  32.031  1.00  0.00    -0.354 N 
ATOM     39  C   UNL A   1      40.603  28.028  28.905  1.00  0.00     0.074 A 
ATOM     40  C   UNL A   1      39.710  28.011  27.768  1.00  0.00     0.031 C 
ATOM     41  C   UNL A   1      37.642  31.954  33.028  1.00  0.00     0.029 A 
ATOM     42  C   UNL A   1      38.898  31.235  33.224  1.00  0.00     0.049 A 
ATOM     43  H   UNL A   1      39.889  30.024  31.850  1.00  0.00     0.167 HD
ATOM     44  C   UNL A   1      41.766  27.335  28.976  1.00  0.00     0.037 A 
ATOM     45  C   UNL A   1      39.631  31.244  34.353  1.00  0.00     0.037 A 
ATOM     46  C   UNL A   1      42.668  27.369  30.099  1.00  0.00     0.049 A 
ATOM     47  C   UNL A   1      40.913  30.458  34.409  1.00  0.00     0.074 A 
ATOM     48  C   UNL A   1      43.901  26.752  30.234  1.00  0.00     0.029 A 
ATOM     49  N   UNL A   1      42.434  28.052  31.283  1.00  0.00    -0.354 N 
ATOM     50  N   UNL A   1      41.466  29.710  33.488  1.00  0.00    -0.248 NA
ATOM     51  C   UNL A   1      41.678  30.527  35.663  1.00  0.00     0.031 C 
ATOM     52  C   UNL A   1      44.386  27.016  31.519  1.00  0.00     0.029 A 
ATOM     53  C   UNL A   1      43.486  27.848  32.164  1.00  0.00     0.049 A 
ATOM     54  H   UNL A   1      41.638  28.601  31.472  1.00  0.00     0.167 HD
ATOM     55  C   UNL A   1      42.650  29.239  34.037  1.00  0.00     0.074 A 
ATOM     56  C   UNL A   1      42.748  29.802  35.367  1.00  0.00     0.031 C 
ATOM     57  C   UNL A   1      43.576  28.415  33.485  1.00  0.00     0.037 A 
BRANCH  44  58
ATOM     58  C   UNL A   1      42.137  26.468  27.806  1.00  0.00     0.064 A 
ATOM     59  C   UNL A   1      43.046  26.899  26.828  1.00  0.00     0.173 A 
ATOM     60  C   UNL A   1      41.619  25.169  27.691  1.00  0.00     0.173 A 
ATOM     61  F   UNL A   1      43.567  28.134  26.886  1.00  0.00    -0.203 F 
ATOM     62  C   UNL A   1      43.402  26.072  25.766  1.00  0.00     0.198 A 
ATOM     63  C   UNL A   1      42.001  24.333  26.644  1.00  0.00     0.198 A 
ATOM     64  F   UNL A   1      40.754  24.702  28.603  1.00  0.00    -0.203 F 
ATOM     65  F   UNL A   1      44.239  26.522  24.819  1.00  0.00    -0.200 F 
ATOM     66  C   UNL A   1      42.887  24.788  25.678  1.00  0.00     0.200 A 
ATOM     67  F   UNL A   1      41.515  23.086  26.571  1.00  0.00    -0.200 F 
ATOM     68  F   UNL A   1      43.240  23.989  24.662  1.00  0.00    -0.200 F 
ENDBRANCH  44  58
BRANCH  45  69
ATOM     69  C   UNL A   1      39.174  32.037  35.525  1.00  0.00     0.064 A 
ATOM     70  C   UNL A   1      39.533  33.385  35.669  1.00  0.00     0.173 A 
ATOM     71  C   UNL A   1      38.369  31.466  36.523  1.00  0.00     0.173 A 
ATOM     72  F   UNL A   1      40.318  33.970  34.753  1.00  0.00    -0.203 F 
ATOM     73  C   UNL A   1      39.121  34.125  36.776  1.00  0.00     0.198 A 
ATOM     74  C   UNL A   1      37.933  32.216  37.612  1.00  0.00     0.198 A 
ATOM     75  F   UNL A   1      37.994  30.182  36.429  1.00  0.00    -0.203 F 
ATOM     76  F   UNL A   1      39.514  35.398  36.912  1.00  0.00    -0.200 F 
ATOM     77  C   UNL A   1      38.315  33.543  37.743  1.00  0.00     0.200 A 
ATOM     78  F   UNL A   1      37.141  31.653  38.536  1.00  0.00    -0.200 F 
ATOM     79  F   UNL A   1      37.913  34.257  38.802  1.00  0.00    -0.200 F 
ENDBRANCH  45  69
BRANCH  57  80
ATOM     80  C   UNL A   1      44.794  28.097  34.305  1.00  0.00     0.064 A 
ATOM     81  C   UNL A   1      45.944  28.900  34.263  1.00  0.00     0.173 A 
ATOM     82  C   UNL A   1      44.795  26.997  35.176  1.00  0.00     0.173 A 
ATOM     83  F   UNL A   1      46.000  29.956  33.436  1.00  0.00    -0.203 F 
ATOM     84  C   UNL A   1      47.058  28.597  35.041  1.00  0.00     0.198 A 
ATOM     85  C   UNL A   1      45.898  26.715  35.977  1.00  0.00     0.198 A 
ATOM     86  F   UNL A   1      43.719  26.199  35.261  1.00  0.00    -0.203 F 
ATOM     87  F   UNL A   1      48.163  29.350  34.947  1.00  0.00    -0.200 F 
ATOM     88  C   UNL A   1      47.032  27.510  35.903  1.00  0.00     0.200 A 
ATOM     89  F   UNL A   1      45.866  25.673  36.820  1.00  0.00    -0.200 F 
ATOM     90  F   UNL A   1      48.102  27.225  36.657  1.00  0.00    -0.200 F 
ENDBRANCH  57  80
ENDBRANCH  31  32
ENDBRANCH  23  26
ENDBRANCH   1  22
TORSDOF 10
ENDMDL
MODEL 3
REMARK VINA RESULT:     -13.0      0.417      7.481
REMARK SMILES CC1=CC2=[NH+]C(=O)C[C@@](C)(C(=O)NCCCNC(=O)c3ccc(-c4c5nc(c(-c6c(F)c(F)c(F)c(F)c6F)c6ccc([nH]6)c(-c6c(F)c(F)c(F)c(F)c6F)c6nc(c(-c7c(F)c(F)c(F)c(F)c7F)c7ccc4[nH]7)C=C6)C=C5)cc3)N2C=C1
REMARK SMILES IDX 16 1 15 2 14 3 13 4 11 5 12 6 9 8 1 9 2 10 3 11 85 12 4 13
REMARK SMILES IDX 84 14 5 15 83 16 6 17 7 19 8 20 10 21 17 22 18 23 19 25
REMARK SMILES IDX 20 26 21 27 82 28 22 29 81 30 23 31 24 32 25 33 75 34 26 35
REMARK SMILES IDX 80 36 74 37 76 38 27 39 79 40 73 41 72 42 28 44 60 45 40 46
REMARK SMILES IDX 59 47 41 48 44 49 58 50 77 51 42 52 43 53 57 55 78 56 45 57
REMARK SMILES IDX 29 58 30 59 38 60 31 61 32 62 36 63 39 64 33 65 34 66 37 67
REMARK SMILES IDX 35 68 61 69 62 70 70 71 63 72 64 73 68 74 71 75 65 76 66 77
REMARK SMILES IDX 69 78 67 79 46 80 47 81 55 82 48 83 49 84 53 85 56 86 50 87
REMARK SMILES IDX 51 88 54 89 52 90
REMARK H PARENT 13 7 5 18 17 24 76 43 44 54
REMARK Flexibility Score: inf
ROOT
ATOM      1  C   UNL A   1      32.787  29.479  25.552  1.00  0.00     0.118 C 
ENDROOT
BRANCH   1   2
ATOM      2  C   UNL A   1      31.779  28.487  26.115  1.00  0.00     0.042 C 
BRANCH   2   3
ATOM      3  C   UNL A   1      32.295  27.098  26.490  1.00  0.00     0.118 C 
BRANCH   3   4
ATOM      4  N   UNL A   1      31.368  25.978  26.431  1.00  0.00    -0.352 N 
ATOM      5  C   UNL A   1      31.286  24.937  25.537  1.00  0.00     0.268 C 
ATOM      6  O   UNL A   1      31.019  23.838  26.037  1.00  0.00    -0.270 OA
ATOM      7  H   UNL A   1      30.691  25.962  27.148  1.00  0.00     0.163 HD
BRANCH   5   8
ATOM      8  C   UNL A   1      31.288  25.169  23.992  1.00  0.00     0.197 C 
ATOM      9  C   UNL A   1      28.029  29.717  22.365  1.00  0.00     0.045 C 
ATOM     10  C   UNL A   1      28.936  28.597  22.774  1.00  0.00    -0.039 C 
ATOM     11  C   UNL A   1      30.247  28.584  22.476  1.00  0.00     0.102 C 
ATOM     12  C   UNL A   1      28.340  27.485  23.501  1.00  0.00     0.047 C 
ATOM     13  C   UNL A   1      31.044  27.360  22.816  1.00  0.00     0.282 C 
ATOM     14  C   UNL A   1      29.110  26.466  23.915  1.00  0.00     0.202 C 
ATOM     15  N   UNL A   1      32.209  27.298  22.247  1.00  0.00    -0.210 N 
ATOM     16  N   UNL A   1      30.475  26.372  23.630  1.00  0.00    -0.219 N 
ATOM     17  C   UNL A   1      32.905  26.134  22.394  1.00  0.00     0.312 C 
ATOM     18  H   UNL A   1      32.573  28.055  21.732  1.00  0.00     0.315 HD
ATOM     19  O   UNL A   1      33.653  25.682  21.539  1.00  0.00    -0.247 OA
ATOM     20  C   UNL A   1      32.764  25.446  23.709  1.00  0.00     0.191 C 
ATOM     21  C   UNL A   1      30.724  24.010  23.161  1.00  0.00     0.074 C 
ENDBRANCH   5   8
ENDBRANCH   3   4
ENDBRANCH   2   3
ENDBRANCH   1   2
BRANCH   1  22
ATOM     22  N   UNL A   1      32.602  30.837  26.030  1.00  0.00    -0.352 N 
ATOM     23  C   UNL A   1      33.230  31.566  27.009  1.00  0.00     0.251 C 
ATOM     24  H   UNL A   1      31.889  31.329  25.563  1.00  0.00     0.163 HD
ATOM     25  O   UNL A   1      32.766  32.667  27.300  1.00  0.00    -0.269 OA
BRANCH  23  26
ATOM     26  C   UNL A   1      34.421  31.073  27.747  1.00  0.00     0.039 A 
ATOM     27  C   UNL A   1      35.456  31.984  28.003  1.00  0.00     0.014 A 
ATOM     28  C   UNL A   1      34.593  29.737  28.115  1.00  0.00     0.014 A 
ATOM     29  C   UNL A   1      36.617  31.575  28.669  1.00  0.00     0.010 A 
ATOM     30  C   UNL A   1      35.719  29.344  28.851  1.00  0.00     0.010 A 
ATOM     31  C   UNL A   1      36.745  30.258  29.133  1.00  0.00    -0.014 A 
BRANCH  31  32
ATOM     32  C   UNL A   1      37.941  29.831  29.913  1.00  0.00     0.031 A 
ATOM     33  C   UNL A   1      38.179  30.346  31.308  1.00  0.00     0.074 A 
ATOM     34  C   UNL A   1      38.848  29.011  29.345  1.00  0.00     0.049 A 
ATOM     35  N   UNL A   1      39.191  30.129  32.112  1.00  0.00    -0.248 NA
ATOM     36  C   UNL A   1      37.152  31.239  31.867  1.00  0.00     0.031 C 
ATOM     37  C   UNL A   1      38.763  28.467  27.989  1.00  0.00     0.029 A 
ATOM     38  N   UNL A   1      40.028  28.499  29.832  1.00  0.00    -0.354 N 
ATOM     39  C   UNL A   1      38.932  30.869  33.259  1.00  0.00     0.074 A 
ATOM     40  C   UNL A   1      37.690  31.575  33.031  1.00  0.00     0.031 C 
ATOM     41  C   UNL A   1      39.830  27.689  27.757  1.00  0.00     0.029 A 
ATOM     42  C   UNL A   1      40.700  27.709  28.930  1.00  0.00     0.049 A 
ATOM     43  H   UNL A   1      40.360  28.682  30.740  1.00  0.00     0.167 HD
ATOM     44  C   UNL A   1      39.655  30.940  34.403  1.00  0.00     0.037 A 
ATOM     45  C   UNL A   1      41.887  27.081  29.029  1.00  0.00     0.037 A 
ATOM     46  C   UNL A   1      40.880  30.219  34.639  1.00  0.00     0.049 A 
ATOM     47  C   UNL A   1      42.674  27.184  30.307  1.00  0.00     0.074 A 
ATOM     48  C   UNL A   1      41.648  30.176  35.792  1.00  0.00     0.029 A 
ATOM     49  N   UNL A   1      41.522  29.420  33.705  1.00  0.00    -0.354 N 
ATOM     50  N   UNL A   1      42.384  27.831  31.408  1.00  0.00    -0.248 NA
ATOM     51  C   UNL A   1      43.953  26.458  30.358  1.00  0.00     0.031 C 
ATOM     52  C   UNL A   1      42.780  29.397  35.537  1.00  0.00     0.029 A 
ATOM     53  C   UNL A   1      42.689  28.903  34.246  1.00  0.00     0.049 A 
ATOM     54  H   UNL A   1      41.197  29.244  32.792  1.00  0.00     0.167 HD
ATOM     55  C   UNL A   1      43.425  27.574  32.289  1.00  0.00     0.074 A 
ATOM     56  C   UNL A   1      44.348  26.695  31.601  1.00  0.00     0.031 C 
ATOM     57  C   UNL A   1      43.600  28.025  33.555  1.00  0.00     0.037 A 
BRANCH  44  58
ATOM     58  C   UNL A   1      39.146  31.834  35.499  1.00  0.00     0.064 A 
ATOM     59  C   UNL A   1      38.305  31.352  36.513  1.00  0.00     0.173 A 
ATOM     60  C   UNL A   1      39.550  33.176  35.566  1.00  0.00     0.173 A 
ATOM     61  F   UNL A   1      37.883  30.078  36.493  1.00  0.00    -0.203 F 
ATOM     62  C   UNL A   1      37.866  32.187  37.538  1.00  0.00     0.198 A 
ATOM     63  C   UNL A   1      39.134  34.000  36.609  1.00  0.00     0.198 A 
ATOM     64  F   UNL A   1      40.361  33.687  34.628  1.00  0.00    -0.203 F 
ATOM     65  F   UNL A   1      37.027  31.715  38.471  1.00  0.00    -0.200 F 
ATOM     66  C   UNL A   1      38.287  33.507  37.590  1.00  0.00     0.200 A 
ATOM     67  F   UNL A   1      39.556  35.271  36.668  1.00  0.00    -0.200 F 
ATOM     68  F   UNL A   1      37.873  34.305  38.584  1.00  0.00    -0.200 F 
ENDBRANCH  44  58
BRANCH  45  69
ATOM     69  C   UNL A   1      42.401  26.288  27.881  1.00  0.00     0.064 A 
ATOM     70  C   UNL A   1      41.994  24.961  27.681  1.00  0.00     0.173 A 
ATOM     71  C   UNL A   1      43.306  26.838  26.962  1.00  0.00     0.173 A 
ATOM     72  F   UNL A   1      41.147  24.383  28.545  1.00  0.00    -0.203 F 
ATOM     73  C   UNL A   1      42.489  24.209  26.617  1.00  0.00     0.198 A 
ATOM     74  C   UNL A   1      43.776  26.095  25.881  1.00  0.00     0.198 A 
ATOM     75  F   UNL A   1      43.723  28.105  27.105  1.00  0.00    -0.203 F 
ATOM     76  F   UNL A   1      42.119  22.930  26.474  1.00  0.00    -0.200 F 
ATOM     77  C   UNL A   1      43.373  24.779  25.713  1.00  0.00     0.200 A 
ATOM     78  F   UNL A   1      44.617  26.656  25.001  1.00  0.00    -0.200 F 
ATOM     79  F   UNL A   1      43.842  24.059  24.686  1.00  0.00    -0.200 F 
ENDBRANCH  45  69
BRANCH  57  80
ATOM     80  C   UNL A   1      44.817  27.551  34.297  1.00  0.00     0.064 A 
ATOM     81  C   UNL A   1      46.018  28.275  34.288  1.00  0.00     0.173 A 
ATOM     82  C   UNL A   1      44.768  26.375  35.062  1.00  0.00     0.173 A 
ATOM     83  F   UNL A   1      46.123  29.398  33.560  1.00  0.00    -0.203 F 
ATOM     84  C   UNL A   1      47.131  27.826  34.993  1.00  0.00     0.198 A 
ATOM     85  C   UNL A   1      45.872  25.946  35.793  1.00  0.00     0.198 A 
ATOM     86  F   UNL A   1      43.642  25.646  35.112  1.00  0.00    -0.203 F 
ATOM     87  F   UNL A   1      48.283  28.509  34.928  1.00  0.00    -0.200 F 
ATOM     88  C   UNL A   1      47.056  26.667  35.751  1.00  0.00     0.200 A 
ATOM     89  F   UNL A   1      45.793  24.833  36.536  1.00  0.00    -0.200 F 
ATOM     90  F   UNL A   1      48.125  26.241  36.436  1.00  0.00    -0.200 F 
ENDBRANCH  57  80
ENDBRANCH  31  32
ENDBRANCH  23  26
ENDBRANCH   1  22
TORSDOF 10
ENDMDL
