MODEL 1
REMARK VINA RESULT:     -13.2      0.000      0.000
REMARK SMILES COc1ccc2c(c1)C(=O)N(c1ccccc1C(=O)NCCCNC(=O)c1ccc(-c3c4nc(c(-c5c(F)c(F)c(F)c(F)c5F)c5ccc([nH]5)c(-c5c(F)c(F)c(F)c(F)c5F)c5nc(c(-c6c(F)c(F)c(F)c(F)c6F)c6ccc3[nH]6)C=C5)C=C4)cc1)C2=O
REMARK SMILES IDX 22 1 21 2 20 3 18 4 19 5 17 7 12 8 13 9 14 10 16 11 15 12
REMARK SMILES IDX 11 13 3 14 4 15 8 16 5 17 7 18 6 19 9 20 90 21 10 22 91 23
REMARK SMILES IDX 2 24 1 25 23 26 24 27 25 28 26 30 27 31 28 32 89 33 29 34
REMARK SMILES IDX 88 35 30 36 31 37 32 38 82 39 33 40 87 41 81 42 83 43 34 44
REMARK SMILES IDX 86 45 80 46 79 47 35 49 67 50 47 51 66 52 48 53 51 54 65 55
REMARK SMILES IDX 84 56 49 57 50 58 64 60 85 61 52 62 36 63 37 64 45 65 38 66
REMARK SMILES IDX 39 67 43 68 46 69 40 70 41 71 44 72 42 73 68 74 69 75 77 76
REMARK SMILES IDX 70 77 71 78 75 79 78 80 72 81 73 82 76 83 74 84 53 85 54 86
REMARK SMILES IDX 62 87 55 88 56 89 60 90 63 91 57 92 58 93 61 94 59 95
REMARK H PARENT 20 6 24 29 83 48 51 59
REMARK Flexibility Score: inf
ROOT
ATOM      1  C   UNL A   1      37.824  20.005  24.967  1.00  0.00     0.042 C 
ENDROOT
BRANCH   1   2
ATOM      2  C   UNL A   1      36.763  21.082  25.038  1.00  0.00     0.118 C 
BRANCH   2   3
ATOM      3  N   UNL A   1      36.515  21.882  23.876  1.00  0.00    -0.352 N 
ATOM      4  C   UNL A   1      35.744  23.014  23.726  1.00  0.00     0.253 C 
ATOM      5  O   UNL A   1      35.911  23.620  22.661  1.00  0.00    -0.269 OA
ATOM      6  H   UNL A   1      36.966  21.575  23.056  1.00  0.00     0.163 HD
BRANCH   4   7
ATOM      7  C   UNL A   1      34.640  23.480  24.642  1.00  0.00     0.064 A 
ATOM      8  C   UNL A   1      33.495  22.823  25.154  1.00  0.00     0.065 A 
ATOM      9  C   UNL A   1      32.563  23.565  25.925  1.00  0.00     0.028 A 
ATOM     10  C   UNL A   1      32.750  24.911  26.227  1.00  0.00     0.002 A 
ATOM     11  C   UNL A   1      34.793  24.856  24.968  1.00  0.00     0.016 A 
ATOM     12  C   UNL A   1      33.871  25.560  25.749  1.00  0.00     0.001 A 
BRANCH   8  13
ATOM     13  N   UNL A   1      33.137  21.471  24.953  1.00  0.00    -0.241 N 
ATOM     14  C   UNL A   1      33.033  16.919  24.451  1.00  0.00     0.119 A 
ATOM     15  C   UNL A   1      32.732  17.308  23.126  1.00  0.00     0.047 A 
ATOM     16  C   UNL A   1      33.167  17.880  25.461  1.00  0.00     0.061 A 
ATOM     17  C   UNL A   1      32.528  18.647  22.793  1.00  0.00     0.018 A 
ATOM     18  C   UNL A   1      32.979  19.206  25.106  1.00  0.00     0.057 A 
ATOM     19  C   UNL A   1      32.645  19.568  23.814  1.00  0.00     0.053 A 
ATOM     20  C   UNL A   1      33.289  20.440  25.848  1.00  0.00     0.266 C 
ATOM     21  C   UNL A   1      32.667  21.022  23.734  1.00  0.00     0.266 C 
ATOM     22  O   UNL A   1      33.653  20.453  27.008  1.00  0.00    -0.268 OA
ATOM     23  O   UNL A   1      32.423  21.624  22.706  1.00  0.00    -0.268 OA
BRANCH  14  24
ATOM     24  O   UNL A   1      33.215  15.571  24.594  1.00  0.00    -0.497 OA
ATOM     25  C   UNL A   1      32.528  14.934  25.665  1.00  0.00     0.278 C 
ENDBRANCH  14  24
ENDBRANCH   8  13
ENDBRANCH   4   7
ENDBRANCH   2   3
ENDBRANCH   1   2
BRANCH   1  26
ATOM     26  C   UNL A   1      38.805  19.977  26.126  1.00  0.00     0.118 C 
BRANCH  26  27
ATOM     27  N   UNL A   1      40.023  19.203  25.890  1.00  0.00    -0.352 N 
ATOM     28  C   UNL A   1      41.367  19.486  25.977  1.00  0.00     0.251 C 
ATOM     29  H   UNL A   1      39.842  18.277  25.608  1.00  0.00     0.163 HD
ATOM     30  O   UNL A   1      42.174  18.597  25.707  1.00  0.00    -0.269 OA
BRANCH  28  31
ATOM     31  C   UNL A   1      41.878  20.827  26.350  1.00  0.00     0.039 A 
ATOM     32  C   UNL A   1      42.279  21.067  27.673  1.00  0.00     0.014 A 
ATOM     33  C   UNL A   1      41.918  21.874  25.436  1.00  0.00     0.014 A 
ATOM     34  C   UNL A   1      42.795  22.316  28.043  1.00  0.00     0.010 A 
ATOM     35  C   UNL A   1      42.548  23.067  25.764  1.00  0.00     0.010 A 
ATOM     36  C   UNL A   1      42.972  23.315  27.077  1.00  0.00    -0.014 A 
BRANCH  36  37
ATOM     37  C   UNL A   1      43.515  24.661  27.391  1.00  0.00     0.031 A 
ATOM     38  C   UNL A   1      42.595  25.705  27.966  1.00  0.00     0.074 A 
ATOM     39  C   UNL A   1      44.777  24.985  27.054  1.00  0.00     0.049 A 
ATOM     40  N   UNL A   1      42.777  26.993  28.109  1.00  0.00    -0.248 NA
ATOM     41  C   UNL A   1      41.261  25.240  28.382  1.00  0.00     0.031 C 
ATOM     42  C   UNL A   1      45.758  24.076  26.461  1.00  0.00     0.029 A 
ATOM     43  N   UNL A   1      45.442  26.182  27.142  1.00  0.00    -0.354 N 
ATOM     44  C   UNL A   1      41.568  27.493  28.579  1.00  0.00     0.074 A 
ATOM     45  C   UNL A   1      40.643  26.383  28.634  1.00  0.00     0.031 C 
ATOM     46  C   UNL A   1      46.907  24.742  26.260  1.00  0.00     0.029 A 
ATOM     47  C   UNL A   1      46.729  26.133  26.666  1.00  0.00     0.049 A 
ATOM     48  H   UNL A   1      45.035  26.999  27.512  1.00  0.00     0.167 HD
ATOM     49  C   UNL A   1      41.263  28.756  28.960  1.00  0.00     0.037 A 
ATOM     50  C   UNL A   1      47.653  27.106  26.560  1.00  0.00     0.037 A 
ATOM     51  C   UNL A   1      42.206  29.842  28.955  1.00  0.00     0.049 A 
ATOM     52  C   UNL A   1      47.301  28.502  26.999  1.00  0.00     0.074 A 
ATOM     53  C   UNL A   1      42.032  31.144  29.388  1.00  0.00     0.029 A 
ATOM     54  N   UNL A   1      43.514  29.743  28.500  1.00  0.00    -0.354 N 
ATOM     55  N   UNL A   1      46.172  28.958  27.485  1.00  0.00    -0.248 NA
ATOM     56  C   UNL A   1      48.354  29.519  26.876  1.00  0.00     0.031 C 
ATOM     57  C   UNL A   1      43.222  31.842  29.160  1.00  0.00     0.029 A 
ATOM     58  C   UNL A   1      44.155  30.964  28.628  1.00  0.00     0.049 A 
ATOM     59  H   UNL A   1      43.926  28.924  28.140  1.00  0.00     0.167 HD
ATOM     60  C   UNL A   1      46.385  30.302  27.755  1.00  0.00     0.074 A 
ATOM     61  C   UNL A   1      47.758  30.587  27.386  1.00  0.00     0.031 C 
ATOM     62  C   UNL A   1      45.525  31.220  28.264  1.00  0.00     0.037 A 
BRANCH  49  63
ATOM     63  C   UNL A   1      39.853  29.018  29.411  1.00  0.00     0.064 A 
ATOM     64  C   UNL A   1      39.456  28.826  30.744  1.00  0.00     0.173 A 
ATOM     65  C   UNL A   1      38.878  29.441  28.495  1.00  0.00     0.173 A 
ATOM     66  F   UNL A   1      40.343  28.409  31.660  1.00  0.00    -0.203 F 
ATOM     67  C   UNL A   1      38.128  28.993  31.130  1.00  0.00     0.198 A 
ATOM     68  C   UNL A   1      37.558  29.644  28.893  1.00  0.00     0.198 A 
ATOM     69  F   UNL A   1      39.201  29.648  27.210  1.00  0.00    -0.203 F 
ATOM     70  F   UNL A   1      37.761  28.723  32.390  1.00  0.00    -0.200 F 
ATOM     71  C   UNL A   1      37.182  29.405  30.205  1.00  0.00     0.200 A 
ATOM     72  F   UNL A   1      36.647  30.055  28.001  1.00  0.00    -0.200 F 
ATOM     73  F   UNL A   1      35.903  29.557  30.576  1.00  0.00    -0.200 F 
ENDBRANCH  49  63
BRANCH  50  74
ATOM     74  C   UNL A   1      49.015  26.781  26.062  1.00  0.00     0.064 A 
ATOM     75  C   UNL A   1      49.344  26.989  24.715  1.00  0.00     0.173 A 
ATOM     76  C   UNL A   1      50.015  26.283  26.909  1.00  0.00     0.173 A 
ATOM     77  F   UNL A   1      48.416  27.446  23.863  1.00  0.00    -0.203 F 
ATOM     78  C   UNL A   1      50.619  26.703  24.233  1.00  0.00     0.198 A 
ATOM     79  C   UNL A   1      51.297  26.019  26.430  1.00  0.00     0.198 A 
ATOM     80  F   UNL A   1      49.752  26.072  28.207  1.00  0.00    -0.203 F 
ATOM     81  F   UNL A   1      50.897  26.882  22.934  1.00  0.00    -0.200 F 
ATOM     82  C   UNL A   1      51.597  26.224  25.091  1.00  0.00     0.200 A 
ATOM     83  F   UNL A   1      52.243  25.571  27.265  1.00  0.00    -0.200 F 
ATOM     84  F   UNL A   1      52.826  25.959  24.629  1.00  0.00    -0.200 F 
ENDBRANCH  50  74
BRANCH  62  85
ATOM     85  C   UNL A   1      46.054  32.605  28.489  1.00  0.00     0.064 A 
ATOM     86  C   UNL A   1      46.688  32.968  29.685  1.00  0.00     0.173 A 
ATOM     87  C   UNL A   1      45.964  33.569  27.472  1.00  0.00     0.173 A 
ATOM     88  F   UNL A   1      46.784  32.086  30.692  1.00  0.00    -0.203 F 
ATOM     89  C   UNL A   1      47.196  34.252  29.864  1.00  0.00     0.198 A 
ATOM     90  C   UNL A   1      46.498  34.842  27.643  1.00  0.00     0.198 A 
ATOM     91  F   UNL A   1      45.372  33.269  26.306  1.00  0.00    -0.203 F 
ATOM     92  F   UNL A   1      47.761  34.591  31.032  1.00  0.00    -0.200 F 
ATOM     93  C   UNL A   1      47.108  35.184  28.840  1.00  0.00     0.200 A 
ATOM     94  F   UNL A   1      46.425  35.738  26.649  1.00  0.00    -0.200 F 
ATOM     95  F   UNL A   1      47.606  36.417  29.011  1.00  0.00    -0.200 F 
ENDBRANCH  62  85
ENDBRANCH  36  37
ENDBRANCH  28  31
ENDBRANCH  26  27
ENDBRANCH   1  26
TORSDOF 12
ENDMDL
MODEL 2
REMARK VINA RESULT:     -13.2      1.450      3.648
REMARK SMILES COc1ccc2c(c1)C(=O)N(c1ccccc1C(=O)NCCCNC(=O)c1ccc(-c3c4nc(c(-c5c(F)c(F)c(F)c(F)c5F)c5ccc([nH]5)c(-c5c(F)c(F)c(F)c(F)c5F)c5nc(c(-c6c(F)c(F)c(F)c(F)c6F)c6ccc3[nH]6)C=C5)C=C4)cc1)C2=O
REMARK SMILES IDX 22 1 21 2 20 3 18 4 19 5 17 7 12 8 13 9 14 10 16 11 15 12
REMARK SMILES IDX 11 13 3 14 4 15 8 16 5 17 7 18 6 19 9 20 90 21 10 22 91 23
REMARK SMILES IDX 2 24 1 25 23 26 24 27 25 28 26 30 27 31 28 32 89 33 29 34
REMARK SMILES IDX 88 35 30 36 31 37 32 38 82 39 33 40 87 41 81 42 83 43 34 44
REMARK SMILES IDX 86 45 80 46 79 47 35 49 67 50 47 51 66 52 48 53 51 54 65 55
REMARK SMILES IDX 84 56 49 57 50 58 64 60 85 61 52 62 36 63 37 64 45 65 38 66
REMARK SMILES IDX 39 67 43 68 46 69 40 70 41 71 44 72 42 73 68 74 69 75 77 76
REMARK SMILES IDX 70 77 71 78 75 79 78 80 72 81 73 82 76 83 74 84 53 85 54 86
REMARK SMILES IDX 62 87 55 88 56 89 60 90 63 91 57 92 58 93 61 94 59 95
REMARK H PARENT 20 6 24 29 83 48 51 59
REMARK Flexibility Score: inf
ROOT
ATOM      1  C   UNL A   1      37.928  19.949  24.782  1.00  0.00     0.042 C 
ENDROOT
BRANCH   1   2
ATOM      2  C   UNL A   1      37.096  21.200  24.607  1.00  0.00     0.118 C 
BRANCH   2   3
ATOM      3  N   UNL A   1      36.163  21.557  25.634  1.00  0.00    -0.352 N 
ATOM      4  C   UNL A   1      34.854  21.169  25.819  1.00  0.00     0.253 C 
ATOM      5  O   UNL A   1      34.378  21.453  26.923  1.00  0.00    -0.269 OA
ATOM      6  H   UNL A   1      36.512  22.178  26.314  1.00  0.00     0.163 HD
BRANCH   4   7
ATOM      7  C   UNL A   1      33.932  20.586  24.777  1.00  0.00     0.064 A 
ATOM      8  C   UNL A   1      32.952  21.177  23.944  1.00  0.00     0.065 A 
ATOM      9  C   UNL A   1      32.153  20.342  23.121  1.00  0.00     0.028 A 
ATOM     10  C   UNL A   1      32.322  18.961  23.075  1.00  0.00     0.002 A 
ATOM     11  C   UNL A   1      34.070  19.172  24.705  1.00  0.00     0.016 A 
ATOM     12  C   UNL A   1      33.286  18.372  23.870  1.00  0.00     0.001 A 
BRANCH   8  13
ATOM     13  N   UNL A   1      32.637  22.552  23.856  1.00  0.00    -0.241 N 
ATOM     14  C   UNL A   1      30.682  26.637  23.171  1.00  0.00     0.119 A 
ATOM     15  C   UNL A   1      31.700  26.697  22.192  1.00  0.00     0.047 A 
ATOM     16  C   UNL A   1      30.600  25.547  24.045  1.00  0.00     0.061 A 
ATOM     17  C   UNL A   1      32.668  25.698  22.091  1.00  0.00     0.018 A 
ATOM     18  C   UNL A   1      31.559  24.555  23.917  1.00  0.00     0.057 A 
ATOM     19  C   UNL A   1      32.574  24.647  22.982  1.00  0.00     0.053 A 
ATOM     20  C   UNL A   1      31.606  23.199  24.491  1.00  0.00     0.266 C 
ATOM     21  C   UNL A   1      33.316  23.395  22.998  1.00  0.00     0.266 C 
ATOM     22  O   UNL A   1      30.815  22.794  25.321  1.00  0.00    -0.268 OA
ATOM     23  O   UNL A   1      34.264  23.187  22.264  1.00  0.00    -0.268 OA
BRANCH  14  24
ATOM     24  O   UNL A   1      29.813  27.692  23.116  1.00  0.00    -0.497 OA
ATOM     25  C   UNL A   1      30.225  28.835  22.376  1.00  0.00     0.278 C 
ENDBRANCH  14  24
ENDBRANCH   8  13
ENDBRANCH   4   7
ENDBRANCH   2   3
ENDBRANCH   1   2
BRANCH   1  26
ATOM     26  C   UNL A   1      38.858  19.944  25.982  1.00  0.00     0.118 C 
BRANCH  26  27
ATOM     27  N   UNL A   1      40.079  19.156  25.819  1.00  0.00    -0.352 N 
ATOM     28  C   UNL A   1      41.419  19.430  25.966  1.00  0.00     0.251 C 
ATOM     29  H   UNL A   1      39.903  18.227  25.545  1.00  0.00     0.163 HD
ATOM     30  O   UNL A   1      42.230  18.531  25.751  1.00  0.00    -0.269 OA
BRANCH  28  31
ATOM     31  C   UNL A   1      41.923  20.773  26.339  1.00  0.00     0.039 A 
ATOM     32  C   UNL A   1      42.298  21.022  27.669  1.00  0.00     0.014 A 
ATOM     33  C   UNL A   1      41.981  21.814  25.420  1.00  0.00     0.014 A 
ATOM     34  C   UNL A   1      42.808  22.273  28.040  1.00  0.00     0.010 A 
ATOM     35  C   UNL A   1      42.605  23.010  25.753  1.00  0.00     0.010 A 
ATOM     36  C   UNL A   1      43.003  23.266  27.072  1.00  0.00    -0.014 A 
BRANCH  36  37
ATOM     37  C   UNL A   1      43.541  24.614  27.388  1.00  0.00     0.031 A 
ATOM     38  C   UNL A   1      42.616  25.654  27.962  1.00  0.00     0.074 A 
ATOM     39  C   UNL A   1      44.802  24.943  27.052  1.00  0.00     0.049 A 
ATOM     40  N   UNL A   1      42.792  26.943  28.105  1.00  0.00    -0.248 NA
ATOM     41  C   UNL A   1      41.283  25.184  28.375  1.00  0.00     0.031 C 
ATOM     42  C   UNL A   1      45.787  24.039  26.460  1.00  0.00     0.029 A 
ATOM     43  N   UNL A   1      45.462  26.143  27.142  1.00  0.00    -0.354 N 
ATOM     44  C   UNL A   1      41.580  27.437  28.574  1.00  0.00     0.074 A 
ATOM     45  C   UNL A   1      40.660  26.323  28.628  1.00  0.00     0.031 C 
ATOM     46  C   UNL A   1      46.934  24.709  26.260  1.00  0.00     0.029 A 
ATOM     47  C   UNL A   1      46.749  26.100  26.667  1.00  0.00     0.049 A 
ATOM     48  H   UNL A   1      45.051  26.958  27.512  1.00  0.00     0.167 HD
ATOM     49  C   UNL A   1      41.270  28.699  28.955  1.00  0.00     0.037 A 
ATOM     50  C   UNL A   1      47.670  27.077  26.563  1.00  0.00     0.037 A 
ATOM     51  C   UNL A   1      42.209  29.788  28.953  1.00  0.00     0.049 A 
ATOM     52  C   UNL A   1      47.311  28.471  27.003  1.00  0.00     0.074 A 
ATOM     53  C   UNL A   1      42.028  31.090  29.386  1.00  0.00     0.029 A 
ATOM     54  N   UNL A   1      43.518  29.695  28.500  1.00  0.00    -0.354 N 
ATOM     55  N   UNL A   1      46.180  28.921  27.487  1.00  0.00    -0.248 NA
ATOM     56  C   UNL A   1      48.361  29.492  26.882  1.00  0.00     0.031 C 
ATOM     57  C   UNL A   1      43.217  31.793  29.160  1.00  0.00     0.029 A 
ATOM     58  C   UNL A   1      44.153  30.919  28.629  1.00  0.00     0.049 A 
ATOM     59  H   UNL A   1      43.933  28.879  28.140  1.00  0.00     0.167 HD
ATOM     60  C   UNL A   1      46.387  30.267  27.758  1.00  0.00     0.074 A 
ATOM     61  C   UNL A   1      47.759  30.557  27.391  1.00  0.00     0.031 C 
ATOM     62  C   UNL A   1      45.523  31.180  28.267  1.00  0.00     0.037 A 
BRANCH  49  63
ATOM     63  C   UNL A   1      39.858  28.955  29.405  1.00  0.00     0.064 A 
ATOM     64  C   UNL A   1      39.460  28.758  30.737  1.00  0.00     0.173 A 
ATOM     65  C   UNL A   1      38.884  29.377  28.489  1.00  0.00     0.173 A 
ATOM     66  F   UNL A   1      40.347  28.342  31.653  1.00  0.00    -0.203 F 
ATOM     67  C   UNL A   1      38.131  28.920  31.121  1.00  0.00     0.198 A 
ATOM     68  C   UNL A   1      37.562  29.575  28.885  1.00  0.00     0.198 A 
ATOM     69  F   UNL A   1      39.208  29.588  27.204  1.00  0.00    -0.203 F 
ATOM     70  F   UNL A   1      37.762  28.645  32.380  1.00  0.00    -0.200 F 
ATOM     71  C   UNL A   1      37.184  29.331  30.196  1.00  0.00     0.200 A 
ATOM     72  F   UNL A   1      36.651  29.985  27.992  1.00  0.00    -0.200 F 
ATOM     73  F   UNL A   1      35.905  29.477  30.565  1.00  0.00    -0.200 F 
ENDBRANCH  49  63
BRANCH  50  74
ATOM     74  C   UNL A   1      49.034  26.757  26.067  1.00  0.00     0.064 A 
ATOM     75  C   UNL A   1      49.996  26.224  26.937  1.00  0.00     0.173 A 
ATOM     76  C   UNL A   1      49.401  26.952  24.728  1.00  0.00     0.173 A 
ATOM     77  F   UNL A   1      49.699  26.039  28.231  1.00  0.00    -0.203 F 
ATOM     78  C   UNL A   1      51.276  25.907  26.488  1.00  0.00     0.198 A 
ATOM     79  C   UNL A   1      50.674  26.611  24.275  1.00  0.00     0.198 A 
ATOM     80  F   UNL A   1      48.514  27.453  23.855  1.00  0.00    -0.203 F 
ATOM     81  F   UNL A   1      52.185  25.428  27.348  1.00  0.00    -0.200 F 
ATOM     82  C   UNL A   1      51.612  26.094  25.156  1.00  0.00     0.200 A 
ATOM     83  F   UNL A   1      50.991  26.779  22.984  1.00  0.00    -0.200 F 
ATOM     84  F   UNL A   1      52.840  25.778  24.721  1.00  0.00    -0.200 F 
ENDBRANCH  50  74
BRANCH  62  85
ATOM     85  C   UNL A   1      46.046  32.568  28.494  1.00  0.00     0.064 A 
ATOM     86  C   UNL A   1      45.940  33.565  27.514  1.00  0.00     0.173 A 
ATOM     87  C   UNL A   1      46.618  32.914  29.727  1.00  0.00     0.173 A 
ATOM     88  F   UNL A   1      45.415  33.278  26.313  1.00  0.00    -0.203 F 
ATOM     89  C   UNL A   1      46.407  34.855  27.754  1.00  0.00     0.198 A 
ATOM     90  C   UNL A   1      47.056  34.211  29.974  1.00  0.00     0.198 A 
ATOM     91  F   UNL A   1      46.736  31.998  30.700  1.00  0.00    -0.203 F 
ATOM     92  F   UNL A   1      46.335  35.782  26.788  1.00  0.00    -0.200 F 
ATOM     93  C   UNL A   1      46.957  35.178  28.986  1.00  0.00     0.200 A 
ATOM     94  F   UNL A   1      47.575  34.527  31.169  1.00  0.00    -0.200 F 
ATOM     95  F   UNL A   1      47.397  36.423  29.217  1.00  0.00    -0.200 F 
ENDBRANCH  62  85
ENDBRANCH  36  37
ENDBRANCH  28  31
ENDBRANCH  26  27
ENDBRANCH   1  26
TORSDOF 12
ENDMDL
MODEL 3
REMARK VINA RESULT:     -13.2      1.451      3.274
REMARK SMILES COc1ccc2c(c1)C(=O)N(c1ccccc1C(=O)NCCCNC(=O)c1ccc(-c3c4nc(c(-c5c(F)c(F)c(F)c(F)c5F)c5ccc([nH]5)c(-c5c(F)c(F)c(F)c(F)c5F)c5nc(c(-c6c(F)c(F)c(F)c(F)c6F)c6ccc3[nH]6)C=C5)C=C4)cc1)C2=O
REMARK SMILES IDX 22 1 21 2 20 3 18 4 19 5 17 7 12 8 13 9 14 10 16 11 15 12
REMARK SMILES IDX 11 13 3 14 4 15 8 16 5 17 7 18 6 19 9 20 90 21 10 22 91 23
REMARK SMILES IDX 2 24 1 25 23 26 24 27 25 28 26 30 27 31 28 32 89 33 29 34
REMARK SMILES IDX 88 35 30 36 31 37 32 38 82 39 33 40 87 41 81 42 83 43 34 44
REMARK SMILES IDX 86 45 80 46 79 47 35 49 67 50 47 51 66 52 48 53 51 54 65 55
REMARK SMILES IDX 84 56 49 57 50 58 64 60 85 61 52 62 36 63 37 64 45 65 38 66
REMARK SMILES IDX 39 67 43 68 46 69 40 70 41 71 44 72 42 73 68 74 69 75 77 76
REMARK SMILES IDX 70 77 71 78 75 79 78 80 72 81 73 82 76 83 74 84 53 85 54 86
REMARK SMILES IDX 62 87 55 88 56 89 60 90 63 91 57 92 58 93 61 94 59 95
REMARK H PARENT 20 6 24 29 83 48 51 59
REMARK Flexibility Score: inf
ROOT
ATOM      1  C   UNL A   1      38.042  19.988  24.731  1.00  0.00     0.042 C 
ENDROOT
BRANCH   1   2
ATOM      2  C   UNL A   1      37.339  21.316  24.554  1.00  0.00     0.118 C 
BRANCH   2   3
ATOM      3  N   UNL A   1      36.439  21.762  25.575  1.00  0.00    -0.352 N 
ATOM      4  C   UNL A   1      35.137  21.394  25.834  1.00  0.00     0.253 C 
ATOM      5  O   UNL A   1      34.695  21.772  26.925  1.00  0.00    -0.269 OA
ATOM      6  H   UNL A   1      36.809  22.438  26.188  1.00  0.00     0.163 HD
BRANCH   4   7
ATOM      7  C   UNL A   1      34.182  20.726  24.875  1.00  0.00     0.064 A 
ATOM      8  C   UNL A   1      33.154  21.242  24.051  1.00  0.00     0.065 A 
ATOM      9  C   UNL A   1      32.338  20.339  23.322  1.00  0.00     0.028 A 
ATOM     10  C   UNL A   1      32.534  18.962  23.358  1.00  0.00     0.002 A 
ATOM     11  C   UNL A   1      34.348  19.313  24.890  1.00  0.00     0.016 A 
ATOM     12  C   UNL A   1      33.545  18.445  24.145  1.00  0.00     0.001 A 
BRANCH   8  13
ATOM     13  N   UNL A   1      32.806  22.602  23.888  1.00  0.00    -0.241 N 
ATOM     14  C   UNL A   1      30.783  26.594  22.912  1.00  0.00     0.119 A 
ATOM     15  C   UNL A   1      31.863  26.650  22.002  1.00  0.00     0.047 A 
ATOM     16  C   UNL A   1      30.675  25.536  23.822  1.00  0.00     0.061 A 
ATOM     17  C   UNL A   1      32.864  25.679  22.006  1.00  0.00     0.018 A 
ATOM     18  C   UNL A   1      31.668  24.571  23.798  1.00  0.00     0.057 A 
ATOM     19  C   UNL A   1      32.741  24.660  22.929  1.00  0.00     0.053 A 
ATOM     20  C   UNL A   1      31.715  23.240  24.426  1.00  0.00     0.266 C 
ATOM     21  C   UNL A   1      33.516  23.433  23.044  1.00  0.00     0.266 C 
ATOM     22  O   UNL A   1      30.882  22.841  25.217  1.00  0.00    -0.268 OA
ATOM     23  O   UNL A   1      34.518  23.228  22.384  1.00  0.00    -0.268 OA
BRANCH  14  24
ATOM     24  O   UNL A   1      29.890  27.618  22.759  1.00  0.00    -0.497 OA
ATOM     25  C   UNL A   1      30.421  28.934  22.655  1.00  0.00     0.278 C 
ENDBRANCH  14  24
ENDBRANCH   8  13
ENDBRANCH   4   7
ENDBRANCH   2   3
ENDBRANCH   1   2
BRANCH   1  26
ATOM     26  C   UNL A   1      38.890  19.859  25.985  1.00  0.00     0.118 C 
BRANCH  26  27
ATOM     27  N   UNL A   1      40.113  19.072  25.830  1.00  0.00    -0.352 N 
ATOM     28  C   UNL A   1      41.451  19.346  25.991  1.00  0.00     0.251 C 
ATOM     29  H   UNL A   1      39.940  18.145  25.548  1.00  0.00     0.163 HD
ATOM     30  O   UNL A   1      42.265  18.448  25.779  1.00  0.00    -0.269 OA
BRANCH  28  31
ATOM     31  C   UNL A   1      41.951  20.687  26.377  1.00  0.00     0.039 A 
ATOM     32  C   UNL A   1      42.280  20.939  27.718  1.00  0.00     0.014 A 
ATOM     33  C   UNL A   1      42.049  21.724  25.456  1.00  0.00     0.014 A 
ATOM     34  C   UNL A   1      42.785  22.188  28.102  1.00  0.00     0.010 A 
ATOM     35  C   UNL A   1      42.669  22.916  25.806  1.00  0.00     0.010 A 
ATOM     36  C   UNL A   1      43.022  23.175  27.137  1.00  0.00    -0.014 A 
BRANCH  36  37
ATOM     37  C   UNL A   1      43.558  24.521  27.467  1.00  0.00     0.031 A 
ATOM     38  C   UNL A   1      42.625  25.562  28.027  1.00  0.00     0.074 A 
ATOM     39  C   UNL A   1      44.825  24.848  27.155  1.00  0.00     0.049 A 
ATOM     40  N   UNL A   1      42.802  26.850  28.178  1.00  0.00    -0.248 NA
ATOM     41  C   UNL A   1      41.284  25.094  28.416  1.00  0.00     0.031 C 
ATOM     42  C   UNL A   1      45.819  23.943  26.578  1.00  0.00     0.029 A 
ATOM     43  N   UNL A   1      45.487  26.045  27.260  1.00  0.00    -0.354 N 
ATOM     44  C   UNL A   1      41.584  27.346  28.627  1.00  0.00     0.074 A 
ATOM     45  C   UNL A   1      40.660  26.234  28.660  1.00  0.00     0.031 C 
ATOM     46  C   UNL A   1      46.971  24.610  26.401  1.00  0.00     0.029 A 
ATOM     47  C   UNL A   1      46.783  26.000  26.808  1.00  0.00     0.049 A 
ATOM     48  H   UNL A   1      45.072  26.860  27.625  1.00  0.00     0.167 HD
ATOM     49  C   UNL A   1      41.270  28.608  29.006  1.00  0.00     0.037 A 
ATOM     50  C   UNL A   1      47.708  26.975  26.724  1.00  0.00     0.037 A 
ATOM     51  C   UNL A   1      42.212  29.694  29.023  1.00  0.00     0.049 A 
ATOM     52  C   UNL A   1      47.345  28.368  27.161  1.00  0.00     0.074 A 
ATOM     53  C   UNL A   1      42.027  30.995  29.458  1.00  0.00     0.029 A 
ATOM     54  N   UNL A   1      43.529  29.599  28.594  1.00  0.00    -0.354 N 
ATOM     55  N   UNL A   1      46.206  28.821  27.627  1.00  0.00    -0.248 NA
ATOM     56  C   UNL A   1      48.399  29.387  27.062  1.00  0.00     0.031 C 
ATOM     57  C   UNL A   1      43.221  31.695  29.255  1.00  0.00     0.029 A 
ATOM     58  C   UNL A   1      44.165  30.820  28.738  1.00  0.00     0.049 A 
ATOM     59  H   UNL A   1      43.948  28.782  28.239  1.00  0.00     0.167 HD
ATOM     60  C   UNL A   1      46.412  30.164  27.905  1.00  0.00     0.074 A 
ATOM     61  C   UNL A   1      47.791  30.452  27.564  1.00  0.00     0.031 C 
ATOM     62  C   UNL A   1      45.542  31.079  28.402  1.00  0.00     0.037 A 
BRANCH  49  63
ATOM     63  C   UNL A   1      39.851  28.866  29.431  1.00  0.00     0.064 A 
ATOM     64  C   UNL A   1      39.430  28.670  30.756  1.00  0.00     0.173 A 
ATOM     65  C   UNL A   1      38.894  29.290  28.498  1.00  0.00     0.173 A 
ATOM     66  F   UNL A   1      40.300  28.252  31.687  1.00  0.00    -0.203 F 
ATOM     67  C   UNL A   1      38.094  28.834  31.117  1.00  0.00     0.198 A 
ATOM     68  C   UNL A   1      37.566  29.490  28.871  1.00  0.00     0.198 A 
ATOM     69  F   UNL A   1      39.241  29.501  27.219  1.00  0.00    -0.203 F 
ATOM     70  F   UNL A   1      37.703  28.560  32.369  1.00  0.00    -0.200 F 
ATOM     71  C   UNL A   1      37.165  29.247  30.175  1.00  0.00     0.200 A 
ATOM     72  F   UNL A   1      36.671  29.902  27.963  1.00  0.00    -0.200 F 
ATOM     73  F   UNL A   1      35.879  29.396  30.522  1.00  0.00    -0.200 F 
ENDBRANCH  49  63
BRANCH  50  74
ATOM     74  C   UNL A   1      49.079  26.653  26.251  1.00  0.00     0.064 A 
ATOM     75  C   UNL A   1      49.442  26.891  24.918  1.00  0.00     0.173 A 
ATOM     76  C   UNL A   1      50.056  26.128  27.109  1.00  0.00     0.173 A 
ATOM     77  F   UNL A   1      48.537  27.374  24.055  1.00  0.00    -0.203 F 
ATOM     78  C   UNL A   1      50.727  26.609  24.459  1.00  0.00     0.198 A 
ATOM     79  C   UNL A   1      51.348  25.868  26.655  1.00  0.00     0.198 A 
ATOM     80  F   UNL A   1      49.760  25.888  28.395  1.00  0.00    -0.203 F 
ATOM     81  F   UNL A   1      51.037  26.817  23.173  1.00  0.00    -0.200 F 
ATOM     82  C   UNL A   1      51.680  26.103  25.329  1.00  0.00     0.200 A 
ATOM     83  F   UNL A   1      52.271  25.394  27.502  1.00  0.00    -0.200 F 
ATOM     84  F   UNL A   1      52.919  25.841  24.890  1.00  0.00    -0.200 F 
ENDBRANCH  50  74
BRANCH  62  85
ATOM     85  C   UNL A   1      46.064  32.465  28.641  1.00  0.00     0.064 A 
ATOM     86  C   UNL A   1      46.668  32.826  29.853  1.00  0.00     0.173 A 
ATOM     87  C   UNL A   1      45.999  33.429  27.624  1.00  0.00     0.173 A 
ATOM     88  F   UNL A   1      46.740  31.943  30.861  1.00  0.00    -0.203 F 
ATOM     89  C   UNL A   1      47.171  34.110  30.046  1.00  0.00     0.198 A 
ATOM     90  C   UNL A   1      46.529  34.702  27.810  1.00  0.00     0.198 A 
ATOM     91  F   UNL A   1      45.436  33.131  26.444  1.00  0.00    -0.203 F 
ATOM     92  F   UNL A   1      47.706  34.447  31.229  1.00  0.00    -0.200 F 
ATOM     93  C   UNL A   1      47.108  35.044  29.022  1.00  0.00     0.200 A 
ATOM     94  F   UNL A   1      46.480  35.600  26.816  1.00  0.00    -0.200 F 
ATOM     95  F   UNL A   1      47.602  36.276  29.208  1.00  0.00    -0.200 F 
ENDBRANCH  62  85
ENDBRANCH  36  37
ENDBRANCH  28  31
ENDBRANCH  26  27
ENDBRANCH   1  26
TORSDOF 12
ENDMDL
