MODEL 1
REMARK VINA RESULT:     -13.2      0.000      0.000
REMARK SMILES Cn1ccc(CNC(=O)[C@@H]2[C@@H]3CC[C@@H](C3)[C@@H]2C(=O)NCCCNC(=O)c2ccc(-c3c4nc(c(-c5c(F)c(F)c(F)c(F)c5F)c5ccc([nH]5)c(-c5c(F)c(F)c(F)c(F)c5F)c5nc(c(-c6c(F)c(F)c(F)c(F)c6F)c6ccc3[nH]6)C=C5)C=C4)cc2)n1
REMARK SMILES IDX 20 1 19 2 17 3 18 4 16 6 10 7 11 8 12 9 15 10 14 11 13 12
REMARK SMILES IDX 8 13 7 14 9 16 6 17 5 18 1 19 2 20 3 21 89 22 4 23 21 24
REMARK SMILES IDX 22 25 23 26 24 27 25 29 26 30 27 31 88 32 28 33 87 34 29 35
REMARK SMILES IDX 30 36 31 37 81 38 32 39 86 40 80 41 82 42 33 43 85 44 79 45
REMARK SMILES IDX 78 46 34 48 66 49 46 50 65 51 47 52 50 53 64 54 83 55 48 56
REMARK SMILES IDX 49 57 63 59 84 60 51 61 35 62 36 63 44 64 37 65 38 66 42 67
REMARK SMILES IDX 45 68 39 69 40 70 43 71 41 72 67 73 68 74 76 75 69 76 70 77
REMARK SMILES IDX 74 78 77 79 71 80 72 81 75 82 73 83 52 84 53 85 61 86 54 87
REMARK SMILES IDX 55 88 59 89 62 90 56 91 57 92 60 93 58 94
REMARK H PARENT 19 5 7 15 23 28 82 47 50 58
REMARK Flexibility Score: inf
ROOT
ATOM      1  C   UNL A   1      36.760  20.941  25.217  1.00  0.00     0.117 C 
ENDROOT
BRANCH   1   2
ATOM      2  N   UNL A   1      36.548  21.843  24.105  1.00  0.00    -0.356 N 
ATOM      3  C   UNL A   1      35.726  22.905  23.916  1.00  0.00     0.224 C 
ATOM      4  O   UNL A   1      35.745  23.356  22.770  1.00  0.00    -0.275 OA
ATOM      5  H   UNL A   1      37.115  21.644  23.326  1.00  0.00     0.163 HD
BRANCH   3   6
ATOM      6  C   UNL A   1      34.741  23.391  24.979  1.00  0.00     0.094 C 
ATOM      7  C   UNL A   1      33.287  22.807  24.915  1.00  0.00     0.094 C 
ATOM      8  C   UNL A   1      32.396  24.086  24.953  1.00  0.00     0.002 C 
ATOM      9  C   UNL A   1      32.504  24.958  23.688  1.00  0.00     0.005 C 
ATOM     10  C   UNL A   1      33.187  24.952  25.928  1.00  0.00     0.009 C 
ATOM     11  C   UNL A   1      34.452  24.913  25.068  1.00  0.00     0.002 C 
ATOM     12  C   UNL A   1      33.954  25.440  23.715  1.00  0.00     0.005 C 
BRANCH   7  13
ATOM     13  C   UNL A   1      32.895  21.833  23.803  1.00  0.00     0.224 C 
ATOM     14  N   UNL A   1      32.818  20.503  24.066  1.00  0.00    -0.350 N 
ATOM     15  H   UNL A   1      32.501  19.948  23.317  1.00  0.00     0.163 HD
ATOM     16  O   UNL A   1      32.603  22.200  22.665  1.00  0.00    -0.275 OA
BRANCH  14  17
ATOM     17  C   UNL A   1      33.129  19.775  25.278  1.00  0.00     0.174 C 
BRANCH  17  18
ATOM     18  C   UNL A   1      33.301  18.330  24.939  1.00  0.00     0.082 A 
ATOM     19  C   UNL A   1      32.491  14.984  25.522  1.00  0.00     0.173 C 
ATOM     20  N   UNL A   1      33.033  16.231  25.040  1.00  0.00    -0.275 N 
ATOM     21  C   UNL A   1      33.817  16.419  23.942  1.00  0.00     0.108 A 
ATOM     22  N   UNL A   1      32.740  17.370  25.690  1.00  0.00    -0.176 NA
ATOM     23  C   UNL A   1      34.006  17.777  23.841  1.00  0.00     0.047 A 
ENDBRANCH  17  18
ENDBRANCH  14  17
ENDBRANCH   7  13
ENDBRANCH   3   6
ENDBRANCH   1   2
BRANCH   1  24
ATOM     24  C   UNL A   1      37.928  19.993  24.992  1.00  0.00     0.042 C 
BRANCH  24  25
ATOM     25  C   UNL A   1      39.186  20.320  25.782  1.00  0.00     0.118 C 
BRANCH  25  26
ATOM     26  N   UNL A   1      40.119  19.207  25.866  1.00  0.00    -0.352 N 
ATOM     27  C   UNL A   1      41.478  19.192  26.090  1.00  0.00     0.251 C 
ATOM     28  H   UNL A   1      39.714  18.318  25.741  1.00  0.00     0.163 HD
ATOM     29  O   UNL A   1      42.109  18.153  25.964  1.00  0.00    -0.269 OA
BRANCH  27  30
ATOM     30  C   UNL A   1      42.187  20.445  26.437  1.00  0.00     0.039 A 
ATOM     31  C   UNL A   1      42.774  21.193  25.413  1.00  0.00     0.014 A 
ATOM     32  C   UNL A   1      42.259  20.893  27.757  1.00  0.00     0.014 A 
ATOM     33  C   UNL A   1      43.332  22.441  25.699  1.00  0.00     0.010 A 
ATOM     34  C   UNL A   1      42.722  22.176  28.026  1.00  0.00     0.010 A 
ATOM     35  C   UNL A   1      43.251  22.971  26.998  1.00  0.00    -0.014 A 
BRANCH  35  36
ATOM     36  C   UNL A   1      43.678  24.362  27.297  1.00  0.00     0.031 A 
ATOM     37  C   UNL A   1      42.684  25.372  27.795  1.00  0.00     0.074 A 
ATOM     38  C   UNL A   1      44.946  24.737  27.030  1.00  0.00     0.049 A 
ATOM     39  N   UNL A   1      42.842  26.653  28.009  1.00  0.00    -0.248 NA
ATOM     40  C   UNL A   1      41.320  24.884  28.056  1.00  0.00     0.031 C 
ATOM     41  C   UNL A   1      45.991  23.865  26.493  1.00  0.00     0.029 A 
ATOM     42  N   UNL A   1      45.567  25.954  27.159  1.00  0.00    -0.354 N 
ATOM     43  C   UNL A   1      41.600  27.124  28.415  1.00  0.00     0.074 A 
ATOM     44  C   UNL A   1      40.685  26.005  28.364  1.00  0.00     0.031 C 
ATOM     45  C   UNL A   1      47.128  24.566  26.360  1.00  0.00     0.029 A 
ATOM     46  C   UNL A   1      46.881  25.949  26.756  1.00  0.00     0.049 A 
ATOM     47  H   UNL A   1      45.114  26.757  27.507  1.00  0.00     0.167 HD
ATOM     48  C   UNL A   1      41.261  28.372  28.817  1.00  0.00     0.037 A 
ATOM     49  C   UNL A   1      47.781  26.949  26.695  1.00  0.00     0.037 A 
ATOM     50  C   UNL A   1      42.181  29.477  28.891  1.00  0.00     0.049 A 
ATOM     51  C   UNL A   1      47.372  28.330  27.128  1.00  0.00     0.074 A 
ATOM     52  C   UNL A   1      41.953  30.760  29.358  1.00  0.00     0.029 A 
ATOM     53  N   UNL A   1      43.505  29.430  28.481  1.00  0.00    -0.354 N 
ATOM     54  N   UNL A   1      46.215  28.746  27.584  1.00  0.00    -0.248 NA
ATOM     55  C   UNL A   1      48.394  29.382  27.037  1.00  0.00     0.031 C 
ATOM     56  C   UNL A   1      43.124  31.504  29.180  1.00  0.00     0.029 A 
ATOM     57  C   UNL A   1      44.097  30.672  28.652  1.00  0.00     0.049 A 
ATOM     58  H   UNL A   1      43.958  28.633  28.122  1.00  0.00     0.167 HD
ATOM     59  C   UNL A   1      46.374  30.098  27.851  1.00  0.00     0.074 A 
ATOM     60  C   UNL A   1      47.745  30.430  27.528  1.00  0.00     0.031 C 
ATOM     61  C   UNL A   1      45.463  30.986  28.320  1.00  0.00     0.037 A 
BRANCH  48  62
ATOM     62  C   UNL A   1      39.833  28.612  29.214  1.00  0.00     0.064 A 
ATOM     63  C   UNL A   1      39.387  28.391  30.526  1.00  0.00     0.173 A 
ATOM     64  C   UNL A   1      38.908  29.107  28.282  1.00  0.00     0.173 A 
ATOM     65  F   UNL A   1      40.227  27.909  31.453  1.00  0.00    -0.203 F 
ATOM     66  C   UNL A   1      38.062  28.631  30.883  1.00  0.00     0.198 A 
ATOM     67  C   UNL A   1      37.592  29.375  28.650  1.00  0.00     0.198 A 
ATOM     68  F   UNL A   1      39.283  29.340  27.015  1.00  0.00    -0.203 F 
ATOM     69  F   UNL A   1      37.647  28.367  32.129  1.00  0.00    -0.200 F 
ATOM     70  C   UNL A   1      37.168  29.130  29.947  1.00  0.00     0.200 A 
ATOM     71  F   UNL A   1      36.733  29.870  27.748  1.00  0.00    -0.200 F 
ATOM     72  F   UNL A   1      35.895  29.368  30.295  1.00  0.00    -0.200 F 
ENDBRANCH  48  62
BRANCH  49  73
ATOM     73  C   UNL A   1      49.161  26.678  26.213  1.00  0.00     0.064 A 
ATOM     74  C   UNL A   1      49.515  26.907  24.876  1.00  0.00     0.173 A 
ATOM     75  C   UNL A   1      50.152  26.181  27.073  1.00  0.00     0.173 A 
ATOM     76  F   UNL A   1      48.597  27.362  24.010  1.00  0.00    -0.203 F 
ATOM     77  C   UNL A   1      50.800  26.633  24.414  1.00  0.00     0.198 A 
ATOM     78  C   UNL A   1      51.445  25.935  26.616  1.00  0.00     0.198 A 
ATOM     79  F   UNL A   1      49.867  25.948  28.363  1.00  0.00    -0.203 F 
ATOM     80  F   UNL A   1      51.097  26.819  23.121  1.00  0.00    -0.200 F 
ATOM     81  C   UNL A   1      51.766  26.153  25.285  1.00  0.00     0.200 A 
ATOM     82  F   UNL A   1      52.379  25.487  27.466  1.00  0.00    -0.200 F 
ATOM     83  F   UNL A   1      53.003  25.894  24.841  1.00  0.00    -0.200 F 
ENDBRANCH  49  73
BRANCH  61  84
ATOM     84  C   UNL A   1      45.925  32.400  28.524  1.00  0.00     0.064 A 
ATOM     85  C   UNL A   1      46.519  32.810  29.727  1.00  0.00     0.173 A 
ATOM     86  C   UNL A   1      45.813  33.343  27.491  1.00  0.00     0.173 A 
ATOM     87  F   UNL A   1      46.634  31.950  30.750  1.00  0.00    -0.203 F 
ATOM     88  C   UNL A   1      46.966  34.118  29.894  1.00  0.00     0.198 A 
ATOM     89  C   UNL A   1      46.289  34.641  27.651  1.00  0.00     0.198 A 
ATOM     90  F   UNL A   1      45.257  33.000  26.319  1.00  0.00    -0.203 F 
ATOM     91  F   UNL A   1      47.490  34.499  31.067  1.00  0.00    -0.200 F 
ATOM     92  C   UNL A   1      46.858  35.029  28.854  1.00  0.00     0.200 A 
ATOM     93  F   UNL A   1      46.197  35.516  26.640  1.00  0.00    -0.200 F 
ATOM     94  F   UNL A   1      47.299  36.285  29.013  1.00  0.00    -0.200 F 
ENDBRANCH  61  84
ENDBRANCH  35  36
ENDBRANCH  27  30
ENDBRANCH  25  26
ENDBRANCH  24  25
ENDBRANCH   1  24
TORSDOF 13
ENDMDL
MODEL 2
REMARK VINA RESULT:     -13.1      0.122      1.597
REMARK SMILES Cn1ccc(CNC(=O)[C@@H]2[C@@H]3CC[C@@H](C3)[C@@H]2C(=O)NCCCNC(=O)c2ccc(-c3c4nc(c(-c5c(F)c(F)c(F)c(F)c5F)c5ccc([nH]5)c(-c5c(F)c(F)c(F)c(F)c5F)c5nc(c(-c6c(F)c(F)c(F)c(F)c6F)c6ccc3[nH]6)C=C5)C=C4)cc2)n1
REMARK SMILES IDX 20 1 19 2 17 3 18 4 16 6 10 7 11 8 12 9 15 10 14 11 13 12
REMARK SMILES IDX 8 13 7 14 9 16 6 17 5 18 1 19 2 20 3 21 89 22 4 23 21 24
REMARK SMILES IDX 22 25 23 26 24 27 25 29 26 30 27 31 88 32 28 33 87 34 29 35
REMARK SMILES IDX 30 36 31 37 81 38 32 39 86 40 80 41 82 42 33 43 85 44 79 45
REMARK SMILES IDX 78 46 34 48 66 49 46 50 65 51 47 52 50 53 64 54 83 55 48 56
REMARK SMILES IDX 49 57 63 59 84 60 51 61 35 62 36 63 44 64 37 65 38 66 42 67
REMARK SMILES IDX 45 68 39 69 40 70 43 71 41 72 67 73 68 74 76 75 69 76 70 77
REMARK SMILES IDX 74 78 77 79 71 80 72 81 75 82 73 83 52 84 53 85 61 86 54 87
REMARK SMILES IDX 55 88 59 89 62 90 56 91 57 92 60 93 58 94
REMARK H PARENT 19 5 7 15 23 28 82 47 50 58
REMARK Flexibility Score: inf
ROOT
ATOM      1  C   UNL A   1      36.766  20.957  25.215  1.00  0.00     0.117 C 
ENDROOT
BRANCH   1   2
ATOM      2  N   UNL A   1      36.574  21.853  24.095  1.00  0.00    -0.356 N 
ATOM      3  C   UNL A   1      35.781  22.935  23.897  1.00  0.00     0.224 C 
ATOM      4  O   UNL A   1      35.808  23.373  22.747  1.00  0.00    -0.275 OA
ATOM      5  H   UNL A   1      37.133  21.631  23.315  1.00  0.00     0.163 HD
BRANCH   3   6
ATOM      6  C   UNL A   1      34.814  23.458  24.959  1.00  0.00     0.094 C 
ATOM      7  C   UNL A   1      33.352  22.890  24.924  1.00  0.00     0.094 C 
ATOM      8  C   UNL A   1      32.476  24.181  24.941  1.00  0.00     0.002 C 
ATOM      9  C   UNL A   1      32.581  25.020  23.653  1.00  0.00     0.005 C 
ATOM     10  C   UNL A   1      33.288  25.060  25.886  1.00  0.00     0.009 C 
ATOM     11  C   UNL A   1      34.544  24.985  25.014  1.00  0.00     0.002 C 
ATOM     12  C   UNL A   1      34.037  25.486  23.654  1.00  0.00     0.005 C 
BRANCH   7  13
ATOM     13  C   UNL A   1      32.937  21.895  23.840  1.00  0.00     0.224 C 
ATOM     14  N   UNL A   1      32.712  20.596  24.166  1.00  0.00    -0.350 N 
ATOM     15  H   UNL A   1      32.389  20.030  23.427  1.00  0.00     0.163 HD
ATOM     16  O   UNL A   1      32.754  22.220  22.667  1.00  0.00    -0.275 OA
BRANCH  14  17
ATOM     17  C   UNL A   1      32.873  19.914  25.433  1.00  0.00     0.174 C 
BRANCH  17  18
ATOM     18  C   UNL A   1      33.205  18.481  25.167  1.00  0.00     0.082 A 
ATOM     19  C   UNL A   1      32.415  15.096  25.504  1.00  0.00     0.173 C 
ATOM     20  N   UNL A   1      33.016  16.371  25.197  1.00  0.00    -0.275 N 
ATOM     21  C   UNL A   1      34.079  16.604  24.377  1.00  0.00     0.108 A 
ATOM     22  N   UNL A   1      32.492  17.490  25.725  1.00  0.00    -0.176 NA
ATOM     23  C   UNL A   1      34.226  17.970  24.329  1.00  0.00     0.047 A 
ENDBRANCH  17  18
ENDBRANCH  14  17
ENDBRANCH   7  13
ENDBRANCH   3   6
ENDBRANCH   1   2
BRANCH   1  24
ATOM     24  C   UNL A   1      37.918  19.987  25.003  1.00  0.00     0.042 C 
BRANCH  24  25
ATOM     25  C   UNL A   1      39.196  20.329  25.754  1.00  0.00     0.118 C 
BRANCH  25  26
ATOM     26  N   UNL A   1      40.127  19.214  25.846  1.00  0.00    -0.352 N 
ATOM     27  C   UNL A   1      41.483  19.197  26.085  1.00  0.00     0.251 C 
ATOM     28  H   UNL A   1      39.721  18.326  25.715  1.00  0.00     0.163 HD
ATOM     29  O   UNL A   1      42.114  18.157  25.964  1.00  0.00    -0.269 OA
BRANCH  27  30
ATOM     30  C   UNL A   1      42.190  20.448  26.442  1.00  0.00     0.039 A 
ATOM     31  C   UNL A   1      42.828  21.172  25.432  1.00  0.00     0.014 A 
ATOM     32  C   UNL A   1      42.211  20.917  27.756  1.00  0.00     0.014 A 
ATOM     33  C   UNL A   1      43.388  22.419  25.722  1.00  0.00     0.010 A 
ATOM     34  C   UNL A   1      42.676  22.199  28.024  1.00  0.00     0.010 A 
ATOM     35  C   UNL A   1      43.258  22.971  27.007  1.00  0.00    -0.014 A 
BRANCH  35  36
ATOM     36  C   UNL A   1      43.687  24.362  27.302  1.00  0.00     0.031 A 
ATOM     37  C   UNL A   1      42.696  25.373  27.803  1.00  0.00     0.074 A 
ATOM     38  C   UNL A   1      44.953  24.736  27.027  1.00  0.00     0.049 A 
ATOM     39  N   UNL A   1      42.856  26.655  28.015  1.00  0.00    -0.248 NA
ATOM     40  C   UNL A   1      41.333  24.887  28.073  1.00  0.00     0.031 C 
ATOM     41  C   UNL A   1      45.995  23.862  26.486  1.00  0.00     0.029 A 
ATOM     42  N   UNL A   1      45.576  25.954  27.151  1.00  0.00    -0.354 N 
ATOM     43  C   UNL A   1      41.617  27.127  28.427  1.00  0.00     0.074 A 
ATOM     44  C   UNL A   1      40.701  26.008  28.383  1.00  0.00     0.031 C 
ATOM     45  C   UNL A   1      47.132  24.563  26.345  1.00  0.00     0.029 A 
ATOM     46  C   UNL A   1      46.888  25.947  26.741  1.00  0.00     0.049 A 
ATOM     47  H   UNL A   1      45.126  26.757  27.500  1.00  0.00     0.167 HD
ATOM     48  C   UNL A   1      41.280  28.376  28.829  1.00  0.00     0.037 A 
ATOM     49  C   UNL A   1      47.788  26.946  26.673  1.00  0.00     0.037 A 
ATOM     50  C   UNL A   1      42.201  29.480  28.896  1.00  0.00     0.049 A 
ATOM     51  C   UNL A   1      47.382  28.328  27.107  1.00  0.00     0.074 A 
ATOM     52  C   UNL A   1      41.977  30.764  29.362  1.00  0.00     0.029 A 
ATOM     53  N   UNL A   1      43.523  29.432  28.479  1.00  0.00    -0.354 N 
ATOM     54  N   UNL A   1      46.228  28.745  27.568  1.00  0.00    -0.248 NA
ATOM     55  C   UNL A   1      48.404  29.380  27.008  1.00  0.00     0.031 C 
ATOM     56  C   UNL A   1      43.147  31.507  29.177  1.00  0.00     0.029 A 
ATOM     57  C   UNL A   1      44.117  30.674  28.644  1.00  0.00     0.049 A 
ATOM     58  H   UNL A   1      43.974  28.634  28.119  1.00  0.00     0.167 HD
ATOM     59  C   UNL A   1      46.389  30.097  27.832  1.00  0.00     0.074 A 
ATOM     60  C   UNL A   1      47.759  30.428  27.501  1.00  0.00     0.031 C 
ATOM     61  C   UNL A   1      45.481  30.987  28.305  1.00  0.00     0.037 A 
BRANCH  48  62
ATOM     62  C   UNL A   1      39.855  28.617  29.233  1.00  0.00     0.064 A 
ATOM     63  C   UNL A   1      39.415  28.394  30.547  1.00  0.00     0.173 A 
ATOM     64  C   UNL A   1      38.926  29.116  28.307  1.00  0.00     0.173 A 
ATOM     65  F   UNL A   1      40.258  27.909  31.469  1.00  0.00    -0.203 F 
ATOM     66  C   UNL A   1      38.092  28.635  30.911  1.00  0.00     0.198 A 
ATOM     67  C   UNL A   1      37.613  29.385  28.682  1.00  0.00     0.198 A 
ATOM     68  F   UNL A   1      39.295  29.351  27.039  1.00  0.00    -0.203 F 
ATOM     69  F   UNL A   1      37.683  28.369  32.159  1.00  0.00    -0.200 F 
ATOM     70  C   UNL A   1      37.194  29.138  29.981  1.00  0.00     0.200 A 
ATOM     71  F   UNL A   1      36.750  29.883  27.785  1.00  0.00    -0.200 F 
ATOM     72  F   UNL A   1      35.924  29.377  30.335  1.00  0.00    -0.200 F 
ENDBRANCH  48  62
BRANCH  49  73
ATOM     73  C   UNL A   1      49.165  26.674  26.184  1.00  0.00     0.064 A 
ATOM     74  C   UNL A   1      50.152  26.179  27.048  1.00  0.00     0.173 A 
ATOM     75  C   UNL A   1      49.527  26.908  24.849  1.00  0.00     0.173 A 
ATOM     76  F   UNL A   1      49.860  25.960  28.339  1.00  0.00    -0.203 F 
ATOM     77  C   UNL A   1      51.450  25.946  26.602  1.00  0.00     0.198 A 
ATOM     78  C   UNL A   1      50.819  26.645  24.396  1.00  0.00     0.198 A 
ATOM     79  F   UNL A   1      48.620  27.377  23.979  1.00  0.00    -0.203 F 
ATOM     80  F   UNL A   1      52.384  25.516  27.461  1.00  0.00    -0.200 F 
ATOM     81  C   UNL A   1      51.781  26.173  25.274  1.00  0.00     0.200 A 
ATOM     82  F   UNL A   1      51.129  26.851  23.109  1.00  0.00    -0.200 F 
ATOM     83  F   UNL A   1      53.029  25.943  24.844  1.00  0.00    -0.200 F 
ENDBRANCH  49  73
BRANCH  61  84
ATOM     84  C   UNL A   1      45.945  32.401  28.504  1.00  0.00     0.064 A 
ATOM     85  C   UNL A   1      45.836  33.358  27.484  1.00  0.00     0.173 A 
ATOM     86  C   UNL A   1      46.461  32.814  29.742  1.00  0.00     0.173 A 
ATOM     87  F   UNL A   1      45.364  33.008  26.278  1.00  0.00    -0.203 F 
ATOM     88  C   UNL A   1      46.246  34.673  27.690  1.00  0.00     0.198 A 
ATOM     89  C   UNL A   1      46.841  34.137  29.954  1.00  0.00     0.198 A 
ATOM     90  F   UNL A   1      46.580  31.939  30.751  1.00  0.00    -0.203 F 
ATOM     91  F   UNL A   1      46.174  35.559  26.688  1.00  0.00    -0.200 F 
ATOM     92  C   UNL A   1      46.739  35.062  28.926  1.00  0.00     0.200 A 
ATOM     93  F   UNL A   1      47.304  34.515  31.153  1.00  0.00    -0.200 F 
ATOM     94  F   UNL A   1      47.124  36.331  29.126  1.00  0.00    -0.200 F 
ENDBRANCH  61  84
ENDBRANCH  35  36
ENDBRANCH  27  30
ENDBRANCH  25  26
ENDBRANCH  24  25
ENDBRANCH   1  24
TORSDOF 13
ENDMDL
MODEL 3
REMARK VINA RESULT:     -13.1      6.485     11.802
REMARK SMILES Cn1ccc(CNC(=O)[C@@H]2[C@@H]3CC[C@@H](C3)[C@@H]2C(=O)NCCCNC(=O)c2ccc(-c3c4nc(c(-c5c(F)c(F)c(F)c(F)c5F)c5ccc([nH]5)c(-c5c(F)c(F)c(F)c(F)c5F)c5nc(c(-c6c(F)c(F)c(F)c(F)c6F)c6ccc3[nH]6)C=C5)C=C4)cc2)n1
REMARK SMILES IDX 20 1 19 2 17 3 18 4 16 6 10 7 11 8 12 9 15 10 14 11 13 12
REMARK SMILES IDX 8 13 7 14 9 16 6 17 5 18 1 19 2 20 3 21 89 22 4 23 21 24
REMARK SMILES IDX 22 25 23 26 24 27 25 29 26 30 27 31 88 32 28 33 87 34 29 35
REMARK SMILES IDX 30 36 31 37 81 38 32 39 86 40 80 41 82 42 33 43 85 44 79 45
REMARK SMILES IDX 78 46 34 48 66 49 46 50 65 51 47 52 50 53 64 54 83 55 48 56
REMARK SMILES IDX 49 57 63 59 84 60 51 61 35 62 36 63 44 64 37 65 38 66 42 67
REMARK SMILES IDX 45 68 39 69 40 70 43 71 41 72 67 73 68 74 76 75 69 76 70 77
REMARK SMILES IDX 74 78 77 79 71 80 72 81 75 82 73 83 52 84 53 85 61 86 54 87
REMARK SMILES IDX 55 88 59 89 62 90 56 91 57 92 60 93 58 94
REMARK H PARENT 19 5 7 15 23 28 82 47 50 58
REMARK Flexibility Score: inf
ROOT
ATOM      1  C   UNL A   1      32.050  30.424  26.052  1.00  0.00     0.117 C 
ENDROOT
BRANCH   1   2
ATOM      2  N   UNL A   1      31.686  29.266  26.840  1.00  0.00    -0.356 N 
ATOM      3  C   UNL A   1      31.949  27.942  26.718  1.00  0.00     0.224 C 
ATOM      4  O   UNL A   1      31.355  27.235  27.533  1.00  0.00    -0.275 OA
ATOM      5  H   UNL A   1      31.133  29.484  27.624  1.00  0.00     0.163 HD
BRANCH   3   6
ATOM      6  C   UNL A   1      32.774  27.362  25.569  1.00  0.00     0.094 C 
ATOM      7  C   UNL A   1      31.986  26.915  24.289  1.00  0.00     0.094 C 
ATOM      8  C   UNL A   1      32.502  25.463  24.051  1.00  0.00     0.002 C 
ATOM      9  C   UNL A   1      32.057  24.460  25.133  1.00  0.00     0.005 C 
ATOM     10  C   UNL A   1      33.970  25.619  24.435  1.00  0.00     0.009 C 
ATOM     11  C   UNL A   1      33.636  26.102  25.849  1.00  0.00     0.002 C 
ATOM     12  C   UNL A   1      32.758  24.967  26.393  1.00  0.00     0.005 C 
BRANCH   7  13
ATOM     13  C   UNL A   1      30.462  27.028  24.243  1.00  0.00     0.224 C 
ATOM     14  N   UNL A   1      29.873  27.883  23.367  1.00  0.00    -0.350 N 
ATOM     15  H   UNL A   1      28.889  27.854  23.354  1.00  0.00     0.163 HD
ATOM     16  O   UNL A   1      29.719  26.343  24.947  1.00  0.00    -0.275 OA
BRANCH  14  17
ATOM     17  C   UNL A   1      30.470  28.829  22.448  1.00  0.00     0.174 C 
BRANCH  17  18
ATOM     18  C   UNL A   1      29.598  30.040  22.374  1.00  0.00     0.082 A 
ATOM     19  C   UNL A   1      27.791  32.336  20.461  1.00  0.00     0.173 C 
ATOM     20  N   UNL A   1      28.427  31.582  21.514  1.00  0.00    -0.275 N 
ATOM     21  C   UNL A   1      28.250  31.731  22.857  1.00  0.00     0.108 A 
ATOM     22  N   UNL A   1      29.275  30.590  21.193  1.00  0.00    -0.176 NA
ATOM     23  C   UNL A   1      28.993  30.738  23.449  1.00  0.00     0.047 A 
ENDBRANCH  17  18
ENDBRANCH  14  17
ENDBRANCH   7  13
ENDBRANCH   3   6
ENDBRANCH   1   2
BRANCH   1  24
ATOM     24  C   UNL A   1      31.644  31.735  26.709  1.00  0.00     0.042 C 
BRANCH  24  25
ATOM     25  C   UNL A   1      32.784  32.521  27.338  1.00  0.00     0.118 C 
BRANCH  25  26
ATOM     26  N   UNL A   1      32.448  33.912  27.600  1.00  0.00    -0.352 N 
ATOM     27  C   UNL A   1      32.980  34.807  28.502  1.00  0.00     0.251 C 
ATOM     28  H   UNL A   1      31.722  34.274  27.042  1.00  0.00     0.163 HD
ATOM     29  O   UNL A   1      32.446  35.893  28.676  1.00  0.00    -0.269 OA
BRANCH  27  30
ATOM     30  C   UNL A   1      34.171  34.438  29.300  1.00  0.00     0.039 A 
ATOM     31  C   UNL A   1      33.987  33.904  30.578  1.00  0.00     0.014 A 
ATOM     32  C   UNL A   1      35.461  34.598  28.790  1.00  0.00     0.014 A 
ATOM     33  C   UNL A   1      35.087  33.428  31.295  1.00  0.00     0.010 A 
ATOM     34  C   UNL A   1      36.542  34.034  29.458  1.00  0.00     0.010 A 
ATOM     35  C   UNL A   1      36.365  33.430  30.712  1.00  0.00    -0.014 A 
BRANCH  35  36
ATOM     36  C   UNL A   1      37.522  32.775  31.375  1.00  0.00     0.031 A 
ATOM     37  C   UNL A   1      38.214  31.611  30.724  1.00  0.00     0.074 A 
ATOM     38  C   UNL A   1      37.890  33.174  32.610  1.00  0.00     0.049 A 
ATOM     39  N   UNL A   1      39.167  30.847  31.193  1.00  0.00    -0.248 NA
ATOM     40  C   UNL A   1      37.750  31.235  29.379  1.00  0.00     0.031 C 
ATOM     41  C   UNL A   1      37.263  34.255  33.372  1.00  0.00     0.029 A 
ATOM     42  N   UNL A   1      38.870  32.705  33.450  1.00  0.00    -0.354 N 
ATOM     43  C   UNL A   1      39.406  29.896  30.209  1.00  0.00     0.074 A 
ATOM     44  C   UNL A   1      38.461  30.143  29.142  1.00  0.00     0.031 C 
ATOM     45  C   UNL A   1      37.886  34.383  34.554  1.00  0.00     0.029 A 
ATOM     46  C   UNL A   1      38.924  33.363  34.655  1.00  0.00     0.049 A 
ATOM     47  H   UNL A   1      39.477  31.967  33.211  1.00  0.00     0.167 HD
ATOM     48  C   UNL A   1      40.345  28.920  30.189  1.00  0.00     0.037 A 
ATOM     49  C   UNL A   1      39.710  33.156  35.729  1.00  0.00     0.037 A 
ATOM     50  C   UNL A   1      41.300  28.694  31.242  1.00  0.00     0.049 A 
ATOM     51  C   UNL A   1      40.732  32.052  35.689  1.00  0.00     0.074 A 
ATOM     52  C   UNL A   1      42.340  27.781  31.282  1.00  0.00     0.029 A 
ATOM     53  N   UNL A   1      41.328  29.386  32.444  1.00  0.00    -0.354 N 
ATOM     54  N   UNL A   1      40.999  31.208  34.721  1.00  0.00    -0.248 NA
ATOM     55  C   UNL A   1      41.558  31.870  36.889  1.00  0.00     0.031 C 
ATOM     56  C   UNL A   1      42.963  27.883  32.530  1.00  0.00     0.029 A 
ATOM     57  C   UNL A   1      42.346  28.896  33.248  1.00  0.00     0.049 A 
ATOM     58  H   UNL A   1      40.716  30.116  32.691  1.00  0.00     0.167 HD
ATOM     59  C   UNL A   1      42.034  30.411  35.186  1.00  0.00     0.074 A 
ATOM     60  C   UNL A   1      42.362  30.884  36.515  1.00  0.00     0.031 C 
ATOM     61  C   UNL A   1      42.656  29.375  34.570  1.00  0.00     0.037 A 
BRANCH  48  62
ATOM     62  C   UNL A   1      40.390  28.022  28.987  1.00  0.00     0.064 A 
ATOM     63  C   UNL A   1      39.658  26.826  28.933  1.00  0.00     0.173 A 
ATOM     64  C   UNL A   1      41.143  28.381  27.858  1.00  0.00     0.173 A 
ATOM     65  F   UNL A   1      38.931  26.431  29.988  1.00  0.00    -0.203 F 
ATOM     66  C   UNL A   1      39.699  26.009  27.805  1.00  0.00     0.198 A 
ATOM     67  C   UNL A   1      41.157  27.578  26.721  1.00  0.00     0.198 A 
ATOM     68  F   UNL A   1      41.858  29.516  27.855  1.00  0.00    -0.203 F 
ATOM     69  F   UNL A   1      39.030  24.849  27.795  1.00  0.00    -0.200 F 
ATOM     70  C   UNL A   1      40.442  26.390  26.698  1.00  0.00     0.200 A 
ATOM     71  F   UNL A   1      41.865  27.954  25.646  1.00  0.00    -0.200 F 
ATOM     72  F   UNL A   1      40.474  25.607  25.609  1.00  0.00    -0.200 F 
ENDBRANCH  48  62
BRANCH  49  73
ATOM     73  C   UNL A   1      39.569  34.019  36.932  1.00  0.00     0.064 A 
ATOM     74  C   UNL A   1      38.793  33.610  38.025  1.00  0.00     0.173 A 
ATOM     75  C   UNL A   1      40.199  35.271  37.011  1.00  0.00     0.173 A 
ATOM     76  F   UNL A   1      38.154  32.432  37.987  1.00  0.00    -0.203 F 
ATOM     77  C   UNL A   1      38.637  34.425  39.144  1.00  0.00     0.198 A 
ATOM     78  C   UNL A   1      40.067  36.072  38.144  1.00  0.00     0.198 A 
ATOM     79  F   UNL A   1      40.956  35.708  35.994  1.00  0.00    -0.203 F 
ATOM     80  F   UNL A   1      37.853  34.028  40.155  1.00  0.00    -0.200 F 
ATOM     81  C   UNL A   1      39.279  35.653  39.205  1.00  0.00     0.200 A 
ATOM     82  F   UNL A   1      40.701  37.250  38.205  1.00  0.00    -0.200 F 
ATOM     83  F   UNL A   1      39.133  36.434  40.283  1.00  0.00    -0.200 F 
ENDBRANCH  49  73
BRANCH  61  84
ATOM     84  C   UNL A   1      43.763  28.693  35.320  1.00  0.00     0.064 A 
ATOM     85  C   UNL A   1      45.102  29.083  35.164  1.00  0.00     0.173 A 
ATOM     86  C   UNL A   1      43.478  27.671  36.237  1.00  0.00     0.173 A 
ATOM     87  F   UNL A   1      45.427  30.044  34.286  1.00  0.00    -0.203 F 
ATOM     88  C   UNL A   1      46.117  28.459  35.885  1.00  0.00     0.198 A 
ATOM     89  C   UNL A   1      44.492  27.071  36.979  1.00  0.00     0.198 A 
ATOM     90  F   UNL A   1      42.214  27.265  36.428  1.00  0.00    -0.203 F 
ATOM     91  F   UNL A   1      47.392  28.817  35.686  1.00  0.00    -0.200 F 
ATOM     92  C   UNL A   1      45.811  27.461  36.796  1.00  0.00     0.200 A 
ATOM     93  F   UNL A   1      44.193  26.116  37.870  1.00  0.00    -0.200 F 
ATOM     94  F   UNL A   1      46.788  26.869  37.497  1.00  0.00    -0.200 F 
ENDBRANCH  61  84
ENDBRANCH  35  36
ENDBRANCH  27  30
ENDBRANCH  25  26
ENDBRANCH  24  25
ENDBRANCH   1  24
TORSDOF 13
ENDMDL
