MODEL 1
REMARK VINA RESULT:     -12.4      0.000      0.000
REMARK SMILES C[NH2+]C[C@H](C)C(=O)Nc1snc(C)c1C(=O)NCCCNC(=O)c1ccc(-c2c3nc(c(-c4c(F)c(F)c(F)c(F)c4F)c4ccc([nH]4)c(-c4c(F)c(F)c(F)c(F)c4F)c4nc(c(-c5c(F)c(F)c(F)c(F)c5F)c5ccc2[nH]5)C=C4)C=C3)cc1
REMARK SMILES IDX 18 1 17 2 15 3 16 4 14 6 9 7 10 8 11 9 12 10 13 11 8 12 6 13
REMARK SMILES IDX 7 14 4 16 5 17 3 18 2 19 1 20 19 23 20 24 21 25 22 26 23 28
REMARK SMILES IDX 24 29 25 30 86 31 26 32 85 33 27 34 28 35 29 36 79 37 30 38
REMARK SMILES IDX 84 39 78 40 80 41 31 42 83 43 77 44 76 45 32 47 64 48 44 49
REMARK SMILES IDX 63 50 45 51 48 52 62 53 81 54 46 55 47 56 61 58 82 59 49 60
REMARK SMILES IDX 33 61 34 62 42 63 35 64 36 65 40 66 43 67 37 68 38 69 41 70
REMARK SMILES IDX 39 71 65 72 66 73 74 74 67 75 68 76 72 77 75 78 69 79 70 80
REMARK SMILES IDX 73 81 71 82 50 83 51 84 59 85 52 86 53 87 57 88 60 89 54 90
REMARK SMILES IDX 55 91 58 92 56 93
REMARK H PARENT 17 5 8 15 2 21 2 22 21 27 80 46 48 57
REMARK Flexibility Score: inf
ROOT
ATOM      1  C   UNL A   1      36.868  21.712  25.055  1.00  0.00     0.118 C 
ENDROOT
BRANCH   1   2
ATOM      2  N   UNL A   1      36.140  21.955  26.287  1.00  0.00    -0.352 N 
ATOM      3  C   UNL A   1      34.774  22.009  26.508  1.00  0.00     0.256 C 
ATOM      4  O   UNL A   1      34.422  22.117  27.683  1.00  0.00    -0.269 OA
ATOM      5  H   UNL A   1      36.701  22.102  27.082  1.00  0.00     0.163 HD
BRANCH   3   6
ATOM      6  C   UNL A   1      33.798  22.026  25.412  1.00  0.00     0.097 A 
ATOM      7  C   UNL A   1      32.954  21.027  24.955  1.00  0.00     0.129 A 
ATOM      8  S   UNL A   1      32.604  21.342  23.308  1.00  0.00    -0.017 S 
ATOM      9  N   UNL A   1      32.945  22.950  23.396  1.00  0.00    -0.195 NA
ATOM     10  C   UNL A   1      33.531  23.196  24.573  1.00  0.00     0.066 A 
ATOM     11  C   UNL A   1      33.855  24.628  24.848  1.00  0.00     0.069 C 
BRANCH   7  12
ATOM     12  N   UNL A   1      32.430  19.838  25.386  1.00  0.00    -0.315 N 
ATOM     13  C   UNL A   1      32.642  18.555  24.986  1.00  0.00     0.233 C 
ATOM     14  O   UNL A   1      31.796  17.734  25.368  1.00  0.00    -0.274 OA
ATOM     15  H   UNL A   1      31.780  19.927  26.120  1.00  0.00     0.170 HD
BRANCH  13  16
ATOM     16  C   UNL A   1      33.887  18.044  24.260  1.00  0.00     0.130 C 
ATOM     17  C   UNL A   1      35.259  18.559  24.654  1.00  0.00     0.024 C 
BRANCH  16  18
ATOM     18  C   UNL A   1      33.835  16.515  24.093  1.00  0.00     0.273 C 
BRANCH  18  19
ATOM     19  N   UNL A   1      33.968  15.718  25.313  1.00  0.00    -0.348 N 
ATOM     20  C   UNL A   1      32.933  14.699  25.420  1.00  0.00     0.330 C 
ATOM     21  H   UNL A   1      34.880  15.261  25.307  1.00  0.00     0.346 HD
ATOM     22  H   UNL A   1      33.872  16.347  26.110  1.00  0.00     0.346 HD
ENDBRANCH  18  19
ENDBRANCH  16  18
ENDBRANCH  13  16
ENDBRANCH   7  12
ENDBRANCH   3   6
ENDBRANCH   1   2
BRANCH   1  23
ATOM     23  C   UNL A   1      38.251  21.086  25.161  1.00  0.00     0.042 C 
BRANCH  23  24
ATOM     24  C   UNL A   1      39.161  21.817  26.135  1.00  0.00     0.118 C 
BRANCH  24  25
ATOM     25  N   UNL A   1      40.582  21.855  25.770  1.00  0.00    -0.352 N 
ATOM     26  C   UNL A   1      41.458  22.902  26.040  1.00  0.00     0.251 C 
ATOM     27  H   UNL A   1      40.946  21.074  25.294  1.00  0.00     0.163 HD
ATOM     28  O   UNL A   1      42.549  23.013  25.511  1.00  0.00    -0.269 OA
BRANCH  26  29
ATOM     29  C   UNL A   1      40.986  23.897  27.020  1.00  0.00     0.039 A 
ATOM     30  C   UNL A   1      41.721  24.154  28.177  1.00  0.00     0.014 A 
ATOM     31  C   UNL A   1      40.003  24.771  26.569  1.00  0.00     0.014 A 
ATOM     32  C   UNL A   1      41.567  25.392  28.800  1.00  0.00     0.010 A 
ATOM     33  C   UNL A   1      39.973  26.043  27.099  1.00  0.00     0.010 A 
ATOM     34  C   UNL A   1      40.743  26.372  28.218  1.00  0.00    -0.014 A 
BRANCH  34  35
ATOM     35  C   UNL A   1      40.796  27.760  28.698  1.00  0.00     0.031 A 
ATOM     36  C   UNL A   1      41.885  28.640  28.161  1.00  0.00     0.074 A 
ATOM     37  C   UNL A   1      39.833  28.343  29.445  1.00  0.00     0.049 A 
ATOM     38  N   UNL A   1      42.841  29.202  28.829  1.00  0.00    -0.248 NA
ATOM     39  C   UNL A   1      41.944  28.909  26.716  1.00  0.00     0.031 C 
ATOM     40  C   UNL A   1      38.541  27.806  29.884  1.00  0.00     0.029 A 
ATOM     41  N   UNL A   1      39.795  29.627  29.902  1.00  0.00    -0.354 N 
ATOM     42  C   UNL A   1      43.552  30.001  27.933  1.00  0.00     0.074 A 
ATOM     43  C   UNL A   1      43.009  29.712  26.629  1.00  0.00     0.031 C 
ATOM     44  C   UNL A   1      37.761  28.810  30.333  1.00  0.00     0.029 A 
ATOM     45  C   UNL A   1      38.563  30.014  30.402  1.00  0.00     0.049 A 
ATOM     46  H   UNL A   1      40.575  30.227  29.878  1.00  0.00     0.167 HD
ATOM     47  C   UNL A   1      44.436  30.951  28.358  1.00  0.00     0.037 A 
ATOM     48  C   UNL A   1      38.214  31.234  30.867  1.00  0.00     0.037 A 
ATOM     49  C   UNL A   1      44.797  30.758  29.738  1.00  0.00     0.049 A 
ATOM     50  C   UNL A   1      39.458  31.922  31.281  1.00  0.00     0.074 A 
ATOM     51  C   UNL A   1      45.385  29.729  30.449  1.00  0.00     0.029 A 
ATOM     52  N   UNL A   1      44.233  31.572  30.690  1.00  0.00    -0.354 N 
ATOM     53  N   UNL A   1      40.185  31.551  32.300  1.00  0.00    -0.248 NA
ATOM     54  C   UNL A   1      40.135  32.763  30.306  1.00  0.00     0.031 C 
ATOM     55  C   UNL A   1      44.678  29.693  31.688  1.00  0.00     0.029 A 
ATOM     56  C   UNL A   1      43.755  30.739  31.671  1.00  0.00     0.049 A 
ATOM     57  H   UNL A   1      44.182  32.554  30.672  1.00  0.00     0.167 HD
ATOM     58  C   UNL A   1      41.493  31.730  31.881  1.00  0.00     0.074 A 
ATOM     59  C   UNL A   1      41.399  32.580  30.697  1.00  0.00     0.031 C 
ATOM     60  C   UNL A   1      42.508  30.954  32.365  1.00  0.00     0.037 A 
BRANCH  47  61
ATOM     61  C   UNL A   1      44.780  32.224  27.624  1.00  0.00     0.064 A 
ATOM     62  C   UNL A   1      46.021  32.339  26.960  1.00  0.00     0.173 A 
ATOM     63  C   UNL A   1      44.068  33.428  27.791  1.00  0.00     0.173 A 
ATOM     64  F   UNL A   1      46.796  31.261  26.766  1.00  0.00    -0.203 F 
ATOM     65  C   UNL A   1      46.535  33.576  26.558  1.00  0.00     0.198 A 
ATOM     66  C   UNL A   1      44.561  34.654  27.343  1.00  0.00     0.198 A 
ATOM     67  F   UNL A   1      42.926  33.478  28.489  1.00  0.00    -0.203 F 
ATOM     68  F   UNL A   1      47.769  33.649  26.038  1.00  0.00    -0.200 F 
ATOM     69  C   UNL A   1      45.806  34.734  26.754  1.00  0.00     0.200 A 
ATOM     70  F   UNL A   1      43.849  35.769  27.560  1.00  0.00    -0.200 F 
ATOM     71  F   UNL A   1      46.320  35.926  26.424  1.00  0.00    -0.200 F 
ENDBRANCH  47  61
BRANCH  48  72
ATOM     72  C   UNL A   1      36.892  31.887  30.795  1.00  0.00     0.064 A 
ATOM     73  C   UNL A   1      36.077  32.017  31.928  1.00  0.00     0.173 A 
ATOM     74  C   UNL A   1      36.512  32.626  29.655  1.00  0.00     0.173 A 
ATOM     75  F   UNL A   1      36.395  31.379  33.063  1.00  0.00    -0.203 F 
ATOM     76  C   UNL A   1      34.960  32.858  31.930  1.00  0.00     0.198 A 
ATOM     77  C   UNL A   1      35.393  33.456  29.656  1.00  0.00     0.198 A 
ATOM     78  F   UNL A   1      37.272  32.625  28.551  1.00  0.00    -0.203 F 
ATOM     79  F   UNL A   1      34.240  33.005  33.050  1.00  0.00    -0.200 F 
ATOM     80  C   UNL A   1      34.625  33.583  30.798  1.00  0.00     0.200 A 
ATOM     81  F   UNL A   1      35.100  34.177  28.565  1.00  0.00    -0.200 F 
ATOM     82  F   UNL A   1      33.591  34.435  30.821  1.00  0.00    -0.200 F 
ENDBRANCH  48  72
BRANCH  60  83
ATOM     83  C   UNL A   1      42.219  30.062  33.541  1.00  0.00     0.064 A 
ATOM     84  C   UNL A   1      41.795  28.726  33.429  1.00  0.00     0.173 A 
ATOM     85  C   UNL A   1      42.515  30.530  34.829  1.00  0.00     0.173 A 
ATOM     86  F   UNL A   1      41.601  28.161  32.232  1.00  0.00    -0.203 F 
ATOM     87  C   UNL A   1      41.620  27.920  34.552  1.00  0.00     0.198 A 
ATOM     88  C   UNL A   1      42.377  29.712  35.948  1.00  0.00     0.198 A 
ATOM     89  F   UNL A   1      42.985  31.776  34.999  1.00  0.00    -0.203 F 
ATOM     90  F   UNL A   1      41.196  26.656  34.413  1.00  0.00    -0.200 F 
ATOM     91  C   UNL A   1      41.916  28.413  35.811  1.00  0.00     0.200 A 
ATOM     92  F   UNL A   1      42.714  30.176  37.158  1.00  0.00    -0.200 F 
ATOM     93  F   UNL A   1      41.783  27.628  36.890  1.00  0.00    -0.200 F 
ENDBRANCH  60  83
ENDBRANCH  34  35
ENDBRANCH  26  29
ENDBRANCH  24  25
ENDBRANCH  23  24
ENDBRANCH   1  23
TORSDOF 14
ENDMDL
MODEL 2
REMARK VINA RESULT:     -12.4      1.014      2.476
REMARK SMILES C[NH2+]C[C@H](C)C(=O)Nc1snc(C)c1C(=O)NCCCNC(=O)c1ccc(-c2c3nc(c(-c4c(F)c(F)c(F)c(F)c4F)c4ccc([nH]4)c(-c4c(F)c(F)c(F)c(F)c4F)c4nc(c(-c5c(F)c(F)c(F)c(F)c5F)c5ccc2[nH]5)C=C4)C=C3)cc1
REMARK SMILES IDX 18 1 17 2 15 3 16 4 14 6 9 7 10 8 11 9 12 10 13 11 8 12 6 13
REMARK SMILES IDX 7 14 4 16 5 17 3 18 2 19 1 20 19 23 20 24 21 25 22 26 23 28
REMARK SMILES IDX 24 29 25 30 86 31 26 32 85 33 27 34 28 35 29 36 79 37 30 38
REMARK SMILES IDX 84 39 78 40 80 41 31 42 83 43 77 44 76 45 32 47 64 48 44 49
REMARK SMILES IDX 63 50 45 51 48 52 62 53 81 54 46 55 47 56 61 58 82 59 49 60
REMARK SMILES IDX 33 61 34 62 42 63 35 64 36 65 40 66 43 67 37 68 38 69 41 70
REMARK SMILES IDX 39 71 65 72 66 73 74 74 67 75 68 76 72 77 75 78 69 79 70 80
REMARK SMILES IDX 73 81 71 82 50 83 51 84 59 85 52 86 53 87 57 88 60 89 54 90
REMARK SMILES IDX 55 91 58 92 56 93
REMARK H PARENT 17 5 8 15 2 21 2 22 21 27 80 46 48 57
REMARK Flexibility Score: inf
ROOT
ATOM      1  C   UNL A   1      36.880  21.187  25.283  1.00  0.00     0.118 C 
ENDROOT
BRANCH   1   2
ATOM      2  N   UNL A   1      35.862  21.579  26.240  1.00  0.00    -0.352 N 
ATOM      3  C   UNL A   1      34.483  21.567  26.115  1.00  0.00     0.256 C 
ATOM      4  O   UNL A   1      33.847  21.847  27.132  1.00  0.00    -0.269 OA
ATOM      5  H   UNL A   1      36.203  21.900  27.106  1.00  0.00     0.163 HD
BRANCH   3   6
ATOM      6  C   UNL A   1      33.810  21.325  24.834  1.00  0.00     0.097 A 
ATOM      7  C   UNL A   1      33.527  22.201  23.797  1.00  0.00     0.129 A 
ATOM      8  S   UNL A   1      32.173  21.589  22.944  1.00  0.00    -0.017 S 
ATOM      9  N   UNL A   1      32.384  20.034  23.440  1.00  0.00    -0.195 NA
ATOM     10  C   UNL A   1      33.307  20.018  24.407  1.00  0.00     0.066 A 
ATOM     11  C   UNL A   1      33.669  18.668  24.935  1.00  0.00     0.069 C 
BRANCH   7  12
ATOM     12  N   UNL A   1      33.924  23.429  23.343  1.00  0.00    -0.315 N 
ATOM     13  C   UNL A   1      33.693  24.686  23.808  1.00  0.00     0.233 C 
ATOM     14  O   UNL A   1      33.938  25.601  23.008  1.00  0.00    -0.274 OA
ATOM     15  H   UNL A   1      34.479  23.397  22.530  1.00  0.00     0.170 HD
BRANCH  13  16
ATOM     16  C   UNL A   1      33.317  25.049  25.245  1.00  0.00     0.130 C 
ATOM     17  C   UNL A   1      33.753  26.380  25.828  1.00  0.00     0.024 C 
BRANCH  16  18
ATOM     18  C   UNL A   1      31.842  24.714  25.528  1.00  0.00     0.273 C 
BRANCH  18  19
ATOM     19  N   UNL A   1      31.580  23.798  26.638  1.00  0.00    -0.348 N 
ATOM     20  C   UNL A   1      30.570  22.803  26.304  1.00  0.00     0.330 C 
ATOM     21  H   UNL A   1      32.447  23.317  26.878  1.00  0.00     0.346 HD
ATOM     22  H   UNL A   1      31.230  24.348  27.422  1.00  0.00     0.346 HD
ENDBRANCH  18  19
ENDBRANCH  16  18
ENDBRANCH  13  16
ENDBRANCH   7  12
ENDBRANCH   3   6
ENDBRANCH   1   2
BRANCH   1  23
ATOM     23  C   UNL A   1      38.122  22.059  25.172  1.00  0.00     0.042 C 
BRANCH  23  24
ATOM     24  C   UNL A   1      39.143  21.780  26.263  1.00  0.00     0.118 C 
BRANCH  24  25
ATOM     25  N   UNL A   1      40.550  21.858  25.850  1.00  0.00    -0.352 N 
ATOM     26  C   UNL A   1      41.395  22.944  26.058  1.00  0.00     0.251 C 
ATOM     27  H   UNL A   1      40.928  21.075  25.387  1.00  0.00     0.163 HD
ATOM     28  O   UNL A   1      42.464  23.077  25.490  1.00  0.00    -0.269 OA
BRANCH  26  29
ATOM     29  C   UNL A   1      40.917  23.953  27.020  1.00  0.00     0.039 A 
ATOM     30  C   UNL A   1      41.625  24.199  28.197  1.00  0.00     0.014 A 
ATOM     31  C   UNL A   1      39.966  24.846  26.539  1.00  0.00     0.014 A 
ATOM     32  C   UNL A   1      41.481  25.443  28.811  1.00  0.00     0.010 A 
ATOM     33  C   UNL A   1      39.948  26.120  27.063  1.00  0.00     0.010 A 
ATOM     34  C   UNL A   1      40.694  26.437  28.202  1.00  0.00    -0.014 A 
BRANCH  34  35
ATOM     35  C   UNL A   1      40.763  27.826  28.678  1.00  0.00     0.031 A 
ATOM     36  C   UNL A   1      41.866  28.691  28.142  1.00  0.00     0.074 A 
ATOM     37  C   UNL A   1      39.805  28.424  29.420  1.00  0.00     0.049 A 
ATOM     38  N   UNL A   1      42.827  29.242  28.813  1.00  0.00    -0.248 NA
ATOM     39  C   UNL A   1      41.933  28.954  26.697  1.00  0.00     0.031 C 
ATOM     40  C   UNL A   1      38.505  27.905  29.856  1.00  0.00     0.029 A 
ATOM     41  N   UNL A   1      39.782  29.710  29.873  1.00  0.00    -0.354 N 
ATOM     42  C   UNL A   1      43.551  30.029  27.917  1.00  0.00     0.074 A 
ATOM     43  C   UNL A   1      43.009  29.743  26.611  1.00  0.00     0.031 C 
ATOM     44  C   UNL A   1      37.736  28.921  30.299  1.00  0.00     0.029 A 
ATOM     45  C   UNL A   1      38.554  30.115  30.367  1.00  0.00     0.049 A 
ATOM     46  H   UNL A   1      40.570  30.300  29.850  1.00  0.00     0.167 HD
ATOM     47  C   UNL A   1      44.445  30.969  28.342  1.00  0.00     0.037 A 
ATOM     48  C   UNL A   1      38.219  31.340  30.827  1.00  0.00     0.037 A 
ATOM     49  C   UNL A   1      44.799  30.776  29.724  1.00  0.00     0.049 A 
ATOM     50  C   UNL A   1      39.470  32.013  31.244  1.00  0.00     0.074 A 
ATOM     51  C   UNL A   1      45.371  29.741  30.440  1.00  0.00     0.029 A 
ATOM     52  N   UNL A   1      44.242  31.599  30.671  1.00  0.00    -0.354 N 
ATOM     53  N   UNL A   1      40.188  31.636  32.266  1.00  0.00    -0.248 NA
ATOM     54  C   UNL A   1      40.161  32.842  30.269  1.00  0.00     0.031 C 
ATOM     55  C   UNL A   1      44.659  29.718  31.677  1.00  0.00     0.029 A 
ATOM     56  C   UNL A   1      43.750  30.776  31.653  1.00  0.00     0.049 A 
ATOM     57  H   UNL A   1      44.204  32.582  30.650  1.00  0.00     0.167 HD
ATOM     58  C   UNL A   1      41.500  31.797  31.852  1.00  0.00     0.074 A 
ATOM     59  C   UNL A   1      41.422  32.645  30.665  1.00  0.00     0.031 C 
ATOM     60  C   UNL A   1      42.503  31.009  32.341  1.00  0.00     0.037 A 
BRANCH  47  61
ATOM     61  C   UNL A   1      44.809  32.235  27.605  1.00  0.00     0.064 A 
ATOM     62  C   UNL A   1      46.049  32.327  26.936  1.00  0.00     0.173 A 
ATOM     63  C   UNL A   1      44.119  33.452  27.775  1.00  0.00     0.173 A 
ATOM     64  F   UNL A   1      46.803  31.236  26.739  1.00  0.00    -0.203 F 
ATOM     65  C   UNL A   1      46.583  33.555  26.530  1.00  0.00     0.198 A 
ATOM     66  C   UNL A   1      44.631  34.668  27.323  1.00  0.00     0.198 A 
ATOM     67  F   UNL A   1      42.981  33.522  28.477  1.00  0.00    -0.203 F 
ATOM     68  F   UNL A   1      47.815  33.606  26.005  1.00  0.00    -0.200 F 
ATOM     69  C   UNL A   1      45.875  34.726  26.729  1.00  0.00     0.200 A 
ATOM     70  F   UNL A   1      43.940  35.796  27.542  1.00  0.00    -0.200 F 
ATOM     71  F   UNL A   1      46.408  35.908  26.395  1.00  0.00    -0.200 F 
ENDBRANCH  47  61
BRANCH  48  72
ATOM     72  C   UNL A   1      36.905  32.010  30.749  1.00  0.00     0.064 A 
ATOM     73  C   UNL A   1      36.015  32.005  31.831  1.00  0.00     0.173 A 
ATOM     74  C   UNL A   1      36.605  32.890  29.688  1.00  0.00     0.173 A 
ATOM     75  F   UNL A   1      36.254  31.226  32.896  1.00  0.00    -0.203 F 
ATOM     76  C   UNL A   1      34.902  32.850  31.863  1.00  0.00     0.198 A 
ATOM     77  C   UNL A   1      35.490  33.724  29.717  1.00  0.00     0.198 A 
ATOM     78  F   UNL A   1      37.439  33.020  28.646  1.00  0.00    -0.203 F 
ATOM     79  F   UNL A   1      34.106  32.863  32.941  1.00  0.00    -0.200 F 
ATOM     80  C   UNL A   1      34.646  33.715  30.811  1.00  0.00     0.200 A 
ATOM     81  F   UNL A   1      35.273  34.580  28.708  1.00  0.00    -0.200 F 
ATOM     82  F   UNL A   1      33.614  34.567  30.870  1.00  0.00    -0.200 F 
ENDBRANCH  48  72
BRANCH  60  83
ATOM     83  C   UNL A   1      42.198  30.124  33.520  1.00  0.00     0.064 A 
ATOM     84  C   UNL A   1      41.750  28.797  33.410  1.00  0.00     0.173 A 
ATOM     85  C   UNL A   1      42.503  30.589  34.806  1.00  0.00     0.173 A 
ATOM     86  F   UNL A   1      41.545  28.233  32.214  1.00  0.00    -0.203 F 
ATOM     87  C   UNL A   1      41.561  27.996  34.534  1.00  0.00     0.198 A 
ATOM     88  C   UNL A   1      42.350  29.776  35.927  1.00  0.00     0.198 A 
ATOM     89  F   UNL A   1      42.996  31.827  34.975  1.00  0.00    -0.203 F 
ATOM     90  F   UNL A   1      41.113  26.739  34.397  1.00  0.00    -0.200 F 
ATOM     91  C   UNL A   1      41.866  28.485  35.793  1.00  0.00     0.200 A 
ATOM     92  F   UNL A   1      42.696  30.236  37.136  1.00  0.00    -0.200 F 
ATOM     93  F   UNL A   1      41.719  27.705  36.872  1.00  0.00    -0.200 F 
ENDBRANCH  60  83
ENDBRANCH  34  35
ENDBRANCH  26  29
ENDBRANCH  24  25
ENDBRANCH  23  24
ENDBRANCH   1  23
TORSDOF 14
ENDMDL
MODEL 3
REMARK VINA RESULT:     -12.0      1.614      3.328
REMARK SMILES C[NH2+]C[C@H](C)C(=O)Nc1snc(C)c1C(=O)NCCCNC(=O)c1ccc(-c2c3nc(c(-c4c(F)c(F)c(F)c(F)c4F)c4ccc([nH]4)c(-c4c(F)c(F)c(F)c(F)c4F)c4nc(c(-c5c(F)c(F)c(F)c(F)c5F)c5ccc2[nH]5)C=C4)C=C3)cc1
REMARK SMILES IDX 18 1 17 2 15 3 16 4 14 6 9 7 10 8 11 9 12 10 13 11 8 12 6 13
REMARK SMILES IDX 7 14 4 16 5 17 3 18 2 19 1 20 19 23 20 24 21 25 22 26 23 28
REMARK SMILES IDX 24 29 25 30 86 31 26 32 85 33 27 34 28 35 29 36 79 37 30 38
REMARK SMILES IDX 84 39 78 40 80 41 31 42 83 43 77 44 76 45 32 47 64 48 44 49
REMARK SMILES IDX 63 50 45 51 48 52 62 53 81 54 46 55 47 56 61 58 82 59 49 60
REMARK SMILES IDX 33 61 34 62 42 63 35 64 36 65 40 66 43 67 37 68 38 69 41 70
REMARK SMILES IDX 39 71 65 72 66 73 74 74 67 75 68 76 72 77 75 78 69 79 70 80
REMARK SMILES IDX 73 81 71 82 50 83 51 84 59 85 52 86 53 87 57 88 60 89 54 90
REMARK SMILES IDX 55 91 58 92 56 93
REMARK H PARENT 17 5 8 15 2 21 2 22 21 27 80 46 48 57
REMARK Flexibility Score: inf
ROOT
ATOM      1  C   UNL A   1      37.916  21.636  25.695  1.00  0.00     0.118 C 
ENDROOT
BRANCH   1   2
ATOM      2  N   UNL A   1      37.368  22.098  24.433  1.00  0.00    -0.352 N 
ATOM      3  C   UNL A   1      36.089  22.535  24.134  1.00  0.00     0.256 C 
ATOM      4  O   UNL A   1      35.923  22.983  22.999  1.00  0.00    -0.269 OA
ATOM      5  H   UNL A   1      38.001  22.102  23.679  1.00  0.00     0.163 HD
BRANCH   3   6
ATOM      6  C   UNL A   1      34.969  22.396  25.073  1.00  0.00     0.097 A 
ATOM      7  C   UNL A   1      34.263  23.365  25.767  1.00  0.00     0.129 A 
ATOM      8  S   UNL A   1      33.611  22.639  27.174  1.00  0.00    -0.017 S 
ATOM      9  N   UNL A   1      33.660  21.105  26.577  1.00  0.00    -0.195 NA
ATOM     10  C   UNL A   1      34.364  21.114  25.441  1.00  0.00     0.066 A 
ATOM     11  C   UNL A   1      34.458  19.805  24.727  1.00  0.00     0.069 C 
BRANCH   7  12
ATOM     12  N   UNL A   1      34.040  24.715  25.720  1.00  0.00    -0.315 N 
ATOM     13  C   UNL A   1      33.756  25.551  24.686  1.00  0.00     0.233 C 
ATOM     14  O   UNL A   1      33.908  26.759  24.923  1.00  0.00    -0.274 OA
ATOM     15  H   UNL A   1      34.097  25.163  26.595  1.00  0.00     0.170 HD
BRANCH  13  16
ATOM     16  C   UNL A   1      33.133  25.138  23.352  1.00  0.00     0.130 C 
ATOM     17  C   UNL A   1      31.679  24.708  23.296  1.00  0.00     0.024 C 
BRANCH  16  18
ATOM     18  C   UNL A   1      33.519  26.126  22.237  1.00  0.00     0.273 C 
BRANCH  18  19
ATOM     19  N   UNL A   1      32.832  27.418  22.239  1.00  0.00    -0.348 N 
ATOM     20  C   UNL A   1      33.762  28.536  22.170  1.00  0.00     0.330 C 
ATOM     21  H   UNL A   1      32.209  27.458  21.433  1.00  0.00     0.346 HD
ATOM     22  H   UNL A   1      32.314  27.495  23.114  1.00  0.00     0.346 HD
ENDBRANCH  18  19
ENDBRANCH  16  18
ENDBRANCH  13  16
ENDBRANCH   7  12
ENDBRANCH   3   6
ENDBRANCH   1   2
BRANCH   1  23
ATOM     23  C   UNL A   1      39.276  20.954  25.670  1.00  0.00     0.042 C 
BRANCH  23  24
ATOM     24  C   UNL A   1      40.322  21.684  26.497  1.00  0.00     0.118 C 
BRANCH  24  25
ATOM     25  N   UNL A   1      41.535  22.086  25.774  1.00  0.00    -0.352 N 
ATOM     26  C   UNL A   1      42.086  23.364  25.767  1.00  0.00     0.251 C 
ATOM     27  H   UNL A   1      41.998  21.392  25.250  1.00  0.00     0.163 HD
ATOM     28  O   UNL A   1      42.933  23.722  24.970  1.00  0.00    -0.269 OA
BRANCH  26  29
ATOM     29  C   UNL A   1      41.575  24.287  26.797  1.00  0.00     0.039 A 
ATOM     30  C   UNL A   1      42.315  24.534  27.954  1.00  0.00     0.014 A 
ATOM     31  C   UNL A   1      40.539  25.124  26.399  1.00  0.00     0.014 A 
ATOM     32  C   UNL A   1      42.103  25.733  28.633  1.00  0.00     0.010 A 
ATOM     33  C   UNL A   1      40.448  26.368  26.985  1.00  0.00     0.010 A 
ATOM     34  C   UNL A   1      41.217  26.690  28.107  1.00  0.00    -0.014 A 
BRANCH  34  35
ATOM     35  C   UNL A   1      41.201  28.057  28.647  1.00  0.00     0.031 A 
ATOM     36  C   UNL A   1      42.308  28.981  28.234  1.00  0.00     0.074 A 
ATOM     37  C   UNL A   1      40.171  28.588  29.341  1.00  0.00     0.049 A 
ATOM     38  N   UNL A   1      43.197  29.532  28.997  1.00  0.00    -0.248 NA
ATOM     39  C   UNL A   1      42.471  29.313  26.810  1.00  0.00     0.031 C 
ATOM     40  C   UNL A   1      38.862  28.007  29.657  1.00  0.00     0.029 A 
ATOM     41  N   UNL A   1      40.069  29.850  29.847  1.00  0.00    -0.354 N 
ATOM     42  C   UNL A   1      43.956  30.383  28.193  1.00  0.00     0.074 A 
ATOM     43  C   UNL A   1      43.521  30.140  26.839  1.00  0.00     0.031 C 
ATOM     44  C   UNL A   1      38.027  28.975  30.085  1.00  0.00     0.029 A 
ATOM     45  C   UNL A   1      38.794  30.191  30.266  1.00  0.00     0.049 A 
ATOM     46  H   UNL A   1      40.834  30.465  29.909  1.00  0.00     0.167 HD
ATOM     47  C   UNL A   1      44.783  31.330  28.724  1.00  0.00     0.037 A 
ATOM     48  C   UNL A   1      38.382  31.382  30.754  1.00  0.00     0.037 A 
ATOM     49  C   UNL A   1      45.041  31.085  30.119  1.00  0.00     0.049 A 
ATOM     50  C   UNL A   1      39.575  32.075  31.292  1.00  0.00     0.074 A 
ATOM     51  C   UNL A   1      45.597  30.037  30.829  1.00  0.00     0.029 A 
ATOM     52  N   UNL A   1      44.388  31.845  31.058  1.00  0.00    -0.354 N 
ATOM     53  N   UNL A   1      40.230  31.675  32.347  1.00  0.00    -0.248 NA
ATOM     54  C   UNL A   1      40.305  32.971  30.408  1.00  0.00     0.031 C 
ATOM     55  C   UNL A   1      44.798  29.934  32.007  1.00  0.00     0.029 A 
ATOM     56  C   UNL A   1      43.855  30.961  31.963  1.00  0.00     0.049 A 
ATOM     57  H   UNL A   1      44.316  32.826  31.077  1.00  0.00     0.167 HD
ATOM     58  C   UNL A   1      41.562  31.898  32.038  1.00  0.00     0.074 A 
ATOM     59  C   UNL A   1      41.540  32.797  30.888  1.00  0.00     0.031 C 
ATOM     60  C   UNL A   1      42.554  31.121  32.566  1.00  0.00     0.037 A 
BRANCH  47  61
ATOM     61  C   UNL A   1      45.153  32.640  28.073  1.00  0.00     0.064 A 
ATOM     62  C   UNL A   1      44.151  33.598  27.800  1.00  0.00     0.173 A 
ATOM     63  C   UNL A   1      46.395  32.867  27.447  1.00  0.00     0.173 A 
ATOM     64  F   UNL A   1      42.923  33.471  28.324  1.00  0.00    -0.203 F 
ATOM     65  C   UNL A   1      44.363  34.661  26.916  1.00  0.00     0.198 A 
ATOM     66  C   UNL A   1      46.618  33.957  26.605  1.00  0.00     0.198 A 
ATOM     67  F   UNL A   1      47.399  31.986  27.540  1.00  0.00    -0.203 F 
ATOM     68  F   UNL A   1      43.347  35.477  26.599  1.00  0.00    -0.200 F 
ATOM     69  C   UNL A   1      45.594  34.837  26.315  1.00  0.00     0.200 A 
ATOM     70  F   UNL A   1      47.812  34.100  26.015  1.00  0.00    -0.200 F 
ATOM     71  F   UNL A   1      45.783  35.818  25.423  1.00  0.00    -0.200 F 
ENDBRANCH  47  61
BRANCH  48  72
ATOM     72  C   UNL A   1      37.055  32.012  30.607  1.00  0.00     0.064 A 
ATOM     73  C   UNL A   1      36.108  31.971  31.640  1.00  0.00     0.173 A 
ATOM     74  C   UNL A   1      36.786  32.889  29.536  1.00  0.00     0.173 A 
ATOM     75  F   UNL A   1      36.312  31.193  32.711  1.00  0.00    -0.203 F 
ATOM     76  C   UNL A   1      34.969  32.781  31.615  1.00  0.00     0.198 A 
ATOM     77  C   UNL A   1      35.645  33.689  29.509  1.00  0.00     0.198 A 
ATOM     78  F   UNL A   1      37.671  33.052  28.542  1.00  0.00    -0.203 F 
ATOM     79  F   UNL A   1      34.116  32.762  32.648  1.00  0.00    -0.200 F 
ATOM     80  C   UNL A   1      34.744  33.646  30.556  1.00  0.00     0.200 A 
ATOM     81  F   UNL A   1      35.457  34.545  28.495  1.00  0.00    -0.200 F 
ATOM     82  F   UNL A   1      33.684  34.465  30.563  1.00  0.00    -0.200 F 
ENDBRANCH  48  72
BRANCH  60  83
ATOM     83  C   UNL A   1      42.197  30.173  33.679  1.00  0.00     0.064 A 
ATOM     84  C   UNL A   1      41.751  28.856  33.475  1.00  0.00     0.173 A 
ATOM     85  C   UNL A   1      42.446  30.564  35.001  1.00  0.00     0.173 A 
ATOM     86  F   UNL A   1      41.597  28.361  32.242  1.00  0.00    -0.203 F 
ATOM     87  C   UNL A   1      41.511  27.994  34.543  1.00  0.00     0.198 A 
ATOM     88  C   UNL A   1      42.243  29.689  36.066  1.00  0.00     0.198 A 
ATOM     89  F   UNL A   1      42.934  31.788  35.260  1.00  0.00    -0.203 F 
ATOM     90  F   UNL A   1      41.067  26.749  34.316  1.00  0.00    -0.200 F 
ATOM     91  C   UNL A   1      41.762  28.411  35.839  1.00  0.00     0.200 A 
ATOM     92  F   UNL A   1      42.537  30.080  37.314  1.00  0.00    -0.200 F 
ATOM     93  F   UNL A   1      41.567  27.571  36.866  1.00  0.00    -0.200 F 
ENDBRANCH  60  83
ENDBRANCH  34  35
ENDBRANCH  26  29
ENDBRANCH  24  25
ENDBRANCH  23  24
ENDBRANCH   1  23
TORSDOF 14
ENDMDL
