MODEL 1
REMARK VINA RESULT:     -12.6      0.000      0.000
REMARK SMILES COc1ccc(-c2ccc(C#N)c(S[C@@H](C)C(=O)NCCCNC(=O)c3ccc(-c4c5nc(c(-c6c(F)c(F)c(F)c(F)c6F)c6ccc([nH]6)c(-c6c(F)c(F)c(F)c(F)c6F)c6nc(c(-c7c(F)c(F)c(F)c(F)c7F)c7ccc4[nH]7)C=C6)C=C5)cc3)n2)cc1
REMARK SMILES IDX 20 1 19 2 17 3 18 4 15 6 16 7 14 8 13 9 7 10 8 11 89 12 9 13
REMARK SMILES IDX 10 14 6 15 3 16 4 17 91 18 5 19 90 20 2 21 1 22 11 23 12 24
REMARK SMILES IDX 21 25 22 26 23 27 24 28 25 30 26 31 27 32 88 33 28 34 87 35
REMARK SMILES IDX 29 36 30 37 31 38 81 39 32 40 86 41 80 42 82 43 33 44 85 45
REMARK SMILES IDX 79 46 78 47 34 49 66 50 46 51 65 52 47 53 50 54 64 55 83 56
REMARK SMILES IDX 48 57 49 58 63 60 84 61 51 62 35 63 36 64 44 65 37 66 38 67
REMARK SMILES IDX 42 68 45 69 39 70 40 71 43 72 41 73 67 74 68 75 76 76 69 77
REMARK SMILES IDX 70 78 74 79 77 80 71 81 72 82 75 83 73 84 52 85 53 86 61 87
REMARK SMILES IDX 54 88 55 89 59 90 62 91 56 92 57 93 60 94 58 95
REMARK H PARENT 19 5 23 29 82 48 50 59
REMARK Flexibility Score: inf
ROOT
ATOM      1  C   UNL A   1      31.916  30.551  26.331  1.00  0.00     0.117 C 
ENDROOT
BRANCH   1   2
ATOM      2  N   UNL A   1      31.410  30.152  25.045  1.00  0.00    -0.355 N 
ATOM      3  C   UNL A   1      31.845  29.326  24.071  1.00  0.00     0.233 C 
ATOM      4  O   UNL A   1      31.056  29.218  23.118  1.00  0.00    -0.274 OA
ATOM      5  H   UNL A   1      30.550  30.578  24.826  1.00  0.00     0.163 HD
BRANCH   3   6
ATOM      6  C   UNL A   1      33.106  28.462  24.086  1.00  0.00     0.139 C 
ATOM      7  C   UNL A   1      34.029  28.629  22.892  1.00  0.00     0.030 C 
BRANCH   6   8
ATOM      8  S   UNL A   1      33.128  26.888  25.013  1.00  0.00    -0.092 SA
BRANCH   8   9
ATOM      9  C   UNL A   1      33.421  25.434  24.042  1.00  0.00     0.115 A 
ATOM     10  C   UNL A   1      34.785  23.497  24.141  1.00  0.00     0.072 A 
ATOM     11  C   UNL A   1      34.143  22.945  23.047  1.00  0.00     0.030 A 
ATOM     12  N   UNL A   1      34.388  24.684  24.663  1.00  0.00    -0.240 NA
ATOM     13  C   UNL A   1      33.203  23.711  22.381  1.00  0.00     0.024 A 
ATOM     14  C   UNL A   1      32.883  25.001  22.833  1.00  0.00     0.084 A 
BRANCH  10  15
ATOM     15  C   UNL A   1      36.029  22.906  24.660  1.00  0.00     0.000 A 
ATOM     16  C   UNL A   1      38.387  21.646  25.583  1.00  0.00     0.118 A 
ATOM     17  C   UNL A   1      38.192  23.014  25.781  1.00  0.00     0.047 A 
ATOM     18  C   UNL A   1      37.402  20.897  24.952  1.00  0.00     0.047 A 
ATOM     19  C   UNL A   1      37.030  23.645  25.305  1.00  0.00     0.014 A 
ATOM     20  C   UNL A   1      36.246  21.523  24.491  1.00  0.00     0.014 A 
BRANCH  16  21
ATOM     21  O   UNL A   1      39.540  21.096  26.073  1.00  0.00    -0.497 OA
ATOM     22  C   UNL A   1      40.284  21.993  26.902  1.00  0.00     0.278 C 
ENDBRANCH  16  21
ENDBRANCH  10  15
BRANCH  14  23
ATOM     23  C   UNL A   1      32.016  25.744  21.985  1.00  0.00     0.102 C 
ATOM     24  N   UNL A   1      31.340  26.453  21.356  1.00  0.00    -0.192 NA
ENDBRANCH  14  23
ENDBRANCH   8   9
ENDBRANCH   6   8
ENDBRANCH   3   6
ENDBRANCH   1   2
BRANCH   1  25
ATOM     25  C   UNL A   1      31.576  32.000  26.641  1.00  0.00     0.042 C 
BRANCH  25  26
ATOM     26  C   UNL A   1      32.698  32.767  27.318  1.00  0.00     0.118 C 
BRANCH  26  27
ATOM     27  N   UNL A   1      32.362  34.127  27.712  1.00  0.00    -0.352 N 
ATOM     28  C   UNL A   1      32.962  34.974  28.615  1.00  0.00     0.251 C 
ATOM     29  H   UNL A   1      31.574  34.503  27.258  1.00  0.00     0.163 HD
ATOM     30  O   UNL A   1      32.456  36.076  28.817  1.00  0.00    -0.269 OA
BRANCH  28  31
ATOM     31  C   UNL A   1      34.157  34.562  29.394  1.00  0.00     0.039 A 
ATOM     32  C   UNL A   1      33.971  34.047  30.682  1.00  0.00     0.014 A 
ATOM     33  C   UNL A   1      35.449  34.651  28.878  1.00  0.00     0.014 A 
ATOM     34  C   UNL A   1      35.058  33.531  31.395  1.00  0.00     0.010 A 
ATOM     35  C   UNL A   1      36.504  34.019  29.527  1.00  0.00     0.010 A 
ATOM     36  C   UNL A   1      36.324  33.456  30.797  1.00  0.00    -0.014 A 
BRANCH  36  37
ATOM     37  C   UNL A   1      37.479  32.808  31.473  1.00  0.00     0.031 A 
ATOM     38  C   UNL A   1      38.173  31.639  30.822  1.00  0.00     0.074 A 
ATOM     39  C   UNL A   1      37.839  33.204  32.710  1.00  0.00     0.049 A 
ATOM     40  N   UNL A   1      39.099  30.848  31.303  1.00  0.00    -0.248 NA
ATOM     41  C   UNL A   1      37.733  31.281  29.462  1.00  0.00     0.031 C 
ATOM     42  C   UNL A   1      37.201  34.272  33.484  1.00  0.00     0.029 A 
ATOM     43  N   UNL A   1      38.824  32.738  33.545  1.00  0.00    -0.354 N 
ATOM     44  C   UNL A   1      39.323  29.888  30.324  1.00  0.00     0.074 A 
ATOM     45  C   UNL A   1      38.394  30.153  29.249  1.00  0.00     0.031 C 
ATOM     46  C   UNL A   1      37.826  34.398  34.666  1.00  0.00     0.029 A 
ATOM     47  C   UNL A   1      38.880  33.394  34.752  1.00  0.00     0.049 A 
ATOM     48  H   UNL A   1      39.433  32.004  33.303  1.00  0.00     0.167 HD
ATOM     49  C   UNL A   1      40.241  28.893  30.307  1.00  0.00     0.037 A 
ATOM     50  C   UNL A   1      39.686  33.196  35.812  1.00  0.00     0.037 A 
ATOM     51  C   UNL A   1      41.197  28.662  31.357  1.00  0.00     0.049 A 
ATOM     52  C   UNL A   1      40.720  32.105  35.754  1.00  0.00     0.074 A 
ATOM     53  C   UNL A   1      42.214  27.725  31.409  1.00  0.00     0.029 A 
ATOM     54  N   UNL A   1      41.257  29.386  32.539  1.00  0.00    -0.354 N 
ATOM     55  N   UNL A   1      40.964  31.244  34.796  1.00  0.00    -0.248 NA
ATOM     56  C   UNL A   1      41.595  31.963  36.926  1.00  0.00     0.031 C 
ATOM     57  C   UNL A   1      42.864  27.855  32.641  1.00  0.00     0.029 A 
ATOM     58  C   UNL A   1      42.287  28.908  33.333  1.00  0.00     0.049 A 
ATOM     59  H   UNL A   1      40.658  30.129  32.778  1.00  0.00     0.167 HD
ATOM     60  C   UNL A   1      42.033  30.476  35.237  1.00  0.00     0.074 A 
ATOM     61  C   UNL A   1      42.404  30.986  36.540  1.00  0.00     0.031 C 
ATOM     62  C   UNL A   1      42.649  29.438  34.622  1.00  0.00     0.037 A 
BRANCH  49  63
ATOM     63  C   UNL A   1      40.271  27.988  29.107  1.00  0.00     0.064 A 
ATOM     64  C   UNL A   1      41.038  28.295  27.973  1.00  0.00     0.173 A 
ATOM     65  C   UNL A   1      39.558  26.779  29.107  1.00  0.00     0.173 A 
ATOM     66  F   UNL A   1      41.730  29.443  27.916  1.00  0.00    -0.203 F 
ATOM     67  C   UNL A   1      41.067  27.442  26.873  1.00  0.00     0.198 A 
ATOM     68  C   UNL A   1      39.617  25.912  28.018  1.00  0.00     0.198 A 
ATOM     69  F   UNL A   1      38.813  26.432  30.166  1.00  0.00    -0.203 F 
ATOM     70  F   UNL A   1      41.765  27.784  25.781  1.00  0.00    -0.200 F 
ATOM     71  C   UNL A   1      40.364  26.248  26.899  1.00  0.00     0.200 A 
ATOM     72  F   UNL A   1      38.947  24.751  28.051  1.00  0.00    -0.200 F 
ATOM     73  F   UNL A   1      40.401  25.423  25.843  1.00  0.00    -0.200 F 
ENDBRANCH  49  63
BRANCH  50  74
ATOM     74  C   UNL A   1      39.565  34.060  37.015  1.00  0.00     0.064 A 
ATOM     75  C   UNL A   1      38.806  33.646  38.120  1.00  0.00     0.173 A 
ATOM     76  C   UNL A   1      40.169  35.324  37.073  1.00  0.00     0.173 A 
ATOM     77  F   UNL A   1      38.184  32.458  38.097  1.00  0.00    -0.203 F 
ATOM     78  C   UNL A   1      38.635  34.475  39.226  1.00  0.00     0.198 A 
ATOM     79  C   UNL A   1      40.010  36.145  38.186  1.00  0.00     0.198 A 
ATOM     80  F   UNL A   1      40.906  35.764  36.041  1.00  0.00    -0.203 F 
ATOM     81  F   UNL A   1      37.859  34.078  40.243  1.00  0.00    -0.200 F 
ATOM     82  C   UNL A   1      39.241  35.721  39.261  1.00  0.00     0.200 A 
ATOM     83  F   UNL A   1      40.589  37.353  38.217  1.00  0.00    -0.200 F 
ATOM     84  F   UNL A   1      39.072  36.520  40.323  1.00  0.00    -0.200 F 
ENDBRANCH  50  74
BRANCH  62  85
ATOM     85  C   UNL A   1      43.814  28.810  35.330  1.00  0.00     0.064 A 
ATOM     86  C   UNL A   1      45.128  29.251  35.118  1.00  0.00     0.173 A 
ATOM     87  C   UNL A   1      43.606  27.783  36.263  1.00  0.00     0.173 A 
ATOM     88  F   UNL A   1      45.380  30.220  34.226  1.00  0.00    -0.203 F 
ATOM     89  C   UNL A   1      46.195  28.668  35.797  1.00  0.00     0.198 A 
ATOM     90  C   UNL A   1      44.671  27.225  36.963  1.00  0.00     0.198 A 
ATOM     91  F   UNL A   1      42.367  27.332  36.507  1.00  0.00    -0.203 F 
ATOM     92  F   UNL A   1      47.448  29.070  35.543  1.00  0.00    -0.200 F 
ATOM     93  C   UNL A   1      45.965  27.661  36.724  1.00  0.00     0.200 A 
ATOM     94  F   UNL A   1      44.444  26.265  37.870  1.00  0.00    -0.200 F 
ATOM     95  F   UNL A   1      46.992  27.108  37.383  1.00  0.00    -0.200 F 
ENDBRANCH  62  85
ENDBRANCH  36  37
ENDBRANCH  28  31
ENDBRANCH  26  27
ENDBRANCH  25  26
ENDBRANCH   1  25
TORSDOF 15
ENDMDL
MODEL 2
REMARK VINA RESULT:     -12.6      5.757     10.016
REMARK SMILES COc1ccc(-c2ccc(C#N)c(S[C@@H](C)C(=O)NCCCNC(=O)c3ccc(-c4c5nc(c(-c6c(F)c(F)c(F)c(F)c6F)c6ccc([nH]6)c(-c6c(F)c(F)c(F)c(F)c6F)c6nc(c(-c7c(F)c(F)c(F)c(F)c7F)c7ccc4[nH]7)C=C6)C=C5)cc3)n2)cc1
REMARK SMILES IDX 20 1 19 2 17 3 18 4 15 6 16 7 14 8 13 9 7 10 8 11 89 12 9 13
REMARK SMILES IDX 10 14 6 15 3 16 4 17 91 18 5 19 90 20 2 21 1 22 11 23 12 24
REMARK SMILES IDX 21 25 22 26 23 27 24 28 25 30 26 31 27 32 88 33 28 34 87 35
REMARK SMILES IDX 29 36 30 37 31 38 81 39 32 40 86 41 80 42 82 43 33 44 85 45
REMARK SMILES IDX 79 46 78 47 34 49 66 50 46 51 65 52 47 53 50 54 64 55 83 56
REMARK SMILES IDX 48 57 49 58 63 60 84 61 51 62 35 63 36 64 44 65 37 66 38 67
REMARK SMILES IDX 42 68 45 69 39 70 40 71 43 72 41 73 67 74 68 75 76 76 69 77
REMARK SMILES IDX 70 78 74 79 77 80 71 81 72 82 75 83 73 84 52 85 53 86 61 87
REMARK SMILES IDX 54 88 55 89 59 90 62 91 56 92 57 93 60 94 58 95
REMARK H PARENT 19 5 23 29 82 48 50 59
REMARK Flexibility Score: inf
ROOT
ATOM      1  C   UNL A   1      36.910  20.480  25.005  1.00  0.00     0.117 C 
ENDROOT
BRANCH   1   2
ATOM      2  N   UNL A   1      37.044  21.506  24.005  1.00  0.00    -0.355 N 
ATOM      3  C   UNL A   1      36.649  22.792  23.910  1.00  0.00     0.233 C 
ATOM      4  O   UNL A   1      37.028  23.356  22.872  1.00  0.00    -0.274 OA
ATOM      5  H   UNL A   1      37.537  21.200  23.209  1.00  0.00     0.163 HD
BRANCH   3   6
ATOM      6  C   UNL A   1      35.912  23.614  24.969  1.00  0.00     0.139 C 
ATOM      7  C   UNL A   1      36.743  24.030  26.169  1.00  0.00     0.030 C 
BRANCH   6   8
ATOM      8  S   UNL A   1      34.101  23.462  25.151  1.00  0.00    -0.092 SA
BRANCH   8   9
ATOM      9  C   UNL A   1      33.298  22.421  23.961  1.00  0.00     0.115 A 
ATOM     10  C   UNL A   1      32.672  20.144  23.752  1.00  0.00     0.072 A 
ATOM     11  C   UNL A   1      31.980  20.404  22.582  1.00  0.00     0.030 A 
ATOM     12  N   UNL A   1      33.260  21.142  24.457  1.00  0.00    -0.240 NA
ATOM     13  C   UNL A   1      32.053  21.677  22.044  1.00  0.00     0.024 A 
ATOM     14  C   UNL A   1      32.778  22.687  22.696  1.00  0.00     0.084 A 
BRANCH  10  15
ATOM     15  C   UNL A   1      32.943  18.761  24.174  1.00  0.00     0.000 A 
ATOM     16  C   UNL A   1      33.552  16.087  24.867  1.00  0.00     0.118 A 
ATOM     17  C   UNL A   1      32.882  16.917  25.769  1.00  0.00     0.047 A 
ATOM     18  C   UNL A   1      33.896  16.574  23.612  1.00  0.00     0.047 A 
ATOM     19  C   UNL A   1      32.597  18.251  25.434  1.00  0.00     0.014 A 
ATOM     20  C   UNL A   1      33.602  17.894  23.278  1.00  0.00     0.014 A 
BRANCH  16  21
ATOM     21  O   UNL A   1      33.797  14.799  25.258  1.00  0.00    -0.497 OA
ATOM     22  C   UNL A   1      32.625  14.116  25.713  1.00  0.00     0.278 C 
ENDBRANCH  16  21
ENDBRANCH  10  15
BRANCH  14  23
ATOM     23  C   UNL A   1      32.903  23.906  21.975  1.00  0.00     0.102 C 
ATOM     24  N   UNL A   1      33.071  24.947  21.482  1.00  0.00    -0.192 NA
ENDBRANCH  14  23
ENDBRANCH   8   9
ENDBRANCH   6   8
ENDBRANCH   3   6
ENDBRANCH   1   2
BRANCH   1  25
ATOM     25  C   UNL A   1      38.081  19.510  24.970  1.00  0.00     0.042 C 
BRANCH  25  26
ATOM     26  C   UNL A   1      39.287  19.969  25.771  1.00  0.00     0.118 C 
BRANCH  26  27
ATOM     27  N   UNL A   1      40.380  19.011  25.839  1.00  0.00    -0.352 N 
ATOM     28  C   UNL A   1      41.713  19.189  26.126  1.00  0.00     0.251 C 
ATOM     29  H   UNL A   1      40.123  18.080  25.646  1.00  0.00     0.163 HD
ATOM     30  O   UNL A   1      42.464  18.218  26.071  1.00  0.00    -0.269 OA
BRANCH  28  31
ATOM     31  C   UNL A   1      42.271  20.531  26.432  1.00  0.00     0.039 A 
ATOM     32  C   UNL A   1      42.720  21.327  25.372  1.00  0.00     0.014 A 
ATOM     33  C   UNL A   1      42.342  21.029  27.732  1.00  0.00     0.014 A 
ATOM     34  C   UNL A   1      43.131  22.642  25.607  1.00  0.00     0.010 A 
ATOM     35  C   UNL A   1      42.622  22.374  27.949  1.00  0.00     0.010 A 
ATOM     36  C   UNL A   1      43.027  23.197  26.891  1.00  0.00    -0.014 A 
BRANCH  36  37
ATOM     37  C   UNL A   1      43.341  24.625  27.162  1.00  0.00     0.031 A 
ATOM     38  C   UNL A   1      44.737  25.144  26.933  1.00  0.00     0.074 A 
ATOM     39  C   UNL A   1      42.403  25.425  27.705  1.00  0.00     0.049 A 
ATOM     40  N   UNL A   1      45.253  26.309  27.239  1.00  0.00    -0.248 NA
ATOM     41  C   UNL A   1      45.698  24.212  26.318  1.00  0.00     0.031 C 
ATOM     42  C   UNL A   1      41.035  25.027  28.047  1.00  0.00     0.029 A 
ATOM     43  N   UNL A   1      42.465  26.743  28.083  1.00  0.00    -0.354 N 
ATOM     44  C   UNL A   1      46.595  26.233  26.887  1.00  0.00     0.074 A 
ATOM     45  C   UNL A   1      46.832  24.891  26.406  1.00  0.00     0.031 C 
ATOM     46  C   UNL A   1      40.380  26.082  28.559  1.00  0.00     0.029 A 
ATOM     47  C   UNL A   1      41.292  27.219  28.620  1.00  0.00     0.049 A 
ATOM     48  H   UNL A   1      43.273  27.296  27.981  1.00  0.00     0.167 HD
ATOM     49  C   UNL A   1      47.539  27.203  26.933  1.00  0.00     0.037 A 
ATOM     50  C   UNL A   1      40.993  28.434  29.116  1.00  0.00     0.037 A 
ATOM     51  C   UNL A   1      47.287  28.552  27.367  1.00  0.00     0.049 A 
ATOM     52  C   UNL A   1      42.051  29.504  29.123  1.00  0.00     0.074 A 
ATOM     53  C   UNL A   1      48.155  29.629  27.387  1.00  0.00     0.029 A 
ATOM     54  N   UNL A   1      46.069  29.008  27.850  1.00  0.00    -0.354 N 
ATOM     55  N   UNL A   1      43.299  29.438  28.729  1.00  0.00    -0.248 NA
ATOM     56  C   UNL A   1      41.653  30.821  29.641  1.00  0.00     0.031 C 
ATOM     57  C   UNL A   1      47.473  30.727  27.921  1.00  0.00     0.029 A 
ATOM     58  C   UNL A   1      46.166  30.348  28.182  1.00  0.00     0.049 A 
ATOM     59  H   UNL A   1      45.256  28.461  27.941  1.00  0.00     0.167 HD
ATOM     60  C   UNL A   1      43.828  30.707  28.928  1.00  0.00     0.074 A 
ATOM     61  C   UNL A   1      42.760  31.527  29.458  1.00  0.00     0.031 C 
ATOM     62  C   UNL A   1      45.087  31.151  28.697  1.00  0.00     0.037 A 
BRANCH  49  63
ATOM     63  C   UNL A   1      48.929  26.849  26.484  1.00  0.00     0.064 A 
ATOM     64  C   UNL A   1      49.878  26.324  27.373  1.00  0.00     0.173 A 
ATOM     65  C   UNL A   1      49.304  26.997  25.139  1.00  0.00     0.173 A 
ATOM     66  F   UNL A   1      49.576  26.173  28.672  1.00  0.00    -0.203 F 
ATOM     67  C   UNL A   1      51.159  25.988  26.942  1.00  0.00     0.198 A 
ATOM     68  C   UNL A   1      50.575  26.628  24.704  1.00  0.00     0.198 A 
ATOM     69  F   UNL A   1      48.435  27.489  24.244  1.00  0.00    -0.203 F 
ATOM     70  F   UNL A   1      52.064  25.539  27.822  1.00  0.00    -0.200 F 
ATOM     71  C   UNL A   1      51.503  26.132  25.607  1.00  0.00     0.200 A 
ATOM     72  F   UNL A   1      50.902  26.754  23.410  1.00  0.00    -0.200 F 
ATOM     73  F   UNL A   1      52.733  25.799  25.191  1.00  0.00    -0.200 F 
ENDBRANCH  49  63
BRANCH  50  74
ATOM     74  C   UNL A   1      39.628  28.717  29.630  1.00  0.00     0.064 A 
ATOM     75  C   UNL A   1      38.651  29.280  28.795  1.00  0.00     0.173 A 
ATOM     76  C   UNL A   1      39.282  28.470  30.966  1.00  0.00     0.173 A 
ATOM     77  F   UNL A   1      38.946  29.564  27.517  1.00  0.00    -0.203 F 
ATOM     78  C   UNL A   1      37.389  29.609  29.283  1.00  0.00     0.198 A 
ATOM     79  C   UNL A   1      38.014  28.784  31.449  1.00  0.00     0.198 A 
ATOM     80  F   UNL A   1      40.181  27.932  31.803  1.00  0.00    -0.203 F 
ATOM     81  F   UNL A   1      36.494  30.197  28.478  1.00  0.00    -0.200 F 
ATOM     82  C   UNL A   1      37.069  29.355  30.608  1.00  0.00     0.200 A 
ATOM     83  F   UNL A   1      37.707  28.547  32.731  1.00  0.00    -0.200 F 
ATOM     84  F   UNL A   1      35.856  29.676  31.079  1.00  0.00    -0.200 F 
ENDBRANCH  50  74
BRANCH  62  85
ATOM     85  C   UNL A   1      45.369  32.598  28.977  1.00  0.00     0.064 A 
ATOM     86  C   UNL A   1      45.884  33.023  30.210  1.00  0.00     0.173 A 
ATOM     87  C   UNL A   1      45.160  33.566  27.982  1.00  0.00     0.173 A 
ATOM     88  F   UNL A   1      46.087  32.139  31.198  1.00  0.00    -0.203 F 
ATOM     89  C   UNL A   1      46.154  34.368  30.445  1.00  0.00     0.198 A 
ATOM     90  C   UNL A   1      45.462  34.904  28.210  1.00  0.00     0.198 A 
ATOM     91  F   UNL A   1      44.676  33.209  26.783  1.00  0.00    -0.203 F 
ATOM     92  F   UNL A   1      46.600  34.760  31.648  1.00  0.00    -0.200 F 
ATOM     93  C   UNL A   1      45.951  35.306  29.443  1.00  0.00     0.200 A 
ATOM     94  F   UNL A   1      45.281  35.806  27.235  1.00  0.00    -0.200 F 
ATOM     95  F   UNL A   1      46.222  36.599  29.669  1.00  0.00    -0.200 F 
ENDBRANCH  62  85
ENDBRANCH  36  37
ENDBRANCH  28  31
ENDBRANCH  26  27
ENDBRANCH  25  26
ENDBRANCH   1  25
TORSDOF 15
ENDMDL
MODEL 3
REMARK VINA RESULT:     -12.3      5.925     11.238
REMARK SMILES COc1ccc(-c2ccc(C#N)c(S[C@@H](C)C(=O)NCCCNC(=O)c3ccc(-c4c5nc(c(-c6c(F)c(F)c(F)c(F)c6F)c6ccc([nH]6)c(-c6c(F)c(F)c(F)c(F)c6F)c6nc(c(-c7c(F)c(F)c(F)c(F)c7F)c7ccc4[nH]7)C=C6)C=C5)cc3)n2)cc1
REMARK SMILES IDX 20 1 19 2 17 3 18 4 15 6 16 7 14 8 13 9 7 10 8 11 89 12 9 13
REMARK SMILES IDX 10 14 6 15 3 16 4 17 91 18 5 19 90 20 2 21 1 22 11 23 12 24
REMARK SMILES IDX 21 25 22 26 23 27 24 28 25 30 26 31 27 32 88 33 28 34 87 35
REMARK SMILES IDX 29 36 30 37 31 38 81 39 32 40 86 41 80 42 82 43 33 44 85 45
REMARK SMILES IDX 79 46 78 47 34 49 66 50 46 51 65 52 47 53 50 54 64 55 83 56
REMARK SMILES IDX 48 57 49 58 63 60 84 61 51 62 35 63 36 64 44 65 37 66 38 67
REMARK SMILES IDX 42 68 45 69 39 70 40 71 43 72 41 73 67 74 68 75 76 76 69 77
REMARK SMILES IDX 70 78 74 79 77 80 71 81 72 82 75 83 73 84 52 85 53 86 61 87
REMARK SMILES IDX 54 88 55 89 59 90 62 91 56 92 57 93 60 94 58 95
REMARK H PARENT 19 5 23 29 82 48 50 59
REMARK Flexibility Score: inf
ROOT
ATOM      1  C   UNL A   1      36.910  20.710  25.110  1.00  0.00     0.117 C 
ENDROOT
BRANCH   1   2
ATOM      2  N   UNL A   1      36.956  21.669  24.039  1.00  0.00    -0.355 N 
ATOM      3  C   UNL A   1      36.815  23.009  23.961  1.00  0.00     0.233 C 
ATOM      4  O   UNL A   1      36.988  23.464  22.819  1.00  0.00    -0.274 OA
ATOM      5  H   UNL A   1      37.129  21.254  23.163  1.00  0.00     0.163 HD
BRANCH   3   6
ATOM      6  C   UNL A   1      36.591  23.984  25.117  1.00  0.00     0.139 C 
ATOM      7  C   UNL A   1      37.635  23.942  26.220  1.00  0.00     0.030 C 
BRANCH   6   8
ATOM      8  S   UNL A   1      34.906  24.570  25.509  1.00  0.00    -0.092 SA
BRANCH   8   9
ATOM      9  C   UNL A   1      33.615  23.927  24.478  1.00  0.00     0.115 A 
ATOM     10  C   UNL A   1      32.488  21.867  24.147  1.00  0.00     0.072 A 
ATOM     11  C   UNL A   1      31.582  22.460  23.285  1.00  0.00     0.030 A 
ATOM     12  N   UNL A   1      33.440  22.599  24.777  1.00  0.00    -0.240 NA
ATOM     13  C   UNL A   1      31.777  23.785  22.936  1.00  0.00     0.024 A 
ATOM     14  C   UNL A   1      32.846  24.516  23.477  1.00  0.00     0.084 A 
BRANCH  10  15
ATOM     15  C   UNL A   1      32.562  20.403  24.269  1.00  0.00     0.000 A 
ATOM     16  C   UNL A   1      32.706  17.580  24.355  1.00  0.00     0.118 A 
ATOM     17  C   UNL A   1      32.891  18.333  25.516  1.00  0.00     0.047 A 
ATOM     18  C   UNL A   1      32.422  18.223  23.157  1.00  0.00     0.047 A 
ATOM     19  C   UNL A   1      32.840  19.736  25.470  1.00  0.00     0.014 A 
ATOM     20  C   UNL A   1      32.361  19.614  23.117  1.00  0.00     0.014 A 
BRANCH  16  21
ATOM     21  O   UNL A   1      32.768  16.217  24.471  1.00  0.00    -0.497 OA
ATOM     22  C   UNL A   1      33.863  15.769  25.275  1.00  0.00     0.278 C 
ENDBRANCH  16  21
ENDBRANCH  10  15
BRANCH  14  23
ATOM     23  C   UNL A   1      33.030  25.816  22.932  1.00  0.00     0.102 C 
ATOM     24  N   UNL A   1      33.217  26.916  22.600  1.00  0.00    -0.192 NA
ENDBRANCH  14  23
ENDBRANCH   8   9
ENDBRANCH   6   8
ENDBRANCH   3   6
ENDBRANCH   1   2
BRANCH   1  25
ATOM     25  C   UNL A   1      38.015  19.674  24.979  1.00  0.00     0.042 C 
BRANCH  25  26
ATOM     26  C   UNL A   1      39.293  20.037  25.715  1.00  0.00     0.118 C 
BRANCH  26  27
ATOM     27  N   UNL A   1      40.289  18.978  25.775  1.00  0.00    -0.352 N 
ATOM     28  C   UNL A   1      41.629  19.023  26.084  1.00  0.00     0.251 C 
ATOM     29  H   UNL A   1      39.948  18.080  25.557  1.00  0.00     0.163 HD
ATOM     30  O   UNL A   1      42.286  17.987  26.015  1.00  0.00    -0.269 OA
BRANCH  28  31
ATOM     31  C   UNL A   1      42.306  20.299  26.428  1.00  0.00     0.039 A 
ATOM     32  C   UNL A   1      42.977  20.995  25.416  1.00  0.00     0.014 A 
ATOM     33  C   UNL A   1      42.277  20.833  27.715  1.00  0.00     0.014 A 
ATOM     34  C   UNL A   1      43.515  22.259  25.672  1.00  0.00     0.010 A 
ATOM     35  C   UNL A   1      42.693  22.142  27.936  1.00  0.00     0.010 A 
ATOM     36  C   UNL A   1      43.323  22.871  26.919  1.00  0.00    -0.014 A 
BRANCH  36  37
ATOM     37  C   UNL A   1      43.776  24.260  27.196  1.00  0.00     0.031 A 
ATOM     38  C   UNL A   1      42.792  25.286  27.698  1.00  0.00     0.074 A 
ATOM     39  C   UNL A   1      45.040  24.623  26.904  1.00  0.00     0.049 A 
ATOM     40  N   UNL A   1      42.946  26.575  27.863  1.00  0.00    -0.248 NA
ATOM     41  C   UNL A   1      41.435  24.804  28.011  1.00  0.00     0.031 C 
ATOM     42  C   UNL A   1      46.072  23.746  26.342  1.00  0.00     0.029 A 
ATOM     43  N   UNL A   1      45.671  25.836  27.024  1.00  0.00    -0.354 N 
ATOM     44  C   UNL A   1      41.706  27.057  28.264  1.00  0.00     0.074 A 
ATOM     45  C   UNL A   1      40.793  25.937  28.254  1.00  0.00     0.031 C 
ATOM     46  C   UNL A   1      47.211  24.442  26.191  1.00  0.00     0.029 A 
ATOM     47  C   UNL A   1      46.980  25.821  26.604  1.00  0.00     0.049 A 
ATOM     48  H   UNL A   1      45.227  26.641  27.375  1.00  0.00     0.167 HD
ATOM     49  C   UNL A   1      41.365  28.314  28.636  1.00  0.00     0.037 A 
ATOM     50  C   UNL A   1      47.887  26.814  26.551  1.00  0.00     0.037 A 
ATOM     51  C   UNL A   1      42.289  29.416  28.691  1.00  0.00     0.049 A 
ATOM     52  C   UNL A   1      47.491  28.194  27.003  1.00  0.00     0.074 A 
ATOM     53  C   UNL A   1      42.062  30.711  29.119  1.00  0.00     0.029 A 
ATOM     54  N   UNL A   1      43.621  29.345  28.313  1.00  0.00    -0.354 N 
ATOM     55  N   UNL A   1      46.332  28.622  27.440  1.00  0.00    -0.248 NA
ATOM     56  C   UNL A   1      48.535  29.228  26.957  1.00  0.00     0.031 C 
ATOM     57  C   UNL A   1      43.247  31.436  28.960  1.00  0.00     0.029 A 
ATOM     58  C   UNL A   1      44.226  30.578  28.485  1.00  0.00     0.049 A 
ATOM     59  H   UNL A   1      44.070  28.538  27.973  1.00  0.00     0.167 HD
ATOM     60  C   UNL A   1      46.512  29.965  27.743  1.00  0.00     0.074 A 
ATOM     61  C   UNL A   1      47.898  30.275  27.461  1.00  0.00     0.031 C 
ATOM     62  C   UNL A   1      45.611  30.863  28.210  1.00  0.00     0.037 A 
BRANCH  49  63
ATOM     63  C   UNL A   1      39.936  28.563  29.033  1.00  0.00     0.064 A 
ATOM     64  C   UNL A   1      39.486  28.336  30.342  1.00  0.00     0.173 A 
ATOM     65  C   UNL A   1      39.016  29.074  28.104  1.00  0.00     0.173 A 
ATOM     66  F   UNL A   1      40.321  27.837  31.267  1.00  0.00    -0.203 F 
ATOM     67  C   UNL A   1      38.163  28.583  30.700  1.00  0.00     0.198 A 
ATOM     68  C   UNL A   1      37.703  29.352  28.474  1.00  0.00     0.198 A 
ATOM     69  F   UNL A   1      39.393  29.315  26.840  1.00  0.00    -0.203 F 
ATOM     70  F   UNL A   1      37.745  28.307  31.943  1.00  0.00    -0.200 F 
ATOM     71  C   UNL A   1      37.275  29.098  29.769  1.00  0.00     0.200 A 
ATOM     72  F   UNL A   1      36.848  29.864  27.577  1.00  0.00    -0.200 F 
ATOM     73  F   UNL A   1      36.005  29.344  30.117  1.00  0.00    -0.200 F 
ENDBRANCH  49  63
BRANCH  50  74
ATOM     74  C   UNL A   1      49.266  26.543  26.071  1.00  0.00     0.064 A 
ATOM     75  C   UNL A   1      50.237  26.021  26.939  1.00  0.00     0.173 A 
ATOM     76  C   UNL A   1      49.655  26.833  24.755  1.00  0.00     0.173 A 
ATOM     77  F   UNL A   1      49.920  25.758  28.216  1.00  0.00    -0.203 F 
ATOM     78  C   UNL A   1      51.549  25.823  26.517  1.00  0.00     0.198 A 
ATOM     79  C   UNL A   1      50.963  26.620  24.330  1.00  0.00     0.198 A 
ATOM     80  F   UNL A   1      48.763  27.333  23.887  1.00  0.00    -0.203 F 
ATOM     81  F   UNL A   1      52.468  25.376  27.382  1.00  0.00    -0.200 F 
ATOM     82  C   UNL A   1      51.910  26.117  25.211  1.00  0.00     0.200 A 
ATOM     83  F   UNL A   1      51.315  26.911  23.070  1.00  0.00    -0.200 F 
ATOM     84  F   UNL A   1      53.174  25.931  24.806  1.00  0.00    -0.200 F 
ENDBRANCH  50  74
BRANCH  62  85
ATOM     85  C   UNL A   1      46.102  32.254  28.483  1.00  0.00     0.064 A 
ATOM     86  C   UNL A   1      46.635  32.616  29.729  1.00  0.00     0.173 A 
ATOM     87  C   UNL A   1      46.078  33.226  27.471  1.00  0.00     0.173 A 
ATOM     88  F   UNL A   1      46.667  31.727  30.733  1.00  0.00    -0.203 F 
ATOM     89  C   UNL A   1      47.101  33.907  29.959  1.00  0.00     0.198 A 
ATOM     90  C   UNL A   1      46.575  34.506  27.695  1.00  0.00     0.198 A 
ATOM     91  F   UNL A   1      45.586  32.927  26.259  1.00  0.00    -0.203 F 
ATOM     92  F   UNL A   1      47.561  34.246  31.172  1.00  0.00    -0.200 F 
ATOM     93  C   UNL A   1      47.078  34.848  28.939  1.00  0.00     0.200 A 
ATOM     94  F   UNL A   1      46.567  35.408  26.703  1.00  0.00    -0.200 F 
ATOM     95  F   UNL A   1      47.536  36.088  29.160  1.00  0.00    -0.200 F 
ENDBRANCH  62  85
ENDBRANCH  36  37
ENDBRANCH  28  31
ENDBRANCH  26  27
ENDBRANCH  25  26
ENDBRANCH   1  25
TORSDOF 15
ENDMDL
