MODEL 1
REMARK VINA RESULT:     -11.8      0.000      0.000
REMARK SMILES N#Cc1cc2c(nc1N(CC(=O)NCCCNC(=O)c1ccc(-c3c4nc(c(-c5c(F)c(F)c(F)c(F)c5F)c5ccc([nH]5)c(-c5c(F)c(F)c(F)c(F)c5F)c5nc(c(-c6c(F)c(F)c(F)c(F)c6F)c6ccc3[nH]6)C=C5)C=C4)cc1)CC(F)(F)F)CCC2
REMARK SMILES IDX 14 1 13 2 11 3 12 4 10 6 9 7 8 8 3 9 4 10 5 11 7 12 6 13
REMARK SMILES IDX 90 14 88 15 89 16 2 17 1 18 83 19 84 20 85 21 86 22 87 23
REMARK SMILES IDX 15 24 16 25 17 26 18 27 19 29 20 30 21 31 82 32 22 33 81 34
REMARK SMILES IDX 23 35 24 36 25 37 75 38 26 39 80 40 74 41 76 42 27 43 79 44
REMARK SMILES IDX 73 45 72 46 28 48 60 49 40 50 59 51 41 52 44 53 58 54 77 55
REMARK SMILES IDX 42 56 43 57 57 59 78 60 45 61 29 62 30 63 38 64 31 65 32 66
REMARK SMILES IDX 36 67 39 68 33 69 34 70 37 71 35 72 61 73 62 74 70 75 63 76
REMARK SMILES IDX 64 77 68 78 71 79 65 80 66 81 69 82 67 83 46 84 47 85 55 86
REMARK SMILES IDX 48 87 49 88 53 89 56 90 50 91 51 92 54 93 52 94
REMARK H PARENT 13 5 17 28 76 47 44 58
REMARK Flexibility Score: inf
ROOT
ATOM      1  C   UNL A   1      31.481  30.543  26.339  1.00  0.00     0.117 C 
ENDROOT
BRANCH   1   2
ATOM      2  N   UNL A   1      31.793  30.218  24.959  1.00  0.00    -0.354 N 
ATOM      3  C   UNL A   1      32.462  29.137  24.463  1.00  0.00     0.239 C 
ATOM      4  O   UNL A   1      32.678  29.090  23.249  1.00  0.00    -0.273 OA
ATOM      5  H   UNL A   1      31.478  30.866  24.289  1.00  0.00     0.163 HD
BRANCH   3   6
ATOM      6  C   UNL A   1      32.950  28.024  25.398  1.00  0.00     0.218 C 
BRANCH   6   7
ATOM      7  N   UNL A   1      32.264  26.726  25.155  1.00  0.00    -0.337 N 
BRANCH   7   8
ATOM      8  C   UNL A   1      33.049  25.591  25.020  1.00  0.00     0.147 A 
ATOM      9  C   UNL A   1      33.779  25.187  23.876  1.00  0.00     0.095 A 
ATOM     10  C   UNL A   1      34.645  24.072  23.930  1.00  0.00     0.029 A 
ATOM     11  C   UNL A   1      34.708  23.341  25.090  1.00  0.00    -0.025 A 
ATOM     12  N   UNL A   1      33.122  24.813  26.137  1.00  0.00    -0.234 NA
ATOM     13  C   UNL A   1      33.914  23.727  26.143  1.00  0.00     0.046 A 
ATOM     14  C   UNL A   1      35.543  22.159  25.441  1.00  0.00     0.038 C 
ATOM     15  C   UNL A   1      34.086  22.806  27.319  1.00  0.00     0.057 C 
ATOM     16  C   UNL A   1      34.771  21.605  26.648  1.00  0.00     0.011 C 
BRANCH   9  17
ATOM     17  C   UNL A   1      33.680  25.813  22.592  1.00  0.00     0.103 C 
ATOM     18  N   UNL A   1      33.584  26.306  21.549  1.00  0.00    -0.192 NA
ENDBRANCH   9  17
ENDBRANCH   7   8
BRANCH   7  19
ATOM     19  C   UNL A   1      30.774  26.786  25.158  1.00  0.00     0.234 C 
BRANCH  19  20
ATOM     20  C   UNL A   1      30.060  26.274  23.891  1.00  0.00     0.405 C 
ATOM     21  F   UNL A   1      28.741  26.571  23.881  1.00  0.00    -0.169 F 
ATOM     22  F   UNL A   1      30.606  26.821  22.780  1.00  0.00    -0.169 F 
ATOM     23  F   UNL A   1      30.159  24.931  23.762  1.00  0.00    -0.169 F 
ENDBRANCH  19  20
ENDBRANCH   7  19
ENDBRANCH   6   7
ENDBRANCH   3   6
ENDBRANCH   1   2
BRANCH   1  24
ATOM     24  C   UNL A   1      31.390  32.047  26.574  1.00  0.00     0.042 C 
BRANCH  24  25
ATOM     25  C   UNL A   1      32.695  32.664  27.067  1.00  0.00     0.118 C 
BRANCH  25  26
ATOM     26  N   UNL A   1      32.500  34.020  27.562  1.00  0.00    -0.352 N 
ATOM     27  C   UNL A   1      33.095  34.660  28.620  1.00  0.00     0.251 C 
ATOM     28  H   UNL A   1      31.845  34.559  27.063  1.00  0.00     0.163 HD
ATOM     29  O   UNL A   1      32.628  35.713  29.043  1.00  0.00    -0.269 OA
BRANCH  27  30
ATOM     30  C   UNL A   1      34.291  34.077  29.263  1.00  0.00     0.039 A 
ATOM     31  C   UNL A   1      34.120  33.137  30.282  1.00  0.00     0.014 A 
ATOM     32  C   UNL A   1      35.577  34.471  28.881  1.00  0.00     0.014 A 
ATOM     33  C   UNL A   1      35.239  32.547  30.874  1.00  0.00     0.010 A 
ATOM     34  C   UNL A   1      36.690  33.829  29.419  1.00  0.00     0.010 A 
ATOM     35  C   UNL A   1      36.532  32.862  30.423  1.00  0.00    -0.014 A 
BRANCH  35  36
ATOM     36  C   UNL A   1      37.725  32.191  31.001  1.00  0.00     0.031 A 
ATOM     37  C   UNL A   1      38.232  32.588  32.362  1.00  0.00     0.074 A 
ATOM     38  C   UNL A   1      38.359  31.237  30.293  1.00  0.00     0.049 A 
ATOM     39  N   UNL A   1      39.265  32.129  33.022  1.00  0.00    -0.248 NA
ATOM     40  C   UNL A   1      37.491  33.646  33.070  1.00  0.00     0.031 C 
ATOM     41  C   UNL A   1      37.978  30.785  28.954  1.00  0.00     0.029 A 
ATOM     42  N   UNL A   1      39.456  30.468  30.599  1.00  0.00    -0.354 N 
ATOM     43  C   UNL A   1      39.288  32.829  34.221  1.00  0.00     0.074 A 
ATOM     44  C   UNL A   1      38.211  33.791  34.174  1.00  0.00     0.031 C 
ATOM     45  C   UNL A   1      38.797  29.792  28.572  1.00  0.00     0.029 A 
ATOM     46  C   UNL A   1      39.792  29.567  29.617  1.00  0.00     0.049 A 
ATOM     47  H   UNL A   1      39.955  30.554  31.443  1.00  0.00     0.167 HD
ATOM     48  C   UNL A   1      40.113  32.658  35.280  1.00  0.00     0.037 A 
ATOM     49  C   UNL A   1      40.790  28.662  29.565  1.00  0.00     0.037 A 
ATOM     50  C   UNL A   1      41.174  31.688  35.331  1.00  0.00     0.049 A 
ATOM     51  C   UNL A   1      41.733  28.547  30.736  1.00  0.00     0.074 A 
ATOM     52  C   UNL A   1      42.052  31.432  36.370  1.00  0.00     0.029 A 
ATOM     53  N   UNL A   1      41.497  30.813  34.307  1.00  0.00    -0.354 N 
ATOM     54  N   UNL A   1      41.708  29.177  31.884  1.00  0.00    -0.248 NA
ATOM     55  C   UNL A   1      42.841  27.589  30.604  1.00  0.00     0.031 C 
ATOM     56  C   UNL A   1      42.937  30.434  35.957  1.00  0.00     0.029 A 
ATOM     57  C   UNL A   1      42.574  30.027  34.683  1.00  0.00     0.049 A 
ATOM     58  H   UNL A   1      41.032  30.759  33.441  1.00  0.00     0.167 HD
ATOM     59  C   UNL A   1      42.766  28.666  32.623  1.00  0.00     0.074 A 
ATOM     60  C   UNL A   1      43.404  27.660  31.802  1.00  0.00     0.031 C 
ATOM     61  C   UNL A   1      43.174  29.002  33.870  1.00  0.00     0.037 A 
BRANCH  48  62
ATOM     62  C   UNL A   1      39.886  33.500  36.500  1.00  0.00     0.064 A 
ATOM     63  C   UNL A   1      40.505  34.751  36.639  1.00  0.00     0.173 A 
ATOM     64  C   UNL A   1      38.945  33.120  37.470  1.00  0.00     0.173 A 
ATOM     65  F   UNL A   1      41.418  35.156  35.743  1.00  0.00    -0.203 F 
ATOM     66  C   UNL A   1      40.187  35.593  37.700  1.00  0.00     0.198 A 
ATOM     67  C   UNL A   1      38.610  33.976  38.514  1.00  0.00     0.198 A 
ATOM     68  F   UNL A   1      38.320  31.936  37.378  1.00  0.00    -0.203 F 
ATOM     69  F   UNL A   1      40.799  36.779  37.819  1.00  0.00    -0.200 F 
ATOM     70  C   UNL A   1      39.228  35.212  38.628  1.00  0.00     0.200 A 
ATOM     71  F   UNL A   1      37.668  33.616  39.398  1.00  0.00    -0.200 F 
ATOM     72  F   UNL A   1      38.896  36.041  39.627  1.00  0.00    -0.200 F 
ENDBRANCH  48  62
BRANCH  49  73
ATOM     73  C   UNL A   1      40.945  27.772  28.382  1.00  0.00     0.064 A 
ATOM     74  C   UNL A   1      41.730  28.165  27.287  1.00  0.00     0.173 A 
ATOM     75  C   UNL A   1      40.287  26.537  28.296  1.00  0.00     0.173 A 
ATOM     76  F   UNL A   1      42.367  29.346  27.308  1.00  0.00    -0.203 F 
ATOM     77  C   UNL A   1      41.824  27.374  26.144  1.00  0.00     0.198 A 
ATOM     78  C   UNL A   1      40.411  25.729  27.167  1.00  0.00     0.198 A 
ATOM     79  F   UNL A   1      39.527  26.108  29.314  1.00  0.00    -0.203 F 
ATOM     80  F   UNL A   1      42.529  27.806  25.089  1.00  0.00    -0.200 F 
ATOM     81  C   UNL A   1      41.168  26.154  26.086  1.00  0.00     0.200 A 
ATOM     82  F   UNL A   1      39.790  24.542  27.122  1.00  0.00    -0.200 F 
ATOM     83  F   UNL A   1      41.256  25.395  24.986  1.00  0.00    -0.200 F 
ENDBRANCH  49  73
BRANCH  61  84
ATOM     84  C   UNL A   1      44.334  28.253  34.460  1.00  0.00     0.064 A 
ATOM     85  C   UNL A   1      45.644  28.748  34.385  1.00  0.00     0.173 A 
ATOM     86  C   UNL A   1      44.116  27.075  35.192  1.00  0.00     0.173 A 
ATOM     87  F   UNL A   1      45.906  29.864  33.687  1.00  0.00    -0.203 F 
ATOM     88  C   UNL A   1      46.695  28.087  35.014  1.00  0.00     0.198 A 
ATOM     89  C   UNL A   1      45.164  26.436  35.848  1.00  0.00     0.198 A 
ATOM     90  F   UNL A   1      42.880  26.566  35.303  1.00  0.00    -0.203 F 
ATOM     91  F   UNL A   1      47.943  28.559  34.902  1.00  0.00    -0.200 F 
ATOM     92  C   UNL A   1      46.452  26.939  35.756  1.00  0.00     0.200 A 
ATOM     93  F   UNL A   1      44.923  25.341  36.582  1.00  0.00    -0.200 F 
ATOM     94  F   UNL A   1      47.461  26.320  36.382  1.00  0.00    -0.200 F 
ENDBRANCH  61  84
ENDBRANCH  35  36
ENDBRANCH  27  30
ENDBRANCH  25  26
ENDBRANCH  24  25
ENDBRANCH   1  24
TORSDOF 15
ENDMDL
MODEL 2
REMARK VINA RESULT:     -11.8      1.027      7.440
REMARK SMILES N#Cc1cc2c(nc1N(CC(=O)NCCCNC(=O)c1ccc(-c3c4nc(c(-c5c(F)c(F)c(F)c(F)c5F)c5ccc([nH]5)c(-c5c(F)c(F)c(F)c(F)c5F)c5nc(c(-c6c(F)c(F)c(F)c(F)c6F)c6ccc3[nH]6)C=C5)C=C4)cc1)CC(F)(F)F)CCC2
REMARK SMILES IDX 14 1 13 2 11 3 12 4 10 6 9 7 8 8 3 9 4 10 5 11 7 12 6 13
REMARK SMILES IDX 90 14 88 15 89 16 2 17 1 18 83 19 84 20 85 21 86 22 87 23
REMARK SMILES IDX 15 24 16 25 17 26 18 27 19 29 20 30 21 31 82 32 22 33 81 34
REMARK SMILES IDX 23 35 24 36 25 37 75 38 26 39 80 40 74 41 76 42 27 43 79 44
REMARK SMILES IDX 73 45 72 46 28 48 60 49 40 50 59 51 41 52 44 53 58 54 77 55
REMARK SMILES IDX 42 56 43 57 57 59 78 60 45 61 29 62 30 63 38 64 31 65 32 66
REMARK SMILES IDX 36 67 39 68 33 69 34 70 37 71 35 72 61 73 62 74 70 75 63 76
REMARK SMILES IDX 64 77 68 78 71 79 65 80 66 81 69 82 67 83 46 84 47 85 55 86
REMARK SMILES IDX 48 87 49 88 53 89 56 90 50 91 51 92 54 93 52 94
REMARK H PARENT 13 5 17 28 76 47 44 58
REMARK Flexibility Score: inf
ROOT
ATOM      1  C   UNL A   1      31.596  30.827  25.979  1.00  0.00     0.117 C 
ENDROOT
BRANCH   1   2
ATOM      2  N   UNL A   1      31.482  29.817  27.015  1.00  0.00    -0.354 N 
ATOM      3  C   UNL A   1      31.997  28.554  27.042  1.00  0.00     0.239 C 
ATOM      4  O   UNL A   1      31.720  27.830  28.003  1.00  0.00    -0.273 OA
ATOM      5  H   UNL A   1      30.961  30.080  27.808  1.00  0.00     0.163 HD
BRANCH   3   6
ATOM      6  C   UNL A   1      32.877  28.045  25.895  1.00  0.00     0.218 C 
BRANCH   6   7
ATOM      7  N   UNL A   1      32.248  26.930  25.138  1.00  0.00    -0.337 N 
BRANCH   7   8
ATOM      8  C   UNL A   1      32.958  25.746  25.009  1.00  0.00     0.147 A 
ATOM      9  C   UNL A   1      33.685  25.304  23.878  1.00  0.00     0.095 A 
ATOM     10  C   UNL A   1      34.474  24.134  23.940  1.00  0.00     0.029 A 
ATOM     11  C   UNL A   1      34.464  23.392  25.095  1.00  0.00    -0.025 A 
ATOM     12  N   UNL A   1      32.957  24.958  26.121  1.00  0.00    -0.234 NA
ATOM     13  C   UNL A   1      33.675  23.822  26.135  1.00  0.00     0.046 A 
ATOM     14  C   UNL A   1      35.213  22.155  25.454  1.00  0.00     0.038 C 
ATOM     15  C   UNL A   1      33.761  22.884  27.306  1.00  0.00     0.057 C 
ATOM     16  C   UNL A   1      34.380  21.644  26.639  1.00  0.00     0.011 C 
BRANCH   9  17
ATOM     17  C   UNL A   1      33.654  25.944  22.598  1.00  0.00     0.103 C 
ATOM     18  N   UNL A   1      33.624  26.481  21.572  1.00  0.00    -0.192 NA
ENDBRANCH   9  17
ENDBRANCH   7   8
BRANCH   7  19
ATOM     19  C   UNL A   1      30.861  27.196  24.656  1.00  0.00     0.234 C 
BRANCH  19  20
ATOM     20  C   UNL A   1      30.720  28.149  23.451  1.00  0.00     0.405 C 
ATOM     21  F   UNL A   1      31.889  28.740  23.117  1.00  0.00    -0.169 F 
ATOM     22  F   UNL A   1      30.279  27.479  22.362  1.00  0.00    -0.169 F 
ATOM     23  F   UNL A   1      29.834  29.143  23.693  1.00  0.00    -0.169 F 
ENDBRANCH  19  20
ENDBRANCH   7  19
ENDBRANCH   6   7
ENDBRANCH   3   6
ENDBRANCH   1   2
BRANCH   1  24
ATOM     24  C   UNL A   1      31.405  32.239  26.521  1.00  0.00     0.042 C 
BRANCH  24  25
ATOM     25  C   UNL A   1      32.623  32.772  27.270  1.00  0.00     0.118 C 
BRANCH  25  26
ATOM     26  N   UNL A   1      32.469  34.177  27.625  1.00  0.00    -0.352 N 
ATOM     27  C   UNL A   1      33.050  34.892  28.641  1.00  0.00     0.251 C 
ATOM     28  H   UNL A   1      31.858  34.690  27.048  1.00  0.00     0.163 HD
ATOM     29  O   UNL A   1      32.613  36.000  28.941  1.00  0.00    -0.269 OA
BRANCH  27  30
ATOM     30  C   UNL A   1      34.193  34.326  29.388  1.00  0.00     0.039 A 
ATOM     31  C   UNL A   1      33.948  33.640  30.579  1.00  0.00     0.014 A 
ATOM     32  C   UNL A   1      35.503  34.491  28.929  1.00  0.00     0.014 A 
ATOM     33  C   UNL A   1      35.013  33.066  31.278  1.00  0.00     0.010 A 
ATOM     34  C   UNL A   1      36.554  33.855  29.586  1.00  0.00     0.010 A 
ATOM     35  C   UNL A   1      36.320  33.139  30.769  1.00  0.00    -0.014 A 
BRANCH  35  36
ATOM     36  C   UNL A   1      37.449  32.475  31.470  1.00  0.00     0.031 A 
ATOM     37  C   UNL A   1      38.190  31.343  30.811  1.00  0.00     0.074 A 
ATOM     38  C   UNL A   1      37.794  32.882  32.708  1.00  0.00     0.049 A 
ATOM     39  N   UNL A   1      39.188  30.632  31.272  1.00  0.00    -0.248 NA
ATOM     40  C   UNL A   1      37.747  30.950  29.462  1.00  0.00     0.031 C 
ATOM     41  C   UNL A   1      37.135  33.951  33.460  1.00  0.00     0.029 A 
ATOM     42  N   UNL A   1      38.789  32.452  33.552  1.00  0.00    -0.354 N 
ATOM     43  C   UNL A   1      39.496  29.722  30.270  1.00  0.00     0.074 A 
ATOM     44  C   UNL A   1      38.542  29.921  29.203  1.00  0.00     0.031 C 
ATOM     45  C   UNL A   1      37.767  34.121  34.632  1.00  0.00     0.029 A 
ATOM     46  C   UNL A   1      38.847  33.144  34.738  1.00  0.00     0.049 A 
ATOM     47  H   UNL A   1      39.403  31.716  33.328  1.00  0.00     0.167 HD
ATOM     48  C   UNL A   1      40.510  28.826  30.230  1.00  0.00     0.037 A 
ATOM     49  C   UNL A   1      39.677  33.005  35.791  1.00  0.00     0.037 A 
ATOM     50  C   UNL A   1      41.469  28.641  31.286  1.00  0.00     0.049 A 
ATOM     51  C   UNL A   1      40.751  31.949  35.740  1.00  0.00     0.074 A 
ATOM     52  C   UNL A   1      42.541  27.766  31.327  1.00  0.00     0.029 A 
ATOM     53  N   UNL A   1      41.477  29.343  32.480  1.00  0.00    -0.354 N 
ATOM     54  N   UNL A   1      41.066  31.134  34.764  1.00  0.00    -0.248 NA
ATOM     55  C   UNL A   1      41.590  31.797  36.939  1.00  0.00     0.031 C 
ATOM     56  C   UNL A   1      43.170  27.906  32.566  1.00  0.00     0.029 A 
ATOM     57  C   UNL A   1      42.527  28.909  33.273  1.00  0.00     0.049 A 
ATOM     58  H   UNL A   1      40.833  30.045  32.729  1.00  0.00     0.167 HD
ATOM     59  C   UNL A   1      42.159  30.405  35.212  1.00  0.00     0.074 A 
ATOM     60  C   UNL A   1      42.465  30.885  36.542  1.00  0.00     0.031 C 
ATOM     61  C   UNL A   1      42.845  29.423  34.579  1.00  0.00     0.037 A 
BRANCH  48  62
ATOM     62  C   UNL A   1      40.677  27.997  28.991  1.00  0.00     0.064 A 
ATOM     63  C   UNL A   1      39.948  26.813  28.811  1.00  0.00     0.173 A 
ATOM     64  C   UNL A   1      41.464  28.455  27.923  1.00  0.00     0.173 A 
ATOM     65  F   UNL A   1      39.188  26.329  29.806  1.00  0.00    -0.203 F 
ATOM     66  C   UNL A   1      39.996  26.119  27.606  1.00  0.00     0.198 A 
ATOM     67  C   UNL A   1      41.488  27.773  26.710  1.00  0.00     0.198 A 
ATOM     68  F   UNL A   1      42.175  29.587  28.043  1.00  0.00    -0.203 F 
ATOM     69  F   UNL A   1      39.300  24.984  27.459  1.00  0.00    -0.200 F 
ATOM     70  C   UNL A   1      40.753  26.608  26.551  1.00  0.00     0.200 A 
ATOM     71  F   UNL A   1      42.203  28.258  25.685  1.00  0.00    -0.200 F 
ATOM     72  F   UNL A   1      40.767  25.959  25.378  1.00  0.00    -0.200 F 
ENDBRANCH  48  62
BRANCH  49  73
ATOM     73  C   UNL A   1      39.552  33.898  36.976  1.00  0.00     0.064 A 
ATOM     74  C   UNL A   1      38.789  33.510  38.088  1.00  0.00     0.173 A 
ATOM     75  C   UNL A   1      40.152  35.165  37.012  1.00  0.00     0.173 A 
ATOM     76  F   UNL A   1      38.178  32.316  38.098  1.00  0.00    -0.203 F 
ATOM     77  C   UNL A   1      38.604  34.367  39.172  1.00  0.00     0.198 A 
ATOM     78  C   UNL A   1      39.997  36.006  38.113  1.00  0.00     0.198 A 
ATOM     79  F   UNL A   1      40.896  35.586  35.979  1.00  0.00    -0.203 F 
ATOM     80  F   UNL A   1      37.817  33.994  40.191  1.00  0.00    -0.200 F 
ATOM     81  C   UNL A   1      39.212  35.612  39.186  1.00  0.00     0.200 A 
ATOM     82  F   UNL A   1      40.601  37.202  38.130  1.00  0.00    -0.200 F 
ATOM     83  F   UNL A   1      39.032  36.436  40.227  1.00  0.00    -0.200 F 
ENDBRANCH  49  73
BRANCH  61  84
ATOM     84  C   UNL A   1      44.029  28.823  35.281  1.00  0.00     0.064 A 
ATOM     85  C   UNL A   1      45.318  29.354  35.134  1.00  0.00     0.173 A 
ATOM     86  C   UNL A   1      43.851  27.766  36.189  1.00  0.00     0.173 A 
ATOM     87  F   UNL A   1      45.542  30.356  34.271  1.00  0.00    -0.203 F 
ATOM     88  C   UNL A   1      46.389  28.842  35.861  1.00  0.00     0.198 A 
ATOM     89  C   UNL A   1      44.917  27.281  36.939  1.00  0.00     0.198 A 
ATOM     90  F   UNL A   1      42.635  27.231  36.374  1.00  0.00    -0.203 F 
ATOM     91  F   UNL A   1      47.618  29.342  35.681  1.00  0.00    -0.200 F 
ATOM     92  C   UNL A   1      46.185  27.816  36.773  1.00  0.00     0.200 A 
ATOM     93  F   UNL A   1      44.713  26.305  37.835  1.00  0.00    -0.200 F 
ATOM     94  F   UNL A   1      47.212  27.343  37.492  1.00  0.00    -0.200 F 
ENDBRANCH  61  84
ENDBRANCH  35  36
ENDBRANCH  27  30
ENDBRANCH  25  26
ENDBRANCH  24  25
ENDBRANCH   1  24
TORSDOF 15
ENDMDL
MODEL 3
REMARK VINA RESULT:     -11.8      0.693      1.365
REMARK SMILES N#Cc1cc2c(nc1N(CC(=O)NCCCNC(=O)c1ccc(-c3c4nc(c(-c5c(F)c(F)c(F)c(F)c5F)c5ccc([nH]5)c(-c5c(F)c(F)c(F)c(F)c5F)c5nc(c(-c6c(F)c(F)c(F)c(F)c6F)c6ccc3[nH]6)C=C5)C=C4)cc1)CC(F)(F)F)CCC2
REMARK SMILES IDX 14 1 13 2 11 3 12 4 10 6 9 7 8 8 3 9 4 10 5 11 7 12 6 13
REMARK SMILES IDX 90 14 88 15 89 16 2 17 1 18 83 19 84 20 85 21 86 22 87 23
REMARK SMILES IDX 15 24 16 25 17 26 18 27 19 29 20 30 21 31 82 32 22 33 81 34
REMARK SMILES IDX 23 35 24 36 25 37 75 38 26 39 80 40 74 41 76 42 27 43 79 44
REMARK SMILES IDX 73 45 72 46 28 48 60 49 40 50 59 51 41 52 44 53 58 54 77 55
REMARK SMILES IDX 42 56 43 57 57 59 78 60 45 61 29 62 30 63 38 64 31 65 32 66
REMARK SMILES IDX 36 67 39 68 33 69 34 70 37 71 35 72 61 73 62 74 70 75 63 76
REMARK SMILES IDX 64 77 68 78 71 79 65 80 66 81 69 82 67 83 46 84 47 85 55 86
REMARK SMILES IDX 48 87 49 88 53 89 56 90 50 91 51 92 54 93 52 94
REMARK H PARENT 13 5 17 28 76 47 44 58
REMARK Flexibility Score: inf
ROOT
ATOM      1  C   UNL A   1      31.615  30.784  26.045  1.00  0.00     0.117 C 
ENDROOT
BRANCH   1   2
ATOM      2  N   UNL A   1      31.474  29.721  27.023  1.00  0.00    -0.354 N 
ATOM      3  C   UNL A   1      31.982  28.455  26.994  1.00  0.00     0.239 C 
ATOM      4  O   UNL A   1      31.681  27.683  27.908  1.00  0.00    -0.273 OA
ATOM      5  H   UNL A   1      30.939  29.945  27.819  1.00  0.00     0.163 HD
BRANCH   3   6
ATOM      6  C   UNL A   1      32.883  28.002  25.839  1.00  0.00     0.218 C 
BRANCH   6   7
ATOM      7  N   UNL A   1      32.296  26.882  25.056  1.00  0.00    -0.337 N 
BRANCH   7   8
ATOM      8  C   UNL A   1      33.039  25.719  24.925  1.00  0.00     0.147 A 
ATOM      9  C   UNL A   1      33.702  25.254  23.764  1.00  0.00     0.095 A 
ATOM     10  C   UNL A   1      34.536  24.115  23.817  1.00  0.00     0.029 A 
ATOM     11  C   UNL A   1      34.633  23.422  24.999  1.00  0.00    -0.025 A 
ATOM     12  N   UNL A   1      33.143  24.978  26.065  1.00  0.00    -0.234 NA
ATOM     13  C   UNL A   1      33.902  23.869  26.073  1.00  0.00     0.046 A 
ATOM     14  C   UNL A   1      35.449  22.228  25.352  1.00  0.00     0.038 C 
ATOM     15  C   UNL A   1      34.102  22.984  27.271  1.00  0.00     0.057 C 
ATOM     16  C   UNL A   1      34.720  21.740  26.613  1.00  0.00     0.011 C 
BRANCH   9  17
ATOM     17  C   UNL A   1      33.560  25.838  22.465  1.00  0.00     0.103 C 
ATOM     18  N   UNL A   1      33.426  26.302  21.412  1.00  0.00    -0.192 NA
ENDBRANCH   9  17
ENDBRANCH   7   8
BRANCH   7  19
ATOM     19  C   UNL A   1      30.912  27.118  24.553  1.00  0.00     0.234 C 
BRANCH  19  20
ATOM     20  C   UNL A   1      29.904  25.965  24.739  1.00  0.00     0.405 C 
ATOM     21  F   UNL A   1      29.902  25.474  25.998  1.00  0.00    -0.169 F 
ATOM     22  F   UNL A   1      28.646  26.382  24.465  1.00  0.00    -0.169 F 
ATOM     23  F   UNL A   1      30.166  24.926  23.913  1.00  0.00    -0.169 F 
ENDBRANCH  19  20
ENDBRANCH   7  19
ENDBRANCH   6   7
ENDBRANCH   3   6
ENDBRANCH   1   2
BRANCH   1  24
ATOM     24  C   UNL A   1      31.423  32.167  26.659  1.00  0.00     0.042 C 
BRANCH  24  25
ATOM     25  C   UNL A   1      32.723  32.801  27.144  1.00  0.00     0.118 C 
BRANCH  25  26
ATOM     26  N   UNL A   1      32.508  34.146  27.665  1.00  0.00    -0.352 N 
ATOM     27  C   UNL A   1      33.088  34.771  28.740  1.00  0.00     0.251 C 
ATOM     28  H   UNL A   1      31.851  34.686  27.171  1.00  0.00     0.163 HD
ATOM     29  O   UNL A   1      32.605  35.810  29.180  1.00  0.00    -0.269 OA
BRANCH  27  30
ATOM     30  C   UNL A   1      34.285  34.189  29.381  1.00  0.00     0.039 A 
ATOM     31  C   UNL A   1      34.119  33.338  30.476  1.00  0.00     0.014 A 
ATOM     32  C   UNL A   1      35.568  34.497  28.920  1.00  0.00     0.014 A 
ATOM     33  C   UNL A   1      35.237  32.749  31.070  1.00  0.00     0.010 A 
ATOM     34  C   UNL A   1      36.676  33.851  29.465  1.00  0.00     0.010 A 
ATOM     35  C   UNL A   1      36.522  32.973  30.547  1.00  0.00    -0.014 A 
BRANCH  35  36
ATOM     36  C   UNL A   1      37.710  32.299  31.131  1.00  0.00     0.031 A 
ATOM     37  C   UNL A   1      38.215  32.696  32.491  1.00  0.00     0.074 A 
ATOM     38  C   UNL A   1      38.343  31.339  30.426  1.00  0.00     0.049 A 
ATOM     39  N   UNL A   1      39.244  32.234  33.157  1.00  0.00    -0.248 NA
ATOM     40  C   UNL A   1      37.476  33.759  33.195  1.00  0.00     0.031 C 
ATOM     41  C   UNL A   1      37.963  30.885  29.087  1.00  0.00     0.029 A 
ATOM     42  N   UNL A   1      39.435  30.567  30.738  1.00  0.00    -0.354 N 
ATOM     43  C   UNL A   1      39.266  32.938  34.353  1.00  0.00     0.074 A 
ATOM     44  C   UNL A   1      38.193  33.905  34.300  1.00  0.00     0.031 C 
ATOM     45  C   UNL A   1      38.779  29.888  28.711  1.00  0.00     0.029 A 
ATOM     46  C   UNL A   1      39.770  29.661  29.759  1.00  0.00     0.049 A 
ATOM     47  H   UNL A   1      39.932  30.653  31.583  1.00  0.00     0.167 HD
ATOM     48  C   UNL A   1      40.087  32.766  35.415  1.00  0.00     0.037 A 
ATOM     49  C   UNL A   1      40.765  28.753  29.713  1.00  0.00     0.037 A 
ATOM     50  C   UNL A   1      41.144  31.792  35.472  1.00  0.00     0.049 A 
ATOM     51  C   UNL A   1      41.703  28.636  30.887  1.00  0.00     0.074 A 
ATOM     52  C   UNL A   1      42.018  31.535  36.514  1.00  0.00     0.029 A 
ATOM     53  N   UNL A   1      41.467  30.913  34.451  1.00  0.00    -0.354 N 
ATOM     54  N   UNL A   1      41.678  29.270  32.033  1.00  0.00    -0.248 NA
ATOM     55  C   UNL A   1      42.808  27.674  30.761  1.00  0.00     0.031 C 
ATOM     56  C   UNL A   1      42.899  30.532  36.107  1.00  0.00     0.029 A 
ATOM     57  C   UNL A   1      42.539  30.123  34.833  1.00  0.00     0.049 A 
ATOM     58  H   UNL A   1      41.004  30.858  33.584  1.00  0.00     0.167 HD
ATOM     59  C   UNL A   1      42.731  28.756  32.777  1.00  0.00     0.074 A 
ATOM     60  C   UNL A   1      43.367  27.745  31.960  1.00  0.00     0.031 C 
ATOM     61  C   UNL A   1      43.137  29.094  34.025  1.00  0.00     0.037 A 
BRANCH  48  62
ATOM     62  C   UNL A   1      39.861  33.613  36.633  1.00  0.00     0.064 A 
ATOM     63  C   UNL A   1      40.431  34.889  36.740  1.00  0.00     0.173 A 
ATOM     64  C   UNL A   1      38.964  33.206  37.632  1.00  0.00     0.173 A 
ATOM     65  F   UNL A   1      41.301  35.321  35.815  1.00  0.00    -0.203 F 
ATOM     66  C   UNL A   1      40.109  35.730  37.802  1.00  0.00     0.198 A 
ATOM     67  C   UNL A   1      38.623  34.060  38.677  1.00  0.00     0.198 A 
ATOM     68  F   UNL A   1      38.385  31.996  37.571  1.00  0.00    -0.203 F 
ATOM     69  F   UNL A   1      40.674  36.942  37.890  1.00  0.00    -0.200 F 
ATOM     70  C   UNL A   1      39.193  35.321  38.760  1.00  0.00     0.200 A 
ATOM     71  F   UNL A   1      37.722  33.671  39.591  1.00  0.00    -0.200 F 
ATOM     72  F   UNL A   1      38.854  36.147  39.760  1.00  0.00    -0.200 F 
ENDBRANCH  48  62
BRANCH  49  73
ATOM     73  C   UNL A   1      40.919  27.859  28.532  1.00  0.00     0.064 A 
ATOM     74  C   UNL A   1      41.711  28.244  27.440  1.00  0.00     0.173 A 
ATOM     75  C   UNL A   1      40.255  26.627  28.447  1.00  0.00     0.173 A 
ATOM     76  F   UNL A   1      42.354  29.422  27.461  1.00  0.00    -0.203 F 
ATOM     77  C   UNL A   1      41.804  27.450  26.299  1.00  0.00     0.198 A 
ATOM     78  C   UNL A   1      40.379  25.815  27.321  1.00  0.00     0.198 A 
ATOM     79  F   UNL A   1      39.488  26.205  29.463  1.00  0.00    -0.203 F 
ATOM     80  F   UNL A   1      42.517  27.876  25.246  1.00  0.00    -0.200 F 
ATOM     81  C   UNL A   1      41.142  26.234  26.242  1.00  0.00     0.200 A 
ATOM     82  F   UNL A   1      39.752  24.632  27.277  1.00  0.00    -0.200 F 
ATOM     83  F   UNL A   1      41.231  25.472  25.144  1.00  0.00    -0.200 F 
ENDBRANCH  49  73
BRANCH  61  84
ATOM     84  C   UNL A   1      44.292  28.341  34.619  1.00  0.00     0.064 A 
ATOM     85  C   UNL A   1      44.108  27.135  35.308  1.00  0.00     0.173 A 
ATOM     86  C   UNL A   1      45.608  28.786  34.409  1.00  0.00     0.173 A 
ATOM     87  F   UNL A   1      42.871  26.673  35.544  1.00  0.00    -0.203 F 
ATOM     88  C   UNL A   1      45.198  26.405  35.775  1.00  0.00     0.198 A 
ATOM     89  C   UNL A   1      46.695  28.036  34.847  1.00  0.00     0.198 A 
ATOM     90  F   UNL A   1      45.838  29.929  33.746  1.00  0.00    -0.203 F 
ATOM     91  F   UNL A   1      44.998  25.271  36.459  1.00  0.00    -0.200 F 
ATOM     92  C   UNL A   1      46.490  26.849  35.532  1.00  0.00     0.200 A 
ATOM     93  F   UNL A   1      47.942  28.456  34.592  1.00  0.00    -0.200 F 
ATOM     94  F   UNL A   1      47.537  26.131  35.959  1.00  0.00    -0.200 F 
ENDBRANCH  61  84
ENDBRANCH  35  36
ENDBRANCH  27  30
ENDBRANCH  25  26
ENDBRANCH  24  25
ENDBRANCH   1  24
TORSDOF 15
ENDMDL
