MODEL 1
REMARK VINA RESULT:     -13.9      0.000      0.000
REMARK SMILES O=C(NCCCNC(=O)[C@H](c1c[nH]c2cc(F)ccc12)[NH+]1CCN(c2ccccc2)CC1)c1ccc(-c2c3nc(c(-c4c(F)c(F)c(F)c(F)c4F)c4ccc([nH]4)c(-c4c(F)c(F)c(F)c(F)c4F)c4nc(c(-c5c(F)c(F)c(F)c(F)c5F)c5ccc2[nH]5)C=C4)C=C3)cc1
REMARK SMILES IDX 5 1 4 2 3 3 1 4 2 5 33 7 34 8 95 9 35 10 94 11 36 12 37 13
REMARK SMILES IDX 38 14 88 15 39 16 93 17 87 18 89 19 40 20 92 21 86 22 85 23
REMARK SMILES IDX 41 25 73 26 53 27 72 28 54 29 57 30 71 31 90 32 55 33 56 34
REMARK SMILES IDX 70 36 91 37 58 38 42 39 43 40 51 41 44 42 45 43 49 44 52 45
REMARK SMILES IDX 46 46 47 47 50 48 48 49 74 50 75 51 83 52 76 53 77 54 81 55
REMARK SMILES IDX 84 56 78 57 79 58 82 59 80 60 59 61 60 62 68 63 61 64 62 65
REMARK SMILES IDX 66 66 69 67 63 68 64 69 67 70 65 71 6 72 7 73 8 74 9 76
REMARK SMILES IDX 10 77 21 78 22 79 32 80 23 82 31 83 24 84 25 85 26 86 30 87
REMARK SMILES IDX 27 88 29 89 28 90 11 91 12 92 20 93 13 94 14 95 19 96 15 98
REMARK SMILES IDX 18 99 16 100 17 101
REMARK H PARENT 3 6 89 24 57 35 7 75 21 81 13 97
REMARK Flexibility Score: inf
ROOT
ATOM      1  C   UNL A   1      33.293  27.794  26.717  1.00  0.00     0.042 C 
ENDROOT
BRANCH   1   2
ATOM      2  C   UNL A   1      34.067  28.874  25.973  1.00  0.00     0.118 C 
BRANCH   2   3
ATOM      3  N   UNL A   1      33.928  30.159  26.641  1.00  0.00    -0.352 N 
ATOM      4  O   UNL A   1      34.125  31.559  28.389  1.00  0.00    -0.269 OA
ATOM      5  C   UNL A   1      34.611  30.645  27.723  1.00  0.00     0.251 C 
ATOM      6  H   UNL A   1      33.249  30.763  26.261  1.00  0.00     0.163 HD
BRANCH   5   7
ATOM      7  C   UNL A   1      35.934  30.096  28.081  1.00  0.00     0.039 A 
ATOM      8  C   UNL A   1      37.027  30.254  27.223  1.00  0.00     0.014 A 
ATOM      9  C   UNL A   1      36.108  29.510  29.338  1.00  0.00     0.014 A 
ATOM     10  C   UNL A   1      38.272  29.751  27.580  1.00  0.00     0.010 A 
ATOM     11  C   UNL A   1      37.376  29.076  29.730  1.00  0.00     0.010 A 
ATOM     12  C   UNL A   1      38.465  29.193  28.851  1.00  0.00    -0.014 A 
BRANCH  12  13
ATOM     13  C   UNL A   1      39.828  28.827  29.297  1.00  0.00     0.031 A 
ATOM     14  C   UNL A   1      40.623  29.751  30.167  1.00  0.00     0.074 A 
ATOM     15  C   UNL A   1      40.357  27.666  28.867  1.00  0.00     0.049 A 
ATOM     16  N   UNL A   1      41.862  29.639  30.573  1.00  0.00    -0.248 NA
ATOM     17  C   UNL A   1      39.940  30.965  30.635  1.00  0.00     0.031 C 
ATOM     18  C   UNL A   1      39.672  26.700  28.004  1.00  0.00     0.029 A 
ATOM     19  N   UNL A   1      41.589  27.105  29.083  1.00  0.00    -0.354 N 
ATOM     20  C   UNL A   1      42.118  30.781  31.319  1.00  0.00     0.074 A 
ATOM     21  C   UNL A   1      40.911  31.580  31.298  1.00  0.00     0.031 C 
ATOM     22  C   UNL A   1      40.489  25.663  27.771  1.00  0.00     0.029 A 
ATOM     23  C   UNL A   1      41.772  25.920  28.414  1.00  0.00     0.049 A 
ATOM     24  H   UNL A   1      42.275  27.513  29.658  1.00  0.00     0.167 HD
ATOM     25  C   UNL A   1      43.261  31.124  31.959  1.00  0.00     0.037 A 
ATOM     26  C   UNL A   1      42.864  25.142  28.301  1.00  0.00     0.037 A 
ATOM     27  C   UNL A   1      44.449  30.310  31.981  1.00  0.00     0.049 A 
ATOM     28  C   UNL A   1      44.122  25.549  29.008  1.00  0.00     0.074 A 
ATOM     29  C   UNL A   1      45.643  30.541  32.641  1.00  0.00     0.029 A 
ATOM     30  N   UNL A   1      44.594  29.108  31.300  1.00  0.00    -0.354 N 
ATOM     31  N   UNL A   1      44.345  26.613  29.741  1.00  0.00    -0.248 NA
ATOM     32  C   UNL A   1      45.280  24.658  28.870  1.00  0.00     0.031 C 
ATOM     33  C   UNL A   1      46.525  29.503  32.324  1.00  0.00     0.029 A 
ATOM     34  C   UNL A   1      45.867  28.598  31.505  1.00  0.00     0.049 A 
ATOM     35  H   UNL A   1      43.897  28.681  30.753  1.00  0.00     0.167 HD
ATOM     36  C   UNL A   1      45.660  26.513  30.168  1.00  0.00     0.074 A 
ATOM     37  C   UNL A   1      46.184  25.279  29.617  1.00  0.00     0.031 C 
ATOM     38  C   UNL A   1      46.366  27.366  30.948  1.00  0.00     0.037 A 
BRANCH  25  39
ATOM     39  C   UNL A   1      43.287  32.450  32.661  1.00  0.00     0.064 A 
ATOM     40  C   UNL A   1      42.930  32.581  34.011  1.00  0.00     0.173 A 
ATOM     41  C   UNL A   1      43.689  33.606  31.974  1.00  0.00     0.173 A 
ATOM     42  F   UNL A   1      42.527  31.510  34.710  1.00  0.00    -0.203 F 
ATOM     43  C   UNL A   1      42.941  33.825  34.638  1.00  0.00     0.198 A 
ATOM     44  C   UNL A   1      43.724  34.843  32.611  1.00  0.00     0.198 A 
ATOM     45  F   UNL A   1      44.048  33.535  30.684  1.00  0.00    -0.203 F 
ATOM     46  F   UNL A   1      42.545  33.934  35.914  1.00  0.00    -0.200 F 
ATOM     47  C   UNL A   1      43.342  34.954  33.939  1.00  0.00     0.200 A 
ATOM     48  F   UNL A   1      44.123  35.931  31.937  1.00  0.00    -0.200 F 
ATOM     49  F   UNL A   1      43.350  36.151  34.543  1.00  0.00    -0.200 F 
ENDBRANCH  25  39
BRANCH  26  50
ATOM     50  C   UNL A   1      42.791  23.914  27.472  1.00  0.00     0.064 A 
ATOM     51  C   UNL A   1      43.172  23.929  26.125  1.00  0.00     0.173 A 
ATOM     52  C   UNL A   1      42.409  22.684  28.032  1.00  0.00     0.173 A 
ATOM     53  F   UNL A   1      43.530  25.083  25.544  1.00  0.00    -0.203 F 
ATOM     54  C   UNL A   1      43.177  22.759  25.368  1.00  0.00     0.198 A 
ATOM     55  C   UNL A   1      42.439  21.512  27.281  1.00  0.00     0.198 A 
ATOM     56  F   UNL A   1      42.046  22.618  29.321  1.00  0.00    -0.203 F 
ATOM     57  F   UNL A   1      43.531  22.800  24.076  1.00  0.00    -0.200 F 
ATOM     58  C   UNL A   1      42.822  21.550  25.950  1.00  0.00     0.200 A 
ATOM     59  F   UNL A   1      42.114  20.344  27.854  1.00  0.00    -0.200 F 
ATOM     60  F   UNL A   1      42.851  20.422  25.227  1.00  0.00    -0.200 F 
ENDBRANCH  26  50
BRANCH  38  61
ATOM     61  C   UNL A   1      47.777  26.982  31.280  1.00  0.00     0.064 A 
ATOM     62  C   UNL A   1      48.068  26.110  32.338  1.00  0.00     0.173 A 
ATOM     63  C   UNL A   1      48.839  27.439  30.488  1.00  0.00     0.173 A 
ATOM     64  F   UNL A   1      47.086  25.660  33.134  1.00  0.00    -0.203 F 
ATOM     65  C   UNL A   1      49.378  25.716  32.597  1.00  0.00     0.198 A 
ATOM     66  C   UNL A   1      50.145  27.025  30.735  1.00  0.00     0.198 A 
ATOM     67  F   UNL A   1      48.608  28.273  29.462  1.00  0.00    -0.203 F 
ATOM     68  F   UNL A   1      49.640  24.904  33.630  1.00  0.00    -0.200 F 
ATOM     69  C   UNL A   1      50.413  26.166  31.789  1.00  0.00     0.200 A 
ATOM     70  F   UNL A   1      51.141  27.453  29.947  1.00  0.00    -0.200 F 
ATOM     71  F   UNL A   1      51.672  25.774  32.030  1.00  0.00    -0.200 F 
ENDBRANCH  38  61
ENDBRANCH  12  13
ENDBRANCH   5   7
ENDBRANCH   2   3
ENDBRANCH   1   2
BRANCH   1  72
ATOM     72  C   UNL A   1      31.782  27.984  26.607  1.00  0.00     0.118 C 
BRANCH  72  73
ATOM     73  N   UNL A   1      31.092  26.741  26.885  1.00  0.00    -0.351 N 
ATOM     74  C   UNL A   1      30.320  25.999  26.025  1.00  0.00     0.283 C 
ATOM     75  H   UNL A   1      31.186  26.386  27.798  1.00  0.00     0.163 HD
ATOM     76  O   UNL A   1      29.461  25.285  26.550  1.00  0.00    -0.268 OA
BRANCH  74  77
ATOM     77  C   UNL A   1      30.558  26.118  24.491  1.00  0.00     0.307 C 
BRANCH  77  78
ATOM     78  N   UNL A   1      30.873  24.864  23.756  1.00  0.00    -0.318 N 
ATOM     79  C   UNL A   1      32.071  25.026  22.895  1.00  0.00     0.284 C 
ATOM     80  C   UNL A   1      31.048  23.632  24.563  1.00  0.00     0.284 C 
ATOM     81  H   UNL A   1      30.023  24.717  23.212  1.00  0.00     0.349 HD
ATOM     82  C   UNL A   1      33.419  25.032  23.656  1.00  0.00     0.178 C 
ATOM     83  C   UNL A   1      32.401  23.468  25.314  1.00  0.00     0.178 C 
ATOM     84  N   UNL A   1      33.530  23.803  24.438  1.00  0.00    -0.360 N 
BRANCH  84  85
ATOM     85  C   UNL A   1      34.663  23.022  24.392  1.00  0.00     0.037 A 
ATOM     86  C   UNL A   1      34.838  21.920  25.240  1.00  0.00     0.026 A 
ATOM     87  C   UNL A   1      35.707  23.326  23.507  1.00  0.00     0.026 A 
ATOM     88  C   UNL A   1      36.006  21.151  25.204  1.00  0.00     0.002 A 
ATOM     89  C   UNL A   1      36.883  22.574  23.475  1.00  0.00     0.002 A 
ATOM     90  C   UNL A   1      37.032  21.483  24.324  1.00  0.00     0.000 A 
ENDBRANCH  84  85
ENDBRANCH  77  78
BRANCH  77  91
ATOM     91  C   UNL A   1      29.372  26.815  23.861  1.00  0.00     0.044 A 
ATOM     92  C   UNL A   1      28.030  26.546  24.065  1.00  0.00     0.094 A 
ATOM     93  C   UNL A   1      29.428  27.995  23.038  1.00  0.00     0.009 A 
ATOM     94  N   UNL A   1      27.293  27.540  23.483  1.00  0.00    -0.361 N 
ATOM     95  C   UNL A   1      28.123  28.474  22.910  1.00  0.00     0.049 A 
ATOM     96  C   UNL A   1      30.478  28.749  22.463  1.00  0.00     0.014 A 
ATOM     97  H   UNL A   1      26.309  27.580  23.475  1.00  0.00     0.166 HD
ATOM     98  C   UNL A   1      27.823  29.702  22.305  1.00  0.00     0.065 A 
ATOM     99  C   UNL A   1      30.198  29.979  21.858  1.00  0.00     0.040 A 
ATOM    100  C   UNL A   1      28.892  30.445  21.806  1.00  0.00     0.125 A 
ATOM    101  F   UNL A   1      28.651  31.647  21.261  1.00  0.00    -0.207 F 
ENDBRANCH  77  91
ENDBRANCH  74  77
ENDBRANCH  72  73
ENDBRANCH   1  72
TORSDOF 13
ENDMDL
MODEL 2
REMARK VINA RESULT:     -13.8      2.631      7.399
REMARK SMILES O=C(NCCCNC(=O)[C@H](c1c[nH]c2cc(F)ccc12)[NH+]1CCN(c2ccccc2)CC1)c1ccc(-c2c3nc(c(-c4c(F)c(F)c(F)c(F)c4F)c4ccc([nH]4)c(-c4c(F)c(F)c(F)c(F)c4F)c4nc(c(-c5c(F)c(F)c(F)c(F)c5F)c5ccc2[nH]5)C=C4)C=C3)cc1
REMARK SMILES IDX 5 1 4 2 3 3 1 4 2 5 33 7 34 8 95 9 35 10 94 11 36 12 37 13
REMARK SMILES IDX 38 14 88 15 39 16 93 17 87 18 89 19 40 20 92 21 86 22 85 23
REMARK SMILES IDX 41 25 73 26 53 27 72 28 54 29 57 30 71 31 90 32 55 33 56 34
REMARK SMILES IDX 70 36 91 37 58 38 42 39 43 40 51 41 44 42 45 43 49 44 52 45
REMARK SMILES IDX 46 46 47 47 50 48 48 49 74 50 75 51 83 52 76 53 77 54 81 55
REMARK SMILES IDX 84 56 78 57 79 58 82 59 80 60 59 61 60 62 68 63 61 64 62 65
REMARK SMILES IDX 66 66 69 67 63 68 64 69 67 70 65 71 6 72 7 73 8 74 9 76
REMARK SMILES IDX 10 77 21 78 22 79 32 80 23 82 31 83 24 84 25 85 26 86 30 87
REMARK SMILES IDX 27 88 29 89 28 90 11 91 12 92 20 93 13 94 14 95 19 96 15 98
REMARK SMILES IDX 18 99 16 100 17 101
REMARK H PARENT 3 6 89 24 57 35 7 75 21 81 13 97
REMARK Flexibility Score: inf
ROOT
ATOM      1  C   UNL A   1      32.982  29.679  25.508  1.00  0.00     0.042 C 
ENDROOT
BRANCH   1   2
ATOM      2  C   UNL A   1      32.590  30.264  26.858  1.00  0.00     0.118 C 
BRANCH   2   3
ATOM      3  N   UNL A   1      32.698  31.715  26.842  1.00  0.00    -0.352 N 
ATOM      4  O   UNL A   1      33.255  33.709  27.718  1.00  0.00    -0.269 OA
ATOM      5  C   UNL A   1      33.542  32.523  27.554  1.00  0.00     0.251 C 
ATOM      6  H   UNL A   1      32.078  32.179  26.234  1.00  0.00     0.163 HD
BRANCH   5   7
ATOM      7  C   UNL A   1      34.802  31.988  28.106  1.00  0.00     0.039 A 
ATOM      8  C   UNL A   1      35.950  32.786  28.167  1.00  0.00     0.014 A 
ATOM      9  C   UNL A   1      34.808  30.708  28.668  1.00  0.00     0.014 A 
ATOM     10  C   UNL A   1      37.124  32.278  28.708  1.00  0.00     0.010 A 
ATOM     11  C   UNL A   1      35.965  30.227  29.282  1.00  0.00     0.010 A 
ATOM     12  C   UNL A   1      37.131  31.009  29.304  1.00  0.00    -0.014 A 
BRANCH  12  13
ATOM     13  C   UNL A   1      38.330  30.547  30.039  1.00  0.00     0.031 A 
ATOM     14  C   UNL A   1      39.268  29.554  29.427  1.00  0.00     0.074 A 
ATOM     15  C   UNL A   1      38.536  31.005  31.288  1.00  0.00     0.049 A 
ATOM     16  N   UNL A   1      40.309  28.967  29.959  1.00  0.00    -0.248 NA
ATOM     17  C   UNL A   1      38.995  29.159  28.038  1.00  0.00     0.031 C 
ATOM     18  C   UNL A   1      37.674  31.965  31.983  1.00  0.00     0.029 A 
ATOM     19  N   UNL A   1      39.520  30.720  32.199  1.00  0.00    -0.354 N 
ATOM     20  C   UNL A   1      40.799  28.112  28.982  1.00  0.00     0.074 A 
ATOM     21  C   UNL A   1      39.933  28.244  27.830  1.00  0.00     0.031 C 
ATOM     22  C   UNL A   1      38.171  32.195  33.206  1.00  0.00     0.029 A 
ATOM     23  C   UNL A   1      39.347  31.356  33.404  1.00  0.00     0.049 A 
ATOM     24  H   UNL A   1      40.275  30.118  32.008  1.00  0.00     0.167 HD
ATOM     25  C   UNL A   1      41.876  27.292  29.050  1.00  0.00     0.037 A 
ATOM     26  C   UNL A   1      40.037  31.248  34.553  1.00  0.00     0.037 A 
ATOM     27  C   UNL A   1      42.736  27.183  30.200  1.00  0.00     0.049 A 
ATOM     28  C   UNL A   1      41.217  30.324  34.608  1.00  0.00     0.074 A 
ATOM     29  C   UNL A   1      43.880  26.421  30.354  1.00  0.00     0.029 A 
ATOM     30  N   UNL A   1      42.536  27.852  31.401  1.00  0.00    -0.354 N 
ATOM     31  N   UNL A   1      41.695  29.545  33.669  1.00  0.00    -0.248 NA
ATOM     32  C   UNL A   1      41.949  30.257  35.879  1.00  0.00     0.031 C 
ATOM     33  C   UNL A   1      44.348  26.594  31.661  1.00  0.00     0.029 A 
ATOM     34  C   UNL A   1      43.523  27.501  32.309  1.00  0.00     0.049 A 
ATOM     35  H   UNL A   1      41.802  28.482  31.581  1.00  0.00     0.167 HD
ATOM     36  C   UNL A   1      42.793  28.908  34.224  1.00  0.00     0.074 A 
ATOM     37  C   UNL A   1      42.916  29.397  35.583  1.00  0.00     0.031 C 
ATOM     38  C   UNL A   1      43.626  28.002  33.656  1.00  0.00     0.037 A 
BRANCH  25  39
ATOM     39  C   UNL A   1      42.162  26.429  27.856  1.00  0.00     0.064 A 
ATOM     40  C   UNL A   1      41.498  25.212  27.645  1.00  0.00     0.173 A 
ATOM     41  C   UNL A   1      43.106  26.835  26.900  1.00  0.00     0.173 A 
ATOM     42  F   UNL A   1      40.594  24.773  28.534  1.00  0.00    -0.203 F 
ATOM     43  C   UNL A   1      41.794  24.416  26.542  1.00  0.00     0.198 A 
ATOM     44  C   UNL A   1      43.380  26.048  25.784  1.00  0.00     0.198 A 
ATOM     45  F   UNL A   1      43.765  27.993  27.049  1.00  0.00    -0.203 F 
ATOM     46  F   UNL A   1      41.184  23.231  26.390  1.00  0.00    -0.200 F 
ATOM     47  C   UNL A   1      42.731  24.836  25.610  1.00  0.00     0.200 A 
ATOM     48  F   UNL A   1      44.278  26.462  24.879  1.00  0.00    -0.200 F 
ATOM     49  F   UNL A   1      43.016  24.068  24.549  1.00  0.00    -0.200 F 
ENDBRANCH  25  39
BRANCH  26  50
ATOM     50  C   UNL A   1      39.602  32.038  35.732  1.00  0.00     0.064 A 
ATOM     51  C   UNL A   1      40.134  33.307  35.987  1.00  0.00     0.173 A 
ATOM     52  C   UNL A   1      38.589  31.567  36.583  1.00  0.00     0.173 A 
ATOM     53  F   UNL A   1      41.112  33.792  35.209  1.00  0.00    -0.203 F 
ATOM     54  C   UNL A   1      39.667  34.080  37.048  1.00  0.00     0.198 A 
ATOM     55  C   UNL A   1      38.106  32.351  37.628  1.00  0.00     0.198 A 
ATOM     56  F   UNL A   1      38.041  30.361  36.372  1.00  0.00    -0.203 F 
ATOM     57  F   UNL A   1      40.202  35.286  37.283  1.00  0.00    -0.200 F 
ATOM     58  C   UNL A   1      38.647  33.606  37.861  1.00  0.00     0.200 A 
ATOM     59  F   UNL A   1      37.107  31.896  38.397  1.00  0.00    -0.200 F 
ATOM     60  F   UNL A   1      38.182  34.360  38.867  1.00  0.00    -0.200 F 
ENDBRANCH  26  50
BRANCH  38  61
ATOM     61  C   UNL A   1      44.764  27.500  34.492  1.00  0.00     0.064 A 
ATOM     62  C   UNL A   1      44.650  26.333  35.259  1.00  0.00     0.173 A 
ATOM     63  C   UNL A   1      46.002  28.159  34.471  1.00  0.00     0.173 A 
ATOM     64  F   UNL A   1      43.480  25.678  35.324  1.00  0.00    -0.203 F 
ATOM     65  C   UNL A   1      45.735  25.847  35.983  1.00  0.00     0.198 A 
ATOM     66  C   UNL A   1      47.091  27.657  35.177  1.00  0.00     0.198 A 
ATOM     67  F   UNL A   1      46.159  29.278  33.748  1.00  0.00    -0.203 F 
ATOM     68  F   UNL A   1      45.598  24.744  36.733  1.00  0.00    -0.200 F 
ATOM     69  C   UNL A   1      46.956  26.504  35.933  1.00  0.00     0.200 A 
ATOM     70  F   UNL A   1      48.273  28.288  35.119  1.00  0.00    -0.200 F 
ATOM     71  F   UNL A   1      48.004  26.026  36.619  1.00  0.00    -0.200 F 
ENDBRANCH  38  61
ENDBRANCH  12  13
ENDBRANCH   5   7
ENDBRANCH   2   3
ENDBRANCH   1   2
BRANCH   1  72
ATOM     72  C   UNL A   1      33.490  28.244  25.624  1.00  0.00     0.118 C 
BRANCH  72  73
ATOM     73  N   UNL A   1      32.587  27.449  26.433  1.00  0.00    -0.351 N 
ATOM     74  C   UNL A   1      31.474  26.761  26.020  1.00  0.00     0.283 C 
ATOM     75  H   UNL A   1      32.798  27.397  27.394  1.00  0.00     0.163 HD
ATOM     76  O   UNL A   1      30.606  26.572  26.877  1.00  0.00    -0.268 OA
BRANCH  74  77
ATOM     77  C   UNL A   1      31.372  26.296  24.537  1.00  0.00     0.307 C 
BRANCH  77  78
ATOM     78  N   UNL A   1      31.640  24.860  24.259  1.00  0.00    -0.318 N 
ATOM     79  C   UNL A   1      32.739  24.695  23.275  1.00  0.00     0.284 C 
ATOM     80  C   UNL A   1      31.926  23.987  25.422  1.00  0.00     0.284 C 
ATOM     81  H   UNL A   1      30.742  24.544  23.892  1.00  0.00     0.349 HD
ATOM     82  C   UNL A   1      34.158  24.948  23.840  1.00  0.00     0.178 C 
ATOM     83  C   UNL A   1      33.352  24.078  26.037  1.00  0.00     0.178 C 
ATOM     84  N   UNL A   1      34.378  24.070  24.987  1.00  0.00    -0.360 N 
BRANCH  84  85
ATOM     85  C   UNL A   1      35.518  23.307  25.098  1.00  0.00     0.037 A 
ATOM     86  C   UNL A   1      35.554  21.964  24.698  1.00  0.00     0.026 A 
ATOM     87  C   UNL A   1      36.688  23.845  25.653  1.00  0.00     0.026 A 
ATOM     88  C   UNL A   1      36.711  21.191  24.843  1.00  0.00     0.002 A 
ATOM     89  C   UNL A   1      37.843  23.076  25.816  1.00  0.00     0.002 A 
ATOM     90  C   UNL A   1      37.854  21.747  25.409  1.00  0.00     0.000 A 
ENDBRANCH  84  85
ENDBRANCH  77  78
BRANCH  77  91
ATOM     91  C   UNL A   1      30.021  26.698  23.987  1.00  0.00     0.044 A 
ATOM     92  C   UNL A   1      28.794  26.119  24.261  1.00  0.00     0.094 A 
ATOM     93  C   UNL A   1      29.750  27.860  23.184  1.00  0.00     0.009 A 
ATOM     94  N   UNL A   1      27.811  26.914  23.739  1.00  0.00    -0.361 N 
ATOM     95  C   UNL A   1      28.364  28.020  23.137  1.00  0.00     0.049 A 
ATOM     96  C   UNL A   1      30.558  28.843  22.565  1.00  0.00     0.014 A 
ATOM     97  H   UNL A   1      26.846  26.722  23.787  1.00  0.00     0.166 HD
ATOM     98  C   UNL A   1      27.750  29.145  22.572  1.00  0.00     0.065 A 
ATOM     99  C   UNL A   1      29.962  29.976  21.998  1.00  0.00     0.040 A 
ATOM    100  C   UNL A   1      28.583  30.121  22.027  1.00  0.00     0.125 A 
ATOM    101  F   UNL A   1      28.035  31.234  21.518  1.00  0.00    -0.207 F 
ENDBRANCH  77  91
ENDBRANCH  74  77
ENDBRANCH  72  73
ENDBRANCH   1  72
TORSDOF 13
ENDMDL
MODEL 3
REMARK VINA RESULT:     -13.7      2.757      7.662
REMARK SMILES O=C(NCCCNC(=O)[C@H](c1c[nH]c2cc(F)ccc12)[NH+]1CCN(c2ccccc2)CC1)c1ccc(-c2c3nc(c(-c4c(F)c(F)c(F)c(F)c4F)c4ccc([nH]4)c(-c4c(F)c(F)c(F)c(F)c4F)c4nc(c(-c5c(F)c(F)c(F)c(F)c5F)c5ccc2[nH]5)C=C4)C=C3)cc1
REMARK SMILES IDX 5 1 4 2 3 3 1 4 2 5 33 7 34 8 95 9 35 10 94 11 36 12 37 13
REMARK SMILES IDX 38 14 88 15 39 16 93 17 87 18 89 19 40 20 92 21 86 22 85 23
REMARK SMILES IDX 41 25 73 26 53 27 72 28 54 29 57 30 71 31 90 32 55 33 56 34
REMARK SMILES IDX 70 36 91 37 58 38 42 39 43 40 51 41 44 42 45 43 49 44 52 45
REMARK SMILES IDX 46 46 47 47 50 48 48 49 74 50 75 51 83 52 76 53 77 54 81 55
REMARK SMILES IDX 84 56 78 57 79 58 82 59 80 60 59 61 60 62 68 63 61 64 62 65
REMARK SMILES IDX 66 66 69 67 63 68 64 69 67 70 65 71 6 72 7 73 8 74 9 76
REMARK SMILES IDX 10 77 21 78 22 79 32 80 23 82 31 83 24 84 25 85 26 86 30 87
REMARK SMILES IDX 27 88 29 89 28 90 11 91 12 92 20 93 13 94 14 95 19 96 15 98
REMARK SMILES IDX 18 99 16 100 17 101
REMARK H PARENT 3 6 89 24 57 35 7 75 21 81 13 97
REMARK Flexibility Score: inf
ROOT
ATOM      1  C   UNL A   1      33.006  29.695  25.265  1.00  0.00     0.042 C 
ENDROOT
BRANCH   1   2
ATOM      2  C   UNL A   1      32.575  30.211  26.630  1.00  0.00     0.118 C 
BRANCH   2   3
ATOM      3  N   UNL A   1      32.632  31.665  26.673  1.00  0.00    -0.352 N 
ATOM      4  O   UNL A   1      33.087  33.641  27.642  1.00  0.00    -0.269 OA
ATOM      5  C   UNL A   1      33.421  32.473  27.445  1.00  0.00     0.251 C 
ATOM      6  H   UNL A   1      32.018  32.131  26.060  1.00  0.00     0.163 HD
BRANCH   5   7
ATOM      7  C   UNL A   1      34.679  31.960  28.024  1.00  0.00     0.039 A 
ATOM      8  C   UNL A   1      35.799  32.790  28.144  1.00  0.00     0.014 A 
ATOM      9  C   UNL A   1      34.706  30.665  28.550  1.00  0.00     0.014 A 
ATOM     10  C   UNL A   1      36.970  32.302  28.710  1.00  0.00     0.010 A 
ATOM     11  C   UNL A   1      35.857  30.202  29.188  1.00  0.00     0.010 A 
ATOM     12  C   UNL A   1      36.997  31.017  29.270  1.00  0.00    -0.014 A 
BRANCH  12  13
ATOM     13  C   UNL A   1      38.185  30.570  30.031  1.00  0.00     0.031 A 
ATOM     14  C   UNL A   1      39.143  29.581  29.444  1.00  0.00     0.074 A 
ATOM     15  C   UNL A   1      38.363  31.038  31.281  1.00  0.00     0.049 A 
ATOM     16  N   UNL A   1      40.179  29.006  29.999  1.00  0.00    -0.248 NA
ATOM     17  C   UNL A   1      38.901  29.175  28.052  1.00  0.00     0.031 C 
ATOM     18  C   UNL A   1      37.479  31.994  31.953  1.00  0.00     0.029 A 
ATOM     19  N   UNL A   1      39.331  30.767  32.213  1.00  0.00    -0.354 N 
ATOM     20  C   UNL A   1      40.695  28.150  29.038  1.00  0.00     0.074 A 
ATOM     21  C   UNL A   1      39.850  28.267  27.868  1.00  0.00     0.031 C 
ATOM     22  C   UNL A   1      37.951  32.237  33.184  1.00  0.00     0.029 A 
ATOM     23  C   UNL A   1      39.130  31.409  33.409  1.00  0.00     0.049 A 
ATOM     24  H   UNL A   1      40.095  30.170  32.041  1.00  0.00     0.167 HD
ATOM     25  C   UNL A   1      41.777  27.340  29.132  1.00  0.00     0.037 A 
ATOM     26  C   UNL A   1      39.798  31.314  34.573  1.00  0.00     0.037 A 
ATOM     27  C   UNL A   1      42.616  27.245  30.299  1.00  0.00     0.049 A 
ATOM     28  C   UNL A   1      40.984  30.401  34.657  1.00  0.00     0.074 A 
ATOM     29  C   UNL A   1      43.763  26.495  30.480  1.00  0.00     0.029 A 
ATOM     30  N   UNL A   1      42.386  27.920  31.492  1.00  0.00    -0.354 N 
ATOM     31  N   UNL A   1      41.488  29.620  33.732  1.00  0.00    -0.248 NA
ATOM     32  C   UNL A   1      41.692  30.347  35.942  1.00  0.00     0.031 C 
ATOM     33  C   UNL A   1      44.203  26.680  31.795  1.00  0.00     0.029 A 
ATOM     34  C   UNL A   1      43.358  27.583  32.421  1.00  0.00     0.049 A 
ATOM     35  H   UNL A   1      41.643  28.545  31.653  1.00  0.00     0.167 HD
ATOM     36  C   UNL A   1      42.580  28.996  34.312  1.00  0.00     0.074 A 
ATOM     37  C   UNL A   1      42.672  29.495  35.670  1.00  0.00     0.031 C 
ATOM     38  C   UNL A   1      43.431  28.094  33.767  1.00  0.00     0.037 A 
BRANCH  25  39
ATOM     39  C   UNL A   1      42.094  26.472  27.949  1.00  0.00     0.064 A 
ATOM     40  C   UNL A   1      43.066  26.831  27.005  1.00  0.00     0.173 A 
ATOM     41  C   UNL A   1      41.421  25.253  27.767  1.00  0.00     0.173 A 
ATOM     42  F   UNL A   1      43.729  27.991  27.127  1.00  0.00    -0.203 F 
ATOM     43  C   UNL A   1      43.329  26.021  25.903  1.00  0.00     0.198 A 
ATOM     44  C   UNL A   1      41.706  24.433  26.678  1.00  0.00     0.198 A 
ATOM     45  F   UNL A   1      40.487  24.858  28.645  1.00  0.00    -0.203 F 
ATOM     46  F   UNL A   1      44.225  26.411  24.985  1.00  0.00    -0.200 F 
ATOM     47  C   UNL A   1      42.652  24.821  25.743  1.00  0.00     0.200 A 
ATOM     48  F   UNL A   1      41.059  23.268  26.532  1.00  0.00    -0.200 F 
ATOM     49  F   UNL A   1      42.905  24.043  24.681  1.00  0.00    -0.200 F 
ENDBRANCH  25  39
BRANCH  26  50
ATOM     50  C   UNL A   1      39.333  32.108  35.738  1.00  0.00     0.064 A 
ATOM     51  C   UNL A   1      38.363  31.604  36.613  1.00  0.00     0.173 A 
ATOM     52  C   UNL A   1      39.906  33.354  36.039  1.00  0.00     0.173 A 
ATOM     53  F   UNL A   1      37.779  30.424  36.357  1.00  0.00    -0.203 F 
ATOM     54  C   UNL A   1      37.984  32.315  37.749  1.00  0.00     0.198 A 
ATOM     55  C   UNL A   1      39.544  34.052  37.188  1.00  0.00     0.198 A 
ATOM     56  F   UNL A   1      40.846  33.872  35.236  1.00  0.00    -0.203 F 
ATOM     57  F   UNL A   1      37.043  31.821  38.565  1.00  0.00    -0.200 F 
ATOM     58  C   UNL A   1      38.583  33.533  38.042  1.00  0.00     0.200 A 
ATOM     59  F   UNL A   1      40.139  35.218  37.476  1.00  0.00    -0.200 F 
ATOM     60  F   UNL A   1      38.235  34.205  39.148  1.00  0.00    -0.200 F 
ENDBRANCH  26  50
BRANCH  38  61
ATOM     61  C   UNL A   1      44.557  27.607  34.628  1.00  0.00     0.064 A 
ATOM     62  C   UNL A   1      45.771  28.303  34.709  1.00  0.00     0.173 A 
ATOM     63  C   UNL A   1      44.392  26.469  35.431  1.00  0.00     0.173 A 
ATOM     64  F   UNL A   1      45.980  29.387  33.947  1.00  0.00    -0.203 F 
ATOM     65  C   UNL A   1      46.785  27.870  35.559  1.00  0.00     0.198 A 
ATOM     66  C   UNL A   1      45.399  26.053  36.297  1.00  0.00     0.198 A 
ATOM     67  F   UNL A   1      43.246  25.773  35.389  1.00  0.00    -0.203 F 
ATOM     68  F   UNL A   1      47.949  28.533  35.602  1.00  0.00    -0.200 F 
ATOM     69  C   UNL A   1      46.594  26.752  36.358  1.00  0.00     0.200 A 
ATOM     70  F   UNL A   1      45.209  24.979  37.076  1.00  0.00    -0.200 F 
ATOM     71  F   UNL A   1      47.566  26.346  37.187  1.00  0.00    -0.200 F 
ENDBRANCH  38  61
ENDBRANCH  12  13
ENDBRANCH   5   7
ENDBRANCH   2   3
ENDBRANCH   1   2
BRANCH   1  72
ATOM     72  C   UNL A   1      33.456  28.237  25.313  1.00  0.00     0.118 C 
BRANCH  72  73
ATOM     73  N   UNL A   1      32.631  27.480  26.234  1.00  0.00    -0.351 N 
ATOM     74  C   UNL A   1      31.504  26.751  25.948  1.00  0.00     0.283 C 
ATOM     75  H   UNL A   1      32.913  27.491  27.177  1.00  0.00     0.163 HD
ATOM     76  O   UNL A   1      30.706  26.602  26.878  1.00  0.00    -0.268 OA
BRANCH  74  77
ATOM     77  C   UNL A   1      31.302  26.192  24.508  1.00  0.00     0.307 C 
BRANCH  77  78
ATOM     78  N   UNL A   1      31.546  24.740  24.306  1.00  0.00    -0.318 N 
ATOM     79  C   UNL A   1      32.628  24.504  23.317  1.00  0.00     0.284 C 
ATOM     80  C   UNL A   1      31.838  23.928  25.512  1.00  0.00     0.284 C 
ATOM     81  H   UNL A   1      30.638  24.417  23.970  1.00  0.00     0.349 HD
ATOM     82  C   UNL A   1      34.058  24.768  23.847  1.00  0.00     0.178 C 
ATOM     83  C   UNL A   1      33.274  24.032  26.100  1.00  0.00     0.178 C 
ATOM     84  N   UNL A   1      34.284  23.951  25.037  1.00  0.00    -0.360 N 
BRANCH  84  85
ATOM     85  C   UNL A   1      35.415  23.179  25.174  1.00  0.00     0.037 A 
ATOM     86  C   UNL A   1      36.627  23.716  25.629  1.00  0.00     0.026 A 
ATOM     87  C   UNL A   1      35.402  21.820  24.829  1.00  0.00     0.026 A 
ATOM     88  C   UNL A   1      37.778  22.928  25.738  1.00  0.00     0.002 A 
ATOM     89  C   UNL A   1      36.550  21.030  24.918  1.00  0.00     0.002 A 
ATOM     90  C   UNL A   1      37.740  21.585  25.375  1.00  0.00     0.000 A 
ENDBRANCH  84  85
ENDBRANCH  77  78
BRANCH  77  91
ATOM     91  C   UNL A   1      29.919  26.568  24.024  1.00  0.00     0.044 A 
ATOM     92  C   UNL A   1      28.720  25.952  24.337  1.00  0.00     0.094 A 
ATOM     93  C   UNL A   1      29.584  27.739  23.258  1.00  0.00     0.009 A 
ATOM     94  N   UNL A   1      27.695  26.730  23.874  1.00  0.00    -0.361 N 
ATOM     95  C   UNL A   1      28.193  27.862  23.272  1.00  0.00     0.049 A 
ATOM     96  C   UNL A   1      30.339  28.756  22.626  1.00  0.00     0.014 A 
ATOM     97  H   UNL A   1      26.739  26.511  23.958  1.00  0.00     0.166 HD
ATOM     98  C   UNL A   1      27.526  28.982  22.758  1.00  0.00     0.065 A 
ATOM     99  C   UNL A   1      29.690  29.883  22.109  1.00  0.00     0.040 A 
ATOM    100  C   UNL A   1      28.310  29.990  22.198  1.00  0.00     0.125 A 
ATOM    101  F   UNL A   1      27.712  31.098  21.737  1.00  0.00    -0.207 F 
ENDBRANCH  77  91
ENDBRANCH  74  77
ENDBRANCH  72  73
ENDBRANCH   1  72
TORSDOF 13
ENDMDL
