MODEL 1
REMARK VINA RESULT:     -12.2      0.000      0.000
REMARK SMILES O=C(NCCCNC(=O)[C@@]1([NH2+]C2CC2)CC[C@@H]([N@@H+]2CC[N@@H+]3CCC[C@@H]3C2)C1)c1ccc(-c2c3nc(c(-c4c(F)c(F)c(F)c(F)c4F)c4ccc([nH]4)c(-c4c(F)c(F)c(F)c(F)c4F)c4nc(c(-c5c(F)c(F)c(F)c(F)c5F)c5ccc2[nH]5)C=C4)C=C3)cc1
REMARK SMILES IDX 5 1 4 2 3 3 1 4 2 5 28 7 29 8 90 9 30 10 89 11 31 12 32 13
REMARK SMILES IDX 33 14 83 15 34 16 88 17 82 18 84 19 35 20 87 21 81 22 80 23
REMARK SMILES IDX 36 25 68 26 48 27 67 28 49 29 52 30 66 31 85 32 50 33 51 34
REMARK SMILES IDX 65 36 86 37 53 38 37 39 38 40 46 41 39 42 40 43 44 44 47 45
REMARK SMILES IDX 41 46 42 47 45 48 43 49 69 50 70 51 78 52 71 53 72 54 76 55
REMARK SMILES IDX 79 56 73 57 74 58 77 59 75 60 54 61 55 62 63 63 56 64 57 65
REMARK SMILES IDX 61 66 64 67 58 68 59 69 62 70 60 71 6 72 7 73 8 74 9 76
REMARK SMILES IDX 10 77 15 78 27 79 16 80 17 81 11 82 12 85 13 86 14 87 18 88
REMARK SMILES IDX 19 89 26 90 20 92 25 93 21 94 24 95 22 96 23 98
REMARK H PARENT 3 6 84 24 52 35 7 75 11 83 11 84 18 91 21 97
REMARK Flexibility Score: inf
ROOT
ATOM      1  C   UNL A   1      33.934  28.701  23.758  1.00  0.00     0.042 C 
ENDROOT
BRANCH   1   2
ATOM      2  C   UNL A   1      33.941  28.842  25.269  1.00  0.00     0.118 C 
BRANCH   2   3
ATOM      3  N   UNL A   1      33.276  30.067  25.697  1.00  0.00    -0.352 N 
ATOM      4  O   UNL A   1      32.645  31.661  27.156  1.00  0.00    -0.269 OA
ATOM      5  C   UNL A   1      33.478  30.826  26.820  1.00  0.00     0.251 C 
ATOM      6  H   UNL A   1      32.576  30.397  25.088  1.00  0.00     0.163 HD
BRANCH   5   7
ATOM      7  C   UNL A   1      34.705  30.638  27.621  1.00  0.00     0.039 A 
ATOM      8  C   UNL A   1      34.905  29.451  28.328  1.00  0.00     0.014 A 
ATOM      9  C   UNL A   1      35.682  31.636  27.633  1.00  0.00     0.014 A 
ATOM     10  C   UNL A   1      36.002  29.321  29.164  1.00  0.00     0.010 A 
ATOM     11  C   UNL A   1      36.846  31.455  28.384  1.00  0.00     0.010 A 
ATOM     12  C   UNL A   1      37.005  30.303  29.170  1.00  0.00    -0.014 A 
BRANCH  12  13
ATOM     13  C   UNL A   1      38.246  30.045  29.938  1.00  0.00     0.031 A 
ATOM     14  C   UNL A   1      38.417  30.561  31.336  1.00  0.00     0.074 A 
ATOM     15  C   UNL A   1      39.205  29.297  29.359  1.00  0.00     0.049 A 
ATOM     16  N   UNL A   1      39.432  30.408  32.150  1.00  0.00    -0.248 NA
ATOM     17  C   UNL A   1      37.314  31.357  31.894  1.00  0.00     0.031 C 
ATOM     18  C   UNL A   1      39.142  28.754  27.999  1.00  0.00     0.029 A 
ATOM     19  N   UNL A   1      40.407  28.846  29.838  1.00  0.00    -0.354 N 
ATOM     20  C   UNL A   1      39.095  31.090  33.310  1.00  0.00     0.074 A 
ATOM     21  C   UNL A   1      37.798  31.692  33.083  1.00  0.00     0.031 C 
ATOM     22  C   UNL A   1      40.228  28.003  27.771  1.00  0.00     0.029 A 
ATOM     23  C   UNL A   1      41.100  28.075  28.937  1.00  0.00     0.049 A 
ATOM     24  H   UNL A   1      40.742  29.054  30.740  1.00  0.00     0.167 HD
ATOM     25  C   UNL A   1      39.801  31.190  34.463  1.00  0.00     0.037 A 
ATOM     26  C   UNL A   1      42.316  27.509  29.029  1.00  0.00     0.037 A 
ATOM     27  C   UNL A   1      41.094  30.587  34.671  1.00  0.00     0.049 A 
ATOM     28  C   UNL A   1      43.096  27.683  30.300  1.00  0.00     0.074 A 
ATOM     29  C   UNL A   1      41.892  30.623  35.802  1.00  0.00     0.029 A 
ATOM     30  N   UNL A   1      41.782  29.841  33.723  1.00  0.00    -0.354 N 
ATOM     31  N   UNL A   1      42.754  28.307  31.401  1.00  0.00    -0.248 NA
ATOM     32  C   UNL A   1      44.430  27.075  30.342  1.00  0.00     0.031 C 
ATOM     33  C   UNL A   1      43.083  29.944  35.521  1.00  0.00     0.029 A 
ATOM     34  C   UNL A   1      43.003  29.430  34.237  1.00  0.00     0.049 A 
ATOM     35  H   UNL A   1      41.452  29.635  32.820  1.00  0.00     0.167 HD
ATOM     36  C   UNL A   1      43.819  28.147  32.275  1.00  0.00     0.074 A 
ATOM     37  C   UNL A   1      44.808  27.344  31.583  1.00  0.00     0.031 C 
ATOM     38  C   UNL A   1      43.970  28.625  33.534  1.00  0.00     0.037 A 
BRANCH  25  39
ATOM     39  C   UNL A   1      39.199  31.988  35.583  1.00  0.00     0.064 A 
ATOM     40  C   UNL A   1      38.380  31.393  36.554  1.00  0.00     0.173 A 
ATOM     41  C   UNL A   1      39.483  33.356  35.718  1.00  0.00     0.173 A 
ATOM     42  F   UNL A   1      38.066  30.090  36.468  1.00  0.00    -0.203 F 
ATOM     43  C   UNL A   1      37.848  32.140  37.602  1.00  0.00     0.198 A 
ATOM     44  C   UNL A   1      38.975  34.095  36.785  1.00  0.00     0.198 A 
ATOM     45  F   UNL A   1      40.265  33.977  34.822  1.00  0.00    -0.203 F 
ATOM     46  F   UNL A   1      37.031  31.558  38.492  1.00  0.00    -0.200 F 
ATOM     47  C   UNL A   1      38.153  33.488  37.722  1.00  0.00     0.200 A 
ATOM     48  F   UNL A   1      39.282  35.393  36.905  1.00  0.00    -0.200 F 
ATOM     49  F   UNL A   1      37.648  34.203  38.737  1.00  0.00    -0.200 F 
ENDBRANCH  25  39
BRANCH  26  50
ATOM     50  C   UNL A   1      42.872  26.749  27.879  1.00  0.00     0.064 A 
ATOM     51  C   UNL A   1      43.561  27.398  26.845  1.00  0.00     0.173 A 
ATOM     52  C   UNL A   1      42.716  25.356  27.784  1.00  0.00     0.173 A 
ATOM     53  F   UNL A   1      43.724  28.729  26.881  1.00  0.00    -0.203 F 
ATOM     54  C   UNL A   1      44.045  26.688  25.748  1.00  0.00     0.198 A 
ATOM     55  C   UNL A   1      43.233  24.645  26.706  1.00  0.00     0.198 A 
ATOM     56  F   UNL A   1      42.073  24.685  28.751  1.00  0.00    -0.203 F 
ATOM     57  F   UNL A   1      44.649  27.342  24.745  1.00  0.00    -0.200 F 
ATOM     58  C   UNL A   1      43.886  25.312  25.682  1.00  0.00     0.200 A 
ATOM     59  F   UNL A   1      43.095  23.313  26.658  1.00  0.00    -0.200 F 
ATOM     60  F   UNL A   1      44.354  24.631  24.626  1.00  0.00    -0.200 F 
ENDBRANCH  26  50
BRANCH  38  61
ATOM     61  C   UNL A   1      45.235  28.255  34.254  1.00  0.00     0.064 A 
ATOM     62  C   UNL A   1      45.332  27.086  35.023  1.00  0.00     0.173 A 
ATOM     63  C   UNL A   1      46.369  29.076  34.158  1.00  0.00     0.173 A 
ATOM     64  F   UNL A   1      44.270  26.278  35.160  1.00  0.00    -0.203 F 
ATOM     65  C   UNL A   1      46.508  26.771  35.699  1.00  0.00     0.198 A 
ATOM     66  C   UNL A   1      47.553  28.739  34.807  1.00  0.00     0.198 A 
ATOM     67  F   UNL A   1      46.330  30.202  33.431  1.00  0.00    -0.203 F 
ATOM     68  F   UNL A   1      46.557  25.682  36.479  1.00  0.00    -0.200 F 
ATOM     69  C   UNL A   1      47.618  27.593  35.585  1.00  0.00     0.200 A 
ATOM     70  F   UNL A   1      48.630  29.527  34.683  1.00  0.00    -0.200 F 
ATOM     71  F   UNL A   1      48.749  27.286  36.234  1.00  0.00    -0.200 F 
ENDBRANCH  38  61
ENDBRANCH  12  13
ENDBRANCH   5   7
ENDBRANCH   2   3
ENDBRANCH   1   2
BRANCH   1  72
ATOM     72  C   UNL A   1      32.707  27.955  23.263  1.00  0.00     0.118 C 
BRANCH  72  73
ATOM     73  N   UNL A   1      32.958  27.275  22.018  1.00  0.00    -0.351 N 
ATOM     74  C   UNL A   1      33.078  25.959  21.698  1.00  0.00     0.281 C 
ATOM     75  H   UNL A   1      33.064  27.881  21.249  1.00  0.00     0.163 HD
ATOM     76  O   UNL A   1      33.248  25.759  20.487  1.00  0.00    -0.268 OA
BRANCH  74  77
ATOM     77  C   UNL A   1      32.887  24.780  22.725  1.00  0.00     0.181 C 
ATOM     78  C   UNL A   1      33.165  23.317  22.340  1.00  0.00     0.085 C 
ATOM     79  C   UNL A   1      33.925  25.039  23.850  1.00  0.00     0.144 C 
ATOM     80  C   UNL A   1      33.570  22.626  23.639  1.00  0.00     0.072 C 
ATOM     81  C   UNL A   1      34.332  23.680  24.455  1.00  0.00     0.191 C 
BRANCH  77  82
ATOM     82  N   UNL A   1      31.518  24.837  23.305  1.00  0.00    -0.331 N 
ATOM     83  H   UNL A   1      31.168  23.880  23.335  1.00  0.00     0.347 HD
ATOM     84  H   UNL A   1      31.023  25.488  22.696  1.00  0.00     0.347 HD
BRANCH  82  85
ATOM     85  C   UNL A   1      31.329  25.405  24.648  1.00  0.00     0.183 C 
ATOM     86  C   UNL A   1      30.003  25.787  25.251  1.00  0.00     0.071 C 
ATOM     87  C   UNL A   1      30.714  24.562  25.736  1.00  0.00     0.071 C 
ENDBRANCH  82  85
ENDBRANCH  77  82
BRANCH  81  88
ATOM     88  N   UNL A   1      35.782  23.426  24.549  1.00  0.00    -0.323 N 
ATOM     89  C   UNL A   1      36.144  22.020  24.262  1.00  0.00     0.324 C 
ATOM     90  C   UNL A   1      36.465  23.911  25.749  1.00  0.00     0.328 C 
ATOM     91  H   UNL A   1      36.144  24.018  23.803  1.00  0.00     0.348 HD
ATOM     92  C   UNL A   1      37.317  21.419  25.090  1.00  0.00     0.324 C 
ATOM     93  C   UNL A   1      37.992  23.705  25.686  1.00  0.00     0.240 C 
ATOM     94  N   UNL A   1      38.431  22.331  25.375  1.00  0.00    -0.323 N 
ATOM     95  C   UNL A   1      38.669  24.078  27.007  1.00  0.00     0.077 C 
ATOM     96  C   UNL A   1      39.278  21.857  26.475  1.00  0.00     0.263 C 
ATOM     97  H   UNL A   1      38.971  22.346  24.511  1.00  0.00     0.348 HD
ATOM     98  C   UNL A   1      39.844  23.126  27.087  1.00  0.00     0.068 C 
ENDBRANCH  81  88
ENDBRANCH  74  77
ENDBRANCH  72  73
ENDBRANCH   1  72
TORSDOF 13
ENDMDL
MODEL 2
REMARK VINA RESULT:     -12.2      2.106      3.760
REMARK SMILES O=C(NCCCNC(=O)[C@@]1([NH2+]C2CC2)CC[C@@H]([N@@H+]2CC[N@@H+]3CCC[C@@H]3C2)C1)c1ccc(-c2c3nc(c(-c4c(F)c(F)c(F)c(F)c4F)c4ccc([nH]4)c(-c4c(F)c(F)c(F)c(F)c4F)c4nc(c(-c5c(F)c(F)c(F)c(F)c5F)c5ccc2[nH]5)C=C4)C=C3)cc1
REMARK SMILES IDX 5 1 4 2 3 3 1 4 2 5 28 7 29 8 90 9 30 10 89 11 31 12 32 13
REMARK SMILES IDX 33 14 83 15 34 16 88 17 82 18 84 19 35 20 87 21 81 22 80 23
REMARK SMILES IDX 36 25 68 26 48 27 67 28 49 29 52 30 66 31 85 32 50 33 51 34
REMARK SMILES IDX 65 36 86 37 53 38 37 39 38 40 46 41 39 42 40 43 44 44 47 45
REMARK SMILES IDX 41 46 42 47 45 48 43 49 69 50 70 51 78 52 71 53 72 54 76 55
REMARK SMILES IDX 79 56 73 57 74 58 77 59 75 60 54 61 55 62 63 63 56 64 57 65
REMARK SMILES IDX 61 66 64 67 58 68 59 69 62 70 60 71 6 72 7 73 8 74 9 76
REMARK SMILES IDX 10 77 15 78 27 79 16 80 17 81 11 82 12 85 13 86 14 87 18 88
REMARK SMILES IDX 19 89 26 90 20 92 25 93 21 94 24 95 22 96 23 98
REMARK H PARENT 3 6 84 24 52 35 7 75 11 83 11 84 18 91 21 97
REMARK Flexibility Score: inf
ROOT
ATOM      1  C   UNL A   1      31.322  31.875  26.362  1.00  0.00     0.042 C 
ENDROOT
BRANCH   1   2
ATOM      2  C   UNL A   1      32.628  32.453  26.876  1.00  0.00     0.118 C 
BRANCH   2   3
ATOM      3  N   UNL A   1      32.463  33.828  27.333  1.00  0.00    -0.352 N 
ATOM      4  O   UNL A   1      32.583  35.536  28.793  1.00  0.00    -0.269 OA
ATOM      5  C   UNL A   1      33.045  34.473  28.393  1.00  0.00     0.251 C 
ATOM      6  H   UNL A   1      31.841  34.374  26.799  1.00  0.00     0.163 HD
BRANCH   5   7
ATOM      7  C   UNL A   1      34.231  33.885  29.048  1.00  0.00     0.039 A 
ATOM      8  C   UNL A   1      34.087  32.808  29.923  1.00  0.00     0.014 A 
ATOM      9  C   UNL A   1      35.501  34.386  28.753  1.00  0.00     0.014 A 
ATOM     10  C   UNL A   1      35.186  32.331  30.619  1.00  0.00     0.010 A 
ATOM     11  C   UNL A   1      36.624  33.825  29.365  1.00  0.00     0.010 A 
ATOM     12  C   UNL A   1      36.471  32.805  30.318  1.00  0.00    -0.014 A 
BRANCH  12  13
ATOM     13  C   UNL A   1      37.638  32.144  30.951  1.00  0.00     0.031 A 
ATOM     14  C   UNL A   1      38.084  32.512  32.335  1.00  0.00     0.074 A 
ATOM     15  C   UNL A   1      38.266  31.172  30.263  1.00  0.00     0.049 A 
ATOM     16  N   UNL A   1      39.072  32.018  33.039  1.00  0.00    -0.248 NA
ATOM     17  C   UNL A   1      37.332  33.575  33.019  1.00  0.00     0.031 C 
ATOM     18  C   UNL A   1      37.917  30.743  28.905  1.00  0.00     0.029 A 
ATOM     19  N   UNL A   1      39.310  30.354  30.607  1.00  0.00    -0.354 N 
ATOM     20  C   UNL A   1      39.065  32.710  34.241  1.00  0.00     0.074 A 
ATOM     21  C   UNL A   1      38.000  33.687  34.160  1.00  0.00     0.031 C 
ATOM     22  C   UNL A   1      38.696  29.712  28.552  1.00  0.00     0.029 A 
ATOM     23  C   UNL A   1      39.649  29.457  29.625  1.00  0.00     0.049 A 
ATOM     24  H   UNL A   1      39.771  30.405  31.476  1.00  0.00     0.167 HD
ATOM     25  C   UNL A   1      39.868  32.532  35.319  1.00  0.00     0.037 A 
ATOM     26  C   UNL A   1      40.636  28.545  29.582  1.00  0.00     0.037 A 
ATOM     27  C   UNL A   1      40.928  31.557  35.382  1.00  0.00     0.049 A 
ATOM     28  C   UNL A   1      41.543  28.410  30.771  1.00  0.00     0.074 A 
ATOM     29  C   UNL A   1      41.796  31.292  36.428  1.00  0.00     0.029 A 
ATOM     30  N   UNL A   1      41.266  30.687  34.354  1.00  0.00    -0.354 N 
ATOM     31  N   UNL A   1      41.508  29.051  31.913  1.00  0.00    -0.248 NA
ATOM     32  C   UNL A   1      42.625  27.425  30.664  1.00  0.00     0.031 C 
ATOM     33  C   UNL A   1      42.691  30.299  36.013  1.00  0.00     0.029 A 
ATOM     34  C   UNL A   1      42.343  29.900  34.733  1.00  0.00     0.049 A 
ATOM     35  H   UNL A   1      40.809  30.636  33.485  1.00  0.00     0.167 HD
ATOM     36  C   UNL A   1      42.548  28.532  32.672  1.00  0.00     0.074 A 
ATOM     37  C   UNL A   1      43.176  27.504  31.867  1.00  0.00     0.031 C 
ATOM     38  C   UNL A   1      42.950  28.877  33.919  1.00  0.00     0.037 A 
BRANCH  25  39
ATOM     39  C   UNL A   1      39.643  33.417  36.511  1.00  0.00     0.064 A 
ATOM     40  C   UNL A   1      40.256  34.674  36.621  1.00  0.00     0.173 A 
ATOM     41  C   UNL A   1      38.766  33.027  37.535  1.00  0.00     0.173 A 
ATOM     42  F   UNL A   1      41.113  35.093  35.677  1.00  0.00    -0.203 F 
ATOM     43  C   UNL A   1      40.020  35.495  37.721  1.00  0.00     0.198 A 
ATOM     44  C   UNL A   1      38.508  33.863  38.619  1.00  0.00     0.198 A 
ATOM     45  F   UNL A   1      38.148  31.837  37.480  1.00  0.00    -0.203 F 
ATOM     46  F   UNL A   1      40.653  36.673  37.825  1.00  0.00    -0.200 F 
ATOM     47  C   UNL A   1      39.139  35.093  38.714  1.00  0.00     0.200 A 
ATOM     48  F   UNL A   1      37.646  33.478  39.570  1.00  0.00    -0.200 F 
ATOM     49  F   UNL A   1      38.906  35.889  39.768  1.00  0.00    -0.200 F 
ENDBRANCH  25  39
BRANCH  26  50
ATOM     50  C   UNL A   1      40.828  27.712  28.365  1.00  0.00     0.064 A 
ATOM     51  C   UNL A   1      40.220  26.455  28.244  1.00  0.00     0.173 A 
ATOM     52  C   UNL A   1      41.633  28.151  27.303  1.00  0.00     0.173 A 
ATOM     53  F   UNL A   1      39.452  25.984  29.238  1.00  0.00    -0.203 F 
ATOM     54  C   UNL A   1      40.434  25.658  27.121  1.00  0.00     0.198 A 
ATOM     55  C   UNL A   1      41.816  27.370  26.166  1.00  0.00     0.198 A 
ATOM     56  F   UNL A   1      42.231  29.350  27.364  1.00  0.00    -0.203 F 
ATOM     57  F   UNL A   1      39.887  24.436  27.057  1.00  0.00    -0.200 F 
ATOM     58  C   UNL A   1      41.227  26.118  26.080  1.00  0.00     0.200 A 
ATOM     59  F   UNL A   1      42.566  27.829  25.154  1.00  0.00    -0.200 F 
ATOM     60  F   UNL A   1      41.431  25.351  25.001  1.00  0.00    -0.200 F 
ENDBRANCH  26  50
BRANCH  38  61
ATOM     61  C   UNL A   1      44.100  28.105  34.499  1.00  0.00     0.064 A 
ATOM     62  C   UNL A   1      45.425  28.543  34.368  1.00  0.00     0.173 A 
ATOM     63  C   UNL A   1      43.866  26.917  35.210  1.00  0.00     0.173 A 
ATOM     64  F   UNL A   1      45.702  29.662  33.682  1.00  0.00    -0.203 F 
ATOM     65  C   UNL A   1      46.480  27.802  34.896  1.00  0.00     0.198 A 
ATOM     66  C   UNL A   1      44.920  26.198  35.767  1.00  0.00     0.198 A 
ATOM     67  F   UNL A   1      42.617  26.458  35.369  1.00  0.00    -0.203 F 
ATOM     68  F   UNL A   1      47.742  28.207  34.703  1.00  0.00    -0.200 F 
ATOM     69  C   UNL A   1      46.225  26.635  35.600  1.00  0.00     0.200 A 
ATOM     70  F   UNL A   1      44.672  25.079  36.461  1.00  0.00    -0.200 F 
ATOM     71  F   UNL A   1      47.240  25.925  36.111  1.00  0.00    -0.200 F 
ENDBRANCH  38  61
ENDBRANCH  12  13
ENDBRANCH   5   7
ENDBRANCH   2   3
ENDBRANCH   1   2
BRANCH   1  72
ATOM     72  C   UNL A   1      31.403  30.370  26.172  1.00  0.00     0.118 C 
BRANCH  72  73
ATOM     73  N   UNL A   1      32.311  30.011  25.113  1.00  0.00    -0.351 N 
ATOM     74  C   UNL A   1      32.285  29.026  24.176  1.00  0.00     0.281 C 
ATOM     75  H   UNL A   1      33.104  30.592  25.056  1.00  0.00     0.163 HD
ATOM     76  O   UNL A   1      33.240  29.069  23.388  1.00  0.00    -0.268 OA
BRANCH  74  77
ATOM     77  C   UNL A   1      31.101  28.003  24.003  1.00  0.00     0.181 C 
ATOM     78  C   UNL A   1      31.119  26.917  22.915  1.00  0.00     0.085 C 
ATOM     79  C   UNL A   1      31.078  27.170  25.314  1.00  0.00     0.144 C 
ATOM     80  C   UNL A   1      30.281  25.769  23.472  1.00  0.00     0.072 C 
ATOM     81  C   UNL A   1      30.527  25.768  24.988  1.00  0.00     0.191 C 
BRANCH  77  82
ATOM     82  N   UNL A   1      29.815  28.741  23.876  1.00  0.00    -0.331 N 
ATOM     83  H   UNL A   1      29.726  29.328  24.705  1.00  0.00     0.347 HD
ATOM     84  H   UNL A   1      29.122  28.002  23.759  1.00  0.00     0.347 HD
BRANCH  82  85
ATOM     85  C   UNL A   1      29.596  29.610  22.710  1.00  0.00     0.183 C 
ATOM     86  C   UNL A   1      28.265  29.869  22.056  1.00  0.00     0.071 C 
ATOM     87  C   UNL A   1      28.903  30.937  22.887  1.00  0.00     0.071 C 
ENDBRANCH  82  85
ENDBRANCH  77  82
BRANCH  81  88
ATOM     88  N   UNL A   1      31.339  24.630  25.458  1.00  0.00    -0.323 N 
ATOM     89  C   UNL A   1      32.646  25.043  26.015  1.00  0.00     0.324 C 
ATOM     90  C   UNL A   1      31.489  23.499  24.543  1.00  0.00     0.328 C 
ATOM     91  H   UNL A   1      30.761  24.263  26.213  1.00  0.00     0.348 HD
ATOM     92  C   UNL A   1      33.850  24.093  25.746  1.00  0.00     0.324 C 
ATOM     93  C   UNL A   1      32.247  22.317  25.182  1.00  0.00     0.240 C 
ATOM     94  N   UNL A   1      33.550  22.656  25.785  1.00  0.00    -0.323 N 
ATOM     95  C   UNL A   1      32.526  21.207  24.166  1.00  0.00     0.077 C 
ATOM     96  C   UNL A   1      34.586  21.848  25.132  1.00  0.00     0.263 C 
ATOM     97  H   UNL A   1      33.520  22.433  26.779  1.00  0.00     0.348 HD
ATOM     98  C   UNL A   1      33.845  20.623  24.628  1.00  0.00     0.068 C 
ENDBRANCH  81  88
ENDBRANCH  74  77
ENDBRANCH  72  73
ENDBRANCH   1  72
TORSDOF 13
ENDMDL
MODEL 3
REMARK VINA RESULT:     -12.2      4.476     10.055
REMARK SMILES O=C(NCCCNC(=O)[C@@]1([NH2+]C2CC2)CC[C@@H]([N@@H+]2CC[N@@H+]3CCC[C@@H]3C2)C1)c1ccc(-c2c3nc(c(-c4c(F)c(F)c(F)c(F)c4F)c4ccc([nH]4)c(-c4c(F)c(F)c(F)c(F)c4F)c4nc(c(-c5c(F)c(F)c(F)c(F)c5F)c5ccc2[nH]5)C=C4)C=C3)cc1
REMARK SMILES IDX 5 1 4 2 3 3 1 4 2 5 28 7 29 8 90 9 30 10 89 11 31 12 32 13
REMARK SMILES IDX 33 14 83 15 34 16 88 17 82 18 84 19 35 20 87 21 81 22 80 23
REMARK SMILES IDX 36 25 68 26 48 27 67 28 49 29 52 30 66 31 85 32 50 33 51 34
REMARK SMILES IDX 65 36 86 37 53 38 37 39 38 40 46 41 39 42 40 43 44 44 47 45
REMARK SMILES IDX 41 46 42 47 45 48 43 49 69 50 70 51 78 52 71 53 72 54 76 55
REMARK SMILES IDX 79 56 73 57 74 58 77 59 75 60 54 61 55 62 63 63 56 64 57 65
REMARK SMILES IDX 61 66 64 67 58 68 59 69 62 70 60 71 6 72 7 73 8 74 9 76
REMARK SMILES IDX 10 77 15 78 27 79 16 80 17 81 11 82 12 85 13 86 14 87 18 88
REMARK SMILES IDX 19 89 26 90 20 92 25 93 21 94 24 95 22 96 23 98
REMARK H PARENT 3 6 84 24 52 35 7 75 11 83 11 84 18 91 21 97
REMARK Flexibility Score: inf
ROOT
ATOM      1  C   UNL A   1      38.149  19.723  24.824  1.00  0.00     0.042 C 
ENDROOT
BRANCH   1   2
ATOM      2  C   UNL A   1      39.134  20.132  25.904  1.00  0.00     0.118 C 
BRANCH   2   3
ATOM      3  N   UNL A   1      40.255  19.203  25.988  1.00  0.00    -0.352 N 
ATOM      4  O   UNL A   1      42.407  18.560  25.837  1.00  0.00    -0.269 OA
ATOM      5  C   UNL A   1      41.600  19.459  26.051  1.00  0.00     0.251 C 
ATOM      6  H   UNL A   1      40.007  18.250  26.000  1.00  0.00     0.163 HD
BRANCH   5   7
ATOM      7  C   UNL A   1      42.072  20.818  26.383  1.00  0.00     0.039 A 
ATOM      8  C   UNL A   1      42.199  21.781  25.381  1.00  0.00     0.014 A 
ATOM      9  C   UNL A   1      42.352  21.146  27.712  1.00  0.00     0.014 A 
ATOM     10  C   UNL A   1      42.745  23.019  25.677  1.00  0.00     0.010 A 
ATOM     11  C   UNL A   1      42.792  22.434  28.028  1.00  0.00     0.010 A 
ATOM     12  C   UNL A   1      43.010  23.374  27.008  1.00  0.00    -0.014 A 
BRANCH  12  13
ATOM     13  C   UNL A   1      43.422  24.767  27.303  1.00  0.00     0.031 A 
ATOM     14  C   UNL A   1      44.812  25.246  27.005  1.00  0.00     0.074 A 
ATOM     15  C   UNL A   1      42.500  25.606  27.812  1.00  0.00     0.049 A 
ATOM     16  N   UNL A   1      45.327  26.437  27.185  1.00  0.00    -0.248 NA
ATOM     17  C   UNL A   1      45.749  24.266  26.438  1.00  0.00     0.031 C 
ATOM     18  C   UNL A   1      41.122  25.238  28.148  1.00  0.00     0.029 A 
ATOM     19  N   UNL A   1      42.568  26.940  28.118  1.00  0.00    -0.354 N 
ATOM     20  C   UNL A   1      46.645  26.349  26.762  1.00  0.00     0.074 A 
ATOM     21  C   UNL A   1      46.865  24.979  26.351  1.00  0.00     0.031 C 
ATOM     22  C   UNL A   1      40.461  26.327  28.564  1.00  0.00     0.029 A 
ATOM     23  C   UNL A   1      41.388  27.451  28.599  1.00  0.00     0.049 A 
ATOM     24  H   UNL A   1      43.384  27.480  28.005  1.00  0.00     0.167 HD
ATOM     25  C   UNL A   1      47.579  27.330  26.708  1.00  0.00     0.037 A 
ATOM     26  C   UNL A   1      41.090  28.685  29.044  1.00  0.00     0.037 A 
ATOM     27  C   UNL A   1      47.344  28.690  27.125  1.00  0.00     0.049 A 
ATOM     28  C   UNL A   1      42.162  29.735  29.022  1.00  0.00     0.074 A 
ATOM     29  C   UNL A   1      48.221  29.762  27.108  1.00  0.00     0.029 A 
ATOM     30  N   UNL A   1      46.146  29.165  27.640  1.00  0.00    -0.354 N 
ATOM     31  N   UNL A   1      43.397  29.647  28.591  1.00  0.00    -0.248 NA
ATOM     32  C   UNL A   1      41.800  31.057  29.547  1.00  0.00     0.031 C 
ATOM     33  C   UNL A   1      47.568  30.870  27.660  1.00  0.00     0.029 A 
ATOM     34  C   UNL A   1      46.266  30.508  27.964  1.00  0.00     0.049 A 
ATOM     35  H   UNL A   1      45.330  28.627  27.758  1.00  0.00     0.167 HD
ATOM     36  C   UNL A   1      43.953  30.905  28.772  1.00  0.00     0.074 A 
ATOM     37  C   UNL A   1      42.910  31.745  29.326  1.00  0.00     0.031 C 
ATOM     38  C   UNL A   1      45.213  31.328  28.508  1.00  0.00     0.037 A 
BRANCH  25  39
ATOM     39  C   UNL A   1      48.943  26.969  26.193  1.00  0.00     0.064 A 
ATOM     40  C   UNL A   1      49.939  26.461  27.040  1.00  0.00     0.173 A 
ATOM     41  C   UNL A   1      49.245  27.086  24.827  1.00  0.00     0.173 A 
ATOM     42  F   UNL A   1      49.708  26.339  28.357  1.00  0.00    -0.203 F 
ATOM     43  C   UNL A   1      51.192  26.107  26.546  1.00  0.00     0.198 A 
ATOM     44  C   UNL A   1      50.488  26.702  24.330  1.00  0.00     0.198 A 
ATOM     45  F   UNL A   1      48.329  27.561  23.970  1.00  0.00    -0.203 F 
ATOM     46  F   UNL A   1      52.141  25.666  27.383  1.00  0.00    -0.200 F 
ATOM     47  C   UNL A   1      51.463  26.219  25.190  1.00  0.00     0.200 A 
ATOM     48  F   UNL A   1      50.743  26.799  23.018  1.00  0.00    -0.200 F 
ATOM     49  F   UNL A   1      52.666  25.869  24.714  1.00  0.00    -0.200 F 
ENDBRANCH  25  39
BRANCH  26  50
ATOM     50  C   UNL A   1      39.729  28.980  29.564  1.00  0.00     0.064 A 
ATOM     51  C   UNL A   1      39.407  28.771  30.912  1.00  0.00     0.173 A 
ATOM     52  C   UNL A   1      38.718  29.468  28.721  1.00  0.00     0.173 A 
ATOM     53  F   UNL A   1      40.333  28.292  31.756  1.00  0.00    -0.203 F 
ATOM     54  C   UNL A   1      38.119  29.009  31.388  1.00  0.00     0.198 A 
ATOM     55  C   UNL A   1      37.443  29.741  29.207  1.00  0.00     0.198 A 
ATOM     56  F   UNL A   1      38.976  29.694  27.424  1.00  0.00    -0.203 F 
ATOM     57  F   UNL A   1      37.823  28.745  32.669  1.00  0.00    -0.200 F 
ATOM     58  C   UNL A   1      37.140  29.500  30.537  1.00  0.00     0.200 A 
ATOM     59  F   UNL A   1      36.507  30.235  28.384  1.00  0.00    -0.200 F 
ATOM     60  F   UNL A   1      35.902  29.729  30.997  1.00  0.00    -0.200 F 
ENDBRANCH  26  50
BRANCH  38  61
ATOM     61  C   UNL A   1      45.516  32.773  28.780  1.00  0.00     0.064 A 
ATOM     62  C   UNL A   1      46.035  33.201  30.010  1.00  0.00     0.173 A 
ATOM     63  C   UNL A   1      45.296  33.740  27.787  1.00  0.00     0.173 A 
ATOM     64  F   UNL A   1      46.245  32.318  30.999  1.00  0.00    -0.203 F 
ATOM     65  C   UNL A   1      46.289  34.549  30.250  1.00  0.00     0.198 A 
ATOM     66  C   UNL A   1      45.585  35.082  28.018  1.00  0.00     0.198 A 
ATOM     67  F   UNL A   1      44.806  33.383  26.591  1.00  0.00    -0.203 F 
ATOM     68  F   UNL A   1      46.724  34.942  31.455  1.00  0.00    -0.200 F 
ATOM     69  C   UNL A   1      46.071  35.486  29.252  1.00  0.00     0.200 A 
ATOM     70  F   UNL A   1      45.388  35.984  27.047  1.00  0.00    -0.200 F 
ATOM     71  F   UNL A   1      46.319  36.782  29.483  1.00  0.00    -0.200 F 
ENDBRANCH  38  61
ENDBRANCH  12  13
ENDBRANCH   5   7
ENDBRANCH   2   3
ENDBRANCH   1   2
BRANCH   1  72
ATOM     72  C   UNL A   1      36.711  19.990  25.237  1.00  0.00     0.118 C 
BRANCH  72  73
ATOM     73  N   UNL A   1      36.110  21.032  24.444  1.00  0.00    -0.351 N 
ATOM     74  C   UNL A   1      34.973  21.762  24.598  1.00  0.00     0.281 C 
ATOM     75  H   UNL A   1      36.622  21.261  23.635  1.00  0.00     0.163 HD
ATOM     76  O   UNL A   1      34.813  22.618  23.717  1.00  0.00    -0.268 OA
BRANCH  74  77
ATOM     77  C   UNL A   1      34.008  21.643  25.836  1.00  0.00     0.181 C 
ATOM     78  C   UNL A   1      34.360  22.260  27.200  1.00  0.00     0.085 C 
ATOM     79  C   UNL A   1      32.723  22.416  25.435  1.00  0.00     0.144 C 
ATOM     80  C   UNL A   1      33.020  22.578  27.860  1.00  0.00     0.072 C 
ATOM     81  C   UNL A   1      32.076  22.978  26.717  1.00  0.00     0.191 C 
BRANCH  77  82
ATOM     82  N   UNL A   1      33.663  20.215  26.068  1.00  0.00    -0.331 N 
ATOM     83  H   UNL A   1      33.119  20.176  26.930  1.00  0.00     0.347 HD
ATOM     84  H   UNL A   1      34.568  19.745  26.075  1.00  0.00     0.347 HD
BRANCH  82  85
ATOM     85  C   UNL A   1      32.899  19.483  25.047  1.00  0.00     0.183 C 
ATOM     86  C   UNL A   1      33.449  18.398  24.161  1.00  0.00     0.071 C 
ATOM     87  C   UNL A   1      32.525  18.042  25.282  1.00  0.00     0.071 C 
ENDBRANCH  82  85
ENDBRANCH  77  82
BRANCH  81  88
ATOM     88  N   UNL A   1      31.744  24.415  26.694  1.00  0.00    -0.323 N 
ATOM     89  C   UNL A   1      30.406  24.693  26.126  1.00  0.00     0.324 C 
ATOM     90  C   UNL A   1      32.751  25.320  26.138  1.00  0.00     0.328 C 
ATOM     91  H   UNL A   1      31.732  24.640  27.688  1.00  0.00     0.348 HD
ATOM     92  C   UNL A   1      30.265  25.991  25.278  1.00  0.00     0.324 C 
ATOM     93  C   UNL A   1      32.356  26.804  26.280  1.00  0.00     0.240 C 
ATOM     94  N   UNL A   1      31.020  27.153  25.760  1.00  0.00    -0.323 N 
ATOM     95  C   UNL A   1      33.345  27.725  25.561  1.00  0.00     0.077 C 
ATOM     96  C   UNL A   1      31.181  28.186  24.729  1.00  0.00     0.263 C 
ATOM     97  H   UNL A   1      30.456  27.521  26.525  1.00  0.00     0.348 HD
ATOM     98  C   UNL A   1      32.483  28.878  25.091  1.00  0.00     0.068 C 
ENDBRANCH  81  88
ENDBRANCH  74  77
ENDBRANCH  72  73
ENDBRANCH   1  72
TORSDOF 13
ENDMDL
