MODEL 1
REMARK VINA RESULT:     -11.3      0.000      0.000
REMARK SMILES C#CC[N@@H+](CC(=O)NCCCNC(=O)c1ccc(-c2c3nc(c(-c4c(F)c(F)c(F)c(F)c4F)c4ccc([nH]4)c(-c4c(F)c(F)c(F)c(F)c4F)c4nc(c(-c5c(F)c(F)c(F)c(F)c5F)c5ccc2[nH]5)C=C4)C=C3)cc1)Cc1cn(CC)c2ccccc12
REMARK SMILES IDX 9 1 8 2 6 3 7 4 5 6 4 7 3 9 2 10 1 11 78 12 79 13 80 14
REMARK SMILES IDX 89 15 81 16 84 17 88 18 85 19 87 20 86 21 82 22 83 23 10 24
REMARK SMILES IDX 11 25 12 26 13 27 14 29 15 30 16 31 77 32 17 33 76 34 18 35
REMARK SMILES IDX 19 36 20 37 70 38 21 39 75 40 69 41 71 42 22 43 74 44 68 45
REMARK SMILES IDX 67 46 23 48 55 49 35 50 54 51 36 52 39 53 53 54 72 55 37 56
REMARK SMILES IDX 38 57 52 59 73 60 40 61 24 62 25 63 33 64 26 65 27 66 31 67
REMARK SMILES IDX 34 68 28 69 29 70 32 71 30 72 56 73 57 74 65 75 58 76 59 77
REMARK SMILES IDX 63 78 66 79 60 80 61 81 64 82 62 83 41 84 42 85 50 86 43 87
REMARK SMILES IDX 44 88 48 89 51 90 45 91 46 92 49 93 47 94
REMARK H PARENT 8 5 4 8 12 28 71 47 39 58
REMARK Flexibility Score: inf
ROOT
ATOM      1  C   UNL A   1      36.827  20.498  24.982  1.00  0.00     0.118 C 
ENDROOT
BRANCH   1   2
ATOM      2  N   UNL A   1      37.017  21.836  25.527  1.00  0.00    -0.351 N 
ATOM      3  C   UNL A   1      36.628  23.086  25.145  1.00  0.00     0.275 C 
ATOM      4  O   UNL A   1      36.995  23.994  25.898  1.00  0.00    -0.269 OA
ATOM      5  H   UNL A   1      37.543  21.838  26.359  1.00  0.00     0.163 HD
BRANCH   3   6
ATOM      6  C   UNL A   1      35.778  23.354  23.884  1.00  0.00     0.364 C 
BRANCH   6   7
ATOM      7  N   UNL A   1      34.418  23.967  24.112  1.00  0.00    -0.313 N 
ATOM      8  H   UNL A   1      34.016  23.572  24.961  1.00  0.00     0.349 HD
BRANCH   7   9
ATOM      9  C   UNL A   1      33.675  23.670  22.922  1.00  0.00     0.354 C 
BRANCH   9  10
ATOM     10  C   UNL A   1      33.055  24.722  22.016  1.00  0.00    -0.047 C 
ATOM     11  C   UNL A   1      32.523  25.623  21.239  1.00  0.00     0.010 C 
ENDBRANCH   9  10
ENDBRANCH   7   9
BRANCH   7  12
ATOM     12  C   UNL A   1      34.406  25.422  24.391  1.00  0.00     0.302 C 
BRANCH  12  13
ATOM     13  C   UNL A   1      33.437  25.712  25.485  1.00  0.00     0.032 A 
ATOM     14  C   UNL A   1      32.342  24.933  25.806  1.00  0.00     0.096 A 
ATOM     15  C   UNL A   1      33.309  26.929  26.216  1.00  0.00     0.008 A 
ATOM     16  N   UNL A   1      31.381  25.806  26.270  1.00  0.00    -0.347 N 
ATOM     17  C   UNL A   1      31.980  26.993  26.654  1.00  0.00     0.048 A 
ATOM     18  C   UNL A   1      34.143  28.056  26.364  1.00  0.00     0.011 A 
ATOM     19  C   UNL A   1      31.461  28.162  27.230  1.00  0.00     0.027 A 
ATOM     20  C   UNL A   1      33.639  29.212  26.957  1.00  0.00     0.001 A 
ATOM     21  C   UNL A   1      32.314  29.263  27.379  1.00  0.00     0.002 A 
BRANCH  16  22
ATOM     22  C   UNL A   1      29.979  25.624  25.923  1.00  0.00     0.119 C 
ATOM     23  C   UNL A   1      29.557  26.178  24.580  1.00  0.00     0.027 C 
ENDBRANCH  16  22
ENDBRANCH  12  13
ENDBRANCH   7  12
ENDBRANCH   6   7
ENDBRANCH   3   6
ENDBRANCH   1   2
BRANCH   1  24
ATOM     24  C   UNL A   1      38.112  19.655  24.938  1.00  0.00     0.042 C 
BRANCH  24  25
ATOM     25  C   UNL A   1      39.252  20.162  25.818  1.00  0.00     0.118 C 
BRANCH  25  26
ATOM     26  N   UNL A   1      40.245  19.124  26.020  1.00  0.00    -0.352 N 
ATOM     27  C   UNL A   1      41.610  19.266  26.071  1.00  0.00     0.251 C 
ATOM     28  H   UNL A   1      39.899  18.209  26.133  1.00  0.00     0.163 HD
ATOM     29  O   UNL A   1      42.337  18.301  25.875  1.00  0.00    -0.269 OA
BRANCH  27  30
ATOM     30  C   UNL A   1      42.203  20.587  26.380  1.00  0.00     0.039 A 
ATOM     31  C   UNL A   1      42.308  20.993  27.714  1.00  0.00     0.014 A 
ATOM     32  C   UNL A   1      42.581  21.456  25.351  1.00  0.00     0.014 A 
ATOM     33  C   UNL A   1      42.797  22.267  28.016  1.00  0.00     0.010 A 
ATOM     34  C   UNL A   1      43.124  22.703  25.656  1.00  0.00     0.010 A 
ATOM     35  C   UNL A   1      43.206  23.133  26.990  1.00  0.00    -0.014 A 
BRANCH  35  36
ATOM     36  C   UNL A   1      43.652  24.517  27.287  1.00  0.00     0.031 A 
ATOM     37  C   UNL A   1      42.647  25.547  27.730  1.00  0.00     0.074 A 
ATOM     38  C   UNL A   1      44.940  24.867  27.112  1.00  0.00     0.049 A 
ATOM     39  N   UNL A   1      42.816  26.822  27.976  1.00  0.00    -0.248 NA
ATOM     40  C   UNL A   1      41.257  25.087  27.887  1.00  0.00     0.031 C 
ATOM     41  C   UNL A   1      45.999  23.974  26.638  1.00  0.00     0.029 A 
ATOM     42  N   UNL A   1      45.574  26.069  27.298  1.00  0.00    -0.354 N 
ATOM     43  C   UNL A   1      41.556  27.318  28.285  1.00  0.00     0.074 A 
ATOM     44  C   UNL A   1      40.624  26.219  28.155  1.00  0.00     0.031 C 
ATOM     45  C   UNL A   1      47.154  24.658  26.581  1.00  0.00     0.029 A 
ATOM     46  C   UNL A   1      46.911  26.039  26.990  1.00  0.00     0.049 A 
ATOM     47  H   UNL A   1      45.113  26.876  27.622  1.00  0.00     0.167 HD
ATOM     48  C   UNL A   1      41.209  28.571  28.665  1.00  0.00     0.037 A 
ATOM     49  C   UNL A   1      47.835  27.018  27.031  1.00  0.00     0.037 A 
ATOM     50  C   UNL A   1      42.144  29.650  28.843  1.00  0.00     0.049 A 
ATOM     51  C   UNL A   1      47.436  28.390  27.500  1.00  0.00     0.074 A 
ATOM     52  C   UNL A   1      41.908  30.931  29.309  1.00  0.00     0.029 A 
ATOM     53  N   UNL A   1      43.500  29.568  28.565  1.00  0.00    -0.354 N 
ATOM     54  N   UNL A   1      46.255  28.828  27.863  1.00  0.00    -0.248 NA
ATOM     55  C   UNL A   1      48.500  29.400  27.579  1.00  0.00     0.031 C 
ATOM     56  C   UNL A   1      43.116  31.637  29.280  1.00  0.00     0.029 A 
ATOM     57  C   UNL A   1      44.112  30.782  28.834  1.00  0.00     0.049 A 
ATOM     58  H   UNL A   1      43.961  28.766  28.228  1.00  0.00     0.167 HD
ATOM     59  C   UNL A   1      46.436  30.155  28.230  1.00  0.00     0.074 A 
ATOM     60  C   UNL A   1      47.843  30.447  28.063  1.00  0.00     0.031 C 
ATOM     61  C   UNL A   1      45.516  31.051  28.665  1.00  0.00     0.037 A 
BRANCH  48  62
ATOM     62  C   UNL A   1      39.754  28.841  28.918  1.00  0.00     0.064 A 
ATOM     63  C   UNL A   1      39.179  28.662  30.185  1.00  0.00     0.173 A 
ATOM     64  C   UNL A   1      38.928  29.312  27.885  1.00  0.00     0.173 A 
ATOM     65  F   UNL A   1      39.922  28.204  31.204  1.00  0.00    -0.203 F 
ATOM     66  C   UNL A   1      37.826  28.909  30.401  1.00  0.00     0.198 A 
ATOM     67  C   UNL A   1      37.582  29.587  28.112  1.00  0.00     0.198 A 
ATOM     68  F   UNL A   1      39.428  29.508  26.656  1.00  0.00    -0.203 F 
ATOM     69  F   UNL A   1      37.289  28.680  31.607  1.00  0.00    -0.200 F 
ATOM     70  C   UNL A   1      37.030  29.377  29.366  1.00  0.00     0.200 A 
ATOM     71  F   UNL A   1      36.817  30.050  27.113  1.00  0.00    -0.200 F 
ATOM     72  F   UNL A   1      35.729  29.618  29.576  1.00  0.00    -0.200 F 
ENDBRANCH  48  62
BRANCH  49  73
ATOM     73  C   UNL A   1      49.238  26.721  26.645  1.00  0.00     0.064 A 
ATOM     74  C   UNL A   1      50.156  26.234  27.586  1.00  0.00     0.173 A 
ATOM     75  C   UNL A   1      49.686  26.902  25.328  1.00  0.00     0.173 A 
ATOM     76  F   UNL A   1      49.779  26.064  28.862  1.00  0.00    -0.203 F 
ATOM     77  C   UNL A   1      51.472  25.953  27.228  1.00  0.00     0.198 A 
ATOM     78  C   UNL A   1      50.996  26.597  24.966  1.00  0.00     0.198 A 
ATOM     79  F   UNL A   1      48.844  27.359  24.390  1.00  0.00    -0.203 F 
ATOM     80  F   UNL A   1      52.339  25.522  28.155  1.00  0.00    -0.200 F 
ATOM     81  C   UNL A   1      51.890  26.128  25.918  1.00  0.00     0.200 A 
ATOM     82  F   UNL A   1      51.392  26.754  23.696  1.00  0.00    -0.200 F 
ATOM     83  F   UNL A   1      53.155  25.849  25.572  1.00  0.00    -0.200 F 
ENDBRANCH  49  73
BRANCH  61  84
ATOM     84  C   UNL A   1      46.008  32.426  29.011  1.00  0.00     0.064 A 
ATOM     85  C   UNL A   1      46.478  32.732  30.296  1.00  0.00     0.173 A 
ATOM     86  C   UNL A   1      46.050  33.432  28.035  1.00  0.00     0.173 A 
ATOM     87  F   UNL A   1      46.443  31.807  31.266  1.00  0.00    -0.203 F 
ATOM     88  C   UNL A   1      46.955  34.005  30.596  1.00  0.00     0.198 A 
ATOM     89  C   UNL A   1      46.551  34.696  28.332  1.00  0.00     0.198 A 
ATOM     90  F   UNL A   1      45.617  33.186  26.789  1.00  0.00    -0.203 F 
ATOM     91  F   UNL A   1      47.363  34.289  31.840  1.00  0.00    -0.200 F 
ATOM     92  C   UNL A   1      46.998  34.983  29.613  1.00  0.00     0.200 A 
ATOM     93  F   UNL A   1      46.602  35.636  27.379  1.00  0.00    -0.200 F 
ATOM     94  F   UNL A   1      47.464  36.206  29.903  1.00  0.00    -0.200 F 
ENDBRANCH  61  84
ENDBRANCH  35  36
ENDBRANCH  27  30
ENDBRANCH  25  26
ENDBRANCH  24  25
ENDBRANCH   1  24
TORSDOF 16
ENDMDL
MODEL 2
REMARK VINA RESULT:     -11.2      5.624     10.968
REMARK SMILES C#CC[N@@H+](CC(=O)NCCCNC(=O)c1ccc(-c2c3nc(c(-c4c(F)c(F)c(F)c(F)c4F)c4ccc([nH]4)c(-c4c(F)c(F)c(F)c(F)c4F)c4nc(c(-c5c(F)c(F)c(F)c(F)c5F)c5ccc2[nH]5)C=C4)C=C3)cc1)Cc1cn(CC)c2ccccc12
REMARK SMILES IDX 9 1 8 2 6 3 7 4 5 6 4 7 3 9 2 10 1 11 78 12 79 13 80 14
REMARK SMILES IDX 89 15 81 16 84 17 88 18 85 19 87 20 86 21 82 22 83 23 10 24
REMARK SMILES IDX 11 25 12 26 13 27 14 29 15 30 16 31 77 32 17 33 76 34 18 35
REMARK SMILES IDX 19 36 20 37 70 38 21 39 75 40 69 41 71 42 22 43 74 44 68 45
REMARK SMILES IDX 67 46 23 48 55 49 35 50 54 51 36 52 39 53 53 54 72 55 37 56
REMARK SMILES IDX 38 57 52 59 73 60 40 61 24 62 25 63 33 64 26 65 27 66 31 67
REMARK SMILES IDX 34 68 28 69 29 70 32 71 30 72 56 73 57 74 65 75 58 76 59 77
REMARK SMILES IDX 63 78 66 79 60 80 61 81 64 82 62 83 41 84 42 85 50 86 43 87
REMARK SMILES IDX 44 88 48 89 51 90 45 91 46 92 49 93 47 94
REMARK H PARENT 8 5 4 8 12 28 71 47 39 58
REMARK Flexibility Score: inf
ROOT
ATOM      1  C   UNL A   1      31.547  30.859  26.210  1.00  0.00     0.118 C 
ENDROOT
BRANCH   1   2
ATOM      2  N   UNL A   1      32.854  30.262  26.450  1.00  0.00    -0.351 N 
ATOM      3  C   UNL A   1      33.290  29.000  26.729  1.00  0.00     0.275 C 
ATOM      4  O   UNL A   1      34.514  28.894  26.864  1.00  0.00    -0.269 OA
ATOM      5  H   UNL A   1      33.587  30.917  26.399  1.00  0.00     0.163 HD
BRANCH   3   6
ATOM      6  C   UNL A   1      32.340  27.789  26.846  1.00  0.00     0.364 C 
BRANCH   6   7
ATOM      7  N   UNL A   1      32.447  26.748  25.757  1.00  0.00    -0.313 N 
ATOM      8  H   UNL A   1      32.978  27.137  24.980  1.00  0.00     0.349 HD
BRANCH   7   9
ATOM      9  C   UNL A   1      31.090  26.416  25.430  1.00  0.00     0.354 C 
BRANCH   9  10
ATOM     10  C   UNL A   1      30.280  27.105  24.344  1.00  0.00    -0.047 C 
ATOM     11  C   UNL A   1      29.585  27.696  23.412  1.00  0.00     0.010 C 
ENDBRANCH   9  10
ENDBRANCH   7   9
BRANCH   7  12
ATOM     12  C   UNL A   1      33.217  25.531  26.103  1.00  0.00     0.302 C 
BRANCH  12  13
ATOM     13  C   UNL A   1      33.967  25.058  24.905  1.00  0.00     0.032 A 
ATOM     14  C   UNL A   1      33.463  25.002  23.621  1.00  0.00     0.096 A 
ATOM     15  C   UNL A   1      35.212  24.363  24.893  1.00  0.00     0.008 A 
ATOM     16  N   UNL A   1      34.081  23.926  23.019  1.00  0.00    -0.347 N 
ATOM     17  C   UNL A   1      35.235  23.608  23.714  1.00  0.00     0.048 A 
ATOM     18  C   UNL A   1      36.212  24.161  25.866  1.00  0.00     0.011 A 
ATOM     19  C   UNL A   1      36.230  22.645  23.488  1.00  0.00     0.027 A 
ATOM     20  C   UNL A   1      37.217  23.223  25.635  1.00  0.00     0.001 A 
ATOM     21  C   UNL A   1      37.220  22.474  24.463  1.00  0.00     0.002 A 
BRANCH  16  22
ATOM     22  C   UNL A   1      33.340  23.043  22.130  1.00  0.00     0.119 C 
ATOM     23  C   UNL A   1      32.147  22.344  22.743  1.00  0.00     0.027 C 
ENDBRANCH  16  22
ENDBRANCH  12  13
ENDBRANCH   7  12
ENDBRANCH   6   7
ENDBRANCH   3   6
ENDBRANCH   1   2
BRANCH   1  24
ATOM     24  C   UNL A   1      31.455  32.340  26.611  1.00  0.00     0.042 C 
BRANCH  24  25
ATOM     25  C   UNL A   1      32.674  32.890  27.348  1.00  0.00     0.118 C 
BRANCH  25  26
ATOM     26  N   UNL A   1      32.505  34.302  27.636  1.00  0.00    -0.352 N 
ATOM     27  C   UNL A   1      33.006  35.006  28.704  1.00  0.00     0.251 C 
ATOM     28  H   UNL A   1      31.968  34.816  26.991  1.00  0.00     0.163 HD
ATOM     29  O   UNL A   1      32.500  36.073  29.030  1.00  0.00    -0.269 OA
BRANCH  27  30
ATOM     30  C   UNL A   1      34.171  34.482  29.454  1.00  0.00     0.039 A 
ATOM     31  C   UNL A   1      35.441  34.552  28.876  1.00  0.00     0.014 A 
ATOM     32  C   UNL A   1      33.996  33.851  30.690  1.00  0.00     0.014 A 
ATOM     33  C   UNL A   1      36.538  33.994  29.539  1.00  0.00     0.010 A 
ATOM     34  C   UNL A   1      35.099  33.347  31.378  1.00  0.00     0.010 A 
ATOM     35  C   UNL A   1      36.375  33.386  30.793  1.00  0.00    -0.014 A 
BRANCH  35  36
ATOM     36  C   UNL A   1      37.513  32.718  31.475  1.00  0.00     0.031 A 
ATOM     37  C   UNL A   1      38.195  31.548  30.817  1.00  0.00     0.074 A 
ATOM     38  C   UNL A   1      37.900  33.121  32.699  1.00  0.00     0.049 A 
ATOM     39  N   UNL A   1      39.160  30.788  31.269  1.00  0.00    -0.248 NA
ATOM     40  C   UNL A   1      37.705  31.163  29.484  1.00  0.00     0.031 C 
ATOM     41  C   UNL A   1      37.285  34.208  33.463  1.00  0.00     0.029 A 
ATOM     42  N   UNL A   1      38.894  32.655  33.522  1.00  0.00    -0.354 N 
ATOM     43  C   UNL A   1      39.369  29.821  30.294  1.00  0.00     0.074 A 
ATOM     44  C   UNL A   1      38.403  30.064  29.244  1.00  0.00     0.031 C 
ATOM     45  C   UNL A   1      37.923  34.332  34.639  1.00  0.00     0.029 A 
ATOM     46  C   UNL A   1      38.973  33.319  34.721  1.00  0.00     0.049 A 
ATOM     47  H   UNL A   1      39.493  31.913  33.276  1.00  0.00     0.167 HD
ATOM     48  C   UNL A   1      40.296  28.834  30.264  1.00  0.00     0.037 A 
ATOM     49  C   UNL A   1      39.798  33.129  35.768  1.00  0.00     0.037 A 
ATOM     50  C   UNL A   1      41.288  28.626  31.284  1.00  0.00     0.049 A 
ATOM     51  C   UNL A   1      40.850  32.056  35.693  1.00  0.00     0.074 A 
ATOM     52  C   UNL A   1      42.326  27.712  31.307  1.00  0.00     0.029 A 
ATOM     53  N   UNL A   1      41.366  29.350  32.464  1.00  0.00    -0.354 N 
ATOM     54  N   UNL A   1      41.087  31.197  34.731  1.00  0.00    -0.248 NA
ATOM     55  C   UNL A   1      41.758  31.936  36.842  1.00  0.00     0.031 C 
ATOM     56  C   UNL A   1      43.012  27.859  32.518  1.00  0.00     0.029 A 
ATOM     57  C   UNL A   1      42.425  28.892  33.232  1.00  0.00     0.049 A 
ATOM     58  H   UNL A   1      40.759  30.082  32.720  1.00  0.00     0.167 HD
ATOM     59  C   UNL A   1      42.178  30.448  35.149  1.00  0.00     0.074 A 
ATOM     60  C   UNL A   1      42.569  30.965  36.443  1.00  0.00     0.031 C 
ATOM     61  C   UNL A   1      42.800  29.423  34.516  1.00  0.00     0.037 A 
BRANCH  48  62
ATOM     62  C   UNL A   1      40.282  27.905  29.084  1.00  0.00     0.064 A 
ATOM     63  C   UNL A   1      41.014  28.180  27.920  1.00  0.00     0.173 A 
ATOM     64  C   UNL A   1      39.547  26.709  29.129  1.00  0.00     0.173 A 
ATOM     65  F   UNL A   1      41.724  29.313  27.821  1.00  0.00    -0.203 F 
ATOM     66  C   UNL A   1      40.984  27.311  26.832  1.00  0.00     0.198 A 
ATOM     67  C   UNL A   1      39.544  25.829  28.051  1.00  0.00     0.198 A 
ATOM     68  F   UNL A   1      38.835  26.394  30.221  1.00  0.00    -0.203 F 
ATOM     69  F   UNL A   1      41.650  27.621  25.711  1.00  0.00    -0.200 F 
ATOM     70  C   UNL A   1      40.254  26.134  26.900  1.00  0.00     0.200 A 
ATOM     71  F   UNL A   1      38.846  24.686  28.122  1.00  0.00    -0.200 F 
ATOM     72  F   UNL A   1      40.229  25.298  25.853  1.00  0.00    -0.200 F 
ENDBRANCH  48  62
BRANCH  49  73
ATOM     73  C   UNL A   1      39.680  34.000  36.965  1.00  0.00     0.064 A 
ATOM     74  C   UNL A   1      38.929  33.597  38.077  1.00  0.00     0.173 A 
ATOM     75  C   UNL A   1      40.327  35.243  37.028  1.00  0.00     0.173 A 
ATOM     76  F   UNL A   1      38.277  32.425  38.054  1.00  0.00    -0.203 F 
ATOM     77  C   UNL A   1      38.817  34.410  39.203  1.00  0.00     0.198 A 
ATOM     78  C   UNL A   1      40.234  36.044  38.164  1.00  0.00     0.198 A 
ATOM     79  F   UNL A   1      41.063  35.671  35.992  1.00  0.00    -0.203 F 
ATOM     80  F   UNL A   1      38.063  34.016  40.239  1.00  0.00    -0.200 F 
ATOM     81  C   UNL A   1      39.474  35.629  39.248  1.00  0.00     0.200 A 
ATOM     82  F   UNL A   1      40.882  37.216  38.210  1.00  0.00    -0.200 F 
ATOM     83  F   UNL A   1      39.373  36.408  40.335  1.00  0.00    -0.200 F 
ENDBRANCH  49  73
BRANCH  61  84
ATOM     84  C   UNL A   1      43.981  28.806  35.205  1.00  0.00     0.064 A 
ATOM     85  C   UNL A   1      43.833  27.728  36.089  1.00  0.00     0.173 A 
ATOM     86  C   UNL A   1      45.279  29.270  34.944  1.00  0.00     0.173 A 
ATOM     87  F   UNL A   1      42.610  27.259  36.382  1.00  0.00    -0.203 F 
ATOM     88  C   UNL A   1      44.940  27.149  36.702  1.00  0.00     0.198 A 
ATOM     89  C   UNL A   1      46.386  28.673  35.538  1.00  0.00     0.198 A 
ATOM     90  F   UNL A   1      45.473  30.296  34.100  1.00  0.00    -0.203 F 
ATOM     91  F   UNL A   1      44.772  26.146  37.574  1.00  0.00    -0.200 F 
ATOM     92  C   UNL A   1      46.215  27.617  36.421  1.00  0.00     0.200 A 
ATOM     93  F   UNL A   1      47.618  29.119  35.258  1.00  0.00    -0.200 F 
ATOM     94  F   UNL A   1      47.281  27.054  37.008  1.00  0.00    -0.200 F 
ENDBRANCH  61  84
ENDBRANCH  35  36
ENDBRANCH  27  30
ENDBRANCH  25  26
ENDBRANCH  24  25
ENDBRANCH   1  24
TORSDOF 16
ENDMDL
MODEL 3
REMARK VINA RESULT:     -11.0      0.692      1.798
REMARK SMILES C#CC[N@@H+](CC(=O)NCCCNC(=O)c1ccc(-c2c3nc(c(-c4c(F)c(F)c(F)c(F)c4F)c4ccc([nH]4)c(-c4c(F)c(F)c(F)c(F)c4F)c4nc(c(-c5c(F)c(F)c(F)c(F)c5F)c5ccc2[nH]5)C=C4)C=C3)cc1)Cc1cn(CC)c2ccccc12
REMARK SMILES IDX 9 1 8 2 6 3 7 4 5 6 4 7 3 9 2 10 1 11 78 12 79 13 80 14
REMARK SMILES IDX 89 15 81 16 84 17 88 18 85 19 87 20 86 21 82 22 83 23 10 24
REMARK SMILES IDX 11 25 12 26 13 27 14 29 15 30 16 31 77 32 17 33 76 34 18 35
REMARK SMILES IDX 19 36 20 37 70 38 21 39 75 40 69 41 71 42 22 43 74 44 68 45
REMARK SMILES IDX 67 46 23 48 55 49 35 50 54 51 36 52 39 53 53 54 72 55 37 56
REMARK SMILES IDX 38 57 52 59 73 60 40 61 24 62 25 63 33 64 26 65 27 66 31 67
REMARK SMILES IDX 34 68 28 69 29 70 32 71 30 72 56 73 57 74 65 75 58 76 59 77
REMARK SMILES IDX 63 78 66 79 60 80 61 81 64 82 62 83 41 84 42 85 50 86 43 87
REMARK SMILES IDX 44 88 48 89 51 90 45 91 46 92 49 93 47 94
REMARK H PARENT 8 5 4 8 12 28 71 47 39 58
REMARK Flexibility Score: inf
ROOT
ATOM      1  C   UNL A   1      36.915  20.597  24.897  1.00  0.00     0.118 C 
ENDROOT
BRANCH   1   2
ATOM      2  N   UNL A   1      37.234  21.973  25.254  1.00  0.00    -0.351 N 
ATOM      3  C   UNL A   1      36.512  23.026  25.735  1.00  0.00     0.275 C 
ATOM      4  O   UNL A   1      37.165  24.059  25.918  1.00  0.00    -0.269 OA
ATOM      5  H   UNL A   1      38.184  22.192  25.118  1.00  0.00     0.163 HD
BRANCH   3   6
ATOM      6  C   UNL A   1      35.003  22.937  26.049  1.00  0.00     0.364 C 
BRANCH   6   7
ATOM      7  N   UNL A   1      34.085  23.728  25.148  1.00  0.00    -0.313 N 
ATOM      8  H   UNL A   1      33.144  23.709  25.539  1.00  0.00     0.349 HD
BRANCH   7   9
ATOM      9  C   UNL A   1      34.198  23.101  23.864  1.00  0.00     0.354 C 
BRANCH   9  10
ATOM     10  C   UNL A   1      33.090  22.295  23.205  1.00  0.00    -0.047 C 
ATOM     11  C   UNL A   1      32.139  21.604  22.641  1.00  0.00     0.010 C 
ENDBRANCH   9  10
ENDBRANCH   7   9
BRANCH   7  12
ATOM     12  C   UNL A   1      34.370  25.178  25.053  1.00  0.00     0.302 C 
BRANCH  12  13
ATOM     13  C   UNL A   1      33.152  25.952  25.426  1.00  0.00     0.032 A 
ATOM     14  C   UNL A   1      31.856  25.605  25.096  1.00  0.00     0.096 A 
ATOM     15  C   UNL A   1      33.105  27.275  25.954  1.00  0.00     0.008 A 
ATOM     16  N   UNL A   1      31.174  26.793  24.944  1.00  0.00    -0.347 N 
ATOM     17  C   UNL A   1      31.864  27.808  25.585  1.00  0.00     0.048 A 
ATOM     18  C   UNL A   1      34.078  28.118  26.528  1.00  0.00     0.011 A 
ATOM     19  C   UNL A   1      31.574  29.168  25.767  1.00  0.00     0.027 A 
ATOM     20  C   UNL A   1      33.787  29.466  26.735  1.00  0.00     0.001 A 
ATOM     21  C   UNL A   1      32.553  29.982  26.353  1.00  0.00     0.002 A 
BRANCH  16  22
ATOM     22  C   UNL A   1      30.192  26.958  23.881  1.00  0.00     0.119 C 
ATOM     23  C   UNL A   1      30.684  27.663  22.636  1.00  0.00     0.027 C 
ENDBRANCH  16  22
ENDBRANCH  12  13
ENDBRANCH   7  12
ENDBRANCH   6   7
ENDBRANCH   3   6
ENDBRANCH   1   2
BRANCH   1  24
ATOM     24  C   UNL A   1      38.107  19.632  25.011  1.00  0.00     0.042 C 
BRANCH  24  25
ATOM     25  C   UNL A   1      39.308  20.171  25.784  1.00  0.00     0.118 C 
BRANCH  25  26
ATOM     26  N   UNL A   1      40.304  19.134  25.975  1.00  0.00    -0.352 N 
ATOM     27  C   UNL A   1      41.668  19.282  26.046  1.00  0.00     0.251 C 
ATOM     28  H   UNL A   1      39.962  18.215  26.064  1.00  0.00     0.163 HD
ATOM     29  O   UNL A   1      42.402  18.324  25.837  1.00  0.00    -0.269 OA
BRANCH  27  30
ATOM     30  C   UNL A   1      42.251  20.599  26.391  1.00  0.00     0.039 A 
ATOM     31  C   UNL A   1      42.235  21.024  27.722  1.00  0.00     0.014 A 
ATOM     32  C   UNL A   1      42.739  21.445  25.390  1.00  0.00     0.014 A 
ATOM     33  C   UNL A   1      42.713  22.295  28.051  1.00  0.00     0.010 A 
ATOM     34  C   UNL A   1      43.271  22.689  25.726  1.00  0.00     0.010 A 
ATOM     35  C   UNL A   1      43.233  23.138  27.056  1.00  0.00    -0.014 A 
BRANCH  35  36
ATOM     36  C   UNL A   1      43.671  24.521  27.374  1.00  0.00     0.031 A 
ATOM     37  C   UNL A   1      42.655  25.548  27.795  1.00  0.00     0.074 A 
ATOM     38  C   UNL A   1      44.963  24.870  27.235  1.00  0.00     0.049 A 
ATOM     39  N   UNL A   1      42.818  26.821  28.054  1.00  0.00    -0.248 NA
ATOM     40  C   UNL A   1      41.261  25.088  27.912  1.00  0.00     0.031 C 
ATOM     41  C   UNL A   1      46.035  23.980  26.785  1.00  0.00     0.029 A 
ATOM     42  N   UNL A   1      45.593  26.071  27.447  1.00  0.00    -0.354 N 
ATOM     43  C   UNL A   1      41.550  27.317  28.332  1.00  0.00     0.074 A 
ATOM     44  C   UNL A   1      40.622  26.219  28.170  1.00  0.00     0.031 C 
ATOM     45  C   UNL A   1      47.191  24.663  26.764  1.00  0.00     0.029 A 
ATOM     46  C   UNL A   1      46.938  26.042  27.175  1.00  0.00     0.049 A 
ATOM     47  H   UNL A   1      45.124  26.876  27.763  1.00  0.00     0.167 HD
ATOM     48  C   UNL A   1      41.194  28.567  28.710  1.00  0.00     0.037 A 
ATOM     49  C   UNL A   1      47.861  27.020  27.247  1.00  0.00     0.037 A 
ATOM     50  C   UNL A   1      42.124  29.644  28.921  1.00  0.00     0.049 A 
ATOM     51  C   UNL A   1      47.450  28.389  27.714  1.00  0.00     0.074 A 
ATOM     52  C   UNL A   1      41.876  30.922  29.388  1.00  0.00     0.029 A 
ATOM     53  N   UNL A   1      43.488  29.563  28.680  1.00  0.00    -0.354 N 
ATOM     54  N   UNL A   1      46.259  28.826  28.048  1.00  0.00    -0.248 NA
ATOM     55  C   UNL A   1      48.512  29.398  27.828  1.00  0.00     0.031 C 
ATOM     56  C   UNL A   1      43.085  31.628  29.397  1.00  0.00     0.029 A 
ATOM     57  C   UNL A   1      44.092  30.775  28.972  1.00  0.00     0.049 A 
ATOM     58  H   UNL A   1      43.957  28.763  28.349  1.00  0.00     0.167 HD
ATOM     59  C   UNL A   1      46.431  30.150  28.427  1.00  0.00     0.074 A 
ATOM     60  C   UNL A   1      47.843  30.442  28.300  1.00  0.00     0.031 C 
ATOM     61  C   UNL A   1      45.500  31.044  28.843  1.00  0.00     0.037 A 
BRANCH  48  62
ATOM     62  C   UNL A   1      39.732  28.837  28.926  1.00  0.00     0.064 A 
ATOM     63  C   UNL A   1      39.125  28.654  30.177  1.00  0.00     0.173 A 
ATOM     64  C   UNL A   1      38.934  29.310  27.872  1.00  0.00     0.173 A 
ATOM     65  F   UNL A   1      39.840  28.194  31.214  1.00  0.00    -0.203 F 
ATOM     66  C   UNL A   1      37.766  28.902  30.357  1.00  0.00     0.198 A 
ATOM     67  C   UNL A   1      37.583  29.585  28.065  1.00  0.00     0.198 A 
ATOM     68  F   UNL A   1      39.466  29.509  26.658  1.00  0.00    -0.203 F 
ATOM     69  F   UNL A   1      37.198  28.670  31.548  1.00  0.00    -0.200 F 
ATOM     70  C   UNL A   1      36.998  29.372  29.303  1.00  0.00     0.200 A 
ATOM     71  F   UNL A   1      36.844  30.050  27.047  1.00  0.00    -0.200 F 
ATOM     72  F   UNL A   1      35.692  29.612  29.480  1.00  0.00    -0.200 F 
ENDBRANCH  48  62
BRANCH  49  73
ATOM     73  C   UNL A   1      49.274  26.725  26.898  1.00  0.00     0.064 A 
ATOM     74  C   UNL A   1      49.741  26.888  25.586  1.00  0.00     0.173 A 
ATOM     75  C   UNL A   1      50.189  26.289  27.868  1.00  0.00     0.173 A 
ATOM     76  F   UNL A   1      48.897  27.285  24.621  1.00  0.00    -0.203 F 
ATOM     77  C   UNL A   1      51.065  26.615  25.255  1.00  0.00     0.198 A 
ATOM     78  C   UNL A   1      51.520  26.039  27.539  1.00  0.00     0.198 A 
ATOM     79  F   UNL A   1      49.793  26.123  29.138  1.00  0.00    -0.203 F 
ATOM     80  F   UNL A   1      51.477  26.746  23.985  1.00  0.00    -0.200 F 
ATOM     81  C   UNL A   1      51.955  26.197  26.232  1.00  0.00     0.200 A 
ATOM     82  F   UNL A   1      52.380  25.649  28.489  1.00  0.00    -0.200 F 
ATOM     83  F   UNL A   1      53.232  25.941  25.914  1.00  0.00    -0.200 F 
ENDBRANCH  49  73
BRANCH  61  84
ATOM     84  C   UNL A   1      45.983  32.416  29.211  1.00  0.00     0.064 A 
ATOM     85  C   UNL A   1      46.034  33.452  28.267  1.00  0.00     0.173 A 
ATOM     86  C   UNL A   1      46.356  32.708  30.532  1.00  0.00     0.173 A 
ATOM     87  F   UNL A   1      45.703  33.217  26.989  1.00  0.00    -0.203 F 
ATOM     88  C   UNL A   1      46.461  34.727  28.629  1.00  0.00     0.198 A 
ATOM     89  C   UNL A   1      46.757  33.989  30.895  1.00  0.00     0.198 A 
ATOM     90  F   UNL A   1      46.318  31.752  31.472  1.00  0.00    -0.203 F 
ATOM     91  F   UNL A   1      46.540  35.692  27.703  1.00  0.00    -0.200 F 
ATOM     92  C   UNL A   1      46.815  34.996  29.943  1.00  0.00     0.200 A 
ATOM     93  F   UNL A   1      47.088  34.251  32.167  1.00  0.00    -0.200 F 
ATOM     94  F   UNL A   1      47.218  36.226  30.290  1.00  0.00    -0.200 F 
ENDBRANCH  61  84
ENDBRANCH  35  36
ENDBRANCH  27  30
ENDBRANCH  25  26
ENDBRANCH  24  25
ENDBRANCH   1  24
TORSDOF 16
ENDMDL
