MODEL 1
REMARK VINA RESULT:     -12.4      0.000      0.000
REMARK SMILES COCc1cccc(O[C@@H](C)c2ccc(C(=O)NCCCNC(=O)c3ccc(-c4c5nc(c(-c6c(F)c(F)c(F)c(F)c6F)c6ccc([nH]6)c(-c6c(F)c(F)c(F)c(F)c6F)c6nc(c(-c7c(F)c(F)c(F)c(F)c7F)c7ccc4[nH]7)C=C6)C=C5)cc3)o2)c1
REMARK SMILES IDX 16 1 17 2 18 3 15 5 12 6 13 7 88 8 14 9 10 10 11 11 9 12
REMARK SMILES IDX 8 13 4 14 5 15 89 16 6 17 7 18 3 19 2 20 1 21 19 22 20 23
REMARK SMILES IDX 21 24 22 25 23 26 24 28 25 29 26 30 87 31 27 32 86 33 28 34
REMARK SMILES IDX 29 35 30 36 80 37 31 38 85 39 79 40 81 41 32 42 84 43 78 44
REMARK SMILES IDX 77 45 33 47 65 48 45 49 64 50 46 51 49 52 63 53 82 54 47 55
REMARK SMILES IDX 48 56 62 58 83 59 50 60 34 61 35 62 43 63 36 64 37 65 41 66
REMARK SMILES IDX 44 67 38 68 39 69 42 70 40 71 66 72 67 73 75 74 68 75 69 76
REMARK SMILES IDX 73 77 76 78 70 79 71 80 74 81 72 82 51 83 52 84 60 85 53 86
REMARK SMILES IDX 54 87 58 88 61 89 55 90 56 91 59 92 57 93
REMARK H PARENT 18 4 22 27 81 46 49 57
REMARK Flexibility Score: inf
ROOT
ATOM      1  C   UNL A   1      33.061  29.244  26.210  1.00  0.00     0.286 C 
ATOM      2  O   UNL A   1      34.255  29.093  26.488  1.00  0.00    -0.266 OA
ATOM      3  N   UNL A   1      32.607  30.539  26.276  1.00  0.00    -0.349 N 
ATOM      4  H   UNL A   1      33.287  31.190  26.567  1.00  0.00     0.163 HD
ENDROOT
BRANCH   1   5
ATOM      5  C   UNL A   1      32.206  28.141  25.808  1.00  0.00     0.191 A 
ATOM      6  C   UNL A   1      31.137  27.009  24.221  1.00  0.00     0.145 A 
ATOM      7  C   UNL A   1      30.746  26.462  25.423  1.00  0.00     0.050 A 
ATOM      8  O   UNL A   1      32.067  27.971  24.454  1.00  0.00    -0.452 OA
ATOM      9  C   UNL A   1      31.453  27.165  26.435  1.00  0.00     0.057 A 
BRANCH   6  10
ATOM     10  C   UNL A   1      30.764  26.732  22.799  1.00  0.00     0.236 C 
ATOM     11  C   UNL A   1      31.645  25.728  22.067  1.00  0.00     0.062 C 
BRANCH  10  12
ATOM     12  O   UNL A   1      30.496  27.940  22.069  1.00  0.00    -0.483 OA
BRANCH  12  13
ATOM     13  C   UNL A   1      29.549  28.860  22.411  1.00  0.00     0.120 A 
ATOM     14  C   UNL A   1      28.610  31.082  22.799  1.00  0.00    -0.019 A 
ATOM     15  C   UNL A   1      27.433  30.497  23.276  1.00  0.00     0.006 A 
ATOM     16  C   UNL A   1      29.657  30.247  22.367  1.00  0.00     0.052 A 
ATOM     17  C   UNL A   1      27.295  29.111  23.289  1.00  0.00     0.004 A 
ATOM     18  C   UNL A   1      28.348  28.302  22.858  1.00  0.00     0.046 A 
BRANCH  14  19
ATOM     19  C   UNL A   1      28.825  32.579  22.819  1.00  0.00     0.195 C 
BRANCH  19  20
ATOM     20  O   UNL A   1      27.975  33.289  21.913  1.00  0.00    -0.380 OA
ATOM     21  C   UNL A   1      27.874  32.653  20.645  1.00  0.00     0.195 C 
ENDBRANCH  19  20
ENDBRANCH  14  19
ENDBRANCH  12  13
ENDBRANCH  10  12
ENDBRANCH   6  10
ENDBRANCH   1   5
BRANCH   3  22
ATOM     22  C   UNL A   1      31.312  31.122  25.996  1.00  0.00     0.118 C 
BRANCH  22  23
ATOM     23  C   UNL A   1      31.213  32.545  26.540  1.00  0.00     0.042 C 
BRANCH  23  24
ATOM     24  C   UNL A   1      32.518  33.041  27.163  1.00  0.00     0.118 C 
BRANCH  24  25
ATOM     25  N   UNL A   1      32.394  34.400  27.676  1.00  0.00    -0.352 N 
ATOM     26  C   UNL A   1      33.013  35.014  28.735  1.00  0.00     0.251 C 
ATOM     27  H   UNL A   1      31.764  34.971  27.181  1.00  0.00     0.163 HD
ATOM     28  O   UNL A   1      32.590  36.096  29.133  1.00  0.00    -0.269 OA
BRANCH  26  29
ATOM     29  C   UNL A   1      34.178  34.397  29.405  1.00  0.00     0.039 A 
ATOM     30  C   UNL A   1      33.973  33.713  30.609  1.00  0.00     0.014 A 
ATOM     31  C   UNL A   1      35.472  34.543  28.901  1.00  0.00     0.014 A 
ATOM     32  C   UNL A   1      35.055  33.138  31.279  1.00  0.00     0.010 A 
ATOM     33  C   UNL A   1      36.541  33.912  29.534  1.00  0.00     0.010 A 
ATOM     34  C   UNL A   1      36.345  33.210  30.733  1.00  0.00    -0.014 A 
BRANCH  34  35
ATOM     35  C   UNL A   1      37.500  32.563  31.405  1.00  0.00     0.031 A 
ATOM     36  C   UNL A   1      38.222  31.422  30.745  1.00  0.00     0.074 A 
ATOM     37  C   UNL A   1      37.860  32.965  32.639  1.00  0.00     0.049 A 
ATOM     38  N   UNL A   1      39.216  30.697  31.196  1.00  0.00    -0.248 NA
ATOM     39  C   UNL A   1      37.749  31.025  29.410  1.00  0.00     0.031 C 
ATOM     40  C   UNL A   1      37.212  34.033  33.401  1.00  0.00     0.029 A 
ATOM     41  N   UNL A   1      38.856  32.519  33.471  1.00  0.00    -0.354 N 
ATOM     42  C   UNL A   1      39.468  29.748  30.213  1.00  0.00     0.074 A 
ATOM     43  C   UNL A   1      38.496  29.960  29.163  1.00  0.00     0.031 C 
ATOM     44  C   UNL A   1      37.845  34.180  34.576  1.00  0.00     0.029 A 
ATOM     45  C   UNL A   1      38.918  33.195  34.665  1.00  0.00     0.049 A 
ATOM     46  H   UNL A   1      39.467  31.784  33.235  1.00  0.00     0.167 HD
ATOM     47  C   UNL A   1      40.436  28.800  30.182  1.00  0.00     0.037 A 
ATOM     48  C   UNL A   1      39.747  33.036  35.713  1.00  0.00     0.037 A 
ATOM     49  C   UNL A   1      41.422  28.614  31.215  1.00  0.00     0.049 A 
ATOM     50  C   UNL A   1      40.810  31.974  35.654  1.00  0.00     0.074 A 
ATOM     51  C   UNL A   1      42.490  27.735  31.243  1.00  0.00     0.029 A 
ATOM     52  N   UNL A   1      41.455  29.320  32.410  1.00  0.00    -0.354 N 
ATOM     53  N   UNL A   1      41.088  31.132  34.690  1.00  0.00    -0.248 NA
ATOM     54  C   UNL A   1      41.678  31.844  36.833  1.00  0.00     0.031 C 
ATOM     55  C   UNL A   1      43.143  27.877  32.473  1.00  0.00     0.029 A 
ATOM     56  C   UNL A   1      42.510  28.878  33.192  1.00  0.00     0.049 A 
ATOM     57  H   UNL A   1      40.822  30.030  32.663  1.00  0.00     0.167 HD
ATOM     58  C   UNL A   1      42.179  30.394  35.128  1.00  0.00     0.074 A 
ATOM     59  C   UNL A   1      42.520  30.896  36.443  1.00  0.00     0.031 C 
ATOM     60  C   UNL A   1      42.840  29.392  34.497  1.00  0.00     0.037 A 
BRANCH  47  61
ATOM     61  C   UNL A   1      40.470  27.886  28.991  1.00  0.00     0.064 A 
ATOM     62  C   UNL A   1      41.272  28.158  27.873  1.00  0.00     0.173 A 
ATOM     63  C   UNL A   1      39.703  26.710  28.975  1.00  0.00     0.173 A 
ATOM     64  F   UNL A   1      42.017  29.273  27.832  1.00  0.00    -0.203 F 
ATOM     65  C   UNL A   1      41.277  27.310  26.768  1.00  0.00     0.198 A 
ATOM     66  C   UNL A   1      39.733  25.849  27.881  1.00  0.00     0.198 A 
ATOM     67  F   UNL A   1      38.923  26.396  30.021  1.00  0.00    -0.203 F 
ATOM     68  F   UNL A   1      42.007  27.622  25.689  1.00  0.00    -0.200 F 
ATOM     69  C   UNL A   1      40.511  26.154  26.775  1.00  0.00     0.200 A 
ATOM     70  F   UNL A   1      39.003  24.725  27.896  1.00  0.00    -0.200 F 
ATOM     71  F   UNL A   1      40.516  25.338  25.712  1.00  0.00    -0.200 F 
ENDBRANCH  47  61
BRANCH  48  72
ATOM     72  C   UNL A   1      39.635  33.935  36.889  1.00  0.00     0.064 A 
ATOM     73  C   UNL A   1      38.866  33.562  38.001  1.00  0.00     0.173 A 
ATOM     74  C   UNL A   1      40.292  35.173  36.934  1.00  0.00     0.173 A 
ATOM     75  F   UNL A   1      38.203  32.397  37.995  1.00  0.00    -0.203 F 
ATOM     76  C   UNL A   1      38.747  34.401  39.108  1.00  0.00     0.198 A 
ATOM     77  C   UNL A   1      40.193  35.998  38.052  1.00  0.00     0.198 A 
ATOM     78  F   UNL A   1      41.045  35.572  35.899  1.00  0.00    -0.203 F 
ATOM     79  F   UNL A   1      37.974  34.036  40.140  1.00  0.00    -0.200 F 
ATOM     80  C   UNL A   1      39.415  35.615  39.135  1.00  0.00     0.200 A 
ATOM     81  F   UNL A   1      40.851  37.166  38.081  1.00  0.00    -0.200 F 
ATOM     82  F   UNL A   1      39.306  36.418  40.201  1.00  0.00    -0.200 F 
ENDBRANCH  48  72
BRANCH  60  83
ATOM     83  C   UNL A   1      44.020  28.798  35.209  1.00  0.00     0.064 A 
ATOM     84  C   UNL A   1      43.884  27.700  36.070  1.00  0.00     0.173 A 
ATOM     85  C   UNL A   1      45.306  29.319  35.005  1.00  0.00     0.173 A 
ATOM     86  F   UNL A   1      42.673  27.177  36.312  1.00  0.00    -0.203 F 
ATOM     87  C   UNL A   1      44.991  27.162  36.723  1.00  0.00     0.198 A 
ATOM     88  C   UNL A   1      46.414  28.761  35.637  1.00  0.00     0.198 A 
ATOM     89  F   UNL A   1      45.490  30.367  34.186  1.00  0.00    -0.203 F 
ATOM     90  F   UNL A   1      44.831  26.145  37.581  1.00  0.00    -0.200 F 
ATOM     91  C   UNL A   1      46.255  27.688  36.501  1.00  0.00     0.200 A 
ATOM     92  F   UNL A   1      47.636  29.262  35.411  1.00  0.00    -0.200 F 
ATOM     93  F   UNL A   1      47.318  27.167  37.126  1.00  0.00    -0.200 F 
ENDBRANCH  60  83
ENDBRANCH  34  35
ENDBRANCH  26  29
ENDBRANCH  24  25
ENDBRANCH  23  24
ENDBRANCH  22  23
ENDBRANCH   3  22
TORSDOF 15
ENDMDL
MODEL 2
REMARK VINA RESULT:     -12.0      5.613     10.484
REMARK SMILES COCc1cccc(O[C@@H](C)c2ccc(C(=O)NCCCNC(=O)c3ccc(-c4c5nc(c(-c6c(F)c(F)c(F)c(F)c6F)c6ccc([nH]6)c(-c6c(F)c(F)c(F)c(F)c6F)c6nc(c(-c7c(F)c(F)c(F)c(F)c7F)c7ccc4[nH]7)C=C6)C=C5)cc3)o2)c1
REMARK SMILES IDX 16 1 17 2 18 3 15 5 12 6 13 7 88 8 14 9 10 10 11 11 9 12
REMARK SMILES IDX 8 13 4 14 5 15 89 16 6 17 7 18 3 19 2 20 1 21 19 22 20 23
REMARK SMILES IDX 21 24 22 25 23 26 24 28 25 29 26 30 87 31 27 32 86 33 28 34
REMARK SMILES IDX 29 35 30 36 80 37 31 38 85 39 79 40 81 41 32 42 84 43 78 44
REMARK SMILES IDX 77 45 33 47 65 48 45 49 64 50 46 51 49 52 63 53 82 54 47 55
REMARK SMILES IDX 48 56 62 58 83 59 50 60 34 61 35 62 43 63 36 64 37 65 41 66
REMARK SMILES IDX 44 67 38 68 39 69 42 70 40 71 66 72 67 73 75 74 68 75 69 76
REMARK SMILES IDX 73 77 76 78 70 79 71 80 74 81 72 82 51 83 52 84 60 85 53 86
REMARK SMILES IDX 54 87 58 88 61 89 55 90 56 91 59 92 57 93
REMARK H PARENT 18 4 22 27 81 46 49 57
REMARK Flexibility Score: inf
ROOT
ATOM      1  C   UNL A   1      42.731  18.444  26.068  1.00  0.00     0.286 C 
ATOM      2  O   UNL A   1      42.335  17.335  25.699  1.00  0.00    -0.266 OA
ATOM      3  N   UNL A   1      41.974  19.036  27.050  1.00  0.00    -0.349 N 
ATOM      4  H   UNL A   1      41.186  18.513  27.321  1.00  0.00     0.163 HD
ENDROOT
BRANCH   1   5
ATOM      5  C   UNL A   1      43.930  19.065  25.532  1.00  0.00     0.191 A 
ATOM      6  C   UNL A   1      44.928  20.774  24.520  1.00  0.00     0.145 A 
ATOM      7  C   UNL A   1      45.872  19.776  24.625  1.00  0.00     0.050 A 
ATOM      8  O   UNL A   1      43.784  20.368  25.129  1.00  0.00    -0.452 OA
ATOM      9  C   UNL A   1      45.242  18.696  25.299  1.00  0.00     0.057 A 
BRANCH   6  10
ATOM     10  C   UNL A   1      44.948  22.144  23.919  1.00  0.00     0.236 C 
ATOM     11  C   UNL A   1      46.283  22.875  23.980  1.00  0.00     0.062 C 
BRANCH  10  12
ATOM     12  O   UNL A   1      43.815  22.927  24.330  1.00  0.00    -0.483 OA
BRANCH  12  13
ATOM     13  C   UNL A   1      43.870  23.976  25.198  1.00  0.00     0.120 A 
ATOM     14  C   UNL A   1      43.839  26.315  25.904  1.00  0.00    -0.019 A 
ATOM     15  C   UNL A   1      44.133  25.921  27.213  1.00  0.00     0.006 A 
ATOM     16  C   UNL A   1      43.707  25.328  24.909  1.00  0.00     0.052 A 
ATOM     17  C   UNL A   1      44.259  24.569  27.525  1.00  0.00     0.004 A 
ATOM     18  C   UNL A   1      44.128  23.607  26.522  1.00  0.00     0.046 A 
BRANCH  14  19
ATOM     19  C   UNL A   1      43.749  27.772  25.508  1.00  0.00     0.195 C 
BRANCH  19  20
ATOM     20  O   UNL A   1      42.597  28.077  24.715  1.00  0.00    -0.380 OA
ATOM     21  C   UNL A   1      41.695  28.955  25.377  1.00  0.00     0.195 C 
ENDBRANCH  19  20
ENDBRANCH  14  19
ENDBRANCH  12  13
ENDBRANCH  10  12
ENDBRANCH   6  10
ENDBRANCH   1   5
BRANCH   3  22
ATOM     22  C   UNL A   1      42.124  20.289  27.759  1.00  0.00     0.118 C 
BRANCH  22  23
ATOM     23  C   UNL A   1      40.875  21.156  27.627  1.00  0.00     0.042 C 
BRANCH  23  24
ATOM     24  C   UNL A   1      41.007  22.239  26.556  1.00  0.00     0.118 C 
BRANCH  24  25
ATOM     25  N   UNL A   1      39.721  22.572  25.956  1.00  0.00    -0.352 N 
ATOM     26  C   UNL A   1      38.844  23.589  26.232  1.00  0.00     0.251 C 
ATOM     27  H   UNL A   1      39.435  21.967  25.234  1.00  0.00     0.163 HD
ATOM     28  O   UNL A   1      37.709  23.548  25.763  1.00  0.00    -0.269 OA
BRANCH  26  29
ATOM     29  C   UNL A   1      39.238  24.731  27.084  1.00  0.00     0.039 A 
ATOM     30  C   UNL A   1      40.067  25.718  26.539  1.00  0.00     0.014 A 
ATOM     31  C   UNL A   1      38.861  24.805  28.427  1.00  0.00     0.014 A 
ATOM     32  C   UNL A   1      40.476  26.799  27.324  1.00  0.00     0.010 A 
ATOM     33  C   UNL A   1      39.213  25.917  29.190  1.00  0.00     0.010 A 
ATOM     34  C   UNL A   1      40.031  26.920  28.649  1.00  0.00    -0.014 A 
BRANCH  34  35
ATOM     35  C   UNL A   1      40.415  28.086  29.484  1.00  0.00     0.031 A 
ATOM     36  C   UNL A   1      41.765  28.138  30.144  1.00  0.00     0.074 A 
ATOM     37  C   UNL A   1      39.523  29.073  29.696  1.00  0.00     0.049 A 
ATOM     38  N   UNL A   1      42.261  29.045  30.949  1.00  0.00    -0.248 NA
ATOM     39  C   UNL A   1      42.670  27.009  29.884  1.00  0.00     0.031 C 
ATOM     40  C   UNL A   1      38.168  29.117  29.145  1.00  0.00     0.029 A 
ATOM     41  N   UNL A   1      39.620  30.224  30.436  1.00  0.00    -0.354 N 
ATOM     42  C   UNL A   1      43.520  28.583  31.308  1.00  0.00     0.074 A 
ATOM     43  C   UNL A   1      43.696  27.296  30.670  1.00  0.00     0.031 C 
ATOM     44  C   UNL A   1      37.570  30.252  29.541  1.00  0.00     0.029 A 
ATOM     45  C   UNL A   1      38.485  30.996  30.402  1.00  0.00     0.049 A 
ATOM     46  H   UNL A   1      40.426  30.472  30.944  1.00  0.00     0.167 HD
ATOM     47  C   UNL A   1      44.453  29.188  32.084  1.00  0.00     0.037 A 
ATOM     48  C   UNL A   1      38.214  32.172  30.999  1.00  0.00     0.037 A 
ATOM     49  C   UNL A   1      44.286  30.483  32.690  1.00  0.00     0.049 A 
ATOM     50  C   UNL A   1      39.265  32.819  31.857  1.00  0.00     0.074 A 
ATOM     51  C   UNL A   1      45.198  31.217  33.429  1.00  0.00     0.029 A 
ATOM     52  N   UNL A   1      43.123  31.238  32.631  1.00  0.00    -0.354 N 
ATOM     53  N   UNL A   1      40.479  32.411  32.130  1.00  0.00    -0.248 NA
ATOM     54  C   UNL A   1      38.905  34.097  32.488  1.00  0.00     0.031 C 
ATOM     55  C   UNL A   1      44.573  32.394  33.854  1.00  0.00     0.029 A 
ATOM     56  C   UNL A   1      43.285  32.416  33.341  1.00  0.00     0.049 A 
ATOM     57  H   UNL A   1      42.303  30.974  32.155  1.00  0.00     0.167 HD
ATOM     58  C   UNL A   1      41.040  33.391  32.936  1.00  0.00     0.074 A 
ATOM     59  C   UNL A   1      40.036  34.422  33.100  1.00  0.00     0.031 C 
ATOM     60  C   UNL A   1      42.277  33.435  33.490  1.00  0.00     0.037 A 
BRANCH  47  61
ATOM     61  C   UNL A   1      45.737  28.448  32.325  1.00  0.00     0.064 A 
ATOM     62  C   UNL A   1      46.842  28.586  31.470  1.00  0.00     0.173 A 
ATOM     63  C   UNL A   1      45.872  27.601  33.437  1.00  0.00     0.173 A 
ATOM     64  F   UNL A   1      46.762  29.375  30.388  1.00  0.00    -0.203 F 
ATOM     65  C   UNL A   1      48.019  27.877  31.697  1.00  0.00     0.198 A 
ATOM     66  C   UNL A   1      47.062  26.917  33.677  1.00  0.00     0.198 A 
ATOM     67  F   UNL A   1      44.851  27.437  34.291  1.00  0.00    -0.203 F 
ATOM     68  F   UNL A   1      49.039  27.981  30.835  1.00  0.00    -0.200 F 
ATOM     69  C   UNL A   1      48.129  27.047  32.802  1.00  0.00     0.200 A 
ATOM     70  F   UNL A   1      47.171  26.126  34.754  1.00  0.00    -0.200 F 
ATOM     71  F   UNL A   1      49.262  26.365  33.020  1.00  0.00    -0.200 F 
ENDBRANCH  47  61
BRANCH  48  72
ATOM     72  C   UNL A   1      36.905  32.835  30.767  1.00  0.00     0.064 A 
ATOM     73  C   UNL A   1      35.897  32.780  31.740  1.00  0.00     0.173 A 
ATOM     74  C   UNL A   1      36.636  33.538  29.585  1.00  0.00     0.173 A 
ATOM     75  F   UNL A   1      36.101  32.103  32.879  1.00  0.00    -0.203 F 
ATOM     76  C   UNL A   1      34.663  33.393  31.532  1.00  0.00     0.198 A 
ATOM     77  C   UNL A   1      35.411  34.171  29.389  1.00  0.00     0.198 A 
ATOM     78  F   UNL A   1      37.570  33.624  28.627  1.00  0.00    -0.203 F 
ATOM     79  F   UNL A   1      33.703  33.292  32.463  1.00  0.00    -0.200 F 
ATOM     80  C   UNL A   1      34.422  34.093  30.360  1.00  0.00     0.200 A 
ATOM     81  F   UNL A   1      35.186  34.859  28.260  1.00  0.00    -0.200 F 
ATOM     82  F   UNL A   1      33.238  34.686  30.162  1.00  0.00    -0.200 F 
ENDBRANCH  48  72
BRANCH  60  83
ATOM     83  C   UNL A   1      42.623  34.653  34.295  1.00  0.00     0.064 A 
ATOM     84  C   UNL A   1      43.071  35.835  33.688  1.00  0.00     0.173 A 
ATOM     85  C   UNL A   1      42.479  34.645  35.691  1.00  0.00     0.173 A 
ATOM     86  F   UNL A   1      43.242  35.888  32.358  1.00  0.00    -0.203 F 
ATOM     87  C   UNL A   1      43.388  36.956  34.452  1.00  0.00     0.198 A 
ATOM     88  C   UNL A   1      42.770  35.776  36.448  1.00  0.00     0.198 A 
ATOM     89  F   UNL A   1      42.050  33.540  36.320  1.00  0.00    -0.203 F 
ATOM     90  F   UNL A   1      43.862  38.058  33.855  1.00  0.00    -0.200 F 
ATOM     91  C   UNL A   1      43.231  36.927  35.830  1.00  0.00     0.200 A 
ATOM     92  F   UNL A   1      42.606  35.751  37.779  1.00  0.00    -0.200 F 
ATOM     93  F   UNL A   1      43.533  38.008  36.561  1.00  0.00    -0.200 F 
ENDBRANCH  60  83
ENDBRANCH  34  35
ENDBRANCH  26  29
ENDBRANCH  24  25
ENDBRANCH  23  24
ENDBRANCH  22  23
ENDBRANCH   3  22
TORSDOF 15
ENDMDL
MODEL 3
REMARK VINA RESULT:     -11.9      0.990      7.392
REMARK SMILES COCc1cccc(O[C@@H](C)c2ccc(C(=O)NCCCNC(=O)c3ccc(-c4c5nc(c(-c6c(F)c(F)c(F)c(F)c6F)c6ccc([nH]6)c(-c6c(F)c(F)c(F)c(F)c6F)c6nc(c(-c7c(F)c(F)c(F)c(F)c7F)c7ccc4[nH]7)C=C6)C=C5)cc3)o2)c1
REMARK SMILES IDX 16 1 17 2 18 3 15 5 12 6 13 7 88 8 14 9 10 10 11 11 9 12
REMARK SMILES IDX 8 13 4 14 5 15 89 16 6 17 7 18 3 19 2 20 1 21 19 22 20 23
REMARK SMILES IDX 21 24 22 25 23 26 24 28 25 29 26 30 87 31 27 32 86 33 28 34
REMARK SMILES IDX 29 35 30 36 80 37 31 38 85 39 79 40 81 41 32 42 84 43 78 44
REMARK SMILES IDX 77 45 33 47 65 48 45 49 64 50 46 51 49 52 63 53 82 54 47 55
REMARK SMILES IDX 48 56 62 58 83 59 50 60 34 61 35 62 43 63 36 64 37 65 41 66
REMARK SMILES IDX 44 67 38 68 39 69 42 70 40 71 66 72 67 73 75 74 68 75 69 76
REMARK SMILES IDX 73 77 76 78 70 79 71 80 74 81 72 82 51 83 52 84 60 85 53 86
REMARK SMILES IDX 54 87 58 88 61 89 55 90 56 91 59 92 57 93
REMARK H PARENT 18 4 22 27 81 46 49 57
REMARK Flexibility Score: inf
ROOT
ATOM      1  C   UNL A   1      31.790  28.460  27.288  1.00  0.00     0.286 C 
ATOM      2  O   UNL A   1      31.443  27.815  28.283  1.00  0.00    -0.266 OA
ATOM      3  N   UNL A   1      31.663  29.824  27.404  1.00  0.00    -0.349 N 
ATOM      4  H   UNL A   1      31.280  30.121  28.261  1.00  0.00     0.163 HD
ENDROOT
BRANCH   1   5
ATOM      5  C   UNL A   1      32.328  27.829  26.096  1.00  0.00     0.191 A 
ATOM      6  C   UNL A   1      32.055  27.080  24.021  1.00  0.00     0.145 A 
ATOM      7  C   UNL A   1      33.318  26.696  24.412  1.00  0.00     0.050 A 
ATOM      8  O   UNL A   1      31.490  27.820  25.009  1.00  0.00    -0.452 OA
ATOM      9  C   UNL A   1      33.504  27.202  25.726  1.00  0.00     0.057 A 
BRANCH   6  10
ATOM     10  C   UNL A   1      31.258  26.863  22.773  1.00  0.00     0.236 C 
ATOM     11  C   UNL A   1      31.705  25.700  21.896  1.00  0.00     0.062 C 
BRANCH  10  12
ATOM     12  O   UNL A   1      31.021  28.092  22.067  1.00  0.00    -0.483 OA
BRANCH  12  13
ATOM     13  C   UNL A   1      29.890  28.845  22.178  1.00  0.00     0.120 A 
ATOM     14  C   UNL A   1      28.457  30.804  21.899  1.00  0.00    -0.019 A 
ATOM     15  C   UNL A   1      27.462  30.181  22.658  1.00  0.00     0.006 A 
ATOM     16  C   UNL A   1      29.664  30.120  21.665  1.00  0.00     0.052 A 
ATOM     17  C   UNL A   1      27.658  28.889  23.144  1.00  0.00     0.004 A 
ATOM     18  C   UNL A   1      28.865  28.230  22.902  1.00  0.00     0.046 A 
BRANCH  14  19
ATOM     19  C   UNL A   1      28.311  32.225  21.400  1.00  0.00     0.195 C 
BRANCH  19  20
ATOM     20  O   UNL A   1      27.987  33.161  22.432  1.00  0.00    -0.380 OA
ATOM     21  C   UNL A   1      29.122  33.544  23.199  1.00  0.00     0.195 C 
ENDBRANCH  19  20
ENDBRANCH  14  19
ENDBRANCH  12  13
ENDBRANCH  10  12
ENDBRANCH   6  10
ENDBRANCH   1   5
BRANCH   3  22
ATOM     22  C   UNL A   1      31.988  30.902  26.496  1.00  0.00     0.118 C 
BRANCH  22  23
ATOM     23  C   UNL A   1      31.665  32.263  27.109  1.00  0.00     0.042 C 
BRANCH  23  24
ATOM     24  C   UNL A   1      32.785  33.287  26.921  1.00  0.00     0.118 C 
BRANCH  24  25
ATOM     25  N   UNL A   1      32.583  34.472  27.746  1.00  0.00    -0.352 N 
ATOM     26  C   UNL A   1      33.120  34.815  28.960  1.00  0.00     0.251 C 
ATOM     27  H   UNL A   1      31.961  35.134  27.369  1.00  0.00     0.163 HD
ATOM     28  O   UNL A   1      32.636  35.754  29.587  1.00  0.00    -0.269 OA
BRANCH  26  29
ATOM     29  C   UNL A   1      34.267  34.076  29.528  1.00  0.00     0.039 A 
ATOM     30  C   UNL A   1      35.560  34.449  29.146  1.00  0.00     0.014 A 
ATOM     31  C   UNL A   1      34.082  32.979  30.373  1.00  0.00     0.014 A 
ATOM     32  C   UNL A   1      36.665  33.756  29.647  1.00  0.00     0.010 A 
ATOM     33  C   UNL A   1      35.185  32.331  30.926  1.00  0.00     0.010 A 
ATOM     34  C   UNL A   1      36.487  32.707  30.562  1.00  0.00    -0.014 A 
BRANCH  34  35
ATOM     35  C   UNL A   1      37.650  31.991  31.143  1.00  0.00     0.031 A 
ATOM     36  C   UNL A   1      38.130  32.318  32.530  1.00  0.00     0.074 A 
ATOM     37  C   UNL A   1      38.313  31.087  30.398  1.00  0.00     0.049 A 
ATOM     38  N   UNL A   1      39.157  31.840  33.188  1.00  0.00    -0.248 NA
ATOM     39  C   UNL A   1      37.368  33.337  33.268  1.00  0.00     0.031 C 
ATOM     40  C   UNL A   1      37.972  30.712  29.025  1.00  0.00     0.029 A 
ATOM     41  N   UNL A   1      39.416  30.323  30.687  1.00  0.00    -0.354 N 
ATOM     42  C   UNL A   1      39.176  32.515  34.402  1.00  0.00     0.074 A 
ATOM     43  C   UNL A   1      38.087  33.468  34.373  1.00  0.00     0.031 C 
ATOM     44  C   UNL A   1      38.827  29.769  28.601  1.00  0.00     0.029 A 
ATOM     45  C   UNL A   1      39.798  29.499  29.657  1.00  0.00     0.049 A 
ATOM     46  H   UNL A   1      39.888  30.362  31.550  1.00  0.00     0.167 HD
ATOM     47  C   UNL A   1      40.015  32.341  35.452  1.00  0.00     0.037 A 
ATOM     48  C   UNL A   1      40.818  28.624  29.575  1.00  0.00     0.037 A 
ATOM     49  C   UNL A   1      41.077  31.370  35.489  1.00  0.00     0.049 A 
ATOM     50  C   UNL A   1      41.735  28.454  30.754  1.00  0.00     0.074 A 
ATOM     51  C   UNL A   1      41.931  31.062  36.533  1.00  0.00     0.029 A 
ATOM     52  N   UNL A   1      41.433  30.550  34.428  1.00  0.00    -0.354 N 
ATOM     53  N   UNL A   1      41.701  29.042  31.923  1.00  0.00    -0.248 NA
ATOM     54  C   UNL A   1      42.835  27.490  30.599  1.00  0.00     0.031 C 
ATOM     55  C   UNL A   1      42.833  30.088  36.089  1.00  0.00     0.029 A 
ATOM     56  C   UNL A   1      42.511  29.755  34.783  1.00  0.00     0.049 A 
ATOM     57  H   UNL A   1      40.985  30.535  33.551  1.00  0.00     0.167 HD
ATOM     58  C   UNL A   1      42.749  28.503  32.655  1.00  0.00     0.074 A 
ATOM     59  C   UNL A   1      43.396  27.529  31.800  1.00  0.00     0.031 C 
ATOM     60  C   UNL A   1      43.140  28.786  33.922  1.00  0.00     0.037 A 
BRANCH  47  61
ATOM     61  C   UNL A   1      39.818  33.229  36.648  1.00  0.00     0.064 A 
ATOM     62  C   UNL A   1      40.528  34.430  36.802  1.00  0.00     0.173 A 
ATOM     63  C   UNL A   1      38.892  32.885  37.645  1.00  0.00     0.173 A 
ATOM     64  F   UNL A   1      41.433  34.801  35.883  1.00  0.00    -0.203 F 
ATOM     65  C   UNL A   1      40.349  35.231  37.926  1.00  0.00     0.198 A 
ATOM     66  C   UNL A   1      38.693  33.705  38.753  1.00  0.00     0.198 A 
ATOM     67  F   UNL A   1      38.180  31.752  37.545  1.00  0.00    -0.203 F 
ATOM     68  F   UNL A   1      41.081  36.343  38.078  1.00  0.00    -0.200 F 
ATOM     69  C   UNL A   1      39.428  34.871  38.898  1.00  0.00     0.200 A 
ATOM     70  F   UNL A   1      37.792  33.361  39.685  1.00  0.00    -0.200 F 
ATOM     71  F   UNL A   1      39.255  35.643  39.979  1.00  0.00    -0.200 F 
ENDBRANCH  47  61
BRANCH  48  72
ATOM     72  C   UNL A   1      40.997  27.809  28.347  1.00  0.00     0.064 A 
ATOM     73  C   UNL A   1      40.335  26.581  28.204  1.00  0.00     0.173 A 
ATOM     74  C   UNL A   1      41.819  28.235  27.294  1.00  0.00     0.173 A 
ATOM     75  F   UNL A   1      39.554  26.123  29.193  1.00  0.00    -0.203 F 
ATOM     76  C   UNL A   1      40.500  25.803  27.059  1.00  0.00     0.198 A 
ATOM     77  C   UNL A   1      41.963  27.469  26.140  1.00  0.00     0.198 A 
ATOM     78  F   UNL A   1      42.469  29.405  27.380  1.00  0.00    -0.203 F 
ATOM     79  F   UNL A   1      39.886  24.616  26.965  1.00  0.00    -0.200 F 
ATOM     80  C   UNL A   1      41.309  26.251  26.026  1.00  0.00     0.200 A 
ATOM     81  F   UNL A   1      42.735  27.910  25.137  1.00  0.00    -0.200 F 
ATOM     82  F   UNL A   1      41.464  25.506  24.923  1.00  0.00    -0.200 F 
ENDBRANCH  48  72
BRANCH  60  83
ATOM     83  C   UNL A   1      44.300  28.008  34.470  1.00  0.00     0.064 A 
ATOM     84  C   UNL A   1      45.615  28.488  34.386  1.00  0.00     0.173 A 
ATOM     85  C   UNL A   1      44.088  26.778  35.111  1.00  0.00     0.173 A 
ATOM     86  F   UNL A   1      45.871  29.650  33.767  1.00  0.00    -0.203 F 
ATOM     87  C   UNL A   1      46.679  27.751  34.900  1.00  0.00     0.198 A 
ATOM     88  C   UNL A   1      45.152  26.058  35.649  1.00  0.00     0.198 A 
ATOM     89  F   UNL A   1      42.848  26.277  35.222  1.00  0.00    -0.203 F 
ATOM     90  F   UNL A   1      47.933  28.204  34.763  1.00  0.00    -0.200 F 
ATOM     91  C   UNL A   1      46.446  26.540  35.536  1.00  0.00     0.200 A 
ATOM     92  F   UNL A   1      44.923  24.894  36.274  1.00  0.00    -0.200 F 
ATOM     93  F   UNL A   1      47.471  25.836  36.032  1.00  0.00    -0.200 F 
ENDBRANCH  60  83
ENDBRANCH  34  35
ENDBRANCH  26  29
ENDBRANCH  24  25
ENDBRANCH  23  24
ENDBRANCH  22  23
ENDBRANCH   3  22
TORSDOF 15
ENDMDL
