MODEL 1
REMARK VINA RESULT:     -12.8      0.000      0.000
REMARK SMILES Cc1ccnc(N2CCCC[C@H]2C(=O)NCCCNC(=O)c2ccc(-c3c4nc(c(-c5c(F)c(F)c(F)c(F)c5F)c5ccc([nH]5)c(-c5c(F)c(F)c(F)c(F)c5F)c5nc(c(-c6c(F)c(F)c(F)c(F)c6F)c6ccc3[nH]6)C=C5)C=C4)cc2)n1
REMARK SMILES IDX 17 1 16 2 15 3 13 4 14 5 12 7 7 8 8 9 9 10 11 11 10 12 6 13
REMARK SMILES IDX 1 14 2 15 3 16 85 17 4 18 5 19 18 20 19 21 20 22 21 24 22 25
REMARK SMILES IDX 23 26 84 27 24 28 83 29 25 30 26 31 27 32 77 33 28 34 82 35
REMARK SMILES IDX 76 36 78 37 29 38 81 39 75 40 74 41 30 43 62 44 42 45 61 46
REMARK SMILES IDX 43 47 46 48 60 49 79 50 44 51 45 52 59 54 80 55 47 56 31 57
REMARK SMILES IDX 32 58 40 59 33 60 34 61 38 62 41 63 35 64 36 65 39 66 37 67
REMARK SMILES IDX 63 68 64 69 72 70 65 71 66 72 70 73 73 74 67 75 68 76 71 77
REMARK SMILES IDX 69 78 48 79 49 80 57 81 50 82 51 83 55 84 58 85 52 86 53 87
REMARK SMILES IDX 56 88 54 89
REMARK H PARENT 15 6 19 23 78 42 46 53
REMARK Flexibility Score: inf
ROOT
ATOM      1  C   UNL A   1      38.290  20.486  25.056  1.00  0.00     0.042 C 
ENDROOT
BRANCH   1   2
ATOM      2  C   UNL A   1      37.538  21.803  24.998  1.00  0.00     0.117 C 
BRANCH   2   3
ATOM      3  N   UNL A   1      36.553  21.937  26.051  1.00  0.00    -0.354 N 
ATOM      4  C   UNL A   1      35.198  21.799  25.978  1.00  0.00     0.242 C 
ATOM      5  O   UNL A   1      34.584  21.875  27.047  1.00  0.00    -0.273 OA
ATOM      6  H   UNL A   1      36.910  22.158  26.941  1.00  0.00     0.163 HD
BRANCH   4   7
ATOM      7  C   UNL A   1      34.497  21.570  24.616  1.00  0.00     0.174 C 
ATOM      8  N   UNL A   1      33.314  20.724  24.756  1.00  0.00    -0.329 N 
ATOM      9  C   UNL A   1      32.134  21.234  25.416  1.00  0.00     0.120 C 
ATOM     10  C   UNL A   1      31.685  22.529  24.750  1.00  0.00     0.022 C 
ATOM     11  C   UNL A   1      34.069  22.918  23.996  1.00  0.00     0.035 C 
ATOM     12  C   UNL A   1      32.828  23.536  24.650  1.00  0.00     0.004 C 
BRANCH   8  13
ATOM     13  C   UNL A   1      33.280  19.457  24.245  1.00  0.00     0.226 A 
ATOM     14  C   UNL A   1      34.780  16.202  25.001  1.00  0.00     0.067 C 
ATOM     15  C   UNL A   1      33.986  17.260  24.298  1.00  0.00     0.043 A 
ATOM     16  C   UNL A   1      33.248  16.953  23.177  1.00  0.00     0.044 A 
ATOM     17  N   UNL A   1      34.024  18.504  24.826  1.00  0.00    -0.218 NA
ATOM     18  C   UNL A   1      32.537  17.991  22.638  1.00  0.00     0.117 A 
ATOM     19  N   UNL A   1      32.528  19.230  23.161  1.00  0.00    -0.221 NA
ENDBRANCH   8  13
ENDBRANCH   4   7
ENDBRANCH   2   3
ENDBRANCH   1   2
BRANCH   1  20
ATOM     20  C   UNL A   1      39.324  20.409  26.167  1.00  0.00     0.118 C 
BRANCH  20  21
ATOM     21  N   UNL A   1      40.251  19.294  26.019  1.00  0.00    -0.352 N 
ATOM     22  C   UNL A   1      41.625  19.269  26.051  1.00  0.00     0.251 C 
ATOM     23  H   UNL A   1      39.826  18.418  25.871  1.00  0.00     0.163 HD
ATOM     24  O   UNL A   1      42.234  18.244  25.758  1.00  0.00    -0.269 OA
BRANCH  22  25
ATOM     25  C   UNL A   1      42.379  20.495  26.390  1.00  0.00     0.039 A 
ATOM     26  C   UNL A   1      42.942  21.248  25.356  1.00  0.00     0.014 A 
ATOM     27  C   UNL A   1      42.495  20.925  27.712  1.00  0.00     0.014 A 
ATOM     28  C   UNL A   1      43.513  22.491  25.639  1.00  0.00     0.010 A 
ATOM     29  C   UNL A   1      42.976  22.202  27.981  1.00  0.00     0.010 A 
ATOM     30  C   UNL A   1      43.473  23.005  26.944  1.00  0.00    -0.014 A 
BRANCH  30  31
ATOM     31  C   UNL A   1      43.896  24.396  27.247  1.00  0.00     0.031 A 
ATOM     32  C   UNL A   1      42.892  25.404  27.725  1.00  0.00     0.074 A 
ATOM     33  C   UNL A   1      45.164  24.773  26.991  1.00  0.00     0.049 A 
ATOM     34  N   UNL A   1      43.034  26.693  27.907  1.00  0.00    -0.248 NA
ATOM     35  C   UNL A   1      41.537  24.904  28.007  1.00  0.00     0.031 C 
ATOM     36  C   UNL A   1      46.221  23.900  26.475  1.00  0.00     0.029 A 
ATOM     37  N   UNL A   1      45.776  25.997  27.106  1.00  0.00    -0.354 N 
ATOM     38  C   UNL A   1      41.789  27.156  28.310  1.00  0.00     0.074 A 
ATOM     39  C   UNL A   1      40.890  26.023  28.297  1.00  0.00     0.031 C 
ATOM     40  C   UNL A   1      47.349  24.611  26.327  1.00  0.00     0.029 A 
ATOM     41  C   UNL A   1      47.087  25.999  26.693  1.00  0.00     0.049 A 
ATOM     42  H   UNL A   1      45.320  26.798  27.453  1.00  0.00     0.167 HD
ATOM     43  C   UNL A   1      41.437  28.410  28.680  1.00  0.00     0.037 A 
ATOM     44  C   UNL A   1      47.971  27.009  26.595  1.00  0.00     0.037 A 
ATOM     45  C   UNL A   1      42.339  29.531  28.712  1.00  0.00     0.049 A 
ATOM     46  C   UNL A   1      47.547  28.396  26.993  1.00  0.00     0.074 A 
ATOM     47  C   UNL A   1      42.092  30.825  29.134  1.00  0.00     0.029 A 
ATOM     48  N   UNL A   1      43.663  29.488  28.304  1.00  0.00    -0.354 N 
ATOM     49  N   UNL A   1      46.384  28.809  27.434  1.00  0.00    -0.248 NA
ATOM     50  C   UNL A   1      48.558  29.457  26.879  1.00  0.00     0.031 C 
ATOM     51  C   UNL A   1      43.255  31.578  28.940  1.00  0.00     0.029 A 
ATOM     52  C   UNL A   1      44.240  30.742  28.439  1.00  0.00     0.049 A 
ATOM     53  H   UNL A   1      44.126  28.687  27.968  1.00  0.00     0.167 HD
ATOM     54  C   UNL A   1      46.525  30.171  27.663  1.00  0.00     0.074 A 
ATOM     55  C   UNL A   1      47.894  30.511  27.334  1.00  0.00     0.031 C 
ATOM     56  C   UNL A   1      45.603  31.061  28.101  1.00  0.00     0.037 A 
BRANCH  43  57
ATOM     57  C   UNL A   1      40.011  28.636  29.090  1.00  0.00     0.064 A 
ATOM     58  C   UNL A   1      39.588  28.427  30.413  1.00  0.00     0.173 A 
ATOM     59  C   UNL A   1      39.067  29.107  28.165  1.00  0.00     0.173 A 
ATOM     60  F   UNL A   1      40.449  27.966  31.331  1.00  0.00    -0.203 F 
ATOM     61  C   UNL A   1      38.267  28.658  30.787  1.00  0.00     0.198 A 
ATOM     62  C   UNL A   1      37.754  29.363  28.551  1.00  0.00     0.198 A 
ATOM     63  F   UNL A   1      39.420  29.326  26.890  1.00  0.00    -0.203 F 
ATOM     64  F   UNL A   1      37.876  28.410  32.045  1.00  0.00    -0.200 F 
ATOM     65  C   UNL A   1      37.353  29.133  29.858  1.00  0.00     0.200 A 
ATOM     66  F   UNL A   1      36.874  29.833  27.656  1.00  0.00    -0.200 F 
ATOM     67  F   UNL A   1      36.085  29.363  30.223  1.00  0.00    -0.200 F 
ENDBRANCH  43  57
BRANCH  44  68
ATOM     68  C   UNL A   1      49.345  26.749  26.094  1.00  0.00     0.064 A 
ATOM     69  C   UNL A   1      50.354  26.298  26.956  1.00  0.00     0.173 A 
ATOM     70  C   UNL A   1      49.682  26.951  24.746  1.00  0.00     0.173 A 
ATOM     71  F   UNL A   1      50.087  26.113  28.258  1.00  0.00    -0.203 F 
ATOM     72  C   UNL A   1      51.650  26.078  26.496  1.00  0.00     0.198 A 
ATOM     73  C   UNL A   1      50.971  26.703  24.281  1.00  0.00     0.198 A 
ATOM     74  F   UNL A   1      48.751  27.376  23.879  1.00  0.00    -0.203 F 
ATOM     75  F   UNL A   1      52.607  25.692  27.351  1.00  0.00    -0.200 F 
ATOM     76  C   UNL A   1      51.956  26.276  25.157  1.00  0.00     0.200 A 
ATOM     77  F   UNL A   1      51.258  26.879  22.984  1.00  0.00    -0.200 F 
ATOM     78  F   UNL A   1      53.203  26.059  24.714  1.00  0.00    -0.200 F 
ENDBRANCH  44  68
BRANCH  56  79
ATOM     79  C   UNL A   1      46.046  32.487  28.257  1.00  0.00     0.064 A 
ATOM     80  C   UNL A   1      46.631  32.944  29.446  1.00  0.00     0.173 A 
ATOM     81  C   UNL A   1      45.919  33.392  27.193  1.00  0.00     0.173 A 
ATOM     82  F   UNL A   1      46.757  32.120  30.497  1.00  0.00    -0.203 F 
ATOM     83  C   UNL A   1      47.057  34.264  29.571  1.00  0.00     0.198 A 
ATOM     84  C   UNL A   1      46.371  34.704  27.312  1.00  0.00     0.198 A 
ATOM     85  F   UNL A   1      45.370  33.002  26.034  1.00  0.00    -0.203 F 
ATOM     86  F   UNL A   1      47.573  34.691  30.731  1.00  0.00    -0.200 F 
ATOM     87  C   UNL A   1      46.933  35.140  28.503  1.00  0.00     0.200 A 
ATOM     88  F   UNL A   1      46.262  35.545  26.275  1.00  0.00    -0.200 F 
ATOM     89  F   UNL A   1      47.351  36.407  28.623  1.00  0.00    -0.200 F 
ENDBRANCH  56  79
ENDBRANCH  30  31
ENDBRANCH  22  25
ENDBRANCH  20  21
ENDBRANCH   1  20
TORSDOF 11
ENDMDL
MODEL 2
REMARK VINA RESULT:     -12.8      0.109      1.998
REMARK SMILES Cc1ccnc(N2CCCC[C@H]2C(=O)NCCCNC(=O)c2ccc(-c3c4nc(c(-c5c(F)c(F)c(F)c(F)c5F)c5ccc([nH]5)c(-c5c(F)c(F)c(F)c(F)c5F)c5nc(c(-c6c(F)c(F)c(F)c(F)c6F)c6ccc3[nH]6)C=C5)C=C4)cc2)n1
REMARK SMILES IDX 17 1 16 2 15 3 13 4 14 5 12 7 7 8 8 9 9 10 11 11 10 12 6 13
REMARK SMILES IDX 1 14 2 15 3 16 85 17 4 18 5 19 18 20 19 21 20 22 21 24 22 25
REMARK SMILES IDX 23 26 84 27 24 28 83 29 25 30 26 31 27 32 77 33 28 34 82 35
REMARK SMILES IDX 76 36 78 37 29 38 81 39 75 40 74 41 30 43 62 44 42 45 61 46
REMARK SMILES IDX 43 47 46 48 60 49 79 50 44 51 45 52 59 54 80 55 47 56 31 57
REMARK SMILES IDX 32 58 40 59 33 60 34 61 38 62 41 63 35 64 36 65 39 66 37 67
REMARK SMILES IDX 63 68 64 69 72 70 65 71 66 72 70 73 73 74 67 75 68 76 71 77
REMARK SMILES IDX 69 78 48 79 49 80 57 81 50 82 51 83 55 84 58 85 52 86 53 87
REMARK SMILES IDX 56 88 54 89
REMARK H PARENT 15 6 19 23 78 42 46 53
REMARK Flexibility Score: inf
ROOT
ATOM      1  C   UNL A   1      38.285  20.605  25.101  1.00  0.00     0.042 C 
ENDROOT
BRANCH   1   2
ATOM      2  C   UNL A   1      37.515  21.913  25.060  1.00  0.00     0.117 C 
BRANCH   2   3
ATOM      3  N   UNL A   1      36.509  22.007  26.097  1.00  0.00    -0.354 N 
ATOM      4  C   UNL A   1      35.160  21.826  26.001  1.00  0.00     0.242 C 
ATOM      5  O   UNL A   1      34.527  21.875  27.060  1.00  0.00    -0.273 OA
ATOM      6  H   UNL A   1      36.844  22.234  26.994  1.00  0.00     0.163 HD
BRANCH   4   7
ATOM      7  C   UNL A   1      34.490  21.583  24.626  1.00  0.00     0.174 C 
ATOM      8  N   UNL A   1      33.303  20.739  24.748  1.00  0.00    -0.329 N 
ATOM      9  C   UNL A   1      32.109  21.256  25.376  1.00  0.00     0.120 C 
ATOM     10  C   UNL A   1      31.676  22.544  24.688  1.00  0.00     0.022 C 
ATOM     11  C   UNL A   1      34.076  22.925  23.983  1.00  0.00     0.035 C 
ATOM     12  C   UNL A   1      32.821  23.550  24.603  1.00  0.00     0.004 C 
BRANCH   8  13
ATOM     13  C   UNL A   1      33.281  19.467  24.249  1.00  0.00     0.226 A 
ATOM     14  C   UNL A   1      34.852  16.245  25.001  1.00  0.00     0.067 C 
ATOM     15  C   UNL A   1      34.025  17.283  24.306  1.00  0.00     0.043 A 
ATOM     16  C   UNL A   1      33.269  16.953  23.204  1.00  0.00     0.044 A 
ATOM     17  N   UNL A   1      34.053  18.533  24.823  1.00  0.00    -0.218 NA
ATOM     18  C   UNL A   1      32.528  17.974  22.672  1.00  0.00     0.117 A 
ATOM     19  N   UNL A   1      32.509  19.217  23.184  1.00  0.00    -0.221 NA
ENDBRANCH   8  13
ENDBRANCH   4   7
ENDBRANCH   2   3
ENDBRANCH   1   2
BRANCH   1  20
ATOM     20  C   UNL A   1      39.337  20.538  26.196  1.00  0.00     0.118 C 
BRANCH  20  21
ATOM     21  N   UNL A   1      40.254  19.414  26.049  1.00  0.00    -0.352 N 
ATOM     22  C   UNL A   1      41.628  19.378  26.076  1.00  0.00     0.251 C 
ATOM     23  H   UNL A   1      39.821  18.541  25.908  1.00  0.00     0.163 HD
ATOM     24  O   UNL A   1      42.227  18.347  25.785  1.00  0.00    -0.269 OA
BRANCH  22  25
ATOM     25  C   UNL A   1      42.393  20.600  26.406  1.00  0.00     0.039 A 
ATOM     26  C   UNL A   1      42.941  21.354  25.366  1.00  0.00     0.014 A 
ATOM     27  C   UNL A   1      42.535  21.024  27.728  1.00  0.00     0.014 A 
ATOM     28  C   UNL A   1      43.522  22.593  25.642  1.00  0.00     0.010 A 
ATOM     29  C   UNL A   1      43.026  22.297  27.993  1.00  0.00     0.010 A 
ATOM     30  C   UNL A   1      43.508  23.103  26.950  1.00  0.00    -0.014 A 
BRANCH  30  31
ATOM     31  C   UNL A   1      43.943  24.491  27.251  1.00  0.00     0.031 A 
ATOM     32  C   UNL A   1      42.947  25.508  27.726  1.00  0.00     0.074 A 
ATOM     33  C   UNL A   1      45.215  24.857  26.995  1.00  0.00     0.049 A 
ATOM     34  N   UNL A   1      43.100  26.796  27.906  1.00  0.00    -0.248 NA
ATOM     35  C   UNL A   1      41.588  25.020  28.009  1.00  0.00     0.031 C 
ATOM     36  C   UNL A   1      46.264  23.973  26.481  1.00  0.00     0.029 A 
ATOM     37  N   UNL A   1      45.837  26.075  27.108  1.00  0.00    -0.354 N 
ATOM     38  C   UNL A   1      41.859  27.271  28.308  1.00  0.00     0.074 A 
ATOM     39  C   UNL A   1      40.950  26.145  28.297  1.00  0.00     0.031 C 
ATOM     40  C   UNL A   1      47.398  24.675  26.332  1.00  0.00     0.029 A 
ATOM     41  C   UNL A   1      47.148  26.065  26.696  1.00  0.00     0.049 A 
ATOM     42  H   UNL A   1      45.387  26.881  27.453  1.00  0.00     0.167 HD
ATOM     43  C   UNL A   1      41.517  28.528  28.676  1.00  0.00     0.037 A 
ATOM     44  C   UNL A   1      48.041  27.068  26.596  1.00  0.00     0.037 A 
ATOM     45  C   UNL A   1      42.429  29.641  28.706  1.00  0.00     0.049 A 
ATOM     46  C   UNL A   1      47.628  28.459  26.992  1.00  0.00     0.074 A 
ATOM     47  C   UNL A   1      42.193  30.938  29.126  1.00  0.00     0.029 A 
ATOM     48  N   UNL A   1      43.753  29.587  28.298  1.00  0.00    -0.354 N 
ATOM     49  N   UNL A   1      46.469  28.883  27.432  1.00  0.00    -0.248 NA
ATOM     50  C   UNL A   1      48.648  29.511  26.876  1.00  0.00     0.031 C 
ATOM     51  C   UNL A   1      43.362  31.680  28.930  1.00  0.00     0.029 A 
ATOM     52  C   UNL A   1      44.340  30.836  28.431  1.00  0.00     0.049 A 
ATOM     53  H   UNL A   1      44.209  28.780  27.964  1.00  0.00     0.167 HD
ATOM     54  C   UNL A   1      46.621  30.244  27.658  1.00  0.00     0.074 A 
ATOM     55  C   UNL A   1      47.993  30.571  27.329  1.00  0.00     0.031 C 
ATOM     56  C   UNL A   1      45.706  31.143  28.094  1.00  0.00     0.037 A 
BRANCH  43  57
ATOM     57  C   UNL A   1      40.093  28.767  29.085  1.00  0.00     0.064 A 
ATOM     58  C   UNL A   1      39.115  29.139  28.148  1.00  0.00     0.173 A 
ATOM     59  C   UNL A   1      39.691  28.580  30.415  1.00  0.00     0.173 A 
ATOM     60  F   UNL A   1      39.452  29.342  26.866  1.00  0.00    -0.203 F 
ATOM     61  C   UNL A   1      37.793  29.340  28.535  1.00  0.00     0.198 A 
ATOM     62  C   UNL A   1      38.362  28.754  30.792  1.00  0.00     0.198 A 
ATOM     63  F   UNL A   1      40.584  28.220  31.348  1.00  0.00    -0.203 F 
ATOM     64  F   UNL A   1      36.886  29.738  27.632  1.00  0.00    -0.200 F 
ATOM     65  C   UNL A   1      37.416  29.140  29.854  1.00  0.00     0.200 A 
ATOM     66  F   UNL A   1      37.996  28.550  32.065  1.00  0.00    -0.200 F 
ATOM     67  F   UNL A   1      36.141  29.324  30.222  1.00  0.00    -0.200 F 
ENDBRANCH  43  57
BRANCH  44  68
ATOM     68  C   UNL A   1      49.413  26.794  26.096  1.00  0.00     0.064 A 
ATOM     69  C   UNL A   1      49.739  26.984  24.746  1.00  0.00     0.173 A 
ATOM     70  C   UNL A   1      50.423  26.332  26.953  1.00  0.00     0.173 A 
ATOM     71  F   UNL A   1      48.800  27.403  23.884  1.00  0.00    -0.203 F 
ATOM     72  C   UNL A   1      51.017  26.703  24.268  1.00  0.00     0.198 A 
ATOM     73  C   UNL A   1      51.709  26.079  26.479  1.00  0.00     0.198 A 
ATOM     74  F   UNL A   1      50.164  26.139  28.255  1.00  0.00    -0.203 F 
ATOM     75  F   UNL A   1      51.289  26.849  22.964  1.00  0.00    -0.200 F 
ATOM     76  C   UNL A   1      52.002  26.256  25.136  1.00  0.00     0.200 A 
ATOM     77  F   UNL A   1      52.661  25.662  27.324  1.00  0.00    -0.200 F 
ATOM     78  F   UNL A   1      53.233  25.990  24.676  1.00  0.00    -0.200 F 
ENDBRANCH  44  68
BRANCH  56  79
ATOM     79  C   UNL A   1      46.161  32.564  28.247  1.00  0.00     0.064 A 
ATOM     80  C   UNL A   1      46.003  33.498  27.214  1.00  0.00     0.173 A 
ATOM     81  C   UNL A   1      46.724  33.005  29.454  1.00  0.00     0.173 A 
ATOM     82  F   UNL A   1      45.486  33.119  26.035  1.00  0.00    -0.203 F 
ATOM     83  C   UNL A   1      46.411  34.819  27.375  1.00  0.00     0.198 A 
ATOM     84  C   UNL A   1      47.106  34.334  29.622  1.00  0.00     0.198 A 
ATOM     85  F   UNL A   1      46.893  32.151  30.474  1.00  0.00    -0.203 F 
ATOM     86  F   UNL A   1      46.291  35.684  26.359  1.00  0.00    -0.200 F 
ATOM     87  C   UNL A   1      46.955  35.237  28.581  1.00  0.00     0.200 A 
ATOM     88  F   UNL A   1      47.620  34.739  30.791  1.00  0.00    -0.200 F 
ATOM     89  F   UNL A   1      47.340  36.512  28.737  1.00  0.00    -0.200 F 
ENDBRANCH  56  79
ENDBRANCH  30  31
ENDBRANCH  22  25
ENDBRANCH  20  21
ENDBRANCH   1  20
TORSDOF 11
ENDMDL
MODEL 3
REMARK VINA RESULT:     -12.8      6.710     11.990
REMARK SMILES Cc1ccnc(N2CCCC[C@H]2C(=O)NCCCNC(=O)c2ccc(-c3c4nc(c(-c5c(F)c(F)c(F)c(F)c5F)c5ccc([nH]5)c(-c5c(F)c(F)c(F)c(F)c5F)c5nc(c(-c6c(F)c(F)c(F)c(F)c6F)c6ccc3[nH]6)C=C5)C=C4)cc2)n1
REMARK SMILES IDX 17 1 16 2 15 3 13 4 14 5 12 7 7 8 8 9 9 10 11 11 10 12 6 13
REMARK SMILES IDX 1 14 2 15 3 16 85 17 4 18 5 19 18 20 19 21 20 22 21 24 22 25
REMARK SMILES IDX 23 26 84 27 24 28 83 29 25 30 26 31 27 32 77 33 28 34 82 35
REMARK SMILES IDX 76 36 78 37 29 38 81 39 75 40 74 41 30 43 62 44 42 45 61 46
REMARK SMILES IDX 43 47 46 48 60 49 79 50 44 51 45 52 59 54 80 55 47 56 31 57
REMARK SMILES IDX 32 58 40 59 33 60 34 61 38 62 41 63 35 64 36 65 39 66 37 67
REMARK SMILES IDX 63 68 64 69 72 70 65 71 66 72 70 73 73 74 67 75 68 76 71 77
REMARK SMILES IDX 69 78 48 79 49 80 57 81 50 82 51 83 55 84 58 85 52 86 53 87
REMARK SMILES IDX 56 88 54 89
REMARK H PARENT 15 6 19 23 78 42 46 53
REMARK Flexibility Score: inf
ROOT
ATOM      1  C   UNL A   1      31.843  31.606  26.741  1.00  0.00     0.042 C 
ENDROOT
BRANCH   1   2
ATOM      2  C   UNL A   1      32.040  30.108  26.883  1.00  0.00     0.117 C 
BRANCH   2   3
ATOM      3  N   UNL A   1      33.038  29.582  25.975  1.00  0.00    -0.354 N 
ATOM      4  C   UNL A   1      32.904  28.617  25.020  1.00  0.00     0.242 C 
ATOM      5  O   UNL A   1      33.893  28.411  24.311  1.00  0.00    -0.273 OA
ATOM      6  H   UNL A   1      33.937  29.974  26.059  1.00  0.00     0.163 HD
BRANCH   4   7
ATOM      7  C   UNL A   1      31.575  27.837  24.865  1.00  0.00     0.174 C 
ATOM      8  N   UNL A   1      30.985  28.037  23.543  1.00  0.00    -0.329 N 
ATOM      9  C   UNL A   1      31.608  27.452  22.377  1.00  0.00     0.120 C 
ATOM     10  C   UNL A   1      31.772  25.950  22.574  1.00  0.00     0.022 C 
ATOM     11  C   UNL A   1      31.810  26.324  25.076  1.00  0.00     0.035 C 
ATOM     12  C   UNL A   1      32.481  25.629  23.887  1.00  0.00     0.004 C 
BRANCH   8  13
ATOM     13  C   UNL A   1      29.828  28.744  23.380  1.00  0.00     0.226 A 
ATOM     14  C   UNL A   1      28.778  32.253  23.454  1.00  0.00     0.067 C 
ATOM     15  C   UNL A   1      28.703  30.760  23.359  1.00  0.00     0.043 A 
ATOM     16  C   UNL A   1      27.502  30.133  23.112  1.00  0.00     0.044 A 
ATOM     17  N   UNL A   1      29.861  30.079  23.512  1.00  0.00    -0.218 NA
ATOM     18  C   UNL A   1      27.560  28.769  23.012  1.00  0.00     0.117 A 
ATOM     19  N   UNL A   1      28.701  28.068  23.126  1.00  0.00    -0.221 NA
ENDBRANCH   8  13
ENDBRANCH   4   7
ENDBRANCH   2   3
ENDBRANCH   1   2
BRANCH   1  20
ATOM     20  C   UNL A   1      32.936  32.441  27.390  1.00  0.00     0.118 C 
BRANCH  20  21
ATOM     21  N   UNL A   1      32.545  33.825  27.623  1.00  0.00    -0.352 N 
ATOM     22  C   UNL A   1      33.040  34.753  28.510  1.00  0.00     0.251 C 
ATOM     23  H   UNL A   1      31.808  34.150  27.055  1.00  0.00     0.163 HD
ATOM     24  O   UNL A   1      32.475  35.832  28.658  1.00  0.00    -0.269 OA
BRANCH  22  25
ATOM     25  C   UNL A   1      34.228  34.431  29.329  1.00  0.00     0.039 A 
ATOM     26  C   UNL A   1      34.042  33.925  30.618  1.00  0.00     0.014 A 
ATOM     27  C   UNL A   1      35.517  34.585  28.818  1.00  0.00     0.014 A 
ATOM     28  C   UNL A   1      35.141  33.460  31.344  1.00  0.00     0.010 A 
ATOM     29  C   UNL A   1      36.598  34.037  29.499  1.00  0.00     0.010 A 
ATOM     30  C   UNL A   1      36.418  33.452  30.761  1.00  0.00    -0.014 A 
BRANCH  30  31
ATOM     31  C   UNL A   1      37.573  32.795  31.425  1.00  0.00     0.031 A 
ATOM     32  C   UNL A   1      38.240  31.613  30.784  1.00  0.00     0.074 A 
ATOM     33  C   UNL A   1      37.950  33.201  32.654  1.00  0.00     0.049 A 
ATOM     34  N   UNL A   1      39.165  30.822  31.267  1.00  0.00    -0.248 NA
ATOM     35  C   UNL A   1      37.788  31.253  29.431  1.00  0.00     0.031 C 
ATOM     36  C   UNL A   1      37.345  34.304  33.404  1.00  0.00     0.029 A 
ATOM     37  N   UNL A   1      38.917  32.718  33.500  1.00  0.00    -0.354 N 
ATOM     38  C   UNL A   1      39.393  29.867  30.286  1.00  0.00     0.074 A 
ATOM     39  C   UNL A   1      38.476  30.144  29.202  1.00  0.00     0.031 C 
ATOM     40  C   UNL A   1      37.960  34.419  34.592  1.00  0.00     0.029 A 
ATOM     41  C   UNL A   1      38.969  33.372  34.708  1.00  0.00     0.049 A 
ATOM     42  H   UNL A   1      39.518  31.975  33.264  1.00  0.00     0.167 HD
ATOM     43  C   UNL A   1      40.303  28.864  30.282  1.00  0.00     0.037 A 
ATOM     44  C   UNL A   1      39.726  33.138  35.796  1.00  0.00     0.037 A 
ATOM     45  C   UNL A   1      41.228  28.604  31.353  1.00  0.00     0.049 A 
ATOM     46  C   UNL A   1      40.714  32.004  35.773  1.00  0.00     0.074 A 
ATOM     47  C   UNL A   1      42.231  27.652  31.415  1.00  0.00     0.029 A 
ATOM     48  N   UNL A   1      41.261  29.299  32.552  1.00  0.00    -0.354 N 
ATOM     49  N   UNL A   1      40.965  31.148  34.814  1.00  0.00    -0.248 NA
ATOM     50  C   UNL A   1      41.523  31.805  36.984  1.00  0.00     0.031 C 
ATOM     51  C   UNL A   1      42.842  27.742  32.669  1.00  0.00     0.029 A 
ATOM     52  C   UNL A   1      42.251  28.779  33.372  1.00  0.00     0.049 A 
ATOM     53  H   UNL A   1      40.670  30.050  32.787  1.00  0.00     0.167 HD
ATOM     54  C   UNL A   1      41.967  30.317  35.296  1.00  0.00     0.074 A 
ATOM     55  C   UNL A   1      42.294  30.788  36.626  1.00  0.00     0.031 C 
ATOM     56  C   UNL A   1      42.559  29.257  34.695  1.00  0.00     0.037 A 
BRANCH  43  57
ATOM     57  C   UNL A   1      40.348  27.974  29.074  1.00  0.00     0.064 A 
ATOM     58  C   UNL A   1      39.619  26.776  29.020  1.00  0.00     0.173 A 
ATOM     59  C   UNL A   1      41.092  28.343  27.943  1.00  0.00     0.173 A 
ATOM     60  F   UNL A   1      38.902  26.374  30.079  1.00  0.00    -0.203 F 
ATOM     61  C   UNL A   1      39.654  25.967  27.887  1.00  0.00     0.198 A 
ATOM     62  C   UNL A   1      41.100  27.545  26.802  1.00  0.00     0.198 A 
ATOM     63  F   UNL A   1      41.803  29.479  27.942  1.00  0.00    -0.203 F 
ATOM     64  F   UNL A   1      38.984  24.806  27.875  1.00  0.00    -0.200 F 
ATOM     65  C   UNL A   1      40.387  26.356  26.777  1.00  0.00     0.200 A 
ATOM     66  F   UNL A   1      41.801  27.927  25.725  1.00  0.00    -0.200 F 
ATOM     67  F   UNL A   1      40.411  25.581  25.684  1.00  0.00    -0.200 F 
ENDBRANCH  43  57
BRANCH  44  68
ATOM     68  C   UNL A   1      39.576  33.992  37.003  1.00  0.00     0.064 A 
ATOM     69  C   UNL A   1      38.778  33.583  38.081  1.00  0.00     0.173 A 
ATOM     70  C   UNL A   1      40.218  35.235  37.103  1.00  0.00     0.173 A 
ATOM     71  F   UNL A   1      38.125  32.413  38.022  1.00  0.00    -0.203 F 
ATOM     72  C   UNL A   1      38.613  34.392  39.202  1.00  0.00     0.198 A 
ATOM     73  C   UNL A   1      40.076  36.031  38.237  1.00  0.00     0.198 A 
ATOM     74  F   UNL A   1      40.998  35.670  36.101  1.00  0.00    -0.203 F 
ATOM     75  F   UNL A   1      37.808  33.998  40.198  1.00  0.00    -0.200 F 
ATOM     76  C   UNL A   1      39.266  35.613  39.282  1.00  0.00     0.200 A 
ATOM     77  F   UNL A   1      40.722  37.202  38.316  1.00  0.00    -0.200 F 
ATOM     78  F   UNL A   1      39.111  36.390  40.364  1.00  0.00    -0.200 F 
ENDBRANCH  44  68
BRANCH  56  79
ATOM     79  C   UNL A   1      43.626  28.539  35.467  1.00  0.00     0.064 A 
ATOM     80  C   UNL A   1      43.313  27.502  36.356  1.00  0.00     0.173 A 
ATOM     81  C   UNL A   1      44.978  28.868  35.287  1.00  0.00     0.173 A 
ATOM     82  F   UNL A   1      42.033  27.164  36.575  1.00  0.00    -0.203 F 
ATOM     83  C   UNL A   1      44.314  26.829  37.052  1.00  0.00     0.198 A 
ATOM     84  C   UNL A   1      45.979  28.175  35.964  1.00  0.00     0.198 A 
ATOM     85  F   UNL A   1      45.330  29.850  34.445  1.00  0.00    -0.203 F 
ATOM     86  F   UNL A   1      43.989  25.870  37.929  1.00  0.00    -0.200 F 
ATOM     87  C   UNL A   1      45.646  27.161  36.849  1.00  0.00     0.200 A 
ATOM     88  F   UNL A   1      47.265  28.488  35.758  1.00  0.00    -0.200 F 
ATOM     89  F   UNL A   1      46.608  26.508  37.515  1.00  0.00    -0.200 F 
ENDBRANCH  56  79
ENDBRANCH  30  31
ENDBRANCH  22  25
ENDBRANCH  20  21
ENDBRANCH   1  20
TORSDOF 11
ENDMDL
