MODEL 1
REMARK VINA RESULT:     -14.2      0.000      0.000
REMARK SMILES O=C(NCCCNC(=O)[C@H]1CC=CC[C@H]1C(=O)Nc1ccc(S(=O)(=O)N2CCc3ccccc32)cc1)c1ccc(-c2c3nc(c(-c4c(F)c(F)c(F)c(F)c4F)c4ccc([nH]4)c(-c4c(F)c(F)c(F)c(F)c4F)c4nc(c(-c5c(F)c(F)c(F)c(F)c5F)c5ccc2[nH]5)C=C4)C=C3)cc1
REMARK SMILES IDX 6 1 5 2 4 3 3 4 1 5 2 6 37 8 38 9 99 10 39 11 98 12 40 13
REMARK SMILES IDX 41 14 42 15 92 16 43 17 97 18 91 19 93 20 44 21 96 22 90 23
REMARK SMILES IDX 89 24 45 26 77 27 57 28 76 29 58 30 61 31 75 32 94 33 59 34
REMARK SMILES IDX 60 35 74 37 95 38 62 39 46 40 47 41 55 42 48 43 49 44 53 45
REMARK SMILES IDX 56 46 50 47 51 48 54 49 52 50 78 51 79 52 87 53 80 54 81 55
REMARK SMILES IDX 85 56 88 57 82 58 83 59 86 60 84 61 63 62 64 63 72 64 65 65
REMARK SMILES IDX 66 66 70 67 73 68 67 69 68 70 71 71 69 72 7 73 8 74 9 76
REMARK SMILES IDX 10 77 11 78 15 79 12 80 14 81 13 82 16 83 17 84 18 85 19 87
REMARK SMILES IDX 20 88 36 89 21 90 35 91 22 92 23 93 24 94 25 95 26 96 27 97
REMARK SMILES IDX 34 98 28 99 29 100 33 101 30 102 32 103 31 104
REMARK H PARENT 3 7 93 25 61 36 7 75 18 86
REMARK Flexibility Score: inf
ROOT
ATOM      1  C   UNL A   1      31.882  30.936  26.570  1.00  0.00     0.117 C 
ENDROOT
BRANCH   1   2
ATOM      2  C   UNL A   1      31.331  32.316  26.879  1.00  0.00     0.042 C 
BRANCH   2   3
ATOM      3  C   UNL A   1      32.442  33.357  26.870  1.00  0.00     0.118 C 
BRANCH   3   4
ATOM      4  N   UNL A   1      32.472  34.259  28.023  1.00  0.00    -0.352 N 
ATOM      5  O   UNL A   1      33.375  35.221  29.869  1.00  0.00    -0.269 OA
ATOM      6  C   UNL A   1      33.488  34.424  28.946  1.00  0.00     0.251 C 
ATOM      7  H   UNL A   1      31.671  34.816  28.157  1.00  0.00     0.163 HD
BRANCH   6   8
ATOM      8  C   UNL A   1      34.656  33.517  28.859  1.00  0.00     0.039 A 
ATOM      9  C   UNL A   1      34.535  32.201  29.290  1.00  0.00     0.014 A 
ATOM     10  C   UNL A   1      35.914  34.064  28.601  1.00  0.00     0.014 A 
ATOM     11  C   UNL A   1      35.658  31.566  29.797  1.00  0.00     0.010 A 
ATOM     12  C   UNL A   1      37.059  33.348  28.964  1.00  0.00     0.010 A 
ATOM     13  C   UNL A   1      36.933  32.145  29.675  1.00  0.00    -0.014 A 
BRANCH  13  14
ATOM     14  C   UNL A   1      38.087  31.511  30.373  1.00  0.00     0.031 A 
ATOM     15  C   UNL A   1      38.341  31.760  31.843  1.00  0.00     0.074 A 
ATOM     16  C   UNL A   1      38.853  30.624  29.708  1.00  0.00     0.049 A 
ATOM     17  N   UNL A   1      39.296  31.290  32.609  1.00  0.00    -0.248 NA
ATOM     18  C   UNL A   1      37.415  32.662  32.547  1.00  0.00     0.031 C 
ATOM     19  C   UNL A   1      38.702  30.279  28.294  1.00  0.00     0.029 A 
ATOM     20  N   UNL A   1      39.873  29.814  30.139  1.00  0.00    -0.354 N 
ATOM     21  C   UNL A   1      39.122  31.886  33.854  1.00  0.00     0.074 A 
ATOM     22  C   UNL A   1      37.971  32.754  33.747  1.00  0.00     0.031 C 
ATOM     23  C   UNL A   1      39.525  29.267  27.996  1.00  0.00     0.029 A 
ATOM     24  C   UNL A   1      40.331  28.954  29.171  1.00  0.00     0.049 A 
ATOM     25  H   UNL A   1      40.239  29.845  31.052  1.00  0.00     0.167 HD
ATOM     26  C   UNL A   1      39.856  31.724  34.982  1.00  0.00     0.037 A 
ATOM     27  C   UNL A   1      41.305  28.027  29.213  1.00  0.00     0.037 A 
ATOM     28  C   UNL A   1      40.954  30.800  35.109  1.00  0.00     0.049 A 
ATOM     29  C   UNL A   1      42.078  27.841  30.484  1.00  0.00     0.074 A 
ATOM     30  C   UNL A   1      41.739  30.537  36.219  1.00  0.00     0.029 A 
ATOM     31  N   UNL A   1      41.411  29.974  34.093  1.00  0.00    -0.354 N 
ATOM     32  N   UNL A   1      41.923  28.441  31.639  1.00  0.00    -0.248 NA
ATOM     33  C   UNL A   1      43.173  26.865  30.452  1.00  0.00     0.031 C 
ATOM     34  C   UNL A   1      42.689  29.572  35.865  1.00  0.00     0.029 A 
ATOM     35  C   UNL A   1      42.471  29.206  34.548  1.00  0.00     0.049 A 
ATOM     36  H   UNL A   1      41.035  29.937  33.183  1.00  0.00     0.167 HD
ATOM     37  C   UNL A   1      42.897  27.914  32.473  1.00  0.00     0.074 A 
ATOM     38  C   UNL A   1      43.619  26.924  31.699  1.00  0.00     0.031 C 
ATOM     39  C   UNL A   1      43.176  28.228  33.761  1.00  0.00     0.037 A 
BRANCH  26  40
ATOM     40  C   UNL A   1      39.521  32.580  36.170  1.00  0.00     0.064 A 
ATOM     41  C   UNL A   1      40.119  33.831  36.382  1.00  0.00     0.173 A 
ATOM     42  C   UNL A   1      38.540  32.161  37.084  1.00  0.00     0.173 A 
ATOM     43  F   UNL A   1      41.070  34.275  35.547  1.00  0.00    -0.203 F 
ATOM     44  C   UNL A   1      39.760  34.622  37.473  1.00  0.00     0.198 A 
ATOM     45  C   UNL A   1      38.166  32.964  38.158  1.00  0.00     0.198 A 
ATOM     46  F   UNL A   1      37.932  30.975  36.925  1.00  0.00    -0.203 F 
ATOM     47  F   UNL A   1      40.369  35.798  37.675  1.00  0.00    -0.200 F 
ATOM     48  C   UNL A   1      38.779  34.192  38.355  1.00  0.00     0.200 A 
ATOM     49  F   UNL A   1      37.208  32.551  39.001  1.00  0.00    -0.200 F 
ATOM     50  F   UNL A   1      38.428  34.958  39.397  1.00  0.00    -0.200 F 
ENDBRANCH  26  40
BRANCH  27  51
ATOM     51  C   UNL A   1      41.596  27.218  28.003  1.00  0.00     0.064 A 
ATOM     52  C   UNL A   1      42.485  27.681  27.024  1.00  0.00     0.173 A 
ATOM     53  C   UNL A   1      41.027  25.949  27.823  1.00  0.00     0.173 A 
ATOM     54  F   UNL A   1      43.037  28.897  27.143  1.00  0.00    -0.203 F 
ATOM     55  C   UNL A   1      42.791  26.905  25.909  1.00  0.00     0.198 A 
ATOM     56  C   UNL A   1      41.359  25.161  26.723  1.00  0.00     0.198 A 
ATOM     57  F   UNL A   1      40.174  25.459  28.735  1.00  0.00    -0.203 F 
ATOM     58  F   UNL A   1      43.622  27.383  24.972  1.00  0.00    -0.200 F 
ATOM     59  C   UNL A   1      42.238  25.641  25.765  1.00  0.00     0.200 A 
ATOM     60  F   UNL A   1      40.836  23.933  26.601  1.00  0.00    -0.200 F 
ATOM     61  F   UNL A   1      42.549  24.888  24.702  1.00  0.00    -0.200 F 
ENDBRANCH  27  51
BRANCH  39  62
ATOM     62  C   UNL A   1      44.295  27.475  34.412  1.00  0.00     0.064 A 
ATOM     63  C   UNL A   1      44.094  26.204  34.968  1.00  0.00     0.173 A 
ATOM     64  C   UNL A   1      45.583  28.028  34.472  1.00  0.00     0.173 A 
ATOM     65  F   UNL A   1      42.876  25.644  34.949  1.00  0.00    -0.203 F 
ATOM     66  C   UNL A   1      45.137  25.525  35.591  1.00  0.00     0.198 A 
ATOM     67  C   UNL A   1      46.629  27.335  35.074  1.00  0.00     0.198 A 
ATOM     68  F   UNL A   1      45.824  29.239  33.949  1.00  0.00    -0.203 F 
ATOM     69  F   UNL A   1      44.913  24.334  36.162  1.00  0.00    -0.200 F 
ATOM     70  C   UNL A   1      46.404  26.089  35.640  1.00  0.00     0.200 A 
ATOM     71  F   UNL A   1      47.854  27.878  35.115  1.00  0.00    -0.200 F 
ATOM     72  F   UNL A   1      47.407  25.436  36.244  1.00  0.00    -0.200 F 
ENDBRANCH  39  62
ENDBRANCH  13  14
ENDBRANCH   6   8
ENDBRANCH   3   4
ENDBRANCH   2   3
ENDBRANCH   1   2
BRANCH   1  73
ATOM     73  N   UNL A   1      31.354  30.289  25.394  1.00  0.00    -0.356 N 
ATOM     74  C   UNL A   1      31.818  29.179  24.767  1.00  0.00     0.224 C 
ATOM     75  H   UNL A   1      30.556  30.707  24.994  1.00  0.00     0.163 HD
ATOM     76  O   UNL A   1      30.964  28.334  24.458  1.00  0.00    -0.275 OA
BRANCH  74  77
ATOM     77  C   UNL A   1      33.273  28.928  24.345  1.00  0.00     0.095 C 
ATOM     78  C   UNL A   1      34.096  29.085  25.658  1.00  0.00     0.041 C 
ATOM     79  C   UNL A   1      33.744  27.659  23.640  1.00  0.00     0.095 C 
ATOM     80  C   UNL A   1      33.956  27.885  26.541  1.00  0.00    -0.030 C 
ATOM     81  C   UNL A   1      33.538  26.417  24.556  1.00  0.00     0.041 C 
ATOM     82  C   UNL A   1      33.673  26.677  26.034  1.00  0.00    -0.030 C 
BRANCH  79  83
ATOM     83  C   UNL A   1      33.526  27.310  22.143  1.00  0.00     0.228 C 
ATOM     84  O   UNL A   1      34.170  27.979  21.311  1.00  0.00    -0.274 OA
ATOM     85  N   UNL A   1      32.681  26.406  21.553  1.00  0.00    -0.326 N 
ATOM     86  H   UNL A   1      32.294  26.698  20.696  1.00  0.00     0.169 HD
BRANCH  85  87
ATOM     87  C   UNL A   1      32.278  25.125  21.977  1.00  0.00     0.041 A 
ATOM     88  C   UNL A   1      33.065  24.040  21.576  1.00  0.00     0.027 A 
ATOM     89  C   UNL A   1      31.241  24.901  22.865  1.00  0.00     0.027 A 
ATOM     90  C   UNL A   1      33.040  22.857  22.320  1.00  0.00     0.024 A 
ATOM     91  C   UNL A   1      31.249  23.751  23.664  1.00  0.00     0.024 A 
ATOM     92  C   UNL A   1      32.216  22.771  23.452  1.00  0.00     0.088 A 
BRANCH  92  93
ATOM     93  S   UNL A   1      32.752  21.690  24.787  1.00  0.00     0.264 S 
ATOM     94  O   UNL A   1      32.756  22.528  25.972  1.00  0.00    -0.201 OA
ATOM     95  O   UNL A   1      31.888  20.527  24.750  1.00  0.00    -0.201 OA
BRANCH  93  96
ATOM     96  N   UNL A   1      34.343  21.207  24.446  1.00  0.00    -0.266 N 
ATOM     97  C   UNL A   1      34.739  19.807  24.830  1.00  0.00     0.140 C 
ATOM     98  C   UNL A   1      35.397  22.038  24.985  1.00  0.00     0.055 A 
ATOM     99  C   UNL A   1      36.270  19.826  24.971  1.00  0.00     0.060 C 
ATOM    100  C   UNL A   1      36.527  21.267  25.259  1.00  0.00    -0.022 A 
ATOM    101  C   UNL A   1      35.443  23.415  25.124  1.00  0.00     0.027 A 
ATOM    102  C   UNL A   1      37.716  21.845  25.683  1.00  0.00     0.006 A 
ATOM    103  C   UNL A   1      36.623  24.008  25.584  1.00  0.00     0.002 A 
ATOM    104  C   UNL A   1      37.755  23.229  25.854  1.00  0.00     0.000 A 
ENDBRANCH  93  96
ENDBRANCH  92  93
ENDBRANCH  85  87
ENDBRANCH  79  83
ENDBRANCH  74  77
ENDBRANCH   1  73
TORSDOF 14
ENDMDL
MODEL 2
REMARK VINA RESULT:     -14.2      0.280      6.855
REMARK SMILES O=C(NCCCNC(=O)[C@H]1CC=CC[C@H]1C(=O)Nc1ccc(S(=O)(=O)N2CCc3ccccc32)cc1)c1ccc(-c2c3nc(c(-c4c(F)c(F)c(F)c(F)c4F)c4ccc([nH]4)c(-c4c(F)c(F)c(F)c(F)c4F)c4nc(c(-c5c(F)c(F)c(F)c(F)c5F)c5ccc2[nH]5)C=C4)C=C3)cc1
REMARK SMILES IDX 6 1 5 2 4 3 3 4 1 5 2 6 37 8 38 9 99 10 39 11 98 12 40 13
REMARK SMILES IDX 41 14 42 15 92 16 43 17 97 18 91 19 93 20 44 21 96 22 90 23
REMARK SMILES IDX 89 24 45 26 77 27 57 28 76 29 58 30 61 31 75 32 94 33 59 34
REMARK SMILES IDX 60 35 74 37 95 38 62 39 46 40 47 41 55 42 48 43 49 44 53 45
REMARK SMILES IDX 56 46 50 47 51 48 54 49 52 50 78 51 79 52 87 53 80 54 81 55
REMARK SMILES IDX 85 56 88 57 82 58 83 59 86 60 84 61 63 62 64 63 72 64 65 65
REMARK SMILES IDX 66 66 70 67 73 68 67 69 68 70 71 71 69 72 7 73 8 74 9 76
REMARK SMILES IDX 10 77 11 78 15 79 12 80 14 81 13 82 16 83 17 84 18 85 19 87
REMARK SMILES IDX 20 88 36 89 21 90 35 91 22 92 23 93 24 94 25 95 26 96 27 97
REMARK SMILES IDX 34 98 28 99 29 100 33 101 30 102 32 103 31 104
REMARK H PARENT 3 7 93 25 61 36 7 75 18 86
REMARK Flexibility Score: inf
ROOT
ATOM      1  C   UNL A   1      31.695  30.888  26.584  1.00  0.00     0.117 C 
ENDROOT
BRANCH   1   2
ATOM      2  C   UNL A   1      31.284  32.344  26.707  1.00  0.00     0.042 C 
BRANCH   2   3
ATOM      3  C   UNL A   1      32.506  33.248  26.774  1.00  0.00     0.118 C 
BRANCH   3   4
ATOM      4  N   UNL A   1      32.529  34.196  27.890  1.00  0.00    -0.352 N 
ATOM      5  O   UNL A   1      33.418  35.227  29.707  1.00  0.00    -0.269 OA
ATOM      6  C   UNL A   1      33.536  34.392  28.818  1.00  0.00     0.251 C 
ATOM      7  H   UNL A   1      31.731  34.764  27.992  1.00  0.00     0.163 HD
BRANCH   6   8
ATOM      8  C   UNL A   1      34.697  33.473  28.782  1.00  0.00     0.039 A 
ATOM      9  C   UNL A   1      34.520  32.130  29.093  1.00  0.00     0.014 A 
ATOM     10  C   UNL A   1      35.981  34.016  28.701  1.00  0.00     0.014 A 
ATOM     11  C   UNL A   1      35.576  31.439  29.663  1.00  0.00     0.010 A 
ATOM     12  C   UNL A   1      37.074  33.254  29.123  1.00  0.00     0.010 A 
ATOM     13  C   UNL A   1      36.863  32.002  29.720  1.00  0.00    -0.014 A 
BRANCH  13  14
ATOM     14  C   UNL A   1      37.931  31.296  30.483  1.00  0.00     0.031 A 
ATOM     15  C   UNL A   1      38.887  30.350  29.792  1.00  0.00     0.074 A 
ATOM     16  C   UNL A   1      38.111  31.587  31.787  1.00  0.00     0.049 A 
ATOM     17  N   UNL A   1      39.875  29.654  30.301  1.00  0.00    -0.248 NA
ATOM     18  C   UNL A   1      38.708  30.144  28.346  1.00  0.00     0.031 C 
ATOM     19  C   UNL A   1      37.271  32.497  32.567  1.00  0.00     0.029 A 
ATOM     20  N   UNL A   1      39.081  31.192  32.672  1.00  0.00    -0.354 N 
ATOM     21  C   UNL A   1      40.385  28.887  29.258  1.00  0.00     0.074 A 
ATOM     22  C   UNL A   1      39.601  29.199  28.085  1.00  0.00     0.031 C 
ATOM     23  C   UNL A   1      37.812  32.666  33.780  1.00  0.00     0.029 A 
ATOM     24  C   UNL A   1      38.983  31.804  33.897  1.00  0.00     0.049 A 
ATOM     25  H   UNL A   1      39.780  30.536  32.450  1.00  0.00     0.167 HD
ATOM     26  C   UNL A   1      41.414  28.004  29.279  1.00  0.00     0.037 A 
ATOM     27  C   UNL A   1      39.738  31.675  35.003  1.00  0.00     0.037 A 
ATOM     28  C   UNL A   1      42.243  27.753  30.430  1.00  0.00     0.049 A 
ATOM     29  C   UNL A   1      40.892  30.718  34.989  1.00  0.00     0.074 A 
ATOM     30  C   UNL A   1      43.330  26.903  30.543  1.00  0.00     0.029 A 
ATOM     31  N   UNL A   1      42.086  28.367  31.664  1.00  0.00    -0.354 N 
ATOM     32  N   UNL A   1      41.336  29.975  34.006  1.00  0.00    -0.248 NA
ATOM     33  C   UNL A   1      41.638  30.568  36.244  1.00  0.00     0.031 C 
ATOM     34  C   UNL A   1      43.813  26.981  31.855  1.00  0.00     0.029 A 
ATOM     35  C   UNL A   1      43.052  27.909  32.546  1.00  0.00     0.049 A 
ATOM     36  H   UNL A   1      41.393  29.032  31.880  1.00  0.00     0.167 HD
ATOM     37  C   UNL A   1      42.414  29.271  34.519  1.00  0.00     0.074 A 
ATOM     38  C   UNL A   1      42.575  29.699  35.895  1.00  0.00     0.031 C 
ATOM     39  C   UNL A   1      43.194  28.346  33.911  1.00  0.00     0.037 A 
BRANCH  26  40
ATOM     40  C   UNL A   1      41.692  27.216  28.031  1.00  0.00     0.064 A 
ATOM     41  C   UNL A   1      42.582  27.666  27.046  1.00  0.00     0.173 A 
ATOM     42  C   UNL A   1      41.094  25.959  27.847  1.00  0.00     0.173 A 
ATOM     43  F   UNL A   1      43.172  28.865  27.165  1.00  0.00    -0.203 F 
ATOM     44  C   UNL A   1      42.851  26.895  25.916  1.00  0.00     0.198 A 
ATOM     45  C   UNL A   1      41.383  25.180  26.730  1.00  0.00     0.198 A 
ATOM     46  F   UNL A   1      40.239  25.477  28.763  1.00  0.00    -0.203 F 
ATOM     47  F   UNL A   1      43.679  27.360  24.970  1.00  0.00    -0.200 F 
ATOM     48  C   UNL A   1      42.258  25.650  25.762  1.00  0.00     0.200 A 
ATOM     49  F   UNL A   1      40.820  23.971  26.592  1.00  0.00    -0.200 F 
ATOM     50  F   UNL A   1      42.526  24.906  24.680  1.00  0.00    -0.200 F 
ENDBRANCH  26  40
BRANCH  27  51
ATOM     51  C   UNL A   1      39.407  32.473  36.211  1.00  0.00     0.064 A 
ATOM     52  C   UNL A   1      40.004  33.722  36.434  1.00  0.00     0.173 A 
ATOM     53  C   UNL A   1      38.458  32.026  37.141  1.00  0.00     0.173 A 
ATOM     54  F   UNL A   1      40.933  34.181  35.583  1.00  0.00    -0.203 F 
ATOM     55  C   UNL A   1      39.664  34.490  37.545  1.00  0.00     0.198 A 
ATOM     56  C   UNL A   1      38.096  32.810  38.234  1.00  0.00     0.198 A 
ATOM     57  F   UNL A   1      37.855  30.840  36.968  1.00  0.00    -0.203 F 
ATOM     58  F   UNL A   1      40.270  35.668  37.751  1.00  0.00    -0.200 F 
ATOM     59  C   UNL A   1      38.702  34.040  38.437  1.00  0.00     0.200 A 
ATOM     60  F   UNL A   1      37.152  32.378  39.081  1.00  0.00    -0.200 F 
ATOM     61  F   UNL A   1      38.362  34.789  39.493  1.00  0.00    -0.200 F 
ENDBRANCH  27  51
BRANCH  39  62
ATOM     62  C   UNL A   1      44.302  27.755  34.727  1.00  0.00     0.064 A 
ATOM     63  C   UNL A   1      44.110  26.591  35.484  1.00  0.00     0.173 A 
ATOM     64  C   UNL A   1      45.569  28.356  34.747  1.00  0.00     0.173 A 
ATOM     65  F   UNL A   1      42.910  25.992  35.510  1.00  0.00    -0.203 F 
ATOM     66  C   UNL A   1      45.141  26.065  36.258  1.00  0.00     0.198 A 
ATOM     67  C   UNL A   1      46.604  27.814  35.502  1.00  0.00     0.198 A 
ATOM     68  F   UNL A   1      45.801  29.469  34.035  1.00  0.00    -0.203 F 
ATOM     69  F   UNL A   1      44.923  24.982  37.015  1.00  0.00    -0.200 F 
ATOM     70  C   UNL A   1      46.388  26.675  36.263  1.00  0.00     0.200 A 
ATOM     71  F   UNL A   1      47.810  28.400  35.501  1.00  0.00    -0.200 F 
ATOM     72  F   UNL A   1      47.378  26.171  37.013  1.00  0.00    -0.200 F 
ENDBRANCH  39  62
ENDBRANCH  13  14
ENDBRANCH   6   8
ENDBRANCH   3   4
ENDBRANCH   2   3
ENDBRANCH   1   2
BRANCH   1  73
ATOM     73  N   UNL A   1      31.204  30.184  25.424  1.00  0.00    -0.356 N 
ATOM     74  C   UNL A   1      31.743  29.101  24.810  1.00  0.00     0.224 C 
ATOM     75  H   UNL A   1      30.374  30.534  25.028  1.00  0.00     0.163 HD
ATOM     76  O   UNL A   1      30.951  28.190  24.525  1.00  0.00    -0.275 OA
BRANCH  74  77
ATOM     77  C   UNL A   1      33.208  28.951  24.376  1.00  0.00     0.095 C 
ATOM     78  C   UNL A   1      34.030  29.154  25.684  1.00  0.00     0.041 C 
ATOM     79  C   UNL A   1      33.758  27.722  23.658  1.00  0.00     0.095 C 
ATOM     80  C   UNL A   1      33.978  27.941  26.558  1.00  0.00    -0.030 C 
ATOM     81  C   UNL A   1      33.644  26.462  24.566  1.00  0.00     0.041 C 
ATOM     82  C   UNL A   1      33.772  26.721  26.045  1.00  0.00    -0.030 C 
BRANCH  79  83
ATOM     83  C   UNL A   1      33.552  27.370  22.159  1.00  0.00     0.228 C 
ATOM     84  O   UNL A   1      34.210  28.030  21.332  1.00  0.00    -0.274 OA
ATOM     85  N   UNL A   1      32.705  26.470  21.565  1.00  0.00    -0.326 N 
ATOM     86  H   UNL A   1      32.330  26.763  20.703  1.00  0.00     0.169 HD
BRANCH  85  87
ATOM     87  C   UNL A   1      32.287  25.195  21.989  1.00  0.00     0.041 A 
ATOM     88  C   UNL A   1      33.063  24.101  21.592  1.00  0.00     0.027 A 
ATOM     89  C   UNL A   1      31.246  24.984  22.874  1.00  0.00     0.027 A 
ATOM     90  C   UNL A   1      33.023  22.919  22.336  1.00  0.00     0.024 A 
ATOM     91  C   UNL A   1      31.238  23.835  23.675  1.00  0.00     0.024 A 
ATOM     92  C   UNL A   1      32.195  22.843  23.466  1.00  0.00     0.088 A 
BRANCH  92  93
ATOM     93  S   UNL A   1      32.715  21.758  24.804  1.00  0.00     0.264 S 
ATOM     94  O   UNL A   1      32.757  22.605  25.982  1.00  0.00    -0.201 OA
ATOM     95  O   UNL A   1      31.818  20.620  24.787  1.00  0.00    -0.201 OA
BRANCH  93  96
ATOM     96  N   UNL A   1      34.287  21.226  24.449  1.00  0.00    -0.266 N 
ATOM     97  C   UNL A   1      34.645  19.816  24.834  1.00  0.00     0.140 C 
ATOM     98  C   UNL A   1      35.371  22.027  24.974  1.00  0.00     0.055 A 
ATOM     99  C   UNL A   1      36.178  19.790  24.959  1.00  0.00     0.060 C 
ATOM    100  C   UNL A   1      36.481  21.223  25.240  1.00  0.00    -0.022 A 
ATOM    101  C   UNL A   1      35.460  23.403  25.107  1.00  0.00     0.027 A 
ATOM    102  C   UNL A   1      37.691  21.767  25.649  1.00  0.00     0.006 A 
ATOM    103  C   UNL A   1      36.662  23.962  25.554  1.00  0.00     0.002 A 
ATOM    104  C   UNL A   1      37.773  23.150  25.815  1.00  0.00     0.000 A 
ENDBRANCH  93  96
ENDBRANCH  92  93
ENDBRANCH  85  87
ENDBRANCH  79  83
ENDBRANCH  74  77
ENDBRANCH   1  73
TORSDOF 14
ENDMDL
MODEL 3
REMARK VINA RESULT:     -13.7      4.629      9.874
REMARK SMILES O=C(NCCCNC(=O)[C@H]1CC=CC[C@H]1C(=O)Nc1ccc(S(=O)(=O)N2CCc3ccccc32)cc1)c1ccc(-c2c3nc(c(-c4c(F)c(F)c(F)c(F)c4F)c4ccc([nH]4)c(-c4c(F)c(F)c(F)c(F)c4F)c4nc(c(-c5c(F)c(F)c(F)c(F)c5F)c5ccc2[nH]5)C=C4)C=C3)cc1
REMARK SMILES IDX 6 1 5 2 4 3 3 4 1 5 2 6 37 8 38 9 99 10 39 11 98 12 40 13
REMARK SMILES IDX 41 14 42 15 92 16 43 17 97 18 91 19 93 20 44 21 96 22 90 23
REMARK SMILES IDX 89 24 45 26 77 27 57 28 76 29 58 30 61 31 75 32 94 33 59 34
REMARK SMILES IDX 60 35 74 37 95 38 62 39 46 40 47 41 55 42 48 43 49 44 53 45
REMARK SMILES IDX 56 46 50 47 51 48 54 49 52 50 78 51 79 52 87 53 80 54 81 55
REMARK SMILES IDX 85 56 88 57 82 58 83 59 86 60 84 61 63 62 64 63 72 64 65 65
REMARK SMILES IDX 66 66 70 67 73 68 67 69 68 70 71 71 69 72 7 73 8 74 9 76
REMARK SMILES IDX 10 77 11 78 15 79 12 80 14 81 13 82 16 83 17 84 18 85 19 87
REMARK SMILES IDX 20 88 36 89 21 90 35 91 22 92 23 93 24 94 25 95 26 96 27 97
REMARK SMILES IDX 34 98 28 99 29 100 33 101 30 102 32 103 31 104
REMARK H PARENT 3 7 93 25 61 36 7 75 18 86
REMARK Flexibility Score: inf
ROOT
ATOM      1  C   UNL A   1      37.143  23.535  25.992  1.00  0.00     0.117 C 
ENDROOT
BRANCH   1   2
ATOM      2  C   UNL A   1      37.792  22.314  25.367  1.00  0.00     0.042 C 
BRANCH   2   3
ATOM      3  C   UNL A   1      39.045  21.913  26.132  1.00  0.00     0.118 C 
BRANCH   3   4
ATOM      4  N   UNL A   1      39.514  20.546  25.904  1.00  0.00    -0.352 N 
ATOM      5  O   UNL A   1      41.039  18.864  25.866  1.00  0.00    -0.269 OA
ATOM      6  C   UNL A   1      40.786  20.039  26.103  1.00  0.00     0.251 C 
ATOM      7  H   UNL A   1      38.843  19.908  25.567  1.00  0.00     0.163 HD
BRANCH   6   8
ATOM      8  C   UNL A   1      41.856  20.989  26.485  1.00  0.00     0.039 A 
ATOM      9  C   UNL A   1      42.174  21.161  27.827  1.00  0.00     0.014 A 
ATOM     10  C   UNL A   1      42.336  21.881  25.525  1.00  0.00     0.014 A 
ATOM     11  C   UNL A   1      42.655  22.393  28.240  1.00  0.00     0.010 A 
ATOM     12  C   UNL A   1      42.973  23.055  25.939  1.00  0.00     0.010 A 
ATOM     13  C   UNL A   1      43.028  23.374  27.304  1.00  0.00    -0.014 A 
BRANCH  13  14
ATOM     14  C   UNL A   1      43.385  24.739  27.787  1.00  0.00     0.031 A 
ATOM     15  C   UNL A   1      44.820  25.214  27.786  1.00  0.00     0.074 A 
ATOM     16  C   UNL A   1      42.401  25.594  28.129  1.00  0.00     0.049 A 
ATOM     17  N   UNL A   1      45.309  26.370  28.169  1.00  0.00    -0.248 NA
ATOM     18  C   UNL A   1      45.846  24.273  27.309  1.00  0.00     0.031 C 
ATOM     19  C   UNL A   1      40.975  25.266  28.154  1.00  0.00     0.029 A 
ATOM     20  N   UNL A   1      42.442  26.921  28.472  1.00  0.00    -0.354 N 
ATOM     21  C   UNL A   1      46.691  26.267  28.040  1.00  0.00     0.074 A 
ATOM     22  C   UNL A   1      46.969  24.939  27.544  1.00  0.00     0.031 C 
ATOM     23  C   UNL A   1      40.271  26.379  28.398  1.00  0.00     0.029 A 
ATOM     24  C   UNL A   1      41.198  27.478  28.642  1.00  0.00     0.049 A 
ATOM     25  H   UNL A   1      43.280  27.425  28.583  1.00  0.00     0.167 HD
ATOM     26  C   UNL A   1      47.639  27.197  28.311  1.00  0.00     0.037 A 
ATOM     27  C   UNL A   1      40.838  28.730  28.976  1.00  0.00     0.037 A 
ATOM     28  C   UNL A   1      47.356  28.546  28.731  1.00  0.00     0.049 A 
ATOM     29  C   UNL A   1      41.906  29.750  29.235  1.00  0.00     0.074 A 
ATOM     30  C   UNL A   1      48.244  29.573  28.998  1.00  0.00     0.029 A 
ATOM     31  N   UNL A   1      46.082  29.059  28.928  1.00  0.00    -0.354 N 
ATOM     32  N   UNL A   1      43.207  29.624  29.144  1.00  0.00    -0.248 NA
ATOM     33  C   UNL A   1      41.456  31.080  29.663  1.00  0.00     0.031 C 
ATOM     34  C   UNL A   1      47.509  30.700  29.384  1.00  0.00     0.029 A 
ATOM     35  C   UNL A   1      46.162  30.386  29.320  1.00  0.00     0.049 A 
ATOM     36  H   UNL A   1      45.245  28.556  28.805  1.00  0.00     0.167 HD
ATOM     37  C   UNL A   1      43.732  30.857  29.498  1.00  0.00     0.074 A 
ATOM     38  C   UNL A   1      42.607  31.726  29.779  1.00  0.00     0.031 C 
ATOM     39  C   UNL A   1      45.030  31.233  29.594  1.00  0.00     0.037 A 
BRANCH  26  40
ATOM     40  C   UNL A   1      49.080  26.790  28.192  1.00  0.00     0.064 A 
ATOM     41  C   UNL A   1      49.778  26.859  26.978  1.00  0.00     0.173 A 
ATOM     42  C   UNL A   1      49.788  26.375  29.331  1.00  0.00     0.173 A 
ATOM     43  F   UNL A   1      49.147  27.238  25.856  1.00  0.00    -0.203 F 
ATOM     44  C   UNL A   1      51.127  26.512  26.906  1.00  0.00     0.198 A 
ATOM     45  C   UNL A   1      51.141  26.052  29.261  1.00  0.00     0.198 A 
ATOM     46  F   UNL A   1      49.170  26.297  30.520  1.00  0.00    -0.203 F 
ATOM     47  F   UNL A   1      51.766  26.552  25.728  1.00  0.00    -0.200 F 
ATOM     48  C   UNL A   1      51.809  26.116  28.048  1.00  0.00     0.200 A 
ATOM     49  F   UNL A   1      51.800  25.684  30.369  1.00  0.00    -0.200 F 
ATOM     50  F   UNL A   1      53.107  25.793  27.977  1.00  0.00    -0.200 F 
ENDBRANCH  26  40
BRANCH  27  51
ATOM     51  C   UNL A   1      39.397  29.070  29.088  1.00  0.00     0.064 A 
ATOM     52  C   UNL A   1      38.655  29.442  27.959  1.00  0.00     0.173 A 
ATOM     53  C   UNL A   1      38.724  28.989  30.316  1.00  0.00     0.173 A 
ATOM     54  F   UNL A   1      39.260  29.554  26.768  1.00  0.00    -0.203 F 
ATOM     55  C   UNL A   1      37.294  29.721  28.056  1.00  0.00     0.198 A 
ATOM     56  C   UNL A   1      37.357  29.238  30.405  1.00  0.00     0.198 A 
ATOM     57  F   UNL A   1      39.390  28.633  31.425  1.00  0.00    -0.203 F 
ATOM     58  F   UNL A   1      36.612  30.102  26.967  1.00  0.00    -0.200 F 
ATOM     59  C   UNL A   1      36.644  29.607  29.276  1.00  0.00     0.200 A 
ATOM     60  F   UNL A   1      36.730  29.107  31.583  1.00  0.00    -0.200 F 
ATOM     61  F   UNL A   1      35.331  29.857  29.363  1.00  0.00    -0.200 F 
ENDBRANCH  27  51
BRANCH  39  62
ATOM     62  C   UNL A   1      45.294  32.651  29.998  1.00  0.00     0.064 A 
ATOM     63  C   UNL A   1      45.467  33.007  31.343  1.00  0.00     0.173 A 
ATOM     64  C   UNL A   1      45.381  33.661  29.029  1.00  0.00     0.173 A 
ATOM     65  F   UNL A   1      45.374  32.077  32.305  1.00  0.00    -0.203 F 
ATOM     66  C   UNL A   1      45.688  34.332  31.707  1.00  0.00     0.198 A 
ATOM     67  C   UNL A   1      45.626  34.981  29.395  1.00  0.00     0.198 A 
ATOM     68  F   UNL A   1      45.227  33.367  27.730  1.00  0.00    -0.203 F 
ATOM     69  F   UNL A   1      45.799  34.660  33.002  1.00  0.00    -0.200 F 
ATOM     70  C   UNL A   1      45.770  35.317  30.733  1.00  0.00     0.200 A 
ATOM     71  F   UNL A   1      45.713  35.931  28.453  1.00  0.00    -0.200 F 
ATOM     72  F   UNL A   1      45.978  36.594  31.086  1.00  0.00    -0.200 F 
ENDBRANCH  39  62
ENDBRANCH  13  14
ENDBRANCH   6   8
ENDBRANCH   3   4
ENDBRANCH   2   3
ENDBRANCH   1   2
BRANCH   1  73
ATOM     73  N   UNL A   1      36.047  23.282  26.894  1.00  0.00    -0.356 N 
ATOM     74  C   UNL A   1      34.837  22.736  26.611  1.00  0.00     0.224 C 
ATOM     75  H   UNL A   1      36.194  23.537  27.834  1.00  0.00     0.163 HD
ATOM     76  O   UNL A   1      34.442  21.857  27.392  1.00  0.00    -0.275 OA
BRANCH  74  77
ATOM     77  C   UNL A   1      33.902  23.168  25.473  1.00  0.00     0.095 C 
ATOM     78  C   UNL A   1      34.541  22.564  24.187  1.00  0.00     0.041 C 
ATOM     79  C   UNL A   1      32.406  22.866  25.444  1.00  0.00     0.095 C 
ATOM     80  C   UNL A   1      34.281  21.094  24.083  1.00  0.00    -0.030 C 
ATOM     81  C   UNL A   1      32.159  21.329  25.392  1.00  0.00     0.041 C 
ATOM     82  C   UNL A   1      33.209  20.533  24.660  1.00  0.00    -0.030 C 
BRANCH  79  83
ATOM     83  C   UNL A   1      31.310  23.594  26.268  1.00  0.00     0.228 C 
ATOM     84  O   UNL A   1      31.398  23.518  27.509  1.00  0.00    -0.274 OA
ATOM     85  N   UNL A   1      30.197  24.281  25.858  1.00  0.00    -0.326 N 
ATOM     86  H   UNL A   1      29.409  24.176  26.439  1.00  0.00     0.169 HD
BRANCH  85  87
ATOM     87  C   UNL A   1      30.001  25.114  24.740  1.00  0.00     0.041 A 
ATOM     88  C   UNL A   1      28.893  25.968  24.763  1.00  0.00     0.027 A 
ATOM     89  C   UNL A   1      30.904  25.227  23.700  1.00  0.00     0.027 A 
ATOM     90  C   UNL A   1      28.896  27.124  23.978  1.00  0.00     0.024 A 
ATOM     91  C   UNL A   1      30.960  26.411  22.955  1.00  0.00     0.024 A 
ATOM     92  C   UNL A   1      30.007  27.405  23.167  1.00  0.00     0.088 A 
BRANCH  92  93
ATOM     93  S   UNL A   1      30.378  29.135  22.840  1.00  0.00     0.264 S 
ATOM     94  O   UNL A   1      30.327  29.264  21.395  1.00  0.00    -0.201 OA
ATOM     95  O   UNL A   1      29.462  29.914  23.649  1.00  0.00    -0.201 OA
BRANCH  93  96
ATOM     96  N   UNL A   1      31.965  29.426  23.366  1.00  0.00    -0.266 N 
ATOM     97  C   UNL A   1      33.085  28.871  22.529  1.00  0.00     0.140 C 
ATOM     98  C   UNL A   1      32.282  29.007  24.714  1.00  0.00     0.055 A 
ATOM     99  C   UNL A   1      34.294  28.748  23.472  1.00  0.00     0.060 C 
ATOM    100  C   UNL A   1      33.628  28.647  24.803  1.00  0.00    -0.022 A 
ATOM    101  C   UNL A   1      31.495  29.045  25.852  1.00  0.00     0.027 A 
ATOM    102  C   UNL A   1      34.211  28.311  26.017  1.00  0.00     0.006 A 
ATOM    103  C   UNL A   1      32.060  28.674  27.077  1.00  0.00     0.002 A 
ATOM    104  C   UNL A   1      33.412  28.318  27.160  1.00  0.00     0.000 A 
ENDBRANCH  93  96
ENDBRANCH  92  93
ENDBRANCH  85  87
ENDBRANCH  79  83
ENDBRANCH  74  77
ENDBRANCH   1  73
TORSDOF 14
ENDMDL
