MODEL 1
REMARK VINA RESULT:     -13.2      0.000      0.000
REMARK SMILES COc1cccc(N2C(=O)/C(=C/c3ccccc3C(=O)NCCCNC(=O)c3ccc(-c4c5nc(c(-c6c(F)c(F)c(F)c(F)c6F)c6ccc([nH]6)c(-c6c(F)c(F)c(F)c(F)c6F)c6nc(c(-c7c(F)c(F)c(F)c(F)c7F)c7ccc4[nH]7)C=C6)C=C5)cc3)SC2=S)c1
REMARK SMILES IDX 22 1 21 2 19 3 20 4 18 6 13 7 14 8 15 9 17 10 16 11 12 12
REMARK SMILES IDX 8 13 9 14 92 15 10 16 11 17 91 18 93 19 7 20 3 21 4 22 94 23
REMARK SMILES IDX 5 24 6 25 2 26 1 27 23 28 24 29 25 30 26 31 27 33 28 34
REMARK SMILES IDX 29 35 90 36 30 37 89 38 31 39 32 40 33 41 83 42 34 43 88 44
REMARK SMILES IDX 82 45 84 46 35 47 87 48 81 49 80 50 36 52 68 53 48 54 67 55
REMARK SMILES IDX 49 56 52 57 66 58 85 59 50 60 51 61 65 63 86 64 53 65 37 66
REMARK SMILES IDX 38 67 46 68 39 69 40 70 44 71 47 72 41 73 42 74 45 75 43 76
REMARK SMILES IDX 69 77 70 78 78 79 71 80 72 81 76 82 79 83 73 84 74 85 77 86
REMARK SMILES IDX 75 87 54 88 55 89 63 90 56 91 57 92 61 93 64 94 58 95 59 96
REMARK SMILES IDX 62 97 60 98
REMARK H PARENT 21 5 25 32 84 51 52 62
REMARK Flexibility Score: inf
ROOT
ATOM      1  C   UNL A   1      36.560  23.105  25.311  1.00  0.00     0.118 C 
ENDROOT
BRANCH   1   2
ATOM      2  N   UNL A   1      35.905  22.871  26.569  1.00  0.00    -0.352 N 
ATOM      3  C   UNL A   1      34.844  22.014  26.790  1.00  0.00     0.251 C 
ATOM      4  O   UNL A   1      34.488  21.807  27.948  1.00  0.00    -0.269 OA
ATOM      5  H   UNL A   1      36.244  23.369  27.347  1.00  0.00     0.163 HD
BRANCH   3   6
ATOM      6  C   UNL A   1      34.038  21.456  25.659  1.00  0.00     0.047 A 
ATOM      7  C   UNL A   1      32.860  21.993  25.085  1.00  0.00    -0.012 A 
ATOM      8  C   UNL A   1      32.139  21.186  24.181  1.00  0.00     0.009 A 
ATOM      9  C   UNL A   1      32.610  19.934  23.781  1.00  0.00     0.001 A 
ATOM     10  C   UNL A   1      34.529  20.216  25.198  1.00  0.00     0.014 A 
ATOM     11  C   UNL A   1      33.823  19.463  24.264  1.00  0.00     0.001 A 
BRANCH   7  12
ATOM     12  C   UNL A   1      32.212  23.282  25.413  1.00  0.00     0.030 C 
ATOM     13  N   UNL A   1      32.320  26.786  24.674  1.00  0.00    -0.261 N 
ATOM     14  C   UNL A   1      31.784  25.710  25.373  1.00  0.00     0.270 C 
ATOM     15  C   UNL A   1      32.938  26.487  23.468  1.00  0.00     0.152 C 
ATOM     16  O   UNL A   1      31.187  25.722  26.444  1.00  0.00    -0.268 OA
ATOM     17  C   UNL A   1      32.205  24.431  24.720  1.00  0.00     0.081 C 
ATOM     18  S   UNL A   1      32.881  24.747  23.184  1.00  0.00    -0.054 SA
ATOM     19  S   UNL A   1      33.602  27.522  22.335  1.00  0.00    -0.051 S 
BRANCH  13  20
ATOM     20  C   UNL A   1      32.291  28.100  25.229  1.00  0.00     0.054 A 
ATOM     21  C   UNL A   1      33.176  29.772  26.747  1.00  0.00     0.120 A 
ATOM     22  C   UNL A   1      32.176  30.662  26.346  1.00  0.00     0.046 A 
ATOM     23  C   UNL A   1      33.266  28.509  26.149  1.00  0.00     0.073 A 
ATOM     24  C   UNL A   1      31.232  30.283  25.395  1.00  0.00     0.006 A 
ATOM     25  C   UNL A   1      31.272  28.995  24.859  1.00  0.00     0.027 A 
BRANCH  21  26
ATOM     26  O   UNL A   1      33.988  30.252  27.740  1.00  0.00    -0.497 OA
ATOM     27  C   UNL A   1      33.948  31.652  27.978  1.00  0.00     0.278 C 
ENDBRANCH  21  26
ENDBRANCH  13  20
ENDBRANCH   7  12
ENDBRANCH   3   6
ENDBRANCH   1   2
BRANCH   1  28
ATOM     28  C   UNL A   1      37.601  22.109  24.857  1.00  0.00     0.042 C 
BRANCH  28  29
ATOM     29  C   UNL A   1      38.744  21.898  25.847  1.00  0.00     0.118 C 
BRANCH  29  30
ATOM     30  N   UNL A   1      39.306  20.547  25.845  1.00  0.00    -0.352 N 
ATOM     31  C   UNL A   1      40.559  20.049  26.088  1.00  0.00     0.251 C 
ATOM     32  H   UNL A   1      38.646  19.851  25.625  1.00  0.00     0.163 HD
ATOM     33  O   UNL A   1      40.749  18.848  25.908  1.00  0.00    -0.269 OA
BRANCH  31  34
ATOM     34  C   UNL A   1      41.707  20.906  26.419  1.00  0.00     0.039 A 
ATOM     35  C   UNL A   1      42.305  21.591  25.353  1.00  0.00     0.014 A 
ATOM     36  C   UNL A   1      42.078  21.193  27.726  1.00  0.00     0.014 A 
ATOM     37  C   UNL A   1      43.082  22.708  25.607  1.00  0.00     0.010 A 
ATOM     38  C   UNL A   1      42.711  22.394  27.983  1.00  0.00     0.010 A 
ATOM     39  C   UNL A   1      43.162  23.185  26.920  1.00  0.00    -0.014 A 
BRANCH  39  40
ATOM     40  C   UNL A   1      43.607  24.564  27.184  1.00  0.00     0.031 A 
ATOM     41  C   UNL A   1      42.626  25.575  27.677  1.00  0.00     0.074 A 
ATOM     42  C   UNL A   1      44.876  24.893  26.867  1.00  0.00     0.049 A 
ATOM     43  N   UNL A   1      42.804  26.847  27.910  1.00  0.00    -0.248 NA
ATOM     44  C   UNL A   1      41.246  25.109  27.894  1.00  0.00     0.031 C 
ATOM     45  C   UNL A   1      45.868  23.980  26.282  1.00  0.00     0.029 A 
ATOM     46  N   UNL A   1      45.556  26.074  26.987  1.00  0.00    -0.354 N 
ATOM     47  C   UNL A   1      41.563  27.329  28.290  1.00  0.00     0.074 A 
ATOM     48  C   UNL A   1      40.621  26.240  28.177  1.00  0.00     0.031 C 
ATOM     49  C   UNL A   1      47.039  24.620  26.150  1.00  0.00     0.029 A 
ATOM     50  C   UNL A   1      46.870  25.997  26.590  1.00  0.00     0.049 A 
ATOM     51  H   UNL A   1      45.144  26.901  27.326  1.00  0.00     0.167 HD
ATOM     52  C   UNL A   1      41.255  28.570  28.731  1.00  0.00     0.037 A 
ATOM     53  C   UNL A   1      47.826  26.942  26.588  1.00  0.00     0.037 A 
ATOM     54  C   UNL A   1      42.224  29.625  28.845  1.00  0.00     0.049 A 
ATOM     55  C   UNL A   1      47.458  28.307  27.098  1.00  0.00     0.074 A 
ATOM     56  C   UNL A   1      42.052  30.909  29.324  1.00  0.00     0.029 A 
ATOM     57  N   UNL A   1      43.556  29.508  28.467  1.00  0.00    -0.354 N 
ATOM     58  N   UNL A   1      46.300  28.737  27.544  1.00  0.00    -0.248 NA
ATOM     59  C   UNL A   1      48.522  29.316  27.115  1.00  0.00     0.031 C 
ATOM     60  C   UNL A   1      43.268  31.585  29.187  1.00  0.00     0.029 A 
ATOM     61  C   UNL A   1      44.215  30.706  28.681  1.00  0.00     0.049 A 
ATOM     62  H   UNL A   1      43.971  28.693  28.100  1.00  0.00     0.167 HD
ATOM     63  C   UNL A   1      46.500  30.055  27.918  1.00  0.00     0.074 A 
ATOM     64  C   UNL A   1      47.899  30.347  27.668  1.00  0.00     0.031 C 
ATOM     65  C   UNL A   1      45.613  30.949  28.421  1.00  0.00     0.037 A 
BRANCH  52  66
ATOM     66  C   UNL A   1      39.828  28.829  29.116  1.00  0.00     0.064 A 
ATOM     67  C   UNL A   1      39.362  28.596  30.421  1.00  0.00     0.173 A 
ATOM     68  C   UNL A   1      38.910  29.308  28.171  1.00  0.00     0.173 A 
ATOM     69  F   UNL A   1      40.192  28.117  31.360  1.00  0.00    -0.203 F 
ATOM     70  C   UNL A   1      38.026  28.798  30.754  1.00  0.00     0.198 A 
ATOM     71  C   UNL A   1      37.581  29.543  28.517  1.00  0.00     0.198 A 
ATOM     72  F   UNL A   1      39.297  29.542  26.909  1.00  0.00    -0.203 F 
ATOM     73  F   UNL A   1      37.592  28.505  31.988  1.00  0.00    -0.200 F 
ATOM     74  C   UNL A   1      37.137  29.278  29.804  1.00  0.00     0.200 A 
ATOM     75  F   UNL A   1      36.725  30.014  27.599  1.00  0.00    -0.200 F 
ATOM     76  F   UNL A   1      35.852  29.474  30.125  1.00  0.00    -0.200 F 
ENDBRANCH  52  66
BRANCH  53  77
ATOM     77  C   UNL A   1      49.206  26.620  26.131  1.00  0.00     0.064 A 
ATOM     78  C   UNL A   1      49.614  26.895  24.818  1.00  0.00     0.173 A 
ATOM     79  C   UNL A   1      50.148  26.037  26.993  1.00  0.00     0.173 A 
ATOM     80  F   UNL A   1      48.750  27.445  23.951  1.00  0.00    -0.203 F 
ATOM     81  C   UNL A   1      50.896  26.574  24.376  1.00  0.00     0.198 A 
ATOM     82  C   UNL A   1      51.440  25.745  26.559  1.00  0.00     0.198 A 
ATOM     83  F   UNL A   1      49.818  25.764  28.263  1.00  0.00    -0.203 F 
ATOM     84  F   UNL A   1      51.240  26.803  23.101  1.00  0.00    -0.200 F 
ATOM     85  C   UNL A   1      51.810  26.003  25.248  1.00  0.00     0.200 A 
ATOM     86  F   UNL A   1      52.326  25.212  27.411  1.00  0.00    -0.200 F 
ATOM     87  F   UNL A   1      53.043  25.695  24.824  1.00  0.00    -0.200 F 
ENDBRANCH  53  77
BRANCH  65  88
ATOM     88  C   UNL A   1      46.145  32.309  28.760  1.00  0.00     0.064 A 
ATOM     89  C   UNL A   1      46.660  32.602  30.032  1.00  0.00     0.173 A 
ATOM     90  C   UNL A   1      46.181  33.315  27.783  1.00  0.00     0.173 A 
ATOM     91  F   UNL A   1      46.631  31.676  31.002  1.00  0.00    -0.203 F 
ATOM     92  C   UNL A   1      47.165  33.865  30.321  1.00  0.00     0.198 A 
ATOM     93  C   UNL A   1      46.722  34.565  28.066  1.00  0.00     0.198 A 
ATOM     94  F   UNL A   1      45.708  33.079  26.550  1.00  0.00    -0.203 F 
ATOM     95  F   UNL A   1      47.601  34.141  31.557  1.00  0.00    -0.200 F 
ATOM     96  C   UNL A   1      47.205  34.841  29.336  1.00  0.00     0.200 A 
ATOM     97  F   UNL A   1      46.778  35.500  27.108  1.00  0.00    -0.200 F 
ATOM     98  F   UNL A   1      47.704  36.053  29.613  1.00  0.00    -0.200 F 
ENDBRANCH  65  88
ENDBRANCH  39  40
ENDBRANCH  31  34
ENDBRANCH  29  30
ENDBRANCH  28  29
ENDBRANCH   1  28
TORSDOF 13
ENDMDL
MODEL 2
REMARK VINA RESULT:     -13.1      1.303      2.118
REMARK SMILES COc1cccc(N2C(=O)/C(=C/c3ccccc3C(=O)NCCCNC(=O)c3ccc(-c4c5nc(c(-c6c(F)c(F)c(F)c(F)c6F)c6ccc([nH]6)c(-c6c(F)c(F)c(F)c(F)c6F)c6nc(c(-c7c(F)c(F)c(F)c(F)c7F)c7ccc4[nH]7)C=C6)C=C5)cc3)SC2=S)c1
REMARK SMILES IDX 22 1 21 2 19 3 20 4 18 6 13 7 14 8 15 9 17 10 16 11 12 12
REMARK SMILES IDX 8 13 9 14 92 15 10 16 11 17 91 18 93 19 7 20 3 21 4 22 94 23
REMARK SMILES IDX 5 24 6 25 2 26 1 27 23 28 24 29 25 30 26 31 27 33 28 34
REMARK SMILES IDX 29 35 90 36 30 37 89 38 31 39 32 40 33 41 83 42 34 43 88 44
REMARK SMILES IDX 82 45 84 46 35 47 87 48 81 49 80 50 36 52 68 53 48 54 67 55
REMARK SMILES IDX 49 56 52 57 66 58 85 59 50 60 51 61 65 63 86 64 53 65 37 66
REMARK SMILES IDX 38 67 46 68 39 69 40 70 44 71 47 72 41 73 42 74 45 75 43 76
REMARK SMILES IDX 69 77 70 78 78 79 71 80 72 81 76 82 79 83 73 84 74 85 77 86
REMARK SMILES IDX 75 87 54 88 55 89 63 90 56 91 57 92 61 93 64 94 58 95 59 96
REMARK SMILES IDX 62 97 60 98
REMARK H PARENT 21 5 25 32 84 51 52 62
REMARK Flexibility Score: inf
ROOT
ATOM      1  C   UNL A   1      36.619  21.236  25.092  1.00  0.00     0.118 C 
ENDROOT
BRANCH   1   2
ATOM      2  N   UNL A   1      35.657  21.359  26.155  1.00  0.00    -0.352 N 
ATOM      3  C   UNL A   1      34.338  20.954  26.112  1.00  0.00     0.251 C 
ATOM      4  O   UNL A   1      33.678  20.988  27.149  1.00  0.00    -0.269 OA
ATOM      5  H   UNL A   1      35.969  21.772  26.992  1.00  0.00     0.163 HD
BRANCH   3   6
ATOM      6  C   UNL A   1      33.661  20.619  24.819  1.00  0.00     0.047 A 
ATOM      7  C   UNL A   1      33.127  21.515  23.862  1.00  0.00    -0.012 A 
ATOM      8  C   UNL A   1      32.333  20.980  22.827  1.00  0.00     0.009 A 
ATOM      9  C   UNL A   1      32.151  19.602  22.682  1.00  0.00     0.001 A 
ATOM     10  C   UNL A   1      33.516  19.230  24.623  1.00  0.00     0.014 A 
ATOM     11  C   UNL A   1      32.770  18.725  23.560  1.00  0.00     0.001 A 
BRANCH   7  12
ATOM     12  C   UNL A   1      33.201  22.993  23.879  1.00  0.00     0.030 C 
ATOM     13  N   UNL A   1      31.331  25.921  24.752  1.00  0.00    -0.261 N 
ATOM     14  C   UNL A   1      32.472  25.322  24.231  1.00  0.00     0.270 C 
ATOM     15  C   UNL A   1      30.577  25.149  25.625  1.00  0.00     0.152 C 
ATOM     16  O   UNL A   1      33.295  25.801  23.457  1.00  0.00    -0.268 OA
ATOM     17  C   UNL A   1      32.487  23.872  24.599  1.00  0.00     0.081 C 
ATOM     18  S   UNL A   1      31.311  23.555  25.797  1.00  0.00    -0.054 SA
ATOM     19  S   UNL A   1      29.215  25.567  26.499  1.00  0.00    -0.051 S 
BRANCH  13  20
ATOM     20  C   UNL A   1      30.940  27.228  24.333  1.00  0.00     0.054 A 
ATOM     21  C   UNL A   1      29.797  28.693  22.775  1.00  0.00     0.120 A 
ATOM     22  C   UNL A   1      30.238  29.804  23.498  1.00  0.00     0.046 A 
ATOM     23  C   UNL A   1      30.103  27.403  23.223  1.00  0.00     0.073 A 
ATOM     24  C   UNL A   1      31.029  29.640  24.633  1.00  0.00     0.006 A 
ATOM     25  C   UNL A   1      31.403  28.357  25.032  1.00  0.00     0.027 A 
BRANCH  21  26
ATOM     26  O   UNL A   1      29.090  29.005  21.644  1.00  0.00    -0.497 OA
ATOM     27  C   UNL A   1      28.469  30.283  21.610  1.00  0.00     0.278 C 
ENDBRANCH  21  26
ENDBRANCH  13  20
ENDBRANCH   7  12
ENDBRANCH   3   6
ENDBRANCH   1   2
BRANCH   1  28
ATOM     28  C   UNL A   1      37.790  22.189  25.082  1.00  0.00     0.042 C 
BRANCH  28  29
ATOM     29  C   UNL A   1      38.860  21.883  26.126  1.00  0.00     0.118 C 
BRANCH  29  30
ATOM     30  N   UNL A   1      39.468  20.558  26.002  1.00  0.00    -0.352 N 
ATOM     31  C   UNL A   1      40.751  20.094  26.127  1.00  0.00     0.251 C 
ATOM     32  H   UNL A   1      38.818  19.851  25.782  1.00  0.00     0.163 HD
ATOM     33  O   UNL A   1      40.969  18.915  25.859  1.00  0.00    -0.269 OA
BRANCH  31  34
ATOM     34  C   UNL A   1      41.889  20.974  26.433  1.00  0.00     0.039 A 
ATOM     35  C   UNL A   1      42.457  21.663  25.353  1.00  0.00     0.014 A 
ATOM     36  C   UNL A   1      42.277  21.276  27.732  1.00  0.00     0.014 A 
ATOM     37  C   UNL A   1      43.218  22.795  25.587  1.00  0.00     0.010 A 
ATOM     38  C   UNL A   1      42.893  22.489  27.970  1.00  0.00     0.010 A 
ATOM     39  C   UNL A   1      43.312  23.281  26.896  1.00  0.00    -0.014 A 
BRANCH  39  40
ATOM     40  C   UNL A   1      43.736  24.670  27.143  1.00  0.00     0.031 A 
ATOM     41  C   UNL A   1      42.740  25.673  27.621  1.00  0.00     0.074 A 
ATOM     42  C   UNL A   1      45.002  25.012  26.826  1.00  0.00     0.049 A 
ATOM     43  N   UNL A   1      42.899  26.950  27.838  1.00  0.00    -0.248 NA
ATOM     44  C   UNL A   1      41.365  25.190  27.838  1.00  0.00     0.031 C 
ATOM     45  C   UNL A   1      46.008  24.106  26.257  1.00  0.00     0.029 A 
ATOM     46  N   UNL A   1      45.665  26.204  26.934  1.00  0.00    -0.354 N 
ATOM     47  C   UNL A   1      41.650  27.420  28.208  1.00  0.00     0.074 A 
ATOM     48  C   UNL A   1      40.723  26.316  28.105  1.00  0.00     0.031 C 
ATOM     49  C   UNL A   1      47.171  24.760  26.121  1.00  0.00     0.029 A 
ATOM     50  C   UNL A   1      46.982  26.140  26.543  1.00  0.00     0.049 A 
ATOM     51  H   UNL A   1      45.240  27.030  27.262  1.00  0.00     0.167 HD
ATOM     52  C   UNL A   1      41.323  28.661  28.631  1.00  0.00     0.037 A 
ATOM     53  C   UNL A   1      47.924  27.098  26.532  1.00  0.00     0.037 A 
ATOM     54  C   UNL A   1      42.277  29.731  28.735  1.00  0.00     0.049 A 
ATOM     55  C   UNL A   1      47.535  28.465  27.024  1.00  0.00     0.074 A 
ATOM     56  C   UNL A   1      42.086  31.019  29.198  1.00  0.00     0.029 A 
ATOM     57  N   UNL A   1      43.612  29.628  28.363  1.00  0.00    -0.354 N 
ATOM     58  N   UNL A   1      46.370  28.884  27.460  1.00  0.00    -0.248 NA
ATOM     59  C   UNL A   1      48.585  29.489  27.032  1.00  0.00     0.031 C 
ATOM     60  C   UNL A   1      43.293  31.710  29.056  1.00  0.00     0.029 A 
ATOM     61  C   UNL A   1      44.254  30.838  28.564  1.00  0.00     0.049 A 
ATOM     62  H   UNL A   1      44.039  28.815  28.009  1.00  0.00     0.167 HD
ATOM     63  C   UNL A   1      46.550  30.210  27.818  1.00  0.00     0.074 A 
ATOM     64  C   UNL A   1      47.946  30.518  27.569  1.00  0.00     0.031 C 
ATOM     65  C   UNL A   1      45.649  31.097  28.307  1.00  0.00     0.037 A 
BRANCH  52  66
ATOM     66  C   UNL A   1      39.891  28.906  29.008  1.00  0.00     0.064 A 
ATOM     67  C   UNL A   1      39.431  28.712  30.322  1.00  0.00     0.173 A 
ATOM     68  C   UNL A   1      38.963  29.330  28.047  1.00  0.00     0.173 A 
ATOM     69  F   UNL A   1      40.271  28.285  31.277  1.00  0.00    -0.203 F 
ATOM     70  C   UNL A   1      38.091  28.898  30.648  1.00  0.00     0.198 A 
ATOM     71  C   UNL A   1      37.630  29.551  28.386  1.00  0.00     0.198 A 
ATOM     72  F   UNL A   1      39.346  29.525  26.776  1.00  0.00    -0.203 F 
ATOM     73  F   UNL A   1      37.663  28.642  31.893  1.00  0.00    -0.200 F 
ATOM     74  C   UNL A   1      37.192  29.325  29.682  1.00  0.00     0.200 A 
ATOM     75  F   UNL A   1      36.764  29.970  27.452  1.00  0.00    -0.200 F 
ATOM     76  F   UNL A   1      35.903  29.506  29.997  1.00  0.00    -0.200 F 
ENDBRANCH  52  66
BRANCH  53  77
ATOM     77  C   UNL A   1      49.310  26.791  26.084  1.00  0.00     0.064 A 
ATOM     78  C   UNL A   1      49.703  27.003  24.755  1.00  0.00     0.173 A 
ATOM     79  C   UNL A   1      50.273  26.283  26.970  1.00  0.00     0.173 A 
ATOM     80  F   UNL A   1      48.819  27.479  23.864  1.00  0.00    -0.203 F 
ATOM     81  C   UNL A   1      50.991  26.694  24.322  1.00  0.00     0.198 A 
ATOM     82  C   UNL A   1      51.571  26.004  26.544  1.00  0.00     0.198 A 
ATOM     83  F   UNL A   1      49.958  26.072  28.256  1.00  0.00    -0.203 F 
ATOM     84  F   UNL A   1      51.322  26.861  23.034  1.00  0.00    -0.200 F 
ATOM     85  C   UNL A   1      51.925  26.198  25.218  1.00  0.00     0.200 A 
ATOM     86  F   UNL A   1      52.476  25.543  27.419  1.00  0.00    -0.200 F 
ATOM     87  F   UNL A   1      53.164  25.901  24.803  1.00  0.00    -0.200 F 
ENDBRANCH  53  77
BRANCH  65  88
ATOM     88  C   UNL A   1      46.160  32.469  28.630  1.00  0.00     0.064 A 
ATOM     89  C   UNL A   1      46.121  33.510  27.692  1.00  0.00     0.173 A 
ATOM     90  C   UNL A   1      46.653  32.752  29.913  1.00  0.00     0.173 A 
ATOM     91  F   UNL A   1      45.673  33.281  26.448  1.00  0.00    -0.203 F 
ATOM     92  C   UNL A   1      46.584  34.780  28.018  1.00  0.00     0.198 A 
ATOM     93  C   UNL A   1      47.080  34.033  30.247  1.00  0.00     0.198 A 
ATOM     94  F   UNL A   1      46.702  31.791  30.848  1.00  0.00    -0.203 F 
ATOM     95  F   UNL A   1      46.589  35.746  27.090  1.00  0.00    -0.200 F 
ATOM     96  C   UNL A   1      47.054  35.042  29.296  1.00  0.00     0.200 A 
ATOM     97  F   UNL A   1      47.515  34.290  31.488  1.00  0.00    -0.200 F 
ATOM     98  F   UNL A   1      47.488  36.271  29.612  1.00  0.00    -0.200 F 
ENDBRANCH  65  88
ENDBRANCH  39  40
ENDBRANCH  31  34
ENDBRANCH  29  30
ENDBRANCH  28  29
ENDBRANCH   1  28
TORSDOF 13
ENDMDL
MODEL 3
REMARK VINA RESULT:     -13.0      1.400      7.316
REMARK SMILES COc1cccc(N2C(=O)/C(=C/c3ccccc3C(=O)NCCCNC(=O)c3ccc(-c4c5nc(c(-c6c(F)c(F)c(F)c(F)c6F)c6ccc([nH]6)c(-c6c(F)c(F)c(F)c(F)c6F)c6nc(c(-c7c(F)c(F)c(F)c(F)c7F)c7ccc4[nH]7)C=C6)C=C5)cc3)SC2=S)c1
REMARK SMILES IDX 22 1 21 2 19 3 20 4 18 6 13 7 14 8 15 9 17 10 16 11 12 12
REMARK SMILES IDX 8 13 9 14 92 15 10 16 11 17 91 18 93 19 7 20 3 21 4 22 94 23
REMARK SMILES IDX 5 24 6 25 2 26 1 27 23 28 24 29 25 30 26 31 27 33 28 34
REMARK SMILES IDX 29 35 90 36 30 37 89 38 31 39 32 40 33 41 83 42 34 43 88 44
REMARK SMILES IDX 82 45 84 46 35 47 87 48 81 49 80 50 36 52 68 53 48 54 67 55
REMARK SMILES IDX 49 56 52 57 66 58 85 59 50 60 51 61 65 63 86 64 53 65 37 66
REMARK SMILES IDX 38 67 46 68 39 69 40 70 44 71 47 72 41 73 42 74 45 75 43 76
REMARK SMILES IDX 69 77 70 78 78 79 71 80 72 81 76 82 79 83 73 84 74 85 77 86
REMARK SMILES IDX 75 87 54 88 55 89 63 90 56 91 57 92 61 93 64 94 58 95 59 96
REMARK SMILES IDX 62 97 60 98
REMARK H PARENT 21 5 25 32 84 51 52 62
REMARK Flexibility Score: inf
ROOT
ATOM      1  C   UNL A   1      36.715  21.171  25.056  1.00  0.00     0.118 C 
ENDROOT
BRANCH   1   2
ATOM      2  N   UNL A   1      35.777  21.309  26.137  1.00  0.00    -0.352 N 
ATOM      3  C   UNL A   1      34.464  20.882  26.137  1.00  0.00     0.251 C 
ATOM      4  O   UNL A   1      33.829  20.935  27.189  1.00  0.00    -0.269 OA
ATOM      5  H   UNL A   1      36.102  21.751  26.955  1.00  0.00     0.163 HD
BRANCH   3   6
ATOM      6  C   UNL A   1      33.763  20.500  24.871  1.00  0.00     0.047 A 
ATOM      7  C   UNL A   1      33.199  21.360  23.898  1.00  0.00    -0.012 A 
ATOM      8  C   UNL A   1      32.388  20.784  22.898  1.00  0.00     0.009 A 
ATOM      9  C   UNL A   1      32.217  19.402  22.801  1.00  0.00     0.001 A 
ATOM     10  C   UNL A   1      33.627  19.104  24.722  1.00  0.00     0.014 A 
ATOM     11  C   UNL A   1      32.863  18.558  23.693  1.00  0.00     0.001 A 
BRANCH   7  12
ATOM     12  C   UNL A   1      33.260  22.838  23.866  1.00  0.00     0.030 C 
ATOM     13  N   UNL A   1      31.385  25.776  24.697  1.00  0.00    -0.261 N 
ATOM     14  C   UNL A   1      32.518  25.171  24.164  1.00  0.00     0.270 C 
ATOM     15  C   UNL A   1      30.663  25.026  25.614  1.00  0.00     0.152 C 
ATOM     16  O   UNL A   1      33.315  25.632  23.354  1.00  0.00    -0.268 OA
ATOM     17  C   UNL A   1      32.557  23.733  24.577  1.00  0.00     0.081 C 
ATOM     18  S   UNL A   1      31.416  23.444  25.816  1.00  0.00    -0.054 SA
ATOM     19  S   UNL A   1      29.320  25.459  26.511  1.00  0.00    -0.051 S 
BRANCH  13  20
ATOM     20  C   UNL A   1      30.971  27.065  24.248  1.00  0.00     0.054 A 
ATOM     21  C   UNL A   1      30.877  29.472  24.531  1.00  0.00     0.120 A 
ATOM     22  C   UNL A   1      30.094  29.576  23.378  1.00  0.00     0.046 A 
ATOM     23  C   UNL A   1      31.360  28.222  24.936  1.00  0.00     0.073 A 
ATOM     24  C   UNL A   1      29.744  28.437  22.658  1.00  0.00     0.006 A 
ATOM     25  C   UNL A   1      30.157  27.182  23.107  1.00  0.00     0.027 A 
BRANCH  21  26
ATOM     26  O   UNL A   1      31.083  30.662  25.177  1.00  0.00    -0.497 OA
ATOM     27  C   UNL A   1      31.906  30.628  26.335  1.00  0.00     0.278 C 
ENDBRANCH  21  26
ENDBRANCH  13  20
ENDBRANCH   7  12
ENDBRANCH   3   6
ENDBRANCH   1   2
BRANCH   1  28
ATOM     28  C   UNL A   1      37.934  22.064  25.057  1.00  0.00     0.042 C 
BRANCH  28  29
ATOM     29  C   UNL A   1      38.960  21.727  26.135  1.00  0.00     0.118 C 
BRANCH  29  30
ATOM     30  N   UNL A   1      39.650  20.452  25.940  1.00  0.00    -0.352 N 
ATOM     31  C   UNL A   1      40.953  20.055  26.085  1.00  0.00     0.251 C 
ATOM     32  H   UNL A   1      39.053  19.728  25.643  1.00  0.00     0.163 HD
ATOM     33  O   UNL A   1      41.252  18.913  25.742  1.00  0.00    -0.269 OA
BRANCH  31  34
ATOM     34  C   UNL A   1      42.024  20.972  26.503  1.00  0.00     0.039 A 
ATOM     35  C   UNL A   1      42.603  21.757  25.497  1.00  0.00     0.014 A 
ATOM     36  C   UNL A   1      42.331  21.211  27.836  1.00  0.00     0.014 A 
ATOM     37  C   UNL A   1      43.287  22.911  25.840  1.00  0.00     0.010 A 
ATOM     38  C   UNL A   1      42.865  22.437  28.180  1.00  0.00     0.010 A 
ATOM     39  C   UNL A   1      43.291  23.317  27.178  1.00  0.00    -0.014 A 
BRANCH  39  40
ATOM     40  C   UNL A   1      43.624  24.708  27.532  1.00  0.00     0.031 A 
ATOM     41  C   UNL A   1      45.053  25.134  27.585  1.00  0.00     0.074 A 
ATOM     42  C   UNL A   1      42.618  25.527  27.900  1.00  0.00     0.049 A 
ATOM     43  N   UNL A   1      45.554  26.289  27.931  1.00  0.00    -0.248 NA
ATOM     44  C   UNL A   1      46.063  24.114  27.251  1.00  0.00     0.031 C 
ATOM     45  C   UNL A   1      41.200  25.149  27.971  1.00  0.00     0.029 A 
ATOM     46  N   UNL A   1      42.623  26.840  28.283  1.00  0.00    -0.354 N 
ATOM     47  C   UNL A   1      46.929  26.130  27.865  1.00  0.00     0.074 A 
ATOM     48  C   UNL A   1      47.190  24.749  27.529  1.00  0.00     0.031 C 
ATOM     49  C   UNL A   1      40.471  26.221  28.316  1.00  0.00     0.029 A 
ATOM     50  C   UNL A   1      41.369  27.344  28.541  1.00  0.00     0.049 A 
ATOM     51  H   UNL A   1      43.445  27.376  28.365  1.00  0.00     0.167 HD
ATOM     52  C   UNL A   1      47.881  27.073  28.035  1.00  0.00     0.037 A 
ATOM     53  C   UNL A   1      40.998  28.581  28.915  1.00  0.00     0.037 A 
ATOM     54  C   UNL A   1      47.582  28.443  28.353  1.00  0.00     0.049 A 
ATOM     55  C   UNL A   1      42.079  29.613  29.081  1.00  0.00     0.074 A 
ATOM     56  C   UNL A   1      48.450  29.506  28.501  1.00  0.00     0.029 A 
ATOM     57  N   UNL A   1      46.300  28.932  28.576  1.00  0.00    -0.354 N 
ATOM     58  N   UNL A   1      43.376  29.481  28.928  1.00  0.00    -0.248 NA
ATOM     59  C   UNL A   1      41.651  30.963  29.461  1.00  0.00     0.031 C 
ATOM     60  C   UNL A   1      47.699  30.628  28.865  1.00  0.00     0.029 A 
ATOM     61  C   UNL A   1      46.355  30.280  28.883  1.00  0.00     0.049 A 
ATOM     62  H   UNL A   1      45.474  28.398  28.523  1.00  0.00     0.167 HD
ATOM     63  C   UNL A   1      43.918  30.733  29.167  1.00  0.00     0.074 A 
ATOM     64  C   UNL A   1      42.803  31.617  29.453  1.00  0.00     0.031 C 
ATOM     65  C   UNL A   1      45.217  31.123  29.156  1.00  0.00     0.037 A 
BRANCH  52  66
ATOM     66  C   UNL A   1      49.311  26.646  27.874  1.00  0.00     0.064 A 
ATOM     67  C   UNL A   1      50.139  26.407  28.983  1.00  0.00     0.173 A 
ATOM     68  C   UNL A   1      49.865  26.480  26.597  1.00  0.00     0.173 A 
ATOM     69  F   UNL A   1      49.666  26.572  30.228  1.00  0.00    -0.203 F 
ATOM     70  C   UNL A   1      51.476  26.054  28.819  1.00  0.00     0.198 A 
ATOM     71  C   UNL A   1      51.194  26.092  26.437  1.00  0.00     0.198 A 
ATOM     72  F   UNL A   1      49.123  26.700  25.502  1.00  0.00    -0.203 F 
ATOM     73  F   UNL A   1      52.263  25.898  29.893  1.00  0.00    -0.200 F 
ATOM     74  C   UNL A   1      52.001  25.890  27.547  1.00  0.00     0.200 A 
ATOM     75  F   UNL A   1      51.697  25.926  25.206  1.00  0.00    -0.200 F 
ATOM     76  F   UNL A   1      53.286  25.549  27.389  1.00  0.00    -0.200 F 
ENDBRANCH  52  66
BRANCH  53  77
ATOM     77  C   UNL A   1      39.560  28.910  29.115  1.00  0.00     0.064 A 
ATOM     78  C   UNL A   1      38.763  29.341  28.045  1.00  0.00     0.173 A 
ATOM     79  C   UNL A   1      38.950  28.800  30.374  1.00  0.00     0.173 A 
ATOM     80  F   UNL A   1      39.299  29.472  26.822  1.00  0.00    -0.203 F 
ATOM     81  C   UNL A   1      37.423  29.676  28.230  1.00  0.00     0.198 A 
ATOM     82  C   UNL A   1      37.601  29.104  30.551  1.00  0.00     0.198 A 
ATOM     83  F   UNL A   1      39.660  28.381  31.430  1.00  0.00    -0.203 F 
ATOM     84  F   UNL A   1      36.699  30.132  27.198  1.00  0.00    -0.200 F 
ATOM     85  C   UNL A   1      36.841  29.553  29.482  1.00  0.00     0.200 A 
ATOM     86  F   UNL A   1      37.038  28.965  31.760  1.00  0.00    -0.200 F 
ATOM     87  F   UNL A   1      35.553  29.874  29.660  1.00  0.00    -0.200 F 
ENDBRANCH  53  77
BRANCH  65  88
ATOM     88  C   UNL A   1      45.488  32.571  29.429  1.00  0.00     0.064 A 
ATOM     89  C   UNL A   1      45.481  33.528  28.403  1.00  0.00     0.173 A 
ATOM     90  C   UNL A   1      45.712  33.011  30.742  1.00  0.00     0.173 A 
ATOM     91  F   UNL A   1      45.286  33.152  27.130  1.00  0.00    -0.203 F 
ATOM     92  C   UNL A   1      45.717  34.870  28.680  1.00  0.00     0.198 A 
ATOM     93  C   UNL A   1      45.911  34.359  31.020  1.00  0.00     0.198 A 
ATOM     94  F   UNL A   1      45.721  32.134  31.758  1.00  0.00    -0.203 F 
ATOM     95  F   UNL A   1      45.760  35.760  27.680  1.00  0.00    -0.200 F 
ATOM     96  C   UNL A   1      45.922  35.285  29.988  1.00  0.00     0.200 A 
ATOM     97  F   UNL A   1      46.089  34.761  32.285  1.00  0.00    -0.200 F 
ATOM     98  F   UNL A   1      46.137  36.581  30.254  1.00  0.00    -0.200 F 
ENDBRANCH  65  88
ENDBRANCH  39  40
ENDBRANCH  31  34
ENDBRANCH  29  30
ENDBRANCH  28  29
ENDBRANCH   1  28
TORSDOF 13
ENDMDL
