MODEL 1
REMARK VINA RESULT:     -12.2      0.000      0.000
REMARK SMILES O=C(C[C@H]1CN(C(=O)C[C@H]2CCS(=O)(=O)C2)CCO1)NCCCNC(=O)c1ccc(-c2c3nc(c(-c4c(F)c(F)c(F)c(F)c4F)c4ccc([nH]4)c(-c4c(F)c(F)c(F)c(F)c4F)c4nc(c(-c5c(F)c(F)c(F)c(F)c5F)c5ccc2[nH]5)C=C4)C=C3)cc1
REMARK SMILES IDX 21 1 20 2 1 3 2 4 3 6 4 7 5 8 19 9 6 10 18 11 17 12 7 13
REMARK SMILES IDX 8 14 9 15 10 16 11 17 16 18 12 19 13 20 14 21 15 22 22 23
REMARK SMILES IDX 23 24 24 25 25 26 26 28 27 29 28 30 89 31 29 32 88 33 30 34
REMARK SMILES IDX 31 35 32 36 82 37 33 38 87 39 81 40 83 41 34 42 86 43 80 44
REMARK SMILES IDX 79 45 35 47 67 48 47 49 66 50 48 51 51 52 65 53 84 54 49 55
REMARK SMILES IDX 50 56 64 58 85 59 52 60 36 61 37 62 45 63 38 64 39 65 43 66
REMARK SMILES IDX 46 67 40 68 41 69 44 70 42 71 68 72 69 73 77 74 70 75 71 76
REMARK SMILES IDX 75 77 78 78 72 79 73 80 76 81 74 82 53 83 54 84 62 85 55 86
REMARK SMILES IDX 56 87 60 88 63 89 57 90 58 91 61 92 59 93
REMARK H PARENT 20 5 24 27 83 46 51 57
REMARK Flexibility Score: inf
ROOT
ATOM      1  C   UNL A   1      31.440  30.604  26.589  1.00  0.00     0.117 C 
ENDROOT
BRANCH   1   2
ATOM      2  N   UNL A   1      31.943  29.974  25.384  1.00  0.00    -0.356 N 
ATOM      3  O   UNL A   1      34.003  29.347  26.204  1.00  0.00    -0.275 OA
ATOM      4  C   UNL A   1      33.143  29.309  25.331  1.00  0.00     0.222 C 
ATOM      5  H   UNL A   1      31.399  30.026  24.566  1.00  0.00     0.163 HD
BRANCH   4   6
ATOM      6  C   UNL A   1      33.304  28.497  24.069  1.00  0.00     0.133 C 
BRANCH   6   7
ATOM      7  C   UNL A   1      33.687  27.029  24.298  1.00  0.00     0.147 C 
ATOM      8  C   UNL A   1      32.728  26.267  25.205  1.00  0.00     0.152 C 
ATOM      9  O   UNL A   1      34.020  26.291  23.113  1.00  0.00    -0.374 OA
ATOM     10  N   UNL A   1      31.524  25.871  24.489  1.00  0.00    -0.338 N 
ATOM     11  C   UNL A   1      32.953  25.594  22.451  1.00  0.00     0.182 C 
ATOM     12  C   UNL A   1      31.795  25.065  23.308  1.00  0.00     0.148 C 
BRANCH  10  13
ATOM     13  C   UNL A   1      30.214  26.065  24.902  1.00  0.00     0.223 C 
ATOM     14  O   UNL A   1      29.876  25.980  26.083  1.00  0.00    -0.275 OA
BRANCH  13  15
ATOM     15  C   UNL A   1      29.202  26.526  23.865  1.00  0.00     0.105 C 
BRANCH  15  16
ATOM     16  C   UNL A   1      29.305  28.022  23.514  1.00  0.00     0.014 C 
ATOM     17  C   UNL A   1      30.319  28.292  22.389  1.00  0.00     0.021 C 
ATOM     18  C   UNL A   1      28.015  28.700  23.033  1.00  0.00     0.141 C 
ATOM     19  C   UNL A   1      30.222  29.777  22.038  1.00  0.00     0.137 C 
ATOM     20  S   UNL A   1      28.521  30.240  22.305  1.00  0.00     0.150 S 
ATOM     21  O   UNL A   1      28.465  31.258  23.331  1.00  0.00    -0.229 OA
ATOM     22  O   UNL A   1      27.852  30.388  21.028  1.00  0.00    -0.229 OA
ENDBRANCH  15  16
ENDBRANCH  13  15
ENDBRANCH  10  13
ENDBRANCH   6   7
ENDBRANCH   4   6
ENDBRANCH   1   2
BRANCH   1  23
ATOM     23  C   UNL A   1      31.423  32.122  26.496  1.00  0.00     0.042 C 
BRANCH  23  24
ATOM     24  C   UNL A   1      32.599  32.845  27.145  1.00  0.00     0.118 C 
BRANCH  24  25
ATOM     25  N   UNL A   1      32.309  34.192  27.607  1.00  0.00    -0.352 N 
ATOM     26  C   UNL A   1      32.962  34.938  28.565  1.00  0.00     0.251 C 
ATOM     27  H   UNL A   1      31.541  34.633  27.176  1.00  0.00     0.163 HD
ATOM     28  O   UNL A   1      32.531  36.043  28.881  1.00  0.00    -0.269 OA
BRANCH  26  29
ATOM     29  C   UNL A   1      34.156  34.391  29.252  1.00  0.00     0.039 A 
ATOM     30  C   UNL A   1      33.979  33.648  30.421  1.00  0.00     0.014 A 
ATOM     31  C   UNL A   1      35.442  34.581  28.739  1.00  0.00     0.014 A 
ATOM     32  C   UNL A   1      35.078  33.035  31.029  1.00  0.00     0.010 A 
ATOM     33  C   UNL A   1      36.520  33.888  29.288  1.00  0.00     0.010 A 
ATOM     34  C   UNL A   1      36.354  33.113  30.445  1.00  0.00    -0.014 A 
BRANCH  34  35
ATOM     35  C   UNL A   1      37.518  32.403  31.044  1.00  0.00     0.031 A 
ATOM     36  C   UNL A   1      38.006  32.767  32.422  1.00  0.00     0.074 A 
ATOM     37  C   UNL A   1      38.162  31.453  30.337  1.00  0.00     0.049 A 
ATOM     38  N   UNL A   1      39.006  32.268  33.106  1.00  0.00    -0.248 NA
ATOM     39  C   UNL A   1      37.298  33.855  33.111  1.00  0.00     0.031 C 
ATOM     40  C   UNL A   1      37.831  31.044  28.971  1.00  0.00     0.029 A 
ATOM     41  N   UNL A   1      39.231  30.657  30.669  1.00  0.00    -0.354 N 
ATOM     42  C   UNL A   1      39.047  32.985  34.296  1.00  0.00     0.074 A 
ATOM     43  C   UNL A   1      38.021  34.000  34.210  1.00  0.00     0.031 C 
ATOM     44  C   UNL A   1      38.652  30.051  28.596  1.00  0.00     0.029 A 
ATOM     45  C   UNL A   1      39.592  29.776  29.677  1.00  0.00     0.049 A 
ATOM     46  H   UNL A   1      39.696  30.713  31.534  1.00  0.00     0.167 HD
ATOM     47  C   UNL A   1      39.845  32.796  35.375  1.00  0.00     0.037 A 
ATOM     48  C   UNL A   1      40.571  28.849  29.645  1.00  0.00     0.037 A 
ATOM     49  C   UNL A   1      40.856  31.776  35.466  1.00  0.00     0.049 A 
ATOM     50  C   UNL A   1      41.446  28.663  30.856  1.00  0.00     0.074 A 
ATOM     51  C   UNL A   1      41.682  31.472  36.534  1.00  0.00     0.029 A 
ATOM     52  N   UNL A   1      41.184  30.894  34.446  1.00  0.00    -0.354 N 
ATOM     53  N   UNL A   1      41.424  29.297  32.003  1.00  0.00    -0.248 NA
ATOM     54  C   UNL A   1      42.476  27.618  30.770  1.00  0.00     0.031 C 
ATOM     55  C   UNL A   1      42.549  30.447  36.141  1.00  0.00     0.029 A 
ATOM     56  C   UNL A   1      42.215  30.061  34.853  1.00  0.00     0.049 A 
ATOM     57  H   UNL A   1      40.748  30.865  33.564  1.00  0.00     0.167 HD
ATOM     58  C   UNL A   1      42.406  28.705  32.787  1.00  0.00     0.074 A 
ATOM     59  C   UNL A   1      42.992  27.648  31.990  1.00  0.00     0.031 C 
ATOM     60  C   UNL A   1      42.786  29.007  34.054  1.00  0.00     0.037 A 
BRANCH  47  61
ATOM     61  C   UNL A   1      39.652  33.717  36.549  1.00  0.00     0.064 A 
ATOM     62  C   UNL A   1      38.837  33.365  37.637  1.00  0.00     0.173 A 
ATOM     63  C   UNL A   1      40.313  34.953  36.603  1.00  0.00     0.173 A 
ATOM     64  F   UNL A   1      38.171  32.201  37.634  1.00  0.00    -0.203 F 
ATOM     65  C   UNL A   1      38.664  34.230  38.715  1.00  0.00     0.198 A 
ATOM     66  C   UNL A   1      40.168  35.799  37.699  1.00  0.00     0.198 A 
ATOM     67  F   UNL A   1      41.110  35.339  35.594  1.00  0.00    -0.203 F 
ATOM     68  F   UNL A   1      37.833  33.898  39.712  1.00  0.00    -0.200 F 
ATOM     69  C   UNL A   1      39.336  35.443  38.748  1.00  0.00     0.200 A 
ATOM     70  F   UNL A   1      40.831  36.964  37.737  1.00  0.00    -0.200 F 
ATOM     71  F   UNL A   1      39.174  36.271  39.790  1.00  0.00    -0.200 F 
ENDBRANCH  47  61
BRANCH  48  72
ATOM     72  C   UNL A   1      40.756  28.000  28.437  1.00  0.00     0.064 A 
ATOM     73  C   UNL A   1      41.546  28.434  27.363  1.00  0.00     0.173 A 
ATOM     74  C   UNL A   1      40.130  26.750  28.320  1.00  0.00     0.173 A 
ATOM     75  F   UNL A   1      42.149  29.631  27.415  1.00  0.00    -0.203 F 
ATOM     76  C   UNL A   1      41.679  27.665  26.208  1.00  0.00     0.198 A 
ATOM     77  C   UNL A   1      40.292  25.967  27.179  1.00  0.00     0.198 A 
ATOM     78  F   UNL A   1      39.368  26.284  29.320  1.00  0.00    -0.203 F 
ATOM     79  F   UNL A   1      42.391  28.132  25.173  1.00  0.00    -0.200 F 
ATOM     80  C   UNL A   1      41.056  26.429  26.119  1.00  0.00     0.200 A 
ATOM     81  F   UNL A   1      39.702  24.766  27.104  1.00  0.00    -0.200 F 
ATOM     82  F   UNL A   1      41.184  25.690  25.009  1.00  0.00    -0.200 F 
ENDBRANCH  48  72
BRANCH  60  83
ATOM     83  C   UNL A   1      43.851  28.146  34.676  1.00  0.00     0.064 A 
ATOM     84  C   UNL A   1      43.546  26.955  35.354  1.00  0.00     0.173 A 
ATOM     85  C   UNL A   1      45.202  28.518  34.586  1.00  0.00     0.173 A 
ATOM     86  F   UNL A   1      42.271  26.556  35.479  1.00  0.00    -0.203 F 
ATOM     87  C   UNL A   1      44.546  26.197  35.957  1.00  0.00     0.198 A 
ATOM     88  C   UNL A   1      46.202  27.737  35.156  1.00  0.00     0.198 A 
ATOM     89  F   UNL A   1      45.553  29.641  33.941  1.00  0.00    -0.203 F 
ATOM     90  F   UNL A   1      44.222  25.103  36.662  1.00  0.00    -0.200 F 
ATOM     91  C   UNL A   1      45.873  26.586  35.854  1.00  0.00     0.200 A 
ATOM     92  F   UNL A   1      47.486  28.104  35.037  1.00  0.00    -0.200 F 
ATOM     93  F   UNL A   1      46.834  25.856  36.437  1.00  0.00    -0.200 F 
ENDBRANCH  60  83
ENDBRANCH  34  35
ENDBRANCH  26  29
ENDBRANCH  24  25
ENDBRANCH  23  24
ENDBRANCH   1  23
TORSDOF 14
ENDMDL
MODEL 2
REMARK VINA RESULT:     -12.1      1.431      2.833
REMARK SMILES O=C(C[C@H]1CN(C(=O)C[C@H]2CCS(=O)(=O)C2)CCO1)NCCCNC(=O)c1ccc(-c2c3nc(c(-c4c(F)c(F)c(F)c(F)c4F)c4ccc([nH]4)c(-c4c(F)c(F)c(F)c(F)c4F)c4nc(c(-c5c(F)c(F)c(F)c(F)c5F)c5ccc2[nH]5)C=C4)C=C3)cc1
REMARK SMILES IDX 21 1 20 2 1 3 2 4 3 6 4 7 5 8 19 9 6 10 18 11 17 12 7 13
REMARK SMILES IDX 8 14 9 15 10 16 11 17 16 18 12 19 13 20 14 21 15 22 22 23
REMARK SMILES IDX 23 24 24 25 25 26 26 28 27 29 28 30 89 31 29 32 88 33 30 34
REMARK SMILES IDX 31 35 32 36 82 37 33 38 87 39 81 40 83 41 34 42 86 43 80 44
REMARK SMILES IDX 79 45 35 47 67 48 47 49 66 50 48 51 51 52 65 53 84 54 49 55
REMARK SMILES IDX 50 56 64 58 85 59 52 60 36 61 37 62 45 63 38 64 39 65 43 66
REMARK SMILES IDX 46 67 40 68 41 69 44 70 42 71 68 72 69 73 77 74 70 75 71 76
REMARK SMILES IDX 75 77 78 78 72 79 73 80 76 81 74 82 53 83 54 84 62 85 55 86
REMARK SMILES IDX 56 87 60 88 63 89 57 90 58 91 61 92 59 93
REMARK H PARENT 20 5 24 27 83 46 51 57
REMARK Flexibility Score: inf
ROOT
ATOM      1  C   UNL A   1      31.465  30.689  26.604  1.00  0.00     0.117 C 
ENDROOT
BRANCH   1   2
ATOM      2  N   UNL A   1      32.553  30.124  25.832  1.00  0.00    -0.356 N 
ATOM      3  O   UNL A   1      32.062  27.902  26.193  1.00  0.00    -0.275 OA
ATOM      4  C   UNL A   1      32.694  28.775  25.610  1.00  0.00     0.222 C 
ATOM      5  H   UNL A   1      33.222  30.735  25.448  1.00  0.00     0.163 HD
BRANCH   4   6
ATOM      6  C   UNL A   1      33.717  28.464  24.546  1.00  0.00     0.133 C 
BRANCH   6   7
ATOM      7  C   UNL A   1      33.239  28.703  23.109  1.00  0.00     0.147 C 
ATOM      8  C   UNL A   1      33.730  27.663  22.106  1.00  0.00     0.152 C 
ATOM      9  O   UNL A   1      31.838  28.979  22.967  1.00  0.00    -0.374 OA
ATOM     10  N   UNL A   1      32.950  26.437  22.192  1.00  0.00    -0.338 N 
ATOM     11  C   UNL A   1      30.966  27.860  22.749  1.00  0.00     0.182 C 
ATOM     12  C   UNL A   1      31.524  26.645  21.994  1.00  0.00     0.148 C 
BRANCH  10  13
ATOM     13  C   UNL A   1      33.448  25.146  22.293  1.00  0.00     0.223 C 
ATOM     14  O   UNL A   1      33.360  24.332  21.374  1.00  0.00    -0.275 OA
BRANCH  13  15
ATOM     15  C   UNL A   1      34.239  24.785  23.540  1.00  0.00     0.105 C 
BRANCH  15  16
ATOM     16  C   UNL A   1      33.483  23.862  24.514  1.00  0.00     0.014 C 
ATOM     17  C   UNL A   1      34.202  23.720  25.866  1.00  0.00     0.021 C 
ATOM     18  C   UNL A   1      32.055  24.286  24.885  1.00  0.00     0.141 C 
ATOM     19  C   UNL A   1      33.287  22.906  26.782  1.00  0.00     0.137 C 
ATOM     20  S   UNL A   1      31.618  23.316  26.308  1.00  0.00     0.150 S 
ATOM     21  O   UNL A   1      30.953  22.117  25.844  1.00  0.00    -0.229 OA
ATOM     22  O   UNL A   1      31.032  24.193  27.301  1.00  0.00    -0.229 OA
ENDBRANCH  15  16
ENDBRANCH  13  15
ENDBRANCH  10  13
ENDBRANCH   6   7
ENDBRANCH   4   6
ENDBRANCH   1   2
BRANCH   1  23
ATOM     23  C   UNL A   1      31.431  32.209  26.550  1.00  0.00     0.042 C 
BRANCH  23  24
ATOM     24  C   UNL A   1      32.605  32.927  27.207  1.00  0.00     0.118 C 
BRANCH  24  25
ATOM     25  N   UNL A   1      32.311  34.269  27.685  1.00  0.00    -0.352 N 
ATOM     26  C   UNL A   1      32.961  35.005  28.652  1.00  0.00     0.251 C 
ATOM     27  H   UNL A   1      31.542  34.712  27.259  1.00  0.00     0.163 HD
ATOM     28  O   UNL A   1      32.527  36.105  28.980  1.00  0.00    -0.269 OA
BRANCH  26  29
ATOM     29  C   UNL A   1      34.157  34.453  29.333  1.00  0.00     0.039 A 
ATOM     30  C   UNL A   1      33.982  33.713  30.504  1.00  0.00     0.014 A 
ATOM     31  C   UNL A   1      35.441  34.636  28.813  1.00  0.00     0.014 A 
ATOM     32  C   UNL A   1      35.082  33.096  31.107  1.00  0.00     0.010 A 
ATOM     33  C   UNL A   1      36.518  33.939  29.357  1.00  0.00     0.010 A 
ATOM     34  C   UNL A   1      36.355  33.167  30.516  1.00  0.00    -0.014 A 
BRANCH  34  35
ATOM     35  C   UNL A   1      37.519  32.452  31.110  1.00  0.00     0.031 A 
ATOM     36  C   UNL A   1      38.023  32.823  32.480  1.00  0.00     0.074 A 
ATOM     37  C   UNL A   1      38.149  31.491  30.404  1.00  0.00     0.049 A 
ATOM     38  N   UNL A   1      39.025  32.321  33.158  1.00  0.00    -0.248 NA
ATOM     39  C   UNL A   1      37.329  33.922  33.167  1.00  0.00     0.031 C 
ATOM     40  C   UNL A   1      37.802  31.075  29.044  1.00  0.00     0.029 A 
ATOM     41  N   UNL A   1      39.215  30.689  30.732  1.00  0.00    -0.354 N 
ATOM     42  C   UNL A   1      39.083  33.047  34.342  1.00  0.00     0.074 A 
ATOM     43  C   UNL A   1      38.064  34.069  34.258  1.00  0.00     0.031 C 
ATOM     44  C   UNL A   1      38.611  30.072  28.670  1.00  0.00     0.029 A 
ATOM     45  C   UNL A   1      39.559  29.798  29.744  1.00  0.00     0.049 A 
ATOM     46  H   UNL A   1      39.688  30.748  31.593  1.00  0.00     0.167 HD
ATOM     47  C   UNL A   1      39.889  32.860  35.416  1.00  0.00     0.037 A 
ATOM     48  C   UNL A   1      40.530  28.863  29.710  1.00  0.00     0.037 A 
ATOM     49  C   UNL A   1      40.893  31.832  35.505  1.00  0.00     0.049 A 
ATOM     50  C   UNL A   1      41.415  28.679  30.914  1.00  0.00     0.074 A 
ATOM     51  C   UNL A   1      41.727  31.530  36.567  1.00  0.00     0.029 A 
ATOM     52  N   UNL A   1      41.204  30.940  34.489  1.00  0.00    -0.354 N 
ATOM     53  N   UNL A   1      41.409  29.323  32.056  1.00  0.00    -0.248 NA
ATOM     54  C   UNL A   1      42.436  27.626  30.826  1.00  0.00     0.031 C 
ATOM     55  C   UNL A   1      42.582  30.495  36.174  1.00  0.00     0.029 A 
ATOM     56  C   UNL A   1      42.232  30.102  34.892  1.00  0.00     0.049 A 
ATOM     57  H   UNL A   1      40.760  30.907  33.612  1.00  0.00     0.167 HD
ATOM     58  C   UNL A   1      42.393  28.728  32.836  1.00  0.00     0.074 A 
ATOM     59  C   UNL A   1      42.963  27.661  32.041  1.00  0.00     0.031 C 
ATOM     60  C   UNL A   1      42.788  29.037  34.096  1.00  0.00     0.037 A 
BRANCH  47  61
ATOM     61  C   UNL A   1      39.714  33.791  36.584  1.00  0.00     0.064 A 
ATOM     62  C   UNL A   1      38.905  33.455  37.681  1.00  0.00     0.173 A 
ATOM     63  C   UNL A   1      40.389  35.021  36.623  1.00  0.00     0.173 A 
ATOM     64  F   UNL A   1      38.227  32.298  37.692  1.00  0.00    -0.203 F 
ATOM     65  C   UNL A   1      38.748  34.330  38.753  1.00  0.00     0.198 A 
ATOM     66  C   UNL A   1      40.260  35.877  37.714  1.00  0.00     0.198 A 
ATOM     67  F   UNL A   1      41.181  35.392  35.606  1.00  0.00    -0.203 F 
ATOM     68  F   UNL A   1      37.923  34.014  39.760  1.00  0.00    -0.200 F 
ATOM     69  C   UNL A   1      39.433  35.536  38.773  1.00  0.00     0.200 A 
ATOM     70  F   UNL A   1      40.934  37.035  37.738  1.00  0.00    -0.200 F 
ATOM     71  F   UNL A   1      39.287  36.374  39.809  1.00  0.00    -0.200 F 
ENDBRANCH  47  61
BRANCH  48  72
ATOM     72  C   UNL A   1      40.697  28.003  28.507  1.00  0.00     0.064 A 
ATOM     73  C   UNL A   1      41.475  28.426  27.419  1.00  0.00     0.173 A 
ATOM     74  C   UNL A   1      40.067  26.754  28.409  1.00  0.00     0.173 A 
ATOM     75  F   UNL A   1      42.082  29.622  27.453  1.00  0.00    -0.203 F 
ATOM     76  C   UNL A   1      41.591  27.647  26.269  1.00  0.00     0.198 A 
ATOM     77  C   UNL A   1      40.212  25.961  27.272  1.00  0.00     0.198 A 
ATOM     78  F   UNL A   1      39.317  26.299  29.422  1.00  0.00    -0.203 F 
ATOM     79  F   UNL A   1      42.290  28.103  25.221  1.00  0.00    -0.200 F 
ATOM     80  C   UNL A   1      40.963  26.412  26.198  1.00  0.00     0.200 A 
ATOM     81  F   UNL A   1      39.618  24.761  27.216  1.00  0.00    -0.200 F 
ATOM     82  F   UNL A   1      41.075  25.663  25.093  1.00  0.00    -0.200 F 
ENDBRANCH  48  72
BRANCH  60  83
ATOM     83  C   UNL A   1      43.852  28.172  34.716  1.00  0.00     0.064 A 
ATOM     84  C   UNL A   1      45.215  28.493  34.632  1.00  0.00     0.173 A 
ATOM     85  C   UNL A   1      43.497  27.006  35.411  1.00  0.00     0.173 A 
ATOM     86  F   UNL A   1      45.612  29.592  33.970  1.00  0.00    -0.203 F 
ATOM     87  C   UNL A   1      46.185  27.656  35.178  1.00  0.00     0.198 A 
ATOM     88  C   UNL A   1      44.466  26.192  35.990  1.00  0.00     0.198 A 
ATOM     89  F   UNL A   1      42.208  26.655  35.533  1.00  0.00    -0.203 F 
ATOM     90  F   UNL A   1      47.484  27.945  35.020  1.00  0.00    -0.200 F 
ATOM     91  C   UNL A   1      45.809  26.508  35.860  1.00  0.00     0.200 A 
ATOM     92  F   UNL A   1      44.099  25.094  36.667  1.00  0.00    -0.200 F 
ATOM     93  F   UNL A   1      46.743  25.702  36.384  1.00  0.00    -0.200 F 
ENDBRANCH  60  83
ENDBRANCH  34  35
ENDBRANCH  26  29
ENDBRANCH  24  25
ENDBRANCH  23  24
ENDBRANCH   1  23
TORSDOF 14
ENDMDL
MODEL 3
REMARK VINA RESULT:     -12.1      5.827      9.949
REMARK SMILES O=C(C[C@H]1CN(C(=O)C[C@H]2CCS(=O)(=O)C2)CCO1)NCCCNC(=O)c1ccc(-c2c3nc(c(-c4c(F)c(F)c(F)c(F)c4F)c4ccc([nH]4)c(-c4c(F)c(F)c(F)c(F)c4F)c4nc(c(-c5c(F)c(F)c(F)c(F)c5F)c5ccc2[nH]5)C=C4)C=C3)cc1
REMARK SMILES IDX 21 1 20 2 1 3 2 4 3 6 4 7 5 8 19 9 6 10 18 11 17 12 7 13
REMARK SMILES IDX 8 14 9 15 10 16 11 17 16 18 12 19 13 20 14 21 15 22 22 23
REMARK SMILES IDX 23 24 24 25 25 26 26 28 27 29 28 30 89 31 29 32 88 33 30 34
REMARK SMILES IDX 31 35 32 36 82 37 33 38 87 39 81 40 83 41 34 42 86 43 80 44
REMARK SMILES IDX 79 45 35 47 67 48 47 49 66 50 48 51 51 52 65 53 84 54 49 55
REMARK SMILES IDX 50 56 64 58 85 59 52 60 36 61 37 62 45 63 38 64 39 65 43 66
REMARK SMILES IDX 46 67 40 68 41 69 44 70 42 71 68 72 69 73 77 74 70 75 71 76
REMARK SMILES IDX 75 77 78 78 72 79 73 80 76 81 74 82 53 83 54 84 62 85 55 86
REMARK SMILES IDX 56 87 60 88 63 89 57 90 58 91 61 92 59 93
REMARK H PARENT 20 5 24 27 83 46 51 57
REMARK Flexibility Score: inf
ROOT
ATOM      1  C   UNL A   1      37.311  21.302  24.362  1.00  0.00     0.117 C 
ENDROOT
BRANCH   1   2
ATOM      2  N   UNL A   1      36.180  21.851  25.082  1.00  0.00    -0.356 N 
ATOM      3  O   UNL A   1      37.207  23.763  25.853  1.00  0.00    -0.275 OA
ATOM      4  C   UNL A   1      36.200  23.088  25.680  1.00  0.00     0.222 C 
ATOM      5  H   UNL A   1      35.359  21.312  25.147  1.00  0.00     0.163 HD
BRANCH   4   6
ATOM      6  C   UNL A   1      34.828  23.552  26.103  1.00  0.00     0.133 C 
BRANCH   6   7
ATOM      7  C   UNL A   1      34.413  24.917  25.540  1.00  0.00     0.147 C 
ATOM      8  C   UNL A   1      34.302  24.958  24.019  1.00  0.00     0.152 C 
ATOM      9  O   UNL A   1      33.287  25.530  26.186  1.00  0.00    -0.374 OA
ATOM     10  N   UNL A   1      33.056  24.360  23.564  1.00  0.00    -0.338 N 
ATOM     11  C   UNL A   1      31.987  25.252  25.645  1.00  0.00     0.182 C 
ATOM     12  C   UNL A   1      31.873  24.982  24.139  1.00  0.00     0.148 C 
BRANCH  10  13
ATOM     13  C   UNL A   1      32.913  23.400  22.572  1.00  0.00     0.223 C 
ATOM     14  O   UNL A   1      33.541  23.448  21.513  1.00  0.00    -0.275 OA
BRANCH  13  15
ATOM     15  C   UNL A   1      32.048  22.187  22.875  1.00  0.00     0.105 C 
BRANCH  15  16
ATOM     16  C   UNL A   1      32.751  21.116  23.730  1.00  0.00     0.014 C 
ATOM     17  C   UNL A   1      32.387  21.223  25.221  1.00  0.00     0.021 C 
ATOM     18  C   UNL A   1      32.454  19.654  23.370  1.00  0.00     0.141 C 
ATOM     19  C   UNL A   1      33.027  20.030  25.930  1.00  0.00     0.137 C 
ATOM     20  S   UNL A   1      33.024  18.692  24.751  1.00  0.00     0.150 S 
ATOM     21  O   UNL A   1      34.390  18.296  24.485  1.00  0.00    -0.229 OA
ATOM     22  O   UNL A   1      31.994  17.736  25.104  1.00  0.00    -0.229 OA
ENDBRANCH  15  16
ENDBRANCH  13  15
ENDBRANCH  10  13
ENDBRANCH   6   7
ENDBRANCH   4   6
ENDBRANCH   1   2
BRANCH   1  23
ATOM     23  C   UNL A   1      37.878  20.052  25.018  1.00  0.00     0.042 C 
BRANCH  23  24
ATOM     24  C   UNL A   1      39.068  20.266  25.946  1.00  0.00     0.118 C 
BRANCH  24  25
ATOM     25  N   UNL A   1      40.072  19.215  25.906  1.00  0.00    -0.352 N 
ATOM     26  C   UNL A   1      41.436  19.313  26.077  1.00  0.00     0.251 C 
ATOM     27  H   UNL A   1      39.730  18.308  25.733  1.00  0.00     0.163 HD
ATOM     28  O   UNL A   1      42.144  18.321  25.938  1.00  0.00    -0.269 OA
BRANCH  26  29
ATOM     29  C   UNL A   1      42.058  20.624  26.383  1.00  0.00     0.039 A 
ATOM     30  C   UNL A   1      42.424  21.457  25.324  1.00  0.00     0.014 A 
ATOM     31  C   UNL A   1      42.256  21.047  27.699  1.00  0.00     0.014 A 
ATOM     32  C   UNL A   1      42.917  22.740  25.586  1.00  0.00     0.010 A 
ATOM     33  C   UNL A   1      42.651  22.359  27.957  1.00  0.00     0.010 A 
ATOM     34  C   UNL A   1      42.995  23.219  26.905  1.00  0.00    -0.014 A 
BRANCH  34  35
ATOM     35  C   UNL A   1      43.447  24.609  27.191  1.00  0.00     0.031 A 
ATOM     36  C   UNL A   1      42.484  25.624  27.749  1.00  0.00     0.074 A 
ATOM     37  C   UNL A   1      44.715  24.974  26.914  1.00  0.00     0.049 A 
ATOM     38  N   UNL A   1      42.689  26.882  28.054  1.00  0.00    -0.248 NA
ATOM     39  C   UNL A   1      41.101  25.176  27.967  1.00  0.00     0.031 C 
ATOM     40  C   UNL A   1      45.733  24.109  26.316  1.00  0.00     0.029 A 
ATOM     41  N   UNL A   1      45.366  26.169  27.099  1.00  0.00    -0.354 N 
ATOM     42  C   UNL A   1      41.463  27.370  28.491  1.00  0.00     0.074 A 
ATOM     43  C   UNL A   1      40.506  26.298  28.342  1.00  0.00     0.031 C 
ATOM     44  C   UNL A   1      46.887  24.787  26.220  1.00  0.00     0.029 A 
ATOM     45  C   UNL A   1      46.684  26.145  26.711  1.00  0.00     0.049 A 
ATOM     46  H   UNL A   1      44.929  26.968  27.473  1.00  0.00     0.167 HD
ATOM     47  C   UNL A   1      41.168  28.592  28.999  1.00  0.00     0.037 A 
ATOM     48  C   UNL A   1      47.624  27.111  26.751  1.00  0.00     0.037 A 
ATOM     49  C   UNL A   1      42.125  29.655  29.161  1.00  0.00     0.049 A 
ATOM     50  C   UNL A   1      47.268  28.460  27.315  1.00  0.00     0.074 A 
ATOM     51  C   UNL A   1      41.936  30.911  29.711  1.00  0.00     0.029 A 
ATOM     52  N   UNL A   1      43.454  29.589  28.769  1.00  0.00    -0.354 N 
ATOM     53  N   UNL A   1      46.125  28.885  27.794  1.00  0.00    -0.248 NA
ATOM     54  C   UNL A   1      48.343  29.461  27.357  1.00  0.00     0.031 C 
ATOM     55  C   UNL A   1      43.133  31.625  29.597  1.00  0.00     0.029 A 
ATOM     56  C   UNL A   1      44.090  30.790  29.044  1.00  0.00     0.049 A 
ATOM     57  H   UNL A   1      43.882  28.805  28.356  1.00  0.00     0.167 HD
ATOM     58  C   UNL A   1      46.351  30.185  28.229  1.00  0.00     0.074 A 
ATOM     59  C   UNL A   1      47.747  30.471  27.973  1.00  0.00     0.031 C 
ATOM     60  C   UNL A   1      45.482  31.062  28.792  1.00  0.00     0.037 A 
BRANCH  47  61
ATOM     61  C   UNL A   1      39.745  28.842  29.419  1.00  0.00     0.064 A 
ATOM     62  C   UNL A   1      39.307  28.590  30.729  1.00  0.00     0.173 A 
ATOM     63  C   UNL A   1      38.815  29.368  28.509  1.00  0.00     0.173 A 
ATOM     64  F   UNL A   1      40.150  28.076  31.637  1.00  0.00    -0.203 F 
ATOM     65  C   UNL A   1      37.985  28.822  31.101  1.00  0.00     0.198 A 
ATOM     66  C   UNL A   1      37.504  29.634  28.896  1.00  0.00     0.198 A 
ATOM     67  F   UNL A   1      39.179  29.635  27.246  1.00  0.00    -0.203 F 
ATOM     68  F   UNL A   1      37.576  28.516  32.340  1.00  0.00    -0.200 F 
ATOM     69  C   UNL A   1      37.087  29.351  30.187  1.00  0.00     0.200 A 
ATOM     70  F   UNL A   1      36.641  30.161  28.015  1.00  0.00    -0.200 F 
ATOM     71  F   UNL A   1      35.817  29.581  30.549  1.00  0.00    -0.200 F 
ENDBRANCH  47  61
BRANCH  48  72
ATOM     72  C   UNL A   1      49.005  26.829  26.271  1.00  0.00     0.064 A 
ATOM     73  C   UNL A   1      49.374  27.079  24.941  1.00  0.00     0.173 A 
ATOM     74  C   UNL A   1      49.977  26.284  27.123  1.00  0.00     0.173 A 
ATOM     75  F   UNL A   1      48.476  27.581  24.080  1.00  0.00    -0.203 F 
ATOM     76  C   UNL A   1      50.650  26.767  24.475  1.00  0.00     0.198 A 
ATOM     77  C   UNL A   1      51.263  26.004  26.664  1.00  0.00     0.198 A 
ATOM     78  F   UNL A   1      49.680  26.030  28.405  1.00  0.00    -0.203 F 
ATOM     79  F   UNL A   1      50.955  26.961  23.185  1.00  0.00    -0.200 F 
ATOM     80  C   UNL A   1      51.595  26.235  25.338  1.00  0.00     0.200 A 
ATOM     81  F   UNL A   1      52.178  25.506  27.506  1.00  0.00    -0.200 F 
ATOM     82  F   UNL A   1      52.822  25.936  24.891  1.00  0.00    -0.200 F 
ENDBRANCH  48  72
BRANCH  60  83
ATOM     83  C   UNL A   1      46.031  32.395  29.220  1.00  0.00     0.064 A 
ATOM     84  C   UNL A   1      46.569  32.604  30.499  1.00  0.00     0.173 A 
ATOM     85  C   UNL A   1      46.022  33.481  28.330  1.00  0.00     0.173 A 
ATOM     86  F   UNL A   1      46.594  31.604  31.394  1.00  0.00    -0.203 F 
ATOM     87  C   UNL A   1      47.033  33.859  30.886  1.00  0.00     0.198 A 
ATOM     88  C   UNL A   1      46.523  34.723  28.707  1.00  0.00     0.198 A 
ATOM     89  F   UNL A   1      45.529  33.337  27.091  1.00  0.00    -0.203 F 
ATOM     90  F   UNL A   1      47.475  34.051  32.137  1.00  0.00    -0.200 F 
ATOM     91  C   UNL A   1      47.014  34.916  29.989  1.00  0.00     0.200 A 
ATOM     92  F   UNL A   1      46.522  35.738  27.831  1.00  0.00    -0.200 F 
ATOM     93  F   UNL A   1      47.459  36.123  30.363  1.00  0.00    -0.200 F 
ENDBRANCH  60  83
ENDBRANCH  34  35
ENDBRANCH  26  29
ENDBRANCH  24  25
ENDBRANCH  23  24
ENDBRANCH   1  23
TORSDOF 14
ENDMDL
