MODEL 1
REMARK VINA RESULT:     -11.0      0.000      0.000
REMARK SMILES CCCN(C(=O)NCC(=O)NCCCNC(=O)c1ccc(-c2c3nc(c(-c4c(F)c(F)c(F)c(F)c4F)c4ccc([nH]4)c(-c4c(F)c(F)c(F)c(F)c4F)c4nc(c(-c5c(F)c(F)c(F)c(F)c5F)c5ccc2[nH]5)C=C4)C=C3)cc1)C(C)C
REMARK SMILES IDX 12 1 11 2 9 3 10 4 8 6 7 7 5 8 6 9 4 11 3 12 2 13 1 14 81 15
REMARK SMILES IDX 82 16 83 17 13 18 14 19 15 20 16 21 17 23 18 24 19 25 80 26
REMARK SMILES IDX 20 27 79 28 21 29 22 30 23 31 73 32 24 33 78 34 72 35 74 36
REMARK SMILES IDX 25 37 77 38 71 39 70 40 26 42 58 43 38 44 57 45 39 46 42 47
REMARK SMILES IDX 56 48 75 49 40 50 41 51 55 53 76 54 43 55 27 56 28 57 36 58
REMARK SMILES IDX 29 59 30 60 34 61 37 62 31 63 32 64 35 65 33 66 59 67 60 68
REMARK SMILES IDX 68 69 61 70 62 71 66 72 69 73 63 74 64 75 67 76 65 77 44 78
REMARK SMILES IDX 45 79 53 80 46 81 47 82 51 83 54 84 48 85 49 86 52 87 50 88
REMARK H PARENT 11 5 7 10 15 22 74 41 42 52
REMARK Flexibility Score: inf
ROOT
ATOM      1  C   UNL A   1      31.982  30.460  26.211  1.00  0.00     0.117 C 
ENDROOT
BRANCH   1   2
ATOM      2  N   UNL A   1      31.299  30.092  24.991  1.00  0.00    -0.355 N 
ATOM      3  C   UNL A   1      31.638  29.230  23.995  1.00  0.00     0.239 C 
ATOM      4  O   UNL A   1      30.761  29.007  23.152  1.00  0.00    -0.273 OA
ATOM      5  H   UNL A   1      30.436  30.545  24.858  1.00  0.00     0.163 HD
BRANCH   3   6
ATOM      6  C   UNL A   1      32.944  28.416  23.967  1.00  0.00     0.217 C 
BRANCH   6   7
ATOM      7  N   UNL A   1      33.238  27.617  22.792  1.00  0.00    -0.329 N 
ATOM      8  C   UNL A   1      33.245  26.333  22.413  1.00  0.00     0.318 C 
ATOM      9  O   UNL A   1      33.529  26.181  21.218  1.00  0.00    -0.249 OA
ATOM     10  H   UNL A   1      33.518  28.196  22.046  1.00  0.00     0.165 HD
BRANCH   8  11
ATOM     11  N   UNL A   1      33.040  25.266  23.258  1.00  0.00    -0.322 N 
BRANCH  11  12
ATOM     12  C   UNL A   1      31.779  24.536  23.481  1.00  0.00     0.121 C 
BRANCH  12  13
ATOM     13  C   UNL A   1      30.535  25.393  23.715  1.00  0.00     0.018 C 
ATOM     14  C   UNL A   1      30.385  25.872  25.151  1.00  0.00     0.006 C 
ENDBRANCH  12  13
ENDBRANCH  11  12
BRANCH  11  15
ATOM     15  C   UNL A   1      34.229  24.872  24.065  1.00  0.00     0.080 C 
ATOM     16  C   UNL A   1      34.037  25.032  25.577  1.00  0.00     0.031 C 
ATOM     17  C   UNL A   1      34.761  23.488  23.709  1.00  0.00     0.031 C 
ENDBRANCH  11  15
ENDBRANCH   8  11
ENDBRANCH   6   7
ENDBRANCH   3   6
ENDBRANCH   1   2
BRANCH   1  18
ATOM     18  C   UNL A   1      31.607  31.840  26.718  1.00  0.00     0.042 C 
BRANCH  18  19
ATOM     19  C   UNL A   1      32.786  32.591  27.319  1.00  0.00     0.118 C 
BRANCH  19  20
ATOM     20  N   UNL A   1      32.472  33.986  27.615  1.00  0.00    -0.352 N 
ATOM     21  C   UNL A   1      33.009  34.830  28.555  1.00  0.00     0.251 C 
ATOM     22  H   UNL A   1      31.768  34.382  27.053  1.00  0.00     0.163 HD
ATOM     23  O   UNL A   1      32.489  35.921  28.771  1.00  0.00    -0.269 OA
BRANCH  21  24
ATOM     24  C   UNL A   1      34.200  34.413  29.323  1.00  0.00     0.039 A 
ATOM     25  C   UNL A   1      34.028  33.807  30.570  1.00  0.00     0.014 A 
ATOM     26  C   UNL A   1      35.482  34.609  28.806  1.00  0.00     0.014 A 
ATOM     27  C   UNL A   1      35.140  33.317  31.259  1.00  0.00     0.010 A 
ATOM     28  C   UNL A   1      36.576  34.044  29.449  1.00  0.00     0.010 A 
ATOM     29  C   UNL A   1      36.417  33.390  30.680  1.00  0.00    -0.014 A 
BRANCH  29  30
ATOM     30  C   UNL A   1      37.609  32.788  31.328  1.00  0.00     0.031 A 
ATOM     31  C   UNL A   1      38.307  31.629  30.676  1.00  0.00     0.074 A 
ATOM     32  C   UNL A   1      37.988  33.210  32.551  1.00  0.00     0.049 A 
ATOM     33  N   UNL A   1      39.255  30.860  31.148  1.00  0.00    -0.248 NA
ATOM     34  C   UNL A   1      37.854  31.262  29.324  1.00  0.00     0.031 C 
ATOM     35  C   UNL A   1      37.358  34.295  33.307  1.00  0.00     0.029 A 
ATOM     36  N   UNL A   1      38.977  32.755  33.388  1.00  0.00    -0.354 N 
ATOM     37  C   UNL A   1      39.488  29.905  30.168  1.00  0.00     0.074 A 
ATOM     38  C   UNL A   1      38.557  30.164  29.091  1.00  0.00     0.031 C 
ATOM     39  C   UNL A   1      37.976  34.422  34.492  1.00  0.00     0.029 A 
ATOM     40  C   UNL A   1      39.012  33.399  34.601  1.00  0.00     0.049 A 
ATOM     41  H   UNL A   1      39.603  32.036  33.142  1.00  0.00     0.167 HD
ATOM     42  C   UNL A   1      40.408  28.912  30.163  1.00  0.00     0.037 A 
ATOM     43  C   UNL A   1      39.773  33.172  35.689  1.00  0.00     0.037 A 
ATOM     44  C   UNL A   1      41.357  28.687  31.220  1.00  0.00     0.049 A 
ATOM     45  C   UNL A   1      40.789  32.063  35.653  1.00  0.00     0.074 A 
ATOM     46  C   UNL A   1      42.387  27.764  31.269  1.00  0.00     0.029 A 
ATOM     47  N   UNL A   1      41.390  29.390  32.415  1.00  0.00    -0.354 N 
ATOM     48  N   UNL A   1      41.057  31.215  34.689  1.00  0.00    -0.248 NA
ATOM     49  C   UNL A   1      41.615  31.879  36.856  1.00  0.00     0.031 C 
ATOM     50  C   UNL A   1      43.007  27.869  32.517  1.00  0.00     0.029 A 
ATOM     51  C   UNL A   1      42.404  28.899  33.222  1.00  0.00     0.049 A 
ATOM     52  H   UNL A   1      40.783  30.128  32.654  1.00  0.00     0.167 HD
ATOM     53  C   UNL A   1      42.097  30.423  35.154  1.00  0.00     0.074 A 
ATOM     54  C   UNL A   1      42.422  30.895  36.482  1.00  0.00     0.031 C 
ATOM     55  C   UNL A   1      42.726  29.394  34.534  1.00  0.00     0.037 A 
BRANCH  42  56
ATOM     56  C   UNL A   1      40.436  27.986  28.983  1.00  0.00     0.064 A 
ATOM     57  C   UNL A   1      39.668  26.812  28.944  1.00  0.00     0.173 A 
ATOM     58  C   UNL A   1      41.193  28.312  27.847  1.00  0.00     0.173 A 
ATOM     59  F   UNL A   1      38.934  26.449  30.007  1.00  0.00    -0.203 F 
ATOM     60  C   UNL A   1      39.675  25.989  27.821  1.00  0.00     0.198 A 
ATOM     61  C   UNL A   1      41.174  27.502  26.715  1.00  0.00     0.198 A 
ATOM     62  F   UNL A   1      41.941  29.426  27.829  1.00  0.00    -0.203 F 
ATOM     63  F   UNL A   1      38.966  24.852  27.822  1.00  0.00    -0.200 F 
ATOM     64  C   UNL A   1      40.419  26.339  26.705  1.00  0.00     0.200 A 
ATOM     65  F   UNL A   1      41.880  27.850  25.631  1.00  0.00    -0.200 F 
ATOM     66  F   UNL A   1      40.411  25.554  25.619  1.00  0.00    -0.200 F 
ENDBRANCH  42  56
BRANCH  43  67
ATOM     67  C   UNL A   1      39.600  34.007  36.908  1.00  0.00     0.064 A 
ATOM     68  C   UNL A   1      38.815  33.564  37.982  1.00  0.00     0.173 A 
ATOM     69  C   UNL A   1      40.197  35.271  37.017  1.00  0.00     0.173 A 
ATOM     70  F   UNL A   1      38.206  32.371  37.917  1.00  0.00    -0.203 F 
ATOM     71  C   UNL A   1      38.610  34.365  39.104  1.00  0.00     0.198 A 
ATOM     72  C   UNL A   1      40.018  36.058  38.153  1.00  0.00     0.198 A 
ATOM     73  F   UNL A   1      40.962  35.741  36.021  1.00  0.00    -0.203 F 
ATOM     74  F   UNL A   1      37.808  33.940  40.089  1.00  0.00    -0.200 F 
ATOM     75  C   UNL A   1      39.216  35.609  39.191  1.00  0.00     0.200 A 
ATOM     76  F   UNL A   1      40.617  37.254  38.239  1.00  0.00    -0.200 F 
ATOM     77  F   UNL A   1      39.016  36.380  40.269  1.00  0.00    -0.200 F 
ENDBRANCH  43  67
BRANCH  55  78
ATOM     78  C   UNL A   1      43.863  28.737  35.261  1.00  0.00     0.064 A 
ATOM     79  C   UNL A   1      45.187  29.174  35.110  1.00  0.00     0.173 A 
ATOM     80  C   UNL A   1      43.613  27.700  36.172  1.00  0.00     0.173 A 
ATOM     81  F   UNL A   1      45.481  30.153  34.240  1.00  0.00    -0.203 F 
ATOM     82  C   UNL A   1      46.221  28.584  35.832  1.00  0.00     0.198 A 
ATOM     83  C   UNL A   1      44.645  27.134  36.916  1.00  0.00     0.198 A 
ATOM     84  F   UNL A   1      42.363  27.250  36.359  1.00  0.00    -0.203 F 
ATOM     85  F   UNL A   1      47.484  28.990  35.644  1.00  0.00    -0.200 F 
ATOM     86  C   UNL A   1      45.947  27.573  36.743  1.00  0.00     0.200 A 
ATOM     87  F   UNL A   1      44.375  26.169  37.807  1.00  0.00    -0.200 F 
ATOM     88  F   UNL A   1      46.942  27.020  37.449  1.00  0.00    -0.200 F 
ENDBRANCH  55  78
ENDBRANCH  29  30
ENDBRANCH  21  24
ENDBRANCH  19  20
ENDBRANCH  18  19
ENDBRANCH   1  18
TORSDOF 15
ENDMDL
MODEL 2
REMARK VINA RESULT:     -11.0      0.425      1.521
REMARK SMILES CCCN(C(=O)NCC(=O)NCCCNC(=O)c1ccc(-c2c3nc(c(-c4c(F)c(F)c(F)c(F)c4F)c4ccc([nH]4)c(-c4c(F)c(F)c(F)c(F)c4F)c4nc(c(-c5c(F)c(F)c(F)c(F)c5F)c5ccc2[nH]5)C=C4)C=C3)cc1)C(C)C
REMARK SMILES IDX 12 1 11 2 9 3 10 4 8 6 7 7 5 8 6 9 4 11 3 12 2 13 1 14 81 15
REMARK SMILES IDX 82 16 83 17 13 18 14 19 15 20 16 21 17 23 18 24 19 25 80 26
REMARK SMILES IDX 20 27 79 28 21 29 22 30 23 31 73 32 24 33 78 34 72 35 74 36
REMARK SMILES IDX 25 37 77 38 71 39 70 40 26 42 58 43 38 44 57 45 39 46 42 47
REMARK SMILES IDX 56 48 75 49 40 50 41 51 55 53 76 54 43 55 27 56 28 57 36 58
REMARK SMILES IDX 29 59 30 60 34 61 37 62 31 63 32 64 35 65 33 66 59 67 60 68
REMARK SMILES IDX 68 69 61 70 62 71 66 72 69 73 63 74 64 75 67 76 65 77 44 78
REMARK SMILES IDX 45 79 53 80 46 81 47 82 51 83 54 84 48 85 49 86 52 87 50 88
REMARK H PARENT 11 5 7 10 15 22 74 41 42 52
REMARK Flexibility Score: inf
ROOT
ATOM      1  C   UNL A   1      31.836  30.519  26.146  1.00  0.00     0.117 C 
ENDROOT
BRANCH   1   2
ATOM      2  N   UNL A   1      31.141  30.265  24.904  1.00  0.00    -0.355 N 
ATOM      3  C   UNL A   1      31.251  29.253  24.002  1.00  0.00     0.239 C 
ATOM      4  O   UNL A   1      30.396  29.230  23.109  1.00  0.00    -0.273 OA
ATOM      5  H   UNL A   1      30.468  30.944  24.671  1.00  0.00     0.163 HD
BRANCH   3   6
ATOM      6  C   UNL A   1      32.242  28.083  24.136  1.00  0.00     0.217 C 
BRANCH   6   7
ATOM      7  N   UNL A   1      32.845  27.543  22.931  1.00  0.00    -0.329 N 
ATOM      8  C   UNL A   1      33.235  26.363  22.433  1.00  0.00     0.318 C 
ATOM      9  O   UNL A   1      33.653  26.442  21.271  1.00  0.00    -0.249 OA
ATOM     10  H   UNL A   1      33.020  28.263  22.284  1.00  0.00     0.165 HD
BRANCH   8  11
ATOM     11  N   UNL A   1      33.255  25.182  23.140  1.00  0.00    -0.322 N 
BRANCH  11  12
ATOM     12  C   UNL A   1      34.235  24.772  24.162  1.00  0.00     0.121 C 
BRANCH  12  13
ATOM     13  C   UNL A   1      33.864  25.075  25.613  1.00  0.00     0.018 C 
ATOM     14  C   UNL A   1      33.426  23.848  26.399  1.00  0.00     0.006 C 
ENDBRANCH  12  13
ENDBRANCH  11  12
BRANCH  11  15
ATOM     15  C   UNL A   1      32.190  24.211  22.761  1.00  0.00     0.080 C 
ATOM     16  C   UNL A   1      32.617  22.744  22.873  1.00  0.00     0.031 C 
ATOM     17  C   UNL A   1      30.866  24.467  23.472  1.00  0.00     0.031 C 
ENDBRANCH  11  15
ENDBRANCH   8  11
ENDBRANCH   6   7
ENDBRANCH   3   6
ENDBRANCH   1   2
BRANCH   1  18
ATOM     18  C   UNL A   1      31.493  31.861  26.764  1.00  0.00     0.042 C 
BRANCH  18  19
ATOM     19  C   UNL A   1      32.711  32.593  27.308  1.00  0.00     0.118 C 
BRANCH  19  20
ATOM     20  N   UNL A   1      32.439  33.997  27.602  1.00  0.00    -0.352 N 
ATOM     21  C   UNL A   1      33.011  34.830  28.531  1.00  0.00     0.251 C 
ATOM     22  H   UNL A   1      31.739  34.410  27.047  1.00  0.00     0.163 HD
ATOM     23  O   UNL A   1      32.524  35.936  28.749  1.00  0.00    -0.269 OA
BRANCH  21  24
ATOM     24  C   UNL A   1      34.200  34.384  29.284  1.00  0.00     0.039 A 
ATOM     25  C   UNL A   1      34.027  33.756  30.520  1.00  0.00     0.014 A 
ATOM     26  C   UNL A   1      35.482  34.574  28.765  1.00  0.00     0.014 A 
ATOM     27  C   UNL A   1      35.136  33.240  31.195  1.00  0.00     0.010 A 
ATOM     28  C   UNL A   1      36.572  33.984  29.392  1.00  0.00     0.010 A 
ATOM     29  C   UNL A   1      36.411  33.308  30.610  1.00  0.00    -0.014 A 
BRANCH  29  30
ATOM     30  C   UNL A   1      37.598  32.680  31.242  1.00  0.00     0.031 A 
ATOM     31  C   UNL A   1      38.279  31.524  30.565  1.00  0.00     0.074 A 
ATOM     32  C   UNL A   1      37.989  33.074  32.470  1.00  0.00     0.049 A 
ATOM     33  N   UNL A   1      39.219  30.735  31.017  1.00  0.00    -0.248 NA
ATOM     34  C   UNL A   1      37.815  31.188  29.208  1.00  0.00     0.031 C 
ATOM     35  C   UNL A   1      37.376  34.152  33.249  1.00  0.00     0.029 A 
ATOM     36  N   UNL A   1      38.976  32.591  33.293  1.00  0.00    -0.354 N 
ATOM     37  C   UNL A   1      39.436  29.795  30.018  1.00  0.00     0.074 A 
ATOM     38  C   UNL A   1      38.503  30.086  28.951  1.00  0.00     0.031 C 
ATOM     39  C   UNL A   1      38.002  34.249  34.434  1.00  0.00     0.029 A 
ATOM     40  C   UNL A   1      39.025  33.212  34.518  1.00  0.00     0.049 A 
ATOM     41  H   UNL A   1      39.592  31.869  33.031  1.00  0.00     0.167 HD
ATOM     42  C   UNL A   1      40.343  28.791  29.990  1.00  0.00     0.037 A 
ATOM     43  C   UNL A   1      39.788  32.955  35.598  1.00  0.00     0.037 A 
ATOM     44  C   UNL A   1      41.295  28.534  31.037  1.00  0.00     0.049 A 
ATOM     45  C   UNL A   1      40.791  31.833  35.536  1.00  0.00     0.074 A 
ATOM     46  C   UNL A   1      42.313  27.598  31.064  1.00  0.00     0.029 A 
ATOM     47  N   UNL A   1      41.342  29.214  32.245  1.00  0.00    -0.354 N 
ATOM     48  N   UNL A   1      41.043  31.001  34.554  1.00  0.00    -0.248 NA
ATOM     49  C   UNL A   1      41.621  31.617  36.730  1.00  0.00     0.031 C 
ATOM     50  C   UNL A   1      42.940  27.672  32.311  1.00  0.00     0.029 A 
ATOM     51  C   UNL A   1      42.354  28.696  33.037  1.00  0.00     0.049 A 
ATOM     52  H   UNL A   1      40.746  29.955  32.501  1.00  0.00     0.167 HD
ATOM     53  C   UNL A   1      42.075  30.187  34.999  1.00  0.00     0.074 A 
ATOM     54  C   UNL A   1      42.413  30.631  36.335  1.00  0.00     0.031 C 
ATOM     55  C   UNL A   1      42.689  29.163  34.357  1.00  0.00     0.037 A 
BRANCH  42  56
ATOM     56  C   UNL A   1      40.354  27.887  28.792  1.00  0.00     0.064 A 
ATOM     57  C   UNL A   1      41.121  28.175  27.654  1.00  0.00     0.173 A 
ATOM     58  C   UNL A   1      39.635  26.681  28.812  1.00  0.00     0.173 A 
ATOM     59  F   UNL A   1      41.818  29.319  27.581  1.00  0.00    -0.203 F 
ATOM     60  C   UNL A   1      41.150  27.301  26.570  1.00  0.00     0.198 A 
ATOM     61  C   UNL A   1      39.692  25.795  27.739  1.00  0.00     0.198 A 
ATOM     62  F   UNL A   1      38.889  26.353  29.878  1.00  0.00    -0.203 F 
ATOM     63  F   UNL A   1      41.857  27.617  25.477  1.00  0.00    -0.200 F 
ATOM     64  C   UNL A   1      40.445  26.108  26.617  1.00  0.00     0.200 A 
ATOM     65  F   UNL A   1      39.022  24.636  27.793  1.00  0.00    -0.200 F 
ATOM     66  F   UNL A   1      40.488  25.261  25.580  1.00  0.00    -0.200 F 
ENDBRANCH  42  56
BRANCH  43  67
ATOM     67  C   UNL A   1      39.633  33.768  36.833  1.00  0.00     0.064 A 
ATOM     68  C   UNL A   1      38.798  33.345  37.877  1.00  0.00     0.173 A 
ATOM     69  C   UNL A   1      40.296  34.995  36.987  1.00  0.00     0.173 A 
ATOM     70  F   UNL A   1      38.125  32.190  37.768  1.00  0.00    -0.203 F 
ATOM     71  C   UNL A   1      38.610  34.129  39.013  1.00  0.00     0.198 A 
ATOM     72  C   UNL A   1      40.133  35.763  38.138  1.00  0.00     0.198 A 
ATOM     73  F   UNL A   1      41.110  35.444  36.022  1.00  0.00    -0.203 F 
ATOM     74  F   UNL A   1      37.761  33.726  39.969  1.00  0.00    -0.200 F 
ATOM     75  C   UNL A   1      39.281  35.335  39.145  1.00  0.00     0.200 A 
ATOM     76  F   UNL A   1      40.794  36.921  38.269  1.00  0.00    -0.200 F 
ATOM     77  F   UNL A   1      39.098  36.090  40.238  1.00  0.00    -0.200 F 
ENDBRANCH  43  67
BRANCH  55  78
ATOM     78  C   UNL A   1      43.821  28.478  35.066  1.00  0.00     0.064 A 
ATOM     79  C   UNL A   1      45.140  28.946  34.975  1.00  0.00     0.173 A 
ATOM     80  C   UNL A   1      43.570  27.378  35.900  1.00  0.00     0.173 A 
ATOM     81  F   UNL A   1      45.435  29.986  34.180  1.00  0.00    -0.203 F 
ATOM     82  C   UNL A   1      46.168  28.327  35.682  1.00  0.00     0.198 A 
ATOM     83  C   UNL A   1      44.594  26.782  36.629  1.00  0.00     0.198 A 
ATOM     84  F   UNL A   1      42.324  26.896  36.027  1.00  0.00    -0.203 F 
ATOM     85  F   UNL A   1      47.427  28.767  35.551  1.00  0.00    -0.200 F 
ATOM     86  C   UNL A   1      45.892  27.253  36.516  1.00  0.00     0.200 A 
ATOM     87  F   UNL A   1      44.322  25.755  37.447  1.00  0.00    -0.200 F 
ATOM     88  F   UNL A   1      46.881  26.671  37.208  1.00  0.00    -0.200 F 
ENDBRANCH  55  78
ENDBRANCH  29  30
ENDBRANCH  21  24
ENDBRANCH  19  20
ENDBRANCH  18  19
ENDBRANCH   1  18
TORSDOF 15
ENDMDL
MODEL 3
REMARK VINA RESULT:     -10.7      0.974      2.378
REMARK SMILES CCCN(C(=O)NCC(=O)NCCCNC(=O)c1ccc(-c2c3nc(c(-c4c(F)c(F)c(F)c(F)c4F)c4ccc([nH]4)c(-c4c(F)c(F)c(F)c(F)c4F)c4nc(c(-c5c(F)c(F)c(F)c(F)c5F)c5ccc2[nH]5)C=C4)C=C3)cc1)C(C)C
REMARK SMILES IDX 12 1 11 2 9 3 10 4 8 6 7 7 5 8 6 9 4 11 3 12 2 13 1 14 81 15
REMARK SMILES IDX 82 16 83 17 13 18 14 19 15 20 16 21 17 23 18 24 19 25 80 26
REMARK SMILES IDX 20 27 79 28 21 29 22 30 23 31 73 32 24 33 78 34 72 35 74 36
REMARK SMILES IDX 25 37 77 38 71 39 70 40 26 42 58 43 38 44 57 45 39 46 42 47
REMARK SMILES IDX 56 48 75 49 40 50 41 51 55 53 76 54 43 55 27 56 28 57 36 58
REMARK SMILES IDX 29 59 30 60 34 61 37 62 31 63 32 64 35 65 33 66 59 67 60 68
REMARK SMILES IDX 68 69 61 70 62 71 66 72 69 73 63 74 64 75 67 76 65 77 44 78
REMARK SMILES IDX 45 79 53 80 46 81 47 82 51 83 54 84 48 85 49 86 52 87 50 88
REMARK H PARENT 11 5 7 10 15 22 74 41 42 52
REMARK Flexibility Score: inf
ROOT
ATOM      1  C   UNL A   1      31.775  30.516  26.543  1.00  0.00     0.117 C 
ENDROOT
BRANCH   1   2
ATOM      2  N   UNL A   1      32.486  30.152  25.338  1.00  0.00    -0.355 N 
ATOM      3  C   UNL A   1      33.227  29.055  25.027  1.00  0.00     0.239 C 
ATOM      4  O   UNL A   1      33.578  28.956  23.846  1.00  0.00    -0.273 OA
ATOM      5  H   UNL A   1      32.421  30.815  24.614  1.00  0.00     0.163 HD
BRANCH   3   6
ATOM      6  C   UNL A   1      33.487  27.888  25.997  1.00  0.00     0.217 C 
BRANCH   6   7
ATOM      7  N   UNL A   1      32.388  26.998  26.323  1.00  0.00    -0.329 N 
ATOM      8  C   UNL A   1      31.578  26.121  25.717  1.00  0.00     0.318 C 
ATOM      9  O   UNL A   1      30.809  25.550  26.500  1.00  0.00    -0.249 OA
ATOM     10  H   UNL A   1      32.173  27.057  27.281  1.00  0.00     0.165 HD
BRANCH   8  11
ATOM     11  N   UNL A   1      31.527  25.912  24.357  1.00  0.00    -0.322 N 
BRANCH  11  12
ATOM     12  C   UNL A   1      30.938  26.802  23.340  1.00  0.00     0.121 C 
BRANCH  12  13
ATOM     13  C   UNL A   1      29.687  27.572  23.759  1.00  0.00     0.018 C 
ATOM     14  C   UNL A   1      28.445  26.700  23.875  1.00  0.00     0.006 C 
ENDBRANCH  12  13
ENDBRANCH  11  12
BRANCH  11  15
ATOM     15  C   UNL A   1      32.083  24.605  23.906  1.00  0.00     0.080 C 
ATOM     16  C   UNL A   1      31.017  23.546  23.605  1.00  0.00     0.031 C 
ATOM     17  C   UNL A   1      33.079  24.742  22.760  1.00  0.00     0.031 C 
ENDBRANCH  11  15
ENDBRANCH   8  11
ENDBRANCH   6   7
ENDBRANCH   3   6
ENDBRANCH   1   2
BRANCH   1  18
ATOM     18  C   UNL A   1      31.555  32.011  26.684  1.00  0.00     0.042 C 
BRANCH  18  19
ATOM     19  C   UNL A   1      32.745  32.729  27.301  1.00  0.00     0.118 C 
BRANCH  19  20
ATOM     20  N   UNL A   1      32.461  34.128  27.607  1.00  0.00    -0.352 N 
ATOM     21  C   UNL A   1      33.018  34.955  28.552  1.00  0.00     0.251 C 
ATOM     22  H   UNL A   1      31.764  34.543  27.050  1.00  0.00     0.163 HD
ATOM     23  O   UNL A   1      32.521  36.055  28.777  1.00  0.00    -0.269 OA
BRANCH  21  24
ATOM     24  C   UNL A   1      34.202  34.509  29.313  1.00  0.00     0.039 A 
ATOM     25  C   UNL A   1      34.026  33.966  30.588  1.00  0.00     0.014 A 
ATOM     26  C   UNL A   1      35.481  34.614  28.763  1.00  0.00     0.014 A 
ATOM     27  C   UNL A   1      35.126  33.448  31.276  1.00  0.00     0.010 A 
ATOM     28  C   UNL A   1      36.558  34.021  29.408  1.00  0.00     0.010 A 
ATOM     29  C   UNL A   1      36.392  33.429  30.669  1.00  0.00    -0.014 A 
BRANCH  29  30
ATOM     30  C   UNL A   1      37.565  32.793  31.319  1.00  0.00     0.031 A 
ATOM     31  C   UNL A   1      38.243  31.627  30.659  1.00  0.00     0.074 A 
ATOM     32  C   UNL A   1      37.944  33.191  32.550  1.00  0.00     0.049 A 
ATOM     33  N   UNL A   1      39.170  30.831  31.128  1.00  0.00    -0.248 NA
ATOM     34  C   UNL A   1      37.794  31.286  29.298  1.00  0.00     0.031 C 
ATOM     35  C   UNL A   1      37.331  34.280  33.314  1.00  0.00     0.029 A 
ATOM     36  N   UNL A   1      38.916  32.704  33.389  1.00  0.00    -0.354 N 
ATOM     37  C   UNL A   1      39.390  29.883  30.138  1.00  0.00     0.074 A 
ATOM     38  C   UNL A   1      38.474  30.175  29.057  1.00  0.00     0.031 C 
ATOM     39  C   UNL A   1      37.943  34.379  34.506  1.00  0.00     0.029 A 
ATOM     40  C   UNL A   1      38.955  33.333  34.610  1.00  0.00     0.049 A 
ATOM     41  H   UNL A   1      39.527  31.975  33.139  1.00  0.00     0.167 HD
ATOM     42  C   UNL A   1      40.288  28.870  30.128  1.00  0.00     0.037 A 
ATOM     43  C   UNL A   1      39.702  33.076  35.702  1.00  0.00     0.037 A 
ATOM     44  C   UNL A   1      41.224  28.611  31.189  1.00  0.00     0.049 A 
ATOM     45  C   UNL A   1      40.694  31.944  35.660  1.00  0.00     0.074 A 
ATOM     46  C   UNL A   1      42.232  27.665  31.236  1.00  0.00     0.029 A 
ATOM     47  N   UNL A   1      41.262  29.299  32.394  1.00  0.00    -0.354 N 
ATOM     48  N   UNL A   1      40.950  31.103  34.687  1.00  0.00    -0.248 NA
ATOM     49  C   UNL A   1      41.506  31.728  36.866  1.00  0.00     0.031 C 
ATOM     50  C   UNL A   1      42.844  27.742  32.490  1.00  0.00     0.029 A 
ATOM     51  C   UNL A   1      42.258  28.776  33.202  1.00  0.00     0.049 A 
ATOM     52  H   UNL A   1      40.670  30.047  32.637  1.00  0.00     0.167 HD
ATOM     53  C   UNL A   1      41.969  30.282  35.150  1.00  0.00     0.074 A 
ATOM     54  C   UNL A   1      42.294  30.731  36.487  1.00  0.00     0.031 C 
ATOM     55  C   UNL A   1      42.581  29.248  34.523  1.00  0.00     0.037 A 
BRANCH  42  56
ATOM     56  C   UNL A   1      40.305  27.958  28.937  1.00  0.00     0.064 A 
ATOM     57  C   UNL A   1      41.051  28.256  27.787  1.00  0.00     0.173 A 
ATOM     58  C   UNL A   1      39.616  26.735  28.973  1.00  0.00     0.173 A 
ATOM     59  F   UNL A   1      41.719  29.417  27.697  1.00  0.00    -0.203 F 
ATOM     60  C   UNL A   1      41.087  27.376  26.709  1.00  0.00     0.198 A 
ATOM     61  C   UNL A   1      39.681  25.844  27.906  1.00  0.00     0.198 A 
ATOM     62  F   UNL A   1      38.892  26.397  30.051  1.00  0.00    -0.203 F 
ATOM     63  F   UNL A   1      41.773  27.701  25.604  1.00  0.00    -0.200 F 
ATOM     64  C   UNL A   1      40.412  26.167  26.773  1.00  0.00     0.200 A 
ATOM     65  F   UNL A   1      39.040  24.669  27.976  1.00  0.00    -0.200 F 
ATOM     66  F   UNL A   1      40.463  25.313  25.741  1.00  0.00    -0.200 F 
ENDBRANCH  42  56
BRANCH  43  67
ATOM     67  C   UNL A   1      39.538  33.899  36.929  1.00  0.00     0.064 A 
ATOM     68  C   UNL A   1      40.216  35.117  37.079  1.00  0.00     0.173 A 
ATOM     69  C   UNL A   1      38.720  33.476  37.987  1.00  0.00     0.173 A 
ATOM     70  F   UNL A   1      41.028  35.554  36.104  1.00  0.00    -0.203 F 
ATOM     71  C   UNL A   1      40.105  35.866  38.248  1.00  0.00     0.198 A 
ATOM     72  C   UNL A   1      38.583  34.242  39.144  1.00  0.00     0.198 A 
ATOM     73  F   UNL A   1      38.044  32.321  37.895  1.00  0.00    -0.203 F 
ATOM     74  F   UNL A   1      40.810  36.997  38.385  1.00  0.00    -0.200 F 
ATOM     75  C   UNL A   1      39.285  35.430  39.278  1.00  0.00     0.200 A 
ATOM     76  F   UNL A   1      37.779  33.825  40.131  1.00  0.00    -0.200 F 
ATOM     77  F   UNL A   1      39.180  36.150  40.404  1.00  0.00    -0.200 F 
ENDBRANCH  43  67
BRANCH  55  78
ATOM     78  C   UNL A   1      43.697  28.557  35.250  1.00  0.00     0.064 A 
ATOM     79  C   UNL A   1      43.462  27.467  36.101  1.00  0.00     0.173 A 
ATOM     80  C   UNL A   1      45.027  28.951  35.039  1.00  0.00     0.173 A 
ATOM     81  F   UNL A   1      42.207  27.061  36.347  1.00  0.00    -0.203 F 
ATOM     82  C   UNL A   1      44.517  26.808  36.726  1.00  0.00     0.198 A 
ATOM     83  C   UNL A   1      46.082  28.269  35.641  1.00  0.00     0.198 A 
ATOM     84  F   UNL A   1      45.307  29.983  34.229  1.00  0.00    -0.203 F 
ATOM     85  F   UNL A   1      44.267  25.793  37.565  1.00  0.00    -0.200 F 
ATOM     86  C   UNL A   1      45.826  27.202  36.487  1.00  0.00     0.200 A 
ATOM     87  F   UNL A   1      47.346  28.642  35.394  1.00  0.00    -0.200 F 
ATOM     88  F   UNL A   1      46.839  26.554  37.076  1.00  0.00    -0.200 F 
ENDBRANCH  55  78
ENDBRANCH  29  30
ENDBRANCH  21  24
ENDBRANCH  19  20
ENDBRANCH  18  19
ENDBRANCH   1  18
TORSDOF 15
ENDMDL
