MODEL 1
REMARK VINA RESULT:     -12.9      0.000      0.000
REMARK SMILES Cc1nn(CC(=O)NCCCNC(=O)c2ccc(-c3c4nc(c(-c5c(F)c(F)c(F)c(F)c5F)c5ccc([nH]5)c(-c5c(F)c(F)c(F)c(F)c5F)c5nc(c(-c6c(F)c(F)c(F)c(F)c6F)c6ccc3[nH]6)C=C5)C=C4)cc2)c(C)c1S(=O)(=O)N1CCC(C)(C)C1
REMARK SMILES IDX 9 1 8 2 6 3 7 4 5 6 4 7 1 8 2 9 3 10 80 11 78 12 79 13 81 14
REMARK SMILES IDX 82 15 83 16 84 17 85 18 90 19 86 20 87 21 88 22 89 23 10 24
REMARK SMILES IDX 11 25 12 26 13 27 14 29 15 30 16 31 77 32 17 33 76 34 18 35
REMARK SMILES IDX 19 36 20 37 70 38 21 39 75 40 69 41 71 42 22 43 74 44 68 45
REMARK SMILES IDX 67 46 23 48 55 49 35 50 54 51 36 52 39 53 53 54 72 55 37 56
REMARK SMILES IDX 38 57 52 59 73 60 40 61 24 62 25 63 33 64 26 65 27 66 31 67
REMARK SMILES IDX 34 68 28 69 29 70 32 71 30 72 56 73 57 74 65 75 58 76 59 77
REMARK SMILES IDX 63 78 66 79 60 80 61 81 64 82 62 83 41 84 42 85 50 86 43 87
REMARK SMILES IDX 44 88 48 89 51 90 45 91 46 92 49 93 47 94
REMARK H PARENT 8 5 12 28 71 47 39 58
REMARK Flexibility Score: inf
ROOT
ATOM      1  C   UNL A   1      37.648  22.139  25.558  1.00  0.00     0.117 C 
ENDROOT
BRANCH   1   2
ATOM      2  N   UNL A   1      36.521  21.378  25.050  1.00  0.00    -0.354 N 
ATOM      3  C   UNL A   1      35.228  21.342  25.504  1.00  0.00     0.241 C 
ATOM      4  O   UNL A   1      34.410  20.698  24.841  1.00  0.00    -0.273 OA
ATOM      5  H   UNL A   1      36.711  20.809  24.269  1.00  0.00     0.163 HD
BRANCH   3   6
ATOM      6  C   UNL A   1      34.807  22.150  26.718  1.00  0.00     0.244 C 
BRANCH   6   7
ATOM      7  N   UNL A   1      33.607  22.931  26.478  1.00  0.00    -0.259 N 
ATOM      8  C   UNL A   1      30.135  23.083  26.992  1.00  0.00     0.070 C 
ATOM      9  C   UNL A   1      31.534  23.381  26.626  1.00  0.00     0.080 A 
ATOM     10  N   UNL A   1      32.427  22.409  26.842  1.00  0.00    -0.176 NA
ATOM     11  C   UNL A   1      32.149  24.524  26.067  1.00  0.00     0.126 A 
ATOM     12  C   UNL A   1      33.488  24.176  25.909  1.00  0.00     0.056 A 
ATOM     13  C   UNL A   1      34.622  24.923  25.302  1.00  0.00     0.068 C 
BRANCH  11  14
ATOM     14  S   UNL A   1      31.469  26.060  25.664  1.00  0.00     0.246 S 
ATOM     15  O   UNL A   1      31.186  25.905  24.242  1.00  0.00    -0.207 OA
ATOM     16  O   UNL A   1      30.418  26.222  26.631  1.00  0.00    -0.207 OA
BRANCH  14  17
ATOM     17  N   UNL A   1      32.527  27.322  25.836  1.00  0.00    -0.197 NA
ATOM     18  C   UNL A   1      33.197  27.945  24.704  1.00  0.00     0.103 C 
ATOM     19  C   UNL A   1      32.734  28.044  27.091  1.00  0.00     0.109 C 
ATOM     20  C   UNL A   1      33.432  29.377  25.167  1.00  0.00     0.024 C 
ATOM     21  C   UNL A   1      33.550  29.298  26.700  1.00  0.00    -0.020 C 
ATOM     22  C   UNL A   1      35.022  29.148  27.109  1.00  0.00     0.012 C 
ATOM     23  C   UNL A   1      32.975  30.559  27.358  1.00  0.00     0.012 C 
ENDBRANCH  14  17
ENDBRANCH  11  14
ENDBRANCH   6   7
ENDBRANCH   3   6
ENDBRANCH   1   2
BRANCH   1  24
ATOM     24  C   UNL A   1      38.917  21.302  25.732  1.00  0.00     0.042 C 
BRANCH  24  25
ATOM     25  C   UNL A   1      39.933  21.966  26.648  1.00  0.00     0.118 C 
BRANCH  25  26
ATOM     26  N   UNL A   1      41.249  22.092  26.022  1.00  0.00    -0.352 N 
ATOM     27  C   UNL A   1      42.028  23.219  25.871  1.00  0.00     0.251 C 
ATOM     28  H   UNL A   1      41.630  21.259  25.659  1.00  0.00     0.163 HD
ATOM     29  O   UNL A   1      42.955  23.238  25.070  1.00  0.00    -0.269 OA
BRANCH  27  30
ATOM     30  C   UNL A   1      41.709  24.417  26.665  1.00  0.00     0.039 A 
ATOM     31  C   UNL A   1      42.471  24.736  27.792  1.00  0.00     0.014 A 
ATOM     32  C   UNL A   1      40.677  25.250  26.246  1.00  0.00     0.014 A 
ATOM     33  C   UNL A   1      42.248  25.951  28.433  1.00  0.00     0.010 A 
ATOM     34  C   UNL A   1      40.549  26.506  26.793  1.00  0.00     0.010 A 
ATOM     35  C   UNL A   1      41.306  26.853  27.910  1.00  0.00    -0.014 A 
BRANCH  35  36
ATOM     36  C   UNL A   1      41.186  28.192  28.484  1.00  0.00     0.031 A 
ATOM     37  C   UNL A   1      42.255  29.161  28.107  1.00  0.00     0.074 A 
ATOM     38  C   UNL A   1      40.104  28.624  29.163  1.00  0.00     0.049 A 
ATOM     39  N   UNL A   1      43.112  29.739  28.884  1.00  0.00    -0.248 NA
ATOM     40  C   UNL A   1      42.444  29.471  26.682  1.00  0.00     0.031 C 
ATOM     41  C   UNL A   1      38.820  27.947  29.376  1.00  0.00     0.029 A 
ATOM     42  N   UNL A   1      39.903  29.841  29.743  1.00  0.00    -0.354 N 
ATOM     43  C   UNL A   1      43.859  30.601  28.081  1.00  0.00     0.074 A 
ATOM     44  C   UNL A   1      43.488  30.303  26.722  1.00  0.00     0.031 C 
ATOM     45  C   UNL A   1      37.912  28.836  29.834  1.00  0.00     0.029 A 
ATOM     46  C   UNL A   1      38.592  30.084  30.119  1.00  0.00     0.049 A 
ATOM     47  H   UNL A   1      40.628  30.492  29.881  1.00  0.00     0.167 HD
ATOM     48  C   UNL A   1      44.589  31.619  28.622  1.00  0.00     0.037 A 
ATOM     49  C   UNL A   1      38.092  31.236  30.623  1.00  0.00     0.037 A 
ATOM     50  C   UNL A   1      44.801  31.410  30.032  1.00  0.00     0.049 A 
ATOM     51  C   UNL A   1      39.229  32.011  31.172  1.00  0.00     0.074 A 
ATOM     52  C   UNL A   1      45.420  30.436  30.791  1.00  0.00     0.029 A 
ATOM     53  N   UNL A   1      44.030  32.124  30.917  1.00  0.00    -0.354 N 
ATOM     54  N   UNL A   1      39.910  31.659  32.227  1.00  0.00    -0.248 NA
ATOM     55  C   UNL A   1      39.879  32.978  30.302  1.00  0.00     0.031 C 
ATOM     56  C   UNL A   1      44.608  30.304  31.957  1.00  0.00     0.029 A 
ATOM     57  C   UNL A   1      43.580  31.242  31.862  1.00  0.00     0.049 A 
ATOM     58  H   UNL A   1      43.838  33.088  30.878  1.00  0.00     0.167 HD
ATOM     59  C   UNL A   1      41.218  32.008  31.931  1.00  0.00     0.074 A 
ATOM     60  C   UNL A   1      41.120  32.917  30.793  1.00  0.00     0.031 C 
ATOM     61  C   UNL A   1      42.267  31.311  32.458  1.00  0.00     0.037 A 
BRANCH  48  62
ATOM     62  C   UNL A   1      44.825  32.967  27.976  1.00  0.00     0.064 A 
ATOM     63  C   UNL A   1      46.132  33.310  27.559  1.00  0.00     0.173 A 
ATOM     64  C   UNL A   1      43.912  34.041  28.030  1.00  0.00     0.173 A 
ATOM     65  F   UNL A   1      47.088  32.374  27.465  1.00  0.00    -0.203 F 
ATOM     66  C   UNL A   1      46.516  34.634  27.328  1.00  0.00     0.198 A 
ATOM     67  C   UNL A   1      44.286  35.355  27.746  1.00  0.00     0.198 A 
ATOM     68  F   UNL A   1      42.656  33.889  28.462  1.00  0.00    -0.203 F 
ATOM     69  F   UNL A   1      47.800  34.920  27.074  1.00  0.00    -0.200 F 
ATOM     70  C   UNL A   1      45.595  35.657  27.433  1.00  0.00     0.200 A 
ATOM     71  F   UNL A   1      43.380  36.337  27.861  1.00  0.00    -0.200 F 
ATOM     72  F   UNL A   1      45.973  36.933  27.282  1.00  0.00    -0.200 F 
ENDBRANCH  48  62
BRANCH  49  73
ATOM     73  C   UNL A   1      36.742  31.812  30.447  1.00  0.00     0.064 A 
ATOM     74  C   UNL A   1      35.939  32.124  31.553  1.00  0.00     0.173 A 
ATOM     75  C   UNL A   1      36.331  32.328  29.202  1.00  0.00     0.173 A 
ATOM     76  F   UNL A   1      36.285  31.702  32.778  1.00  0.00    -0.203 F 
ATOM     77  C   UNL A   1      34.808  32.936  31.429  1.00  0.00     0.198 A 
ATOM     78  C   UNL A   1      35.198  33.132  29.078  1.00  0.00     0.198 A 
ATOM     79  F   UNL A   1      37.074  32.142  28.102  1.00  0.00    -0.203 F 
ATOM     80  F   UNL A   1      34.103  33.270  32.518  1.00  0.00    -0.200 F 
ATOM     81  C   UNL A   1      34.446  33.449  30.194  1.00  0.00     0.200 A 
ATOM     82  F   UNL A   1      34.879  33.652  27.884  1.00  0.00    -0.200 F 
ATOM     83  F   UNL A   1      33.402  34.284  30.086  1.00  0.00    -0.200 F 
ENDBRANCH  49  73
BRANCH  61  84
ATOM     84  C   UNL A   1      41.981  30.356  33.583  1.00  0.00     0.064 A 
ATOM     85  C   UNL A   1      41.622  29.009  33.403  1.00  0.00     0.173 A 
ATOM     86  C   UNL A   1      42.215  30.789  34.895  1.00  0.00     0.173 A 
ATOM     87  F   UNL A   1      41.480  28.489  32.178  1.00  0.00    -0.203 F 
ATOM     88  C   UNL A   1      41.459  28.152  34.490  1.00  0.00     0.198 A 
ATOM     89  C   UNL A   1      42.090  29.920  35.976  1.00  0.00     0.198 A 
ATOM     90  F   UNL A   1      42.616  32.049  35.126  1.00  0.00    -0.203 F 
ATOM     91  F   UNL A   1      41.099  26.874  34.291  1.00  0.00    -0.200 F 
ATOM     92  C   UNL A   1      41.700  28.606  35.775  1.00  0.00     0.200 A 
ATOM     93  F   UNL A   1      42.373  30.352  37.212  1.00  0.00    -0.200 F 
ATOM     94  F   UNL A   1      41.583  27.772  36.818  1.00  0.00    -0.200 F 
ENDBRANCH  61  84
ENDBRANCH  35  36
ENDBRANCH  27  30
ENDBRANCH  25  26
ENDBRANCH  24  25
ENDBRANCH   1  24
TORSDOF 13
ENDMDL
MODEL 2
REMARK VINA RESULT:     -12.7      1.302      2.085
REMARK SMILES Cc1nn(CC(=O)NCCCNC(=O)c2ccc(-c3c4nc(c(-c5c(F)c(F)c(F)c(F)c5F)c5ccc([nH]5)c(-c5c(F)c(F)c(F)c(F)c5F)c5nc(c(-c6c(F)c(F)c(F)c(F)c6F)c6ccc3[nH]6)C=C5)C=C4)cc2)c(C)c1S(=O)(=O)N1CCC(C)(C)C1
REMARK SMILES IDX 9 1 8 2 6 3 7 4 5 6 4 7 1 8 2 9 3 10 80 11 78 12 79 13 81 14
REMARK SMILES IDX 82 15 83 16 84 17 85 18 90 19 86 20 87 21 88 22 89 23 10 24
REMARK SMILES IDX 11 25 12 26 13 27 14 29 15 30 16 31 77 32 17 33 76 34 18 35
REMARK SMILES IDX 19 36 20 37 70 38 21 39 75 40 69 41 71 42 22 43 74 44 68 45
REMARK SMILES IDX 67 46 23 48 55 49 35 50 54 51 36 52 39 53 53 54 72 55 37 56
REMARK SMILES IDX 38 57 52 59 73 60 40 61 24 62 25 63 33 64 26 65 27 66 31 67
REMARK SMILES IDX 34 68 28 69 29 70 32 71 30 72 56 73 57 74 65 75 58 76 59 77
REMARK SMILES IDX 63 78 66 79 60 80 61 81 64 82 62 83 41 84 42 85 50 86 43 87
REMARK SMILES IDX 44 88 48 89 51 90 45 91 46 92 49 93 47 94
REMARK H PARENT 8 5 12 28 71 47 39 58
REMARK Flexibility Score: inf
ROOT
ATOM      1  C   UNL A   1      36.881  22.258  25.340  1.00  0.00     0.117 C 
ENDROOT
BRANCH   1   2
ATOM      2  N   UNL A   1      36.068  21.914  26.492  1.00  0.00    -0.354 N 
ATOM      3  C   UNL A   1      34.704  21.833  26.593  1.00  0.00     0.241 C 
ATOM      4  O   UNL A   1      34.236  21.414  27.655  1.00  0.00    -0.273 OA
ATOM      5  H   UNL A   1      36.566  21.711  27.316  1.00  0.00     0.163 HD
BRANCH   3   6
ATOM      6  C   UNL A   1      33.815  22.151  25.404  1.00  0.00     0.244 C 
BRANCH   6   7
ATOM      7  N   UNL A   1      33.326  23.517  25.424  1.00  0.00    -0.259 N 
ATOM      8  C   UNL A   1      33.847  26.766  24.193  1.00  0.00     0.070 C 
ATOM      9  C   UNL A   1      33.303  25.569  24.863  1.00  0.00     0.080 A 
ATOM     10  N   UNL A   1      34.043  24.457  24.791  1.00  0.00    -0.176 NA
ATOM     11  C   UNL A   1      32.117  25.345  25.598  1.00  0.00     0.126 A 
ATOM     12  C   UNL A   1      32.194  24.019  26.019  1.00  0.00     0.056 A 
ATOM     13  C   UNL A   1      31.291  23.221  26.891  1.00  0.00     0.068 C 
BRANCH  11  14
ATOM     14  S   UNL A   1      30.801  26.415  25.928  1.00  0.00     0.246 S 
ATOM     15  O   UNL A   1      29.707  25.485  26.181  1.00  0.00    -0.207 OA
ATOM     16  O   UNL A   1      31.320  27.271  26.960  1.00  0.00    -0.207 OA
BRANCH  14  17
ATOM     17  N   UNL A   1      30.375  27.362  24.639  1.00  0.00    -0.197 NA
ATOM     18  C   UNL A   1      29.404  26.940  23.641  1.00  0.00     0.103 C 
ATOM     19  C   UNL A   1      30.775  28.761  24.491  1.00  0.00     0.109 C 
ATOM     20  C   UNL A   1      28.802  28.248  23.145  1.00  0.00     0.024 C 
ATOM     21  C   UNL A   1      29.907  29.304  23.331  1.00  0.00    -0.020 C 
ATOM     22  C   UNL A   1      30.730  29.440  22.043  1.00  0.00     0.012 C 
ATOM     23  C   UNL A   1      29.304  30.670  23.684  1.00  0.00     0.012 C 
ENDBRANCH  14  17
ENDBRANCH  11  14
ENDBRANCH   6   7
ENDBRANCH   3   6
ENDBRANCH   1   2
BRANCH   1  24
ATOM     24  C   UNL A   1      38.259  21.590  25.346  1.00  0.00     0.042 C 
BRANCH  24  25
ATOM     25  C   UNL A   1      39.165  22.132  26.439  1.00  0.00     0.118 C 
BRANCH  25  26
ATOM     26  N   UNL A   1      40.582  22.034  26.089  1.00  0.00    -0.352 N 
ATOM     27  C   UNL A   1      41.544  23.021  26.099  1.00  0.00     0.251 C 
ATOM     28  H   UNL A   1      40.890  21.141  25.808  1.00  0.00     0.163 HD
ATOM     29  O   UNL A   1      42.602  22.872  25.499  1.00  0.00    -0.269 OA
BRANCH  27  30
ATOM     30  C   UNL A   1      41.268  24.277  26.816  1.00  0.00     0.039 A 
ATOM     31  C   UNL A   1      41.857  24.519  28.059  1.00  0.00     0.014 A 
ATOM     32  C   UNL A   1      40.460  25.235  26.213  1.00  0.00     0.014 A 
ATOM     33  C   UNL A   1      41.704  25.773  28.643  1.00  0.00     0.010 A 
ATOM     34  C   UNL A   1      40.423  26.513  26.722  1.00  0.00     0.010 A 
ATOM     35  C   UNL A   1      41.013  26.784  27.954  1.00  0.00    -0.014 A 
BRANCH  35  36
ATOM     36  C   UNL A   1      40.990  28.144  28.490  1.00  0.00     0.031 A 
ATOM     37  C   UNL A   1      42.051  29.061  27.984  1.00  0.00     0.074 A 
ATOM     38  C   UNL A   1      39.990  28.635  29.250  1.00  0.00     0.049 A 
ATOM     39  N   UNL A   1      42.995  29.632  28.659  1.00  0.00    -0.248 NA
ATOM     40  C   UNL A   1      42.118  29.318  26.538  1.00  0.00     0.031 C 
ATOM     41  C   UNL A   1      38.710  28.012  29.602  1.00  0.00     0.029 A 
ATOM     42  N   UNL A   1      39.884  29.876  29.802  1.00  0.00    -0.354 N 
ATOM     43  C   UNL A   1      43.693  30.440  27.762  1.00  0.00     0.074 A 
ATOM     44  C   UNL A   1      43.188  30.113  26.453  1.00  0.00     0.031 C 
ATOM     45  C   UNL A   1      37.877  28.947  30.109  1.00  0.00     0.029 A 
ATOM     46  C   UNL A   1      38.621  30.179  30.288  1.00  0.00     0.049 A 
ATOM     47  H   UNL A   1      40.639  30.505  29.851  1.00  0.00     0.167 HD
ATOM     48  C   UNL A   1      44.503  31.448  28.198  1.00  0.00     0.037 A 
ATOM     49  C   UNL A   1      38.209  31.364  30.794  1.00  0.00     0.037 A 
ATOM     50  C   UNL A   1      44.836  31.277  29.589  1.00  0.00     0.049 A 
ATOM     51  C   UNL A   1      39.417  32.114  31.210  1.00  0.00     0.074 A 
ATOM     52  C   UNL A   1      45.491  30.305  30.322  1.00  0.00     0.029 A 
ATOM     53  N   UNL A   1      44.175  32.045  30.515  1.00  0.00    -0.354 N 
ATOM     54  N   UNL A   1      40.180  31.771  32.210  1.00  0.00    -0.248 NA
ATOM     55  C   UNL A   1      40.015  33.028  30.251  1.00  0.00     0.031 C 
ATOM     56  C   UNL A   1      44.786  30.240  31.561  1.00  0.00     0.029 A 
ATOM     57  C   UNL A   1      43.785  31.210  31.527  1.00  0.00     0.049 A 
ATOM     58  H   UNL A   1      44.012  33.015  30.461  1.00  0.00     0.167 HD
ATOM     59  C   UNL A   1      41.465  32.063  31.785  1.00  0.00     0.074 A 
ATOM     60  C   UNL A   1      41.293  32.939  30.629  1.00  0.00     0.031 C 
ATOM     61  C   UNL A   1      42.535  31.346  32.238  1.00  0.00     0.037 A 
BRANCH  48  62
ATOM     62  C   UNL A   1      44.722  32.766  27.486  1.00  0.00     0.064 A 
ATOM     63  C   UNL A   1      45.909  32.954  26.741  1.00  0.00     0.173 A 
ATOM     64  C   UNL A   1      43.988  33.940  27.752  1.00  0.00     0.173 A 
ATOM     65  F   UNL A   1      46.690  31.912  26.422  1.00  0.00    -0.203 F 
ATOM     66  C   UNL A   1      46.374  34.225  26.392  1.00  0.00     0.198 A 
ATOM     67  C   UNL A   1      44.429  35.204  27.356  1.00  0.00     0.198 A 
ATOM     68  F   UNL A   1      42.877  33.935  28.496  1.00  0.00    -0.203 F 
ATOM     69  F   UNL A   1      47.574  34.358  25.812  1.00  0.00    -0.200 F 
ATOM     70  C   UNL A   1      45.639  35.350  26.711  1.00  0.00     0.200 A 
ATOM     71  F   UNL A   1      43.707  36.285  27.681  1.00  0.00    -0.200 F 
ATOM     72  F   UNL A   1      46.114  36.574  26.442  1.00  0.00    -0.200 F 
ENDBRANCH  48  62
BRANCH  49  73
ATOM     73  C   UNL A   1      36.868  31.982  30.722  1.00  0.00     0.064 A 
ATOM     74  C   UNL A   1      36.044  32.056  31.854  1.00  0.00     0.173 A 
ATOM     75  C   UNL A   1      36.489  32.761  29.611  1.00  0.00     0.173 A 
ATOM     76  F   UNL A   1      36.359  31.374  32.964  1.00  0.00    -0.203 F 
ATOM     77  C   UNL A   1      34.923  32.891  31.888  1.00  0.00     0.198 A 
ATOM     78  C   UNL A   1      35.366  33.589  29.644  1.00  0.00     0.198 A 
ATOM     79  F   UNL A   1      37.254  32.809  28.512  1.00  0.00    -0.203 F 
ATOM     80  F   UNL A   1      34.198  32.990  33.010  1.00  0.00    -0.200 F 
ATOM     81  C   UNL A   1      34.593  33.666  30.788  1.00  0.00     0.200 A 
ATOM     82  F   UNL A   1      35.078  34.359  28.586  1.00  0.00    -0.200 F 
ATOM     83  F   UNL A   1      33.559  34.517  30.844  1.00  0.00    -0.200 F 
ENDBRANCH  49  73
BRANCH  61  84
ATOM     84  C   UNL A   1      42.323  30.438  33.417  1.00  0.00     0.064 A 
ATOM     85  C   UNL A   1      42.416  30.850  34.758  1.00  0.00     0.173 A 
ATOM     86  C   UNL A   1      41.871  29.134  33.176  1.00  0.00     0.173 A 
ATOM     87  F   UNL A   1      42.741  32.110  35.072  1.00  0.00    -0.203 F 
ATOM     88  C   UNL A   1      42.118  29.981  35.805  1.00  0.00     0.198 A 
ATOM     89  C   UNL A   1      41.535  28.279  34.223  1.00  0.00     0.198 A 
ATOM     90  F   UNL A   1      41.706  28.701  31.915  1.00  0.00    -0.203 F 
ATOM     91  F   UNL A   1      42.231  30.394  37.076  1.00  0.00    -0.200 F 
ATOM     92  C   UNL A   1      41.671  28.698  35.536  1.00  0.00     0.200 A 
ATOM     93  F   UNL A   1      41.056  27.057  33.956  1.00  0.00    -0.200 F 
ATOM     94  F   UNL A   1      41.344  27.874  36.543  1.00  0.00    -0.200 F 
ENDBRANCH  61  84
ENDBRANCH  35  36
ENDBRANCH  27  30
ENDBRANCH  25  26
ENDBRANCH  24  25
ENDBRANCH   1  24
TORSDOF 13
ENDMDL
MODEL 3
REMARK VINA RESULT:     -12.7      2.703      3.780
REMARK SMILES Cc1nn(CC(=O)NCCCNC(=O)c2ccc(-c3c4nc(c(-c5c(F)c(F)c(F)c(F)c5F)c5ccc([nH]5)c(-c5c(F)c(F)c(F)c(F)c5F)c5nc(c(-c6c(F)c(F)c(F)c(F)c6F)c6ccc3[nH]6)C=C5)C=C4)cc2)c(C)c1S(=O)(=O)N1CCC(C)(C)C1
REMARK SMILES IDX 9 1 8 2 6 3 7 4 5 6 4 7 1 8 2 9 3 10 80 11 78 12 79 13 81 14
REMARK SMILES IDX 82 15 83 16 84 17 85 18 90 19 86 20 87 21 88 22 89 23 10 24
REMARK SMILES IDX 11 25 12 26 13 27 14 29 15 30 16 31 77 32 17 33 76 34 18 35
REMARK SMILES IDX 19 36 20 37 70 38 21 39 75 40 69 41 71 42 22 43 74 44 68 45
REMARK SMILES IDX 67 46 23 48 55 49 35 50 54 51 36 52 39 53 53 54 72 55 37 56
REMARK SMILES IDX 38 57 52 59 73 60 40 61 24 62 25 63 33 64 26 65 27 66 31 67
REMARK SMILES IDX 34 68 28 69 29 70 32 71 30 72 56 73 57 74 65 75 58 76 59 77
REMARK SMILES IDX 63 78 66 79 60 80 61 81 64 82 62 83 41 84 42 85 50 86 43 87
REMARK SMILES IDX 44 88 48 89 51 90 45 91 46 92 49 93 47 94
REMARK H PARENT 8 5 12 28 71 47 39 58
REMARK Flexibility Score: inf
ROOT
ATOM      1  C   UNL A   1      40.405  20.657  26.988  1.00  0.00     0.117 C 
ENDROOT
BRANCH   1   2
ATOM      2  N   UNL A   1      39.942  22.013  26.754  1.00  0.00    -0.354 N 
ATOM      3  C   UNL A   1      38.793  22.439  26.141  1.00  0.00     0.241 C 
ATOM      4  O   UNL A   1      38.559  23.651  26.153  1.00  0.00    -0.273 OA
ATOM      5  H   UNL A   1      40.535  22.725  27.084  1.00  0.00     0.163 HD
BRANCH   3   6
ATOM      6  C   UNL A   1      37.805  21.444  25.561  1.00  0.00     0.244 C 
BRANCH   6   7
ATOM      7  N   UNL A   1      36.472  22.001  25.420  1.00  0.00    -0.259 N 
ATOM      8  C   UNL A   1      33.410  22.554  27.052  1.00  0.00     0.070 C 
ATOM      9  C   UNL A   1      34.523  22.538  26.083  1.00  0.00     0.080 A 
ATOM     10  N   UNL A   1      35.601  21.823  26.424  1.00  0.00    -0.176 NA
ATOM     11  C   UNL A   1      34.692  23.140  24.816  1.00  0.00     0.126 A 
ATOM     12  C   UNL A   1      35.940  22.711  24.371  1.00  0.00     0.056 A 
ATOM     13  C   UNL A   1      36.645  22.939  23.081  1.00  0.00     0.068 C 
BRANCH  11  14
ATOM     14  S   UNL A   1      33.644  24.206  23.949  1.00  0.00     0.246 S 
ATOM     15  O   UNL A   1      34.317  24.316  22.661  1.00  0.00    -0.207 OA
ATOM     16  O   UNL A   1      32.355  23.582  24.079  1.00  0.00    -0.207 OA
BRANCH  14  17
ATOM     17  N   UNL A   1      33.549  25.724  24.604  1.00  0.00    -0.197 NA
ATOM     18  C   UNL A   1      33.562  26.932  23.792  1.00  0.00     0.103 C 
ATOM     19  C   UNL A   1      33.251  25.985  26.012  1.00  0.00     0.109 C 
ATOM     20  C   UNL A   1      32.765  27.932  24.619  1.00  0.00     0.024 C 
ATOM     21  C   UNL A   1      32.965  27.503  26.084  1.00  0.00    -0.020 C 
ATOM     22  C   UNL A   1      34.150  28.259  26.700  1.00  0.00     0.012 C 
ATOM     23  C   UNL A   1      31.706  27.790  26.914  1.00  0.00     0.012 C 
ENDBRANCH  14  17
ENDBRANCH  11  14
ENDBRANCH   6   7
ENDBRANCH   3   6
ENDBRANCH   1   2
BRANCH   1  24
ATOM     24  C   UNL A   1      41.336  20.135  25.891  1.00  0.00     0.042 C 
BRANCH  24  25
ATOM     25  C   UNL A   1      42.630  19.562  26.447  1.00  0.00     0.118 C 
BRANCH  25  26
ATOM     26  N   UNL A   1      43.652  19.389  25.414  1.00  0.00    -0.352 N 
ATOM     27  C   UNL A   1      44.328  20.354  24.700  1.00  0.00     0.251 C 
ATOM     28  H   UNL A   1      43.889  18.457  25.201  1.00  0.00     0.163 HD
ATOM     29  O   UNL A   1      44.925  20.069  23.669  1.00  0.00    -0.269 OA
BRANCH  27  30
ATOM     30  C   UNL A   1      44.296  21.747  25.177  1.00  0.00     0.039 A 
ATOM     31  C   UNL A   1      43.408  22.664  24.609  1.00  0.00     0.014 A 
ATOM     32  C   UNL A   1      45.122  22.118  26.233  1.00  0.00     0.014 A 
ATOM     33  C   UNL A   1      43.290  23.927  25.179  1.00  0.00     0.010 A 
ATOM     34  C   UNL A   1      44.907  23.315  26.879  1.00  0.00     0.010 A 
ATOM     35  C   UNL A   1      44.018  24.241  26.339  1.00  0.00    -0.014 A 
BRANCH  35  36
ATOM     36  C   UNL A   1      43.774  25.505  27.031  1.00  0.00     0.031 A 
ATOM     37  C   UNL A   1      44.727  26.611  26.724  1.00  0.00     0.074 A 
ATOM     38  C   UNL A   1      42.671  25.760  27.764  1.00  0.00     0.049 A 
ATOM     39  N   UNL A   1      45.539  27.206  27.534  1.00  0.00    -0.248 NA
ATOM     40  C   UNL A   1      44.846  27.060  25.330  1.00  0.00     0.031 C 
ATOM     41  C   UNL A   1      41.470  24.935  27.938  1.00  0.00     0.029 A 
ATOM     42  N   UNL A   1      42.361  26.894  28.453  1.00  0.00    -0.354 N 
ATOM     43  C   UNL A   1      46.172  28.208  26.799  1.00  0.00     0.074 A 
ATOM     44  C   UNL A   1      45.798  27.991  25.425  1.00  0.00     0.031 C 
ATOM     45  C   UNL A   1      40.487  25.681  28.487  1.00  0.00     0.029 A 
ATOM     46  C   UNL A   1      41.041  26.964  28.871  1.00  0.00     0.049 A 
ATOM     47  H   UNL A   1      43.017  27.604  28.636  1.00  0.00     0.167 HD
ATOM     48  C   UNL A   1      46.806  29.247  27.415  1.00  0.00     0.037 A 
ATOM     49  C   UNL A   1      40.438  28.009  29.483  1.00  0.00     0.037 A 
ATOM     50  C   UNL A   1      47.075  28.941  28.798  1.00  0.00     0.049 A 
ATOM     51  C   UNL A   1      41.503  28.850  30.079  1.00  0.00     0.074 A 
ATOM     52  C   UNL A   1      47.811  27.976  29.457  1.00  0.00     0.029 A 
ATOM     53  N   UNL A   1      46.258  29.490  29.755  1.00  0.00    -0.354 N 
ATOM     54  N   UNL A   1      42.243  28.482  31.087  1.00  0.00    -0.248 NA
ATOM     55  C   UNL A   1      42.026  29.951  29.288  1.00  0.00     0.031 C 
ATOM     56  C   UNL A   1      47.048  27.659  30.620  1.00  0.00     0.029 A 
ATOM     57  C   UNL A   1      45.926  28.487  30.626  1.00  0.00     0.049 A 
ATOM     58  H   UNL A   1      45.965  30.429  29.805  1.00  0.00     0.167 HD
ATOM     59  C   UNL A   1      43.499  28.991  30.802  1.00  0.00     0.074 A 
ATOM     60  C   UNL A   1      43.278  29.979  29.751  1.00  0.00     0.031 C 
ATOM     61  C   UNL A   1      44.629  28.366  31.247  1.00  0.00     0.037 A 
BRANCH  48  62
ATOM     62  C   UNL A   1      46.884  30.664  26.887  1.00  0.00     0.064 A 
ATOM     63  C   UNL A   1      48.123  31.343  26.925  1.00  0.00     0.173 A 
ATOM     64  C   UNL A   1      45.760  31.479  26.642  1.00  0.00     0.173 A 
ATOM     65  F   UNL A   1      49.264  30.675  27.148  1.00  0.00    -0.203 F 
ATOM     66  C   UNL A   1      48.211  32.735  26.838  1.00  0.00     0.198 A 
ATOM     67  C   UNL A   1      45.857  32.864  26.502  1.00  0.00     0.198 A 
ATOM     68  F   UNL A   1      44.514  30.994  26.636  1.00  0.00    -0.203 F 
ATOM     69  F   UNL A   1      49.392  33.341  27.022  1.00  0.00    -0.200 F 
ATOM     70  C   UNL A   1      47.076  33.496  26.638  1.00  0.00     0.200 A 
ATOM     71  F   UNL A   1      44.744  33.587  26.316  1.00  0.00    -0.200 F 
ATOM     72  F   UNL A   1      47.145  34.834  26.624  1.00  0.00    -0.200 F 
ENDBRANCH  48  62
BRANCH  49  73
ATOM     73  C   UNL A   1      39.031  28.453  29.381  1.00  0.00     0.064 A 
ATOM     74  C   UNL A   1      38.236  28.604  30.526  1.00  0.00     0.173 A 
ATOM     75  C   UNL A   1      38.531  29.006  28.186  1.00  0.00     0.173 A 
ATOM     76  F   UNL A   1      38.662  28.139  31.709  1.00  0.00    -0.203 F 
ATOM     77  C   UNL A   1      37.025  29.301  30.488  1.00  0.00     0.198 A 
ATOM     78  C   UNL A   1      37.318  29.695  28.148  1.00  0.00     0.198 A 
ATOM     79  F   UNL A   1      39.254  28.973  27.058  1.00  0.00    -0.203 F 
ATOM     80  F   UNL A   1      36.325  29.486  31.615  1.00  0.00    -0.200 F 
ATOM     81  C   UNL A   1      36.574  29.856  29.301  1.00  0.00     0.200 A 
ATOM     82  F   UNL A   1      36.910  30.258  27.001  1.00  0.00    -0.200 F 
ATOM     83  F   UNL A   1      35.447  30.583  29.279  1.00  0.00    -0.200 F 
ENDBRANCH  49  73
BRANCH  61  84
ATOM     84  C   UNL A   1      44.472  27.292  32.288  1.00  0.00     0.064 A 
ATOM     85  C   UNL A   1      44.296  25.929  31.996  1.00  0.00     0.173 A 
ATOM     86  C   UNL A   1      44.647  27.643  33.633  1.00  0.00     0.173 A 
ATOM     87  F   UNL A   1      44.224  25.497  30.731  1.00  0.00    -0.203 F 
ATOM     88  C   UNL A   1      44.248  24.971  33.007  1.00  0.00     0.198 A 
ATOM     89  C   UNL A   1      44.639  26.680  34.639  1.00  0.00     0.198 A 
ATOM     90  F   UNL A   1      44.877  28.923  33.970  1.00  0.00    -0.203 F 
ATOM     91  F   UNL A   1      44.062  23.678  32.702  1.00  0.00    -0.200 F 
ATOM     92  C   UNL A   1      44.427  25.347  34.327  1.00  0.00     0.200 A 
ATOM     93  F   UNL A   1      44.862  27.043  35.909  1.00  0.00    -0.200 F 
ATOM     94  F   UNL A   1      44.422  24.422  35.298  1.00  0.00    -0.200 F 
ENDBRANCH  61  84
ENDBRANCH  35  36
ENDBRANCH  27  30
ENDBRANCH  25  26
ENDBRANCH  24  25
ENDBRANCH   1  24
TORSDOF 13
ENDMDL
