MODEL 1
REMARK VINA RESULT:     -10.9      0.000      0.000
REMARK SMILES C[C@@H](C(=O)NCCCNC(=O)c1ccc(-c2c3nc(c(-c4c(F)c(F)c(F)c(F)c4F)c4ccc([nH]4)c(-c4c(F)c(F)c(F)c(F)c4F)c4nc(c(-c5c(F)c(F)c(F)c(F)c5F)c5ccc2[nH]5)C=C4)C=C3)cc1)[C@H](C)[N@@H+](C)[C@@H](C)C1CC1
REMARK SMILES IDX 6 1 5 2 3 3 4 4 2 6 1 7 75 8 76 9 77 10 78 11 79 13 80 14
REMARK SMILES IDX 81 15 82 16 83 17 7 18 8 19 9 20 10 21 11 23 12 24 13 25
REMARK SMILES IDX 74 26 14 27 73 28 15 29 16 30 17 31 67 32 18 33 72 34 66 35
REMARK SMILES IDX 68 36 19 37 71 38 65 39 64 40 20 42 52 43 32 44 51 45 33 46
REMARK SMILES IDX 36 47 50 48 69 49 34 50 35 51 49 53 70 54 37 55 21 56 22 57
REMARK SMILES IDX 30 58 23 59 24 60 28 61 31 62 25 63 26 64 29 65 27 66 53 67
REMARK SMILES IDX 54 68 62 69 55 70 56 71 60 72 63 73 57 74 58 75 61 76 59 77
REMARK SMILES IDX 38 78 39 79 47 80 40 81 41 82 45 83 48 84 42 85 43 86 46 87
REMARK SMILES IDX 44 88
REMARK H PARENT 5 5 77 12 9 22 68 41 36 52
REMARK Flexibility Score: inf
ROOT
ATOM      1  C   UNL A   1      31.375  30.749  26.453  1.00  0.00     0.117 C 
ENDROOT
BRANCH   1   2
ATOM      2  N   UNL A   1      31.878  30.285  25.178  1.00  0.00    -0.356 N 
ATOM      3  C   UNL A   1      31.881  29.072  24.572  1.00  0.00     0.228 C 
ATOM      4  O   UNL A   1      32.310  29.087  23.416  1.00  0.00    -0.275 OA
ATOM      5  H   UNL A   1      32.304  30.994  24.642  1.00  0.00     0.163 HD
BRANCH   3   6
ATOM      6  C   UNL A   1      31.240  27.825  25.198  1.00  0.00     0.133 C 
ATOM      7  C   UNL A   1      31.819  27.294  26.507  1.00  0.00     0.024 C 
BRANCH   6   8
ATOM      8  C   UNL A   1      30.949  26.708  24.134  1.00  0.00     0.193 C 
ATOM      9  C   UNL A   1      29.427  26.464  24.063  1.00  0.00     0.076 C 
BRANCH   8  10
ATOM     10  N   UNL A   1      31.698  25.428  24.052  1.00  0.00    -0.332 N 
ATOM     11  C   UNL A   1      30.837  24.280  23.741  1.00  0.00     0.333 C 
ATOM     12  H   UNL A   1      32.015  25.491  25.020  1.00  0.00     0.348 HD
BRANCH  10  13
ATOM     13  C   UNL A   1      33.024  25.256  23.445  1.00  0.00     0.184 C 
ATOM     14  C   UNL A   1      33.273  26.020  22.136  1.00  0.00     0.075 C 
BRANCH  13  15
ATOM     15  C   UNL A   1      34.181  25.360  24.411  1.00  0.00     0.047 C 
ATOM     16  C   UNL A   1      34.186  24.594  25.715  1.00  0.00     0.010 C 
ATOM     17  C   UNL A   1      35.101  24.170  24.610  1.00  0.00     0.010 C 
ENDBRANCH  13  15
ENDBRANCH  10  13
ENDBRANCH   8  10
ENDBRANCH   6   8
ENDBRANCH   3   6
ENDBRANCH   1   2
BRANCH   1  18
ATOM     18  C   UNL A   1      31.382  32.274  26.536  1.00  0.00     0.042 C 
BRANCH  18  19
ATOM     19  C   UNL A   1      32.639  32.852  27.182  1.00  0.00     0.118 C 
BRANCH  19  20
ATOM     20  N   UNL A   1      32.459  34.233  27.604  1.00  0.00    -0.352 N 
ATOM     21  C   UNL A   1      33.029  34.918  28.646  1.00  0.00     0.251 C 
ATOM     22  H   UNL A   1      31.829  34.757  27.056  1.00  0.00     0.163 HD
ATOM     23  O   UNL A   1      32.568  36.003  28.989  1.00  0.00    -0.269 OA
BRANCH  21  24
ATOM     24  C   UNL A   1      34.192  34.355  29.363  1.00  0.00     0.039 A 
ATOM     25  C   UNL A   1      33.975  33.649  30.549  1.00  0.00     0.014 A 
ATOM     26  C   UNL A   1      35.491  34.554  28.892  1.00  0.00     0.014 A 
ATOM     27  C   UNL A   1      35.059  33.095  31.233  1.00  0.00     0.010 A 
ATOM     28  C   UNL A   1      36.563  33.936  29.530  1.00  0.00     0.010 A 
ATOM     29  C   UNL A   1      36.358  33.207  30.711  1.00  0.00    -0.014 A 
BRANCH  29  30
ATOM     30  C   UNL A   1      37.517  32.574  31.389  1.00  0.00     0.031 A 
ATOM     31  C   UNL A   1      38.239  31.427  30.739  1.00  0.00     0.074 A 
ATOM     32  C   UNL A   1      37.875  32.992  32.619  1.00  0.00     0.049 A 
ATOM     33  N   UNL A   1      39.219  30.694  31.204  1.00  0.00    -0.248 NA
ATOM     34  C   UNL A   1      37.778  31.032  29.398  1.00  0.00     0.031 C 
ATOM     35  C   UNL A   1      37.222  34.064  33.371  1.00  0.00     0.029 A 
ATOM     36  N   UNL A   1      38.868  32.554  33.459  1.00  0.00    -0.354 N 
ATOM     37  C   UNL A   1      39.479  29.747  30.222  1.00  0.00     0.074 A 
ATOM     38  C   UNL A   1      38.522  29.962  29.160  1.00  0.00     0.031 C 
ATOM     39  C   UNL A   1      37.843  34.215  34.551  1.00  0.00     0.029 A 
ATOM     40  C   UNL A   1      38.911  33.226  34.656  1.00  0.00     0.049 A 
ATOM     41  H   UNL A   1      39.490  31.828  33.226  1.00  0.00     0.167 HD
ATOM     42  C   UNL A   1      40.446  28.799  30.201  1.00  0.00     0.037 A 
ATOM     43  C   UNL A   1      39.714  33.054  35.723  1.00  0.00     0.037 A 
ATOM     44  C   UNL A   1      41.413  28.607  31.251  1.00  0.00     0.049 A 
ATOM     45  C   UNL A   1      40.777  31.989  35.675  1.00  0.00     0.074 A 
ATOM     46  C   UNL A   1      42.469  27.713  31.300  1.00  0.00     0.029 A 
ATOM     47  N   UNL A   1      41.439  29.321  32.440  1.00  0.00    -0.354 N 
ATOM     48  N   UNL A   1      41.059  31.144  34.714  1.00  0.00    -0.248 NA
ATOM     49  C   UNL A   1      41.639  31.861  36.857  1.00  0.00     0.031 C 
ATOM     50  C   UNL A   1      43.104  27.855  32.537  1.00  0.00     0.029 A 
ATOM     51  C   UNL A   1      42.479  28.874  33.238  1.00  0.00     0.049 A 
ATOM     52  H   UNL A   1      40.811  30.041  32.681  1.00  0.00     0.167 HD
ATOM     53  C   UNL A   1      42.146  30.407  35.160  1.00  0.00     0.074 A 
ATOM     54  C   UNL A   1      42.482  30.913  36.475  1.00  0.00     0.031 C 
ATOM     55  C   UNL A   1      42.807  29.400  34.538  1.00  0.00     0.037 A 
BRANCH  42  56
ATOM     56  C   UNL A   1      40.511  27.895  29.003  1.00  0.00     0.064 A 
ATOM     57  C   UNL A   1      41.344  28.181  27.910  1.00  0.00     0.173 A 
ATOM     58  C   UNL A   1      39.763  26.709  28.964  1.00  0.00     0.173 A 
ATOM     59  F   UNL A   1      42.072  29.307  27.892  1.00  0.00    -0.203 F 
ATOM     60  C   UNL A   1      41.405  27.326  26.813  1.00  0.00     0.198 A 
ATOM     61  C   UNL A   1      39.851  25.841  27.879  1.00  0.00     0.198 A 
ATOM     62  F   UNL A   1      38.955  26.384  29.984  1.00  0.00    -0.203 F 
ATOM     63  F   UNL A   1      42.172  27.644  25.760  1.00  0.00    -0.200 F 
ATOM     64  C   UNL A   1      40.666  26.154  26.801  1.00  0.00     0.200 A 
ATOM     65  F   UNL A   1      39.146  24.701  27.875  1.00  0.00    -0.200 F 
ATOM     66  F   UNL A   1      40.733  25.328  25.748  1.00  0.00    -0.200 F 
ENDBRANCH  42  56
BRANCH  43  67
ATOM     67  C   UNL A   1      39.561  33.925  36.918  1.00  0.00     0.064 A 
ATOM     68  C   UNL A   1      40.180  35.181  36.976  1.00  0.00     0.173 A 
ATOM     69  C   UNL A   1      38.801  33.521  38.025  1.00  0.00     0.173 A 
ATOM     70  F   UNL A   1      40.934  35.605  35.950  1.00  0.00    -0.203 F 
ATOM     71  C   UNL A   1      40.068  35.989  38.106  1.00  0.00     0.198 A 
ATOM     72  C   UNL A   1      38.663  34.342  39.142  1.00  0.00     0.198 A 
ATOM     73  F   UNL A   1      38.182  32.332  38.017  1.00  0.00    -0.203 F 
ATOM     74  F   UNL A   1      40.710  37.164  38.155  1.00  0.00    -0.200 F 
ATOM     75  C   UNL A   1      39.304  35.572  39.185  1.00  0.00     0.200 A 
ATOM     76  F   UNL A   1      37.911  33.942  40.176  1.00  0.00    -0.200 F 
ATOM     77  F   UNL A   1      39.192  36.350  40.270  1.00  0.00    -0.200 F 
ENDBRANCH  43  67
BRANCH  55  78
ATOM     78  C   UNL A   1      43.989  28.808  35.251  1.00  0.00     0.064 A 
ATOM     79  C   UNL A   1      45.290  29.293  35.053  1.00  0.00     0.173 A 
ATOM     80  C   UNL A   1      43.808  27.768  36.176  1.00  0.00     0.173 A 
ATOM     81  F   UNL A   1      45.516  30.276  34.168  1.00  0.00    -0.203 F 
ATOM     82  C   UNL A   1      46.370  28.742  35.736  1.00  0.00     0.198 A 
ATOM     83  C   UNL A   1      44.887  27.240  36.880  1.00  0.00     0.198 A 
ATOM     84  F   UNL A   1      42.584  27.273  36.407  1.00  0.00    -0.203 F 
ATOM     85  F   UNL A   1      47.611  29.188  35.495  1.00  0.00    -0.200 F 
ATOM     86  C   UNL A   1      46.167  27.722  36.655  1.00  0.00     0.200 A 
ATOM     87  F   UNL A   1      44.686  26.266  37.779  1.00  0.00    -0.200 F 
ATOM     88  F   UNL A   1      47.208  27.199  37.317  1.00  0.00    -0.200 F 
ENDBRANCH  55  78
ENDBRANCH  29  30
ENDBRANCH  21  24
ENDBRANCH  19  20
ENDBRANCH  18  19
ENDBRANCH   1  18
TORSDOF 14
ENDMDL
MODEL 2
REMARK VINA RESULT:     -10.9      0.644      1.971
REMARK SMILES C[C@@H](C(=O)NCCCNC(=O)c1ccc(-c2c3nc(c(-c4c(F)c(F)c(F)c(F)c4F)c4ccc([nH]4)c(-c4c(F)c(F)c(F)c(F)c4F)c4nc(c(-c5c(F)c(F)c(F)c(F)c5F)c5ccc2[nH]5)C=C4)C=C3)cc1)[C@H](C)[N@@H+](C)[C@@H](C)C1CC1
REMARK SMILES IDX 6 1 5 2 3 3 4 4 2 6 1 7 75 8 76 9 77 10 78 11 79 13 80 14
REMARK SMILES IDX 81 15 82 16 83 17 7 18 8 19 9 20 10 21 11 23 12 24 13 25
REMARK SMILES IDX 74 26 14 27 73 28 15 29 16 30 17 31 67 32 18 33 72 34 66 35
REMARK SMILES IDX 68 36 19 37 71 38 65 39 64 40 20 42 52 43 32 44 51 45 33 46
REMARK SMILES IDX 36 47 50 48 69 49 34 50 35 51 49 53 70 54 37 55 21 56 22 57
REMARK SMILES IDX 30 58 23 59 24 60 28 61 31 62 25 63 26 64 29 65 27 66 53 67
REMARK SMILES IDX 54 68 62 69 55 70 56 71 60 72 63 73 57 74 58 75 61 76 59 77
REMARK SMILES IDX 38 78 39 79 47 80 40 81 41 82 45 83 48 84 42 85 43 86 46 87
REMARK SMILES IDX 44 88
REMARK H PARENT 5 5 77 12 9 22 68 41 36 52
REMARK Flexibility Score: inf
ROOT
ATOM      1  C   UNL A   1      31.334  30.877  26.467  1.00  0.00     0.117 C 
ENDROOT
BRANCH   1   2
ATOM      2  N   UNL A   1      31.997  30.421  25.264  1.00  0.00    -0.356 N 
ATOM      3  C   UNL A   1      32.796  29.359  24.995  1.00  0.00     0.228 C 
ATOM      4  O   UNL A   1      33.087  29.235  23.803  1.00  0.00    -0.275 OA
ATOM      5  H   UNL A   1      31.834  30.998  24.482  1.00  0.00     0.163 HD
BRANCH   3   6
ATOM      6  C   UNL A   1      33.158  28.300  26.047  1.00  0.00     0.133 C 
ATOM      7  C   UNL A   1      34.512  28.408  26.745  1.00  0.00     0.024 C 
BRANCH   6   8
ATOM      8  C   UNL A   1      32.802  26.846  25.574  1.00  0.00     0.193 C 
ATOM      9  C   UNL A   1      34.085  25.989  25.575  1.00  0.00     0.076 C 
BRANCH   8  10
ATOM     10  N   UNL A   1      31.961  26.545  24.388  1.00  0.00    -0.332 N 
ATOM     11  C   UNL A   1      32.525  25.486  23.541  1.00  0.00     0.333 C 
ATOM     12  H   UNL A   1      32.045  27.493  24.021  1.00  0.00     0.348 HD
BRANCH  10  13
ATOM     13  C   UNL A   1      30.494  26.484  24.379  1.00  0.00     0.184 C 
ATOM     14  C   UNL A   1      29.839  25.771  25.572  1.00  0.00     0.075 C 
BRANCH  13  15
ATOM     15  C   UNL A   1      29.808  27.784  24.028  1.00  0.00     0.047 C 
ATOM     16  C   UNL A   1      29.834  28.329  22.617  1.00  0.00     0.010 C 
ATOM     17  C   UNL A   1      28.560  27.764  23.165  1.00  0.00     0.010 C 
ENDBRANCH  13  15
ENDBRANCH  10  13
ENDBRANCH   8  10
ENDBRANCH   6   8
ENDBRANCH   3   6
ENDBRANCH   1   2
BRANCH   1  18
ATOM     18  C   UNL A   1      31.343  32.401  26.566  1.00  0.00     0.042 C 
BRANCH  18  19
ATOM     19  C   UNL A   1      32.599  32.971  27.222  1.00  0.00     0.118 C 
BRANCH  19  20
ATOM     20  N   UNL A   1      32.418  34.346  27.662  1.00  0.00    -0.352 N 
ATOM     21  C   UNL A   1      32.994  35.021  28.707  1.00  0.00     0.251 C 
ATOM     22  H   UNL A   1      31.783  34.874  27.125  1.00  0.00     0.163 HD
ATOM     23  O   UNL A   1      32.533  36.100  29.066  1.00  0.00    -0.269 OA
BRANCH  21  24
ATOM     24  C   UNL A   1      34.164  34.452  29.408  1.00  0.00     0.039 A 
ATOM     25  C   UNL A   1      33.962  33.763  30.607  1.00  0.00     0.014 A 
ATOM     26  C   UNL A   1      35.457  34.630  28.911  1.00  0.00     0.014 A 
ATOM     27  C   UNL A   1      35.052  33.205  31.277  1.00  0.00     0.010 A 
ATOM     28  C   UNL A   1      36.533  34.007  29.536  1.00  0.00     0.010 A 
ATOM     29  C   UNL A   1      36.342  33.295  30.729  1.00  0.00    -0.014 A 
BRANCH  29  30
ATOM     30  C   UNL A   1      37.506  32.656  31.392  1.00  0.00     0.031 A 
ATOM     31  C   UNL A   1      38.226  31.518  30.725  1.00  0.00     0.074 A 
ATOM     32  C   UNL A   1      37.871  33.060  32.625  1.00  0.00     0.049 A 
ATOM     33  N   UNL A   1      39.210  30.781  31.176  1.00  0.00    -0.248 NA
ATOM     34  C   UNL A   1      37.757  31.136  29.383  1.00  0.00     0.031 C 
ATOM     35  C   UNL A   1      37.222  34.123  33.393  1.00  0.00     0.029 A 
ATOM     36  N   UNL A   1      38.871  32.615  33.454  1.00  0.00    -0.354 N 
ATOM     37  C   UNL A   1      39.466  29.845  30.182  1.00  0.00     0.074 A 
ATOM     38  C   UNL A   1      38.501  30.071  29.129  1.00  0.00     0.031 C 
ATOM     39  C   UNL A   1      37.850  34.262  34.570  1.00  0.00     0.029 A 
ATOM     40  C   UNL A   1      38.920  33.274  34.658  1.00  0.00     0.049 A 
ATOM     41  H   UNL A   1      39.493  31.893  33.208  1.00  0.00     0.167 HD
ATOM     42  C   UNL A   1      40.434  28.899  30.144  1.00  0.00     0.037 A 
ATOM     43  C   UNL A   1      39.731  33.091  35.718  1.00  0.00     0.037 A 
ATOM     44  C   UNL A   1      41.407  28.697  31.186  1.00  0.00     0.049 A 
ATOM     45  C   UNL A   1      40.795  32.029  35.651  1.00  0.00     0.074 A 
ATOM     46  C   UNL A   1      42.465  27.804  31.217  1.00  0.00     0.029 A 
ATOM     47  N   UNL A   1      41.440  29.397  32.382  1.00  0.00    -0.354 N 
ATOM     48  N   UNL A   1      41.072  31.195  34.678  1.00  0.00    -0.248 NA
ATOM     49  C   UNL A   1      41.665  31.888  36.826  1.00  0.00     0.031 C 
ATOM     50  C   UNL A   1      43.108  27.933  32.452  1.00  0.00     0.029 A 
ATOM     51  C   UNL A   1      42.486  28.944  33.168  1.00  0.00     0.049 A 
ATOM     52  H   UNL A   1      40.812  30.114  32.635  1.00  0.00     0.167 HD
ATOM     53  C   UNL A   1      42.163  30.454  35.109  1.00  0.00     0.074 A 
ATOM     54  C   UNL A   1      42.507  30.947  36.427  1.00  0.00     0.031 C 
ATOM     55  C   UNL A   1      42.822  29.455  34.472  1.00  0.00     0.037 A 
BRANCH  42  56
ATOM     56  C   UNL A   1      40.492  28.009  28.935  1.00  0.00     0.064 A 
ATOM     57  C   UNL A   1      39.751  26.820  28.861  1.00  0.00     0.173 A 
ATOM     58  C   UNL A   1      41.265  28.370  27.821  1.00  0.00     0.173 A 
ATOM     59  F   UNL A   1      39.004  26.423  29.902  1.00  0.00    -0.203 F 
ATOM     60  C   UNL A   1      39.803  26.012  27.727  1.00  0.00     0.198 A 
ATOM     61  C   UNL A   1      41.289  27.576  26.678  1.00  0.00     0.198 A 
ATOM     62  F   UNL A   1      41.989  29.499  27.837  1.00  0.00    -0.203 F 
ATOM     63  F   UNL A   1      39.124  24.857  27.698  1.00  0.00    -0.200 F 
ATOM     64  C   UNL A   1      40.565  26.394  26.635  1.00  0.00     0.200 A 
ATOM     65  F   UNL A   1      42.016  27.954  25.616  1.00  0.00    -0.200 F 
ATOM     66  F   UNL A   1      40.606  25.621  25.541  1.00  0.00    -0.200 F 
ENDBRANCH  42  56
BRANCH  43  67
ATOM     67  C   UNL A   1      39.584  33.949  36.923  1.00  0.00     0.064 A 
ATOM     68  C   UNL A   1      40.214  35.199  36.997  1.00  0.00     0.173 A 
ATOM     69  C   UNL A   1      38.820  33.536  38.024  1.00  0.00     0.173 A 
ATOM     70  F   UNL A   1      40.971  35.628  35.977  1.00  0.00    -0.203 F 
ATOM     71  C   UNL A   1      40.107  35.993  38.137  1.00  0.00     0.198 A 
ATOM     72  C   UNL A   1      38.687  34.345  39.151  1.00  0.00     0.198 A 
ATOM     73  F   UNL A   1      38.191  32.353  38.002  1.00  0.00    -0.203 F 
ATOM     74  F   UNL A   1      40.759  37.162  38.201  1.00  0.00    -0.200 F 
ATOM     75  C   UNL A   1      39.338  35.569  39.210  1.00  0.00     0.200 A 
ATOM     76  F   UNL A   1      37.932  33.939  40.180  1.00  0.00    -0.200 F 
ATOM     77  F   UNL A   1      39.232  36.334  40.305  1.00  0.00    -0.200 F 
ENDBRANCH  43  67
BRANCH  55  78
ATOM     78  C   UNL A   1      44.009  28.857  35.171  1.00  0.00     0.064 A 
ATOM     79  C   UNL A   1      45.305  29.361  34.986  1.00  0.00     0.173 A 
ATOM     80  C   UNL A   1      43.838  27.792  36.069  1.00  0.00     0.173 A 
ATOM     81  F   UNL A   1      45.522  30.368  34.127  1.00  0.00    -0.203 F 
ATOM     82  C   UNL A   1      46.391  28.803  35.656  1.00  0.00     0.198 A 
ATOM     83  C   UNL A   1      44.922  27.258  36.760  1.00  0.00     0.198 A 
ATOM     84  F   UNL A   1      42.619  27.279  36.286  1.00  0.00    -0.203 F 
ATOM     85  F   UNL A   1      47.627  29.268  35.428  1.00  0.00    -0.200 F 
ATOM     86  C   UNL A   1      46.197  27.758  36.549  1.00  0.00     0.200 A 
ATOM     87  F   UNL A   1      44.731  26.259  37.633  1.00  0.00    -0.200 F 
ATOM     88  F   UNL A   1      47.243  27.229  37.198  1.00  0.00    -0.200 F 
ENDBRANCH  55  78
ENDBRANCH  29  30
ENDBRANCH  21  24
ENDBRANCH  19  20
ENDBRANCH  18  19
ENDBRANCH   1  18
TORSDOF 14
ENDMDL
MODEL 3
REMARK VINA RESULT:     -10.9      0.563      2.228
REMARK SMILES C[C@@H](C(=O)NCCCNC(=O)c1ccc(-c2c3nc(c(-c4c(F)c(F)c(F)c(F)c4F)c4ccc([nH]4)c(-c4c(F)c(F)c(F)c(F)c4F)c4nc(c(-c5c(F)c(F)c(F)c(F)c5F)c5ccc2[nH]5)C=C4)C=C3)cc1)[C@H](C)[N@@H+](C)[C@@H](C)C1CC1
REMARK SMILES IDX 6 1 5 2 3 3 4 4 2 6 1 7 75 8 76 9 77 10 78 11 79 13 80 14
REMARK SMILES IDX 81 15 82 16 83 17 7 18 8 19 9 20 10 21 11 23 12 24 13 25
REMARK SMILES IDX 74 26 14 27 73 28 15 29 16 30 17 31 67 32 18 33 72 34 66 35
REMARK SMILES IDX 68 36 19 37 71 38 65 39 64 40 20 42 52 43 32 44 51 45 33 46
REMARK SMILES IDX 36 47 50 48 69 49 34 50 35 51 49 53 70 54 37 55 21 56 22 57
REMARK SMILES IDX 30 58 23 59 24 60 28 61 31 62 25 63 26 64 29 65 27 66 53 67
REMARK SMILES IDX 54 68 62 69 55 70 56 71 60 72 63 73 57 74 58 75 61 76 59 77
REMARK SMILES IDX 38 78 39 79 47 80 40 81 41 82 45 83 48 84 42 85 43 86 46 87
REMARK SMILES IDX 44 88
REMARK H PARENT 5 5 77 12 9 22 68 41 36 52
REMARK Flexibility Score: inf
ROOT
ATOM      1  C   UNL A   1      31.380  30.798  26.359  1.00  0.00     0.117 C 
ENDROOT
BRANCH   1   2
ATOM      2  N   UNL A   1      32.039  30.378  25.141  1.00  0.00    -0.356 N 
ATOM      3  C   UNL A   1      32.813  29.309  24.830  1.00  0.00     0.228 C 
ATOM      4  O   UNL A   1      33.109  29.230  23.635  1.00  0.00    -0.275 OA
ATOM      5  H   UNL A   1      31.896  30.993  24.384  1.00  0.00     0.163 HD
BRANCH   3   6
ATOM      6  C   UNL A   1      33.142  28.197  25.837  1.00  0.00     0.133 C 
ATOM      7  C   UNL A   1      34.397  28.344  26.693  1.00  0.00     0.024 C 
BRANCH   6   8
ATOM      8  C   UNL A   1      32.960  26.764  25.220  1.00  0.00     0.193 C 
ATOM      9  C   UNL A   1      34.279  25.979  25.376  1.00  0.00     0.076 C 
BRANCH   8  10
ATOM     10  N   UNL A   1      32.339  26.507  23.896  1.00  0.00    -0.332 N 
ATOM     11  C   UNL A   1      33.246  25.829  22.961  1.00  0.00     0.333 C 
ATOM     12  H   UNL A   1      32.183  27.499  23.717  1.00  0.00     0.348 HD
BRANCH  10  13
ATOM     13  C   UNL A   1      30.954  26.070  23.677  1.00  0.00     0.184 C 
ATOM     14  C   UNL A   1      30.653  24.595  23.983  1.00  0.00     0.075 C 
BRANCH  13  15
ATOM     15  C   UNL A   1      29.901  27.006  24.222  1.00  0.00     0.047 C 
ATOM     16  C   UNL A   1      29.539  28.285  23.500  1.00  0.00     0.010 C 
ATOM     17  C   UNL A   1      28.573  27.142  23.501  1.00  0.00     0.010 C 
ENDBRANCH  13  15
ENDBRANCH  10  13
ENDBRANCH   8  10
ENDBRANCH   6   8
ENDBRANCH   3   6
ENDBRANCH   1   2
BRANCH   1  18
ATOM     18  C   UNL A   1      31.384  32.318  26.501  1.00  0.00     0.042 C 
BRANCH  18  19
ATOM     19  C   UNL A   1      32.625  32.872  27.198  1.00  0.00     0.118 C 
BRANCH  19  20
ATOM     20  N   UNL A   1      32.451  34.251  27.626  1.00  0.00    -0.352 N 
ATOM     21  C   UNL A   1      33.024  34.929  28.671  1.00  0.00     0.251 C 
ATOM     22  H   UNL A   1      31.823  34.780  27.080  1.00  0.00     0.163 HD
ATOM     23  O   UNL A   1      32.567  36.014  29.018  1.00  0.00    -0.269 OA
BRANCH  21  24
ATOM     24  C   UNL A   1      34.184  34.358  29.385  1.00  0.00     0.039 A 
ATOM     25  C   UNL A   1      33.967  33.669  30.581  1.00  0.00     0.014 A 
ATOM     26  C   UNL A   1      35.482  34.533  28.902  1.00  0.00     0.014 A 
ATOM     27  C   UNL A   1      35.049  33.108  31.262  1.00  0.00     0.010 A 
ATOM     28  C   UNL A   1      36.550  33.908  29.538  1.00  0.00     0.010 A 
ATOM     29  C   UNL A   1      36.345  33.195  30.729  1.00  0.00    -0.014 A 
BRANCH  29  30
ATOM     30  C   UNL A   1      37.500  32.554  31.405  1.00  0.00     0.031 A 
ATOM     31  C   UNL A   1      38.209  31.398  30.756  1.00  0.00     0.074 A 
ATOM     32  C   UNL A   1      37.866  32.972  32.632  1.00  0.00     0.049 A 
ATOM     33  N   UNL A   1      39.184  30.658  31.221  1.00  0.00    -0.248 NA
ATOM     34  C   UNL A   1      37.740  31.003  29.418  1.00  0.00     0.031 C 
ATOM     35  C   UNL A   1      37.227  34.053  33.383  1.00  0.00     0.029 A 
ATOM     36  N   UNL A   1      38.859  32.528  33.471  1.00  0.00    -0.354 N 
ATOM     37  C   UNL A   1      39.432  29.704  30.241  1.00  0.00     0.074 A 
ATOM     38  C   UNL A   1      38.473  29.925  29.182  1.00  0.00     0.031 C 
ATOM     39  C   UNL A   1      37.853  34.203  34.560  1.00  0.00     0.029 A 
ATOM     40  C   UNL A   1      38.912  33.204  34.665  1.00  0.00     0.049 A 
ATOM     41  H   UNL A   1      39.473  31.796  33.238  1.00  0.00     0.167 HD
ATOM     42  C   UNL A   1      40.391  28.747  30.220  1.00  0.00     0.037 A 
ATOM     43  C   UNL A   1      39.718  33.028  35.730  1.00  0.00     0.037 A 
ATOM     44  C   UNL A   1      41.359  28.550  31.267  1.00  0.00     0.049 A 
ATOM     45  C   UNL A   1      40.770  31.954  35.681  1.00  0.00     0.074 A 
ATOM     46  C   UNL A   1      42.407  27.647  31.315  1.00  0.00     0.029 A 
ATOM     47  N   UNL A   1      41.395  29.268  32.454  1.00  0.00    -0.354 N 
ATOM     48  N   UNL A   1      41.041  31.102  34.722  1.00  0.00    -0.248 NA
ATOM     49  C   UNL A   1      41.635  31.821  36.861  1.00  0.00     0.031 C 
ATOM     50  C   UNL A   1      43.048  27.787  32.550  1.00  0.00     0.029 A 
ATOM     51  C   UNL A   1      42.434  28.815  33.249  1.00  0.00     0.049 A 
ATOM     52  H   UNL A   1      40.775  29.995  32.694  1.00  0.00     0.167 HD
ATOM     53  C   UNL A   1      42.123  30.357  35.167  1.00  0.00     0.074 A 
ATOM     54  C   UNL A   1      42.468  30.865  36.479  1.00  0.00     0.031 C 
ATOM     55  C   UNL A   1      42.772  29.341  34.547  1.00  0.00     0.037 A 
BRANCH  42  56
ATOM     56  C   UNL A   1      40.442  27.840  29.025  1.00  0.00     0.064 A 
ATOM     57  C   UNL A   1      41.261  28.123  27.921  1.00  0.00     0.173 A 
ATOM     58  C   UNL A   1      39.698  26.651  29.000  1.00  0.00     0.173 A 
ATOM     59  F   UNL A   1      41.986  29.252  27.889  1.00  0.00    -0.203 F 
ATOM     60  C   UNL A   1      41.311  27.263  26.825  1.00  0.00     0.198 A 
ATOM     61  C   UNL A   1      39.774  25.779  27.917  1.00  0.00     0.198 A 
ATOM     62  F   UNL A   1      38.903  26.328  30.031  1.00  0.00    -0.203 F 
ATOM     63  F   UNL A   1      42.063  27.579  25.762  1.00  0.00    -0.200 F 
ATOM     64  C   UNL A   1      40.574  26.090  26.828  1.00  0.00     0.200 A 
ATOM     65  F   UNL A   1      39.072  24.637  27.927  1.00  0.00    -0.200 F 
ATOM     66  F   UNL A   1      40.631  25.259  25.778  1.00  0.00    -0.200 F 
ENDBRANCH  42  56
BRANCH  43  67
ATOM     67  C   UNL A   1      39.577  33.905  36.922  1.00  0.00     0.064 A 
ATOM     68  C   UNL A   1      38.816  33.500  38.027  1.00  0.00     0.173 A 
ATOM     69  C   UNL A   1      40.191  35.164  36.979  1.00  0.00     0.173 A 
ATOM     70  F   UNL A   1      38.194  32.311  38.012  1.00  0.00    -0.203 F 
ATOM     71  C   UNL A   1      38.654  34.329  39.134  1.00  0.00     0.198 A 
ATOM     72  C   UNL A   1      40.054  35.982  38.100  1.00  0.00     0.198 A 
ATOM     73  F   UNL A   1      40.935  35.597  35.952  1.00  0.00    -0.203 F 
ATOM     74  F   UNL A   1      37.881  33.937  40.157  1.00  0.00    -0.200 F 
ATOM     75  C   UNL A   1      39.278  35.567  39.172  1.00  0.00     0.200 A 
ATOM     76  F   UNL A   1      40.670  37.170  38.139  1.00  0.00    -0.200 F 
ATOM     77  F   UNL A   1      39.125  36.365  40.238  1.00  0.00    -0.200 F 
ENDBRANCH  43  67
BRANCH  55  78
ATOM     78  C   UNL A   1      43.951  28.741  35.257  1.00  0.00     0.064 A 
ATOM     79  C   UNL A   1      43.807  27.666  36.146  1.00  0.00     0.173 A 
ATOM     80  C   UNL A   1      45.246  29.224  35.012  1.00  0.00     0.173 A 
ATOM     81  F   UNL A   1      42.589  27.178  36.425  1.00  0.00    -0.203 F 
ATOM     82  C   UNL A   1      44.915  27.112  36.783  1.00  0.00     0.198 A 
ATOM     83  C   UNL A   1      46.353  28.647  35.627  1.00  0.00     0.198 A 
ATOM     84  F   UNL A   1      45.437  30.246  34.166  1.00  0.00    -0.203 F 
ATOM     85  F   UNL A   1      44.749  26.117  37.665  1.00  0.00    -0.200 F 
ATOM     86  C   UNL A   1      46.187  27.597  36.516  1.00  0.00     0.200 A 
ATOM     87  F   UNL A   1      47.583  29.108  35.356  1.00  0.00    -0.200 F 
ATOM     88  F   UNL A   1      47.252  27.057  37.124  1.00  0.00    -0.200 F 
ENDBRANCH  55  78
ENDBRANCH  29  30
ENDBRANCH  21  24
ENDBRANCH  19  20
ENDBRANCH  18  19
ENDBRANCH   1  18
TORSDOF 14
ENDMDL
