MODEL 1
REMARK VINA RESULT:     -15.0      0.000      0.000
REMARK SMILES Cc1ccc(C)c(-c2cc(C(=O)NCCCNC(=O)c3ccc(-c4c5nc(c(-c6c(F)c(F)c(F)c(F)c6F)c6ccc([nH]6)c(-c6c(F)c(F)c(F)c(F)c6F)c6nc(c(-c7c(F)c(F)c(F)c(F)c7F)c7ccc4[nH]7)C=C6)C=C5)cc3)c3cc(C)ccc3n2)c1
REMARK SMILES IDX 15 1 14 2 13 3 11 4 12 5 10 7 8 8 9 9 90 10 89 11 83 12
REMARK SMILES IDX 88 13 84 14 87 15 85 16 86 17 7 18 1 19 2 20 3 21 91 22 4 23
REMARK SMILES IDX 5 24 6 25 16 26 17 27 18 28 19 30 20 31 21 32 82 33 22 34
REMARK SMILES IDX 81 35 23 36 24 37 25 38 75 39 26 40 80 41 74 42 76 43 27 44
REMARK SMILES IDX 79 45 73 46 72 47 28 49 60 50 40 51 59 52 41 53 44 54 58 55
REMARK SMILES IDX 77 56 42 57 43 58 57 60 78 61 45 62 29 63 30 64 38 65 31 66
REMARK SMILES IDX 32 67 36 68 39 69 33 70 34 71 37 72 35 73 61 74 62 75 70 76
REMARK SMILES IDX 63 77 64 78 68 79 71 80 65 81 66 82 69 83 67 84 46 85 47 86
REMARK SMILES IDX 55 87 48 88 49 89 53 90 56 91 50 92 51 93 54 94 52 95
REMARK H PARENT 13 6 17 29 76 48 44 59
REMARK Flexibility Score: inf
ROOT
ATOM      1  C   UNL A   1      35.399  30.510  27.396  1.00  0.00     0.042 C 
ENDROOT
BRANCH   1   2
ATOM      2  C   UNL A   1      34.522  29.317  27.094  1.00  0.00     0.118 C 
BRANCH   2   3
ATOM      3  N   UNL A   1      33.197  29.163  27.679  1.00  0.00    -0.352 N 
ATOM      4  C   UNL A   1      32.228  28.225  27.325  1.00  0.00     0.252 C 
ATOM      5  O   UNL A   1      31.235  28.093  28.038  1.00  0.00    -0.269 OA
ATOM      6  H   UNL A   1      32.959  29.789  28.401  1.00  0.00     0.163 HD
BRANCH   4   7
ATOM      7  C   UNL A   1      32.305  27.487  26.024  1.00  0.00     0.051 A 
ATOM      8  C   UNL A   1      32.654  25.359  25.027  1.00  0.00     0.072 A 
ATOM      9  C   UNL A   1      32.885  26.219  26.084  1.00  0.00     0.043 A 
ATOM     10  N   UNL A   1      31.763  25.647  24.047  1.00  0.00    -0.248 NA
ATOM     11  C   UNL A   1      31.247  26.882  23.980  1.00  0.00     0.072 A 
ATOM     12  C   UNL A   1      31.643  27.902  24.847  1.00  0.00     0.013 A 
ATOM     13  C   UNL A   1      30.233  27.156  23.071  1.00  0.00     0.029 A 
ATOM     14  C   UNL A   1      31.249  29.231  24.564  1.00  0.00     0.014 A 
ATOM     15  C   UNL A   1      29.640  28.421  22.987  1.00  0.00     0.005 A 
ATOM     16  C   UNL A   1      30.164  29.482  23.719  1.00  0.00    -0.050 A 
ATOM     17  C   UNL A   1      29.442  30.797  23.793  1.00  0.00     0.044 C 
BRANCH   8  18
ATOM     18  C   UNL A   1      33.411  24.115  24.840  1.00  0.00     0.003 A 
ATOM     19  C   UNL A   1      36.656  22.925  23.186  1.00  0.00     0.044 C 
ATOM     20  C   UNL A   1      35.360  22.930  23.942  1.00  0.00    -0.050 A 
ATOM     21  C   UNL A   1      34.881  21.737  24.489  1.00  0.00     0.004 A 
ATOM     22  C   UNL A   1      34.625  24.111  24.125  1.00  0.00     0.014 A 
ATOM     23  C   UNL A   1      33.681  21.719  25.196  1.00  0.00     0.004 A 
ATOM     24  C   UNL A   1      32.930  22.891  25.367  1.00  0.00    -0.042 A 
ATOM     25  C   UNL A   1      31.643  22.788  26.148  1.00  0.00     0.045 C 
ENDBRANCH   8  18
ENDBRANCH   4   7
ENDBRANCH   2   3
ENDBRANCH   1   2
BRANCH   1  26
ATOM     26  C   UNL A   1      36.818  30.115  27.688  1.00  0.00     0.118 C 
BRANCH  26  27
ATOM     27  N   UNL A   1      37.110  29.297  28.861  1.00  0.00    -0.352 N 
ATOM     28  C   UNL A   1      38.336  28.753  29.262  1.00  0.00     0.251 C 
ATOM     29  H   UNL A   1      36.344  29.102  29.448  1.00  0.00     0.163 HD
ATOM     30  O   UNL A   1      38.400  28.079  30.271  1.00  0.00    -0.269 OA
BRANCH  28  31
ATOM     31  C   UNL A   1      39.574  29.004  28.462  1.00  0.00     0.039 A 
ATOM     32  C   UNL A   1      39.615  28.855  27.067  1.00  0.00     0.014 A 
ATOM     33  C   UNL A   1      40.802  29.058  29.103  1.00  0.00     0.014 A 
ATOM     34  C   UNL A   1      40.867  28.562  26.485  1.00  0.00     0.010 A 
ATOM     35  C   UNL A   1      41.860  29.502  28.387  1.00  0.00     0.010 A 
ATOM     36  C   UNL A   1      41.995  28.696  27.289  1.00  0.00    -0.014 A 
BRANCH  36  37
ATOM     37  C   UNL A   1      43.248  27.948  27.245  1.00  0.00     0.031 A 
ATOM     38  C   UNL A   1      43.067  26.517  26.902  1.00  0.00     0.074 A 
ATOM     39  C   UNL A   1      44.492  28.411  26.988  1.00  0.00     0.049 A 
ATOM     40  N   UNL A   1      43.005  25.532  27.729  1.00  0.00    -0.248 NA
ATOM     41  C   UNL A   1      42.754  26.161  25.506  1.00  0.00     0.031 C 
ATOM     42  C   UNL A   1      44.980  29.741  26.617  1.00  0.00     0.029 A 
ATOM     43  N   UNL A   1      45.626  27.649  26.934  1.00  0.00    -0.354 N 
ATOM     44  C   UNL A   1      42.776  24.408  26.952  1.00  0.00     0.074 A 
ATOM     45  C   UNL A   1      42.394  24.885  25.648  1.00  0.00     0.031 C 
ATOM     46  C   UNL A   1      46.286  29.655  26.245  1.00  0.00     0.029 A 
ATOM     47  C   UNL A   1      46.763  28.301  26.493  1.00  0.00     0.049 A 
ATOM     48  H   UNL A   1      45.632  26.699  27.191  1.00  0.00     0.167 HD
ATOM     49  C   UNL A   1      43.115  23.162  27.380  1.00  0.00     0.037 A 
ATOM     50  C   UNL A   1      47.986  27.731  26.340  1.00  0.00     0.037 A 
ATOM     51  C   UNL A   1      43.593  23.189  28.741  1.00  0.00     0.049 A 
ATOM     52  C   UNL A   1      47.985  26.445  27.094  1.00  0.00     0.074 A 
ATOM     53  C   UNL A   1      43.053  23.574  29.954  1.00  0.00     0.029 A 
ATOM     54  N   UNL A   1      44.956  23.187  28.933  1.00  0.00    -0.354 N 
ATOM     55  N   UNL A   1      47.910  26.344  28.391  1.00  0.00    -0.248 NA
ATOM     56  C   UNL A   1      47.703  25.218  26.362  1.00  0.00     0.031 C 
ATOM     57  C   UNL A   1      44.114  24.241  30.642  1.00  0.00     0.029 A 
ATOM     58  C   UNL A   1      45.246  24.193  29.824  1.00  0.00     0.049 A 
ATOM     59  H   UNL A   1      45.604  22.579  28.510  1.00  0.00     0.167 HD
ATOM     60  C   UNL A   1      47.188  25.182  28.621  1.00  0.00     0.074 A 
ATOM     61  C   UNL A   1      47.201  24.472  27.349  1.00  0.00     0.031 C 
ATOM     62  C   UNL A   1      46.414  25.043  29.739  1.00  0.00     0.037 A 
BRANCH  49  63
ATOM     63  C   UNL A   1      43.289  21.965  26.490  1.00  0.00     0.064 A 
ATOM     64  C   UNL A   1      42.399  20.884  26.618  1.00  0.00     0.173 A 
ATOM     65  C   UNL A   1      44.402  21.746  25.651  1.00  0.00     0.173 A 
ATOM     66  F   UNL A   1      41.328  20.972  27.420  1.00  0.00    -0.203 F 
ATOM     67  C   UNL A   1      42.622  19.667  25.971  1.00  0.00     0.198 A 
ATOM     68  C   UNL A   1      44.584  20.554  24.952  1.00  0.00     0.198 A 
ATOM     69  F   UNL A   1      45.406  22.626  25.556  1.00  0.00    -0.203 F 
ATOM     70  F   UNL A   1      41.802  18.633  26.204  1.00  0.00    -0.200 F 
ATOM     71  C   UNL A   1      43.708  19.505  25.131  1.00  0.00     0.200 A 
ATOM     72  F   UNL A   1      45.653  20.414  24.155  1.00  0.00    -0.200 F 
ATOM     73  F   UNL A   1      43.939  18.330  24.534  1.00  0.00    -0.200 F 
ENDBRANCH  49  63
BRANCH  50  74
ATOM     74  C   UNL A   1      49.103  28.086  25.435  1.00  0.00     0.064 A 
ATOM     75  C   UNL A   1      50.290  28.655  25.929  1.00  0.00     0.173 A 
ATOM     76  C   UNL A   1      49.137  27.609  24.113  1.00  0.00     0.173 A 
ATOM     77  F   UNL A   1      50.355  29.090  27.195  1.00  0.00    -0.203 F 
ATOM     78  C   UNL A   1      51.451  28.719  25.151  1.00  0.00     0.198 A 
ATOM     79  C   UNL A   1      50.295  27.677  23.336  1.00  0.00     0.198 A 
ATOM     80  F   UNL A   1      48.076  26.975  23.591  1.00  0.00    -0.203 F 
ATOM     81  F   UNL A   1      52.583  29.210  25.677  1.00  0.00    -0.200 F 
ATOM     82  C   UNL A   1      51.455  28.221  23.859  1.00  0.00     0.200 A 
ATOM     83  F   UNL A   1      50.302  27.152  22.103  1.00  0.00    -0.200 F 
ATOM     84  F   UNL A   1      52.585  28.221  23.136  1.00  0.00    -0.200 F 
ENDBRANCH  50  74
BRANCH  62  85
ATOM     85  C   UNL A   1      46.628  26.031  30.856  1.00  0.00     0.064 A 
ATOM     86  C   UNL A   1      47.683  25.955  31.783  1.00  0.00     0.173 A 
ATOM     87  C   UNL A   1      45.804  27.162  30.921  1.00  0.00     0.173 A 
ATOM     88  F   UNL A   1      48.581  24.967  31.724  1.00  0.00    -0.203 F 
ATOM     89  C   UNL A   1      47.868  26.933  32.758  1.00  0.00     0.198 A 
ATOM     90  C   UNL A   1      46.014  28.159  31.871  1.00  0.00     0.198 A 
ATOM     91  F   UNL A   1      44.813  27.323  30.029  1.00  0.00    -0.203 F 
ATOM     92  F   UNL A   1      48.874  26.821  33.638  1.00  0.00    -0.200 F 
ATOM     93  C   UNL A   1      47.038  28.038  32.797  1.00  0.00     0.200 A 
ATOM     94  F   UNL A   1      45.237  29.252  31.873  1.00  0.00    -0.200 F 
ATOM     95  F   UNL A   1      47.238  29.000  33.710  1.00  0.00    -0.200 F 
ENDBRANCH  62  85
ENDBRANCH  36  37
ENDBRANCH  28  31
ENDBRANCH  26  27
ENDBRANCH   1  26
TORSDOF 11
ENDMDL
MODEL 2
REMARK VINA RESULT:     -14.6      4.701      9.719
REMARK SMILES Cc1ccc(C)c(-c2cc(C(=O)NCCCNC(=O)c3ccc(-c4c5nc(c(-c6c(F)c(F)c(F)c(F)c6F)c6ccc([nH]6)c(-c6c(F)c(F)c(F)c(F)c6F)c6nc(c(-c7c(F)c(F)c(F)c(F)c7F)c7ccc4[nH]7)C=C6)C=C5)cc3)c3cc(C)ccc3n2)c1
REMARK SMILES IDX 15 1 14 2 13 3 11 4 12 5 10 7 8 8 9 9 90 10 89 11 83 12
REMARK SMILES IDX 88 13 84 14 87 15 85 16 86 17 7 18 1 19 2 20 3 21 91 22 4 23
REMARK SMILES IDX 5 24 6 25 16 26 17 27 18 28 19 30 20 31 21 32 82 33 22 34
REMARK SMILES IDX 81 35 23 36 24 37 25 38 75 39 26 40 80 41 74 42 76 43 27 44
REMARK SMILES IDX 79 45 73 46 72 47 28 49 60 50 40 51 59 52 41 53 44 54 58 55
REMARK SMILES IDX 77 56 42 57 43 58 57 60 78 61 45 62 29 63 30 64 38 65 31 66
REMARK SMILES IDX 32 67 36 68 39 69 33 70 34 71 37 72 35 73 61 74 62 75 70 76
REMARK SMILES IDX 63 77 64 78 68 79 71 80 65 81 66 82 69 83 67 84 46 85 47 86
REMARK SMILES IDX 55 87 48 88 49 89 53 90 56 91 50 92 51 93 54 94 52 95
REMARK H PARENT 13 6 17 29 76 48 44 59
REMARK Flexibility Score: inf
ROOT
ATOM      1  C   UNL A   1      36.970  23.647  25.220  1.00  0.00     0.042 C 
ENDROOT
BRANCH   1   2
ATOM      2  C   UNL A   1      36.432  22.240  25.340  1.00  0.00     0.118 C 
BRANCH   2   3
ATOM      3  N   UNL A   1      35.777  21.762  26.550  1.00  0.00    -0.352 N 
ATOM      4  C   UNL A   1      34.420  21.847  26.859  1.00  0.00     0.252 C 
ATOM      5  O   UNL A   1      33.986  21.228  27.828  1.00  0.00    -0.269 OA
ATOM      6  H   UNL A   1      36.354  21.333  27.222  1.00  0.00     0.163 HD
BRANCH   4   7
ATOM      7  C   UNL A   1      33.518  22.791  26.124  1.00  0.00     0.051 A 
ATOM      8  C   UNL A   1      33.094  25.079  25.644  1.00  0.00     0.072 A 
ATOM      9  C   UNL A   1      33.606  24.130  26.508  1.00  0.00     0.043 A 
ATOM     10  N   UNL A   1      32.679  24.762  24.392  1.00  0.00    -0.248 NA
ATOM     11  C   UNL A   1      32.561  23.471  24.053  1.00  0.00     0.072 A 
ATOM     12  C   UNL A   1      32.791  22.439  24.965  1.00  0.00     0.013 A 
ATOM     13  C   UNL A   1      32.271  23.128  22.739  1.00  0.00     0.029 A 
ATOM     14  C   UNL A   1      32.410  21.122  24.617  1.00  0.00     0.014 A 
ATOM     15  C   UNL A   1      32.172  21.793  22.330  1.00  0.00     0.005 A 
ATOM     16  C   UNL A   1      32.214  20.774  23.276  1.00  0.00    -0.050 A 
ATOM     17  C   UNL A   1      32.297  19.334  22.854  1.00  0.00     0.044 C 
BRANCH   8  18
ATOM     18  C   UNL A   1      32.883  26.477  26.038  1.00  0.00     0.003 A 
ATOM     19  C   UNL A   1      34.950  29.526  27.094  1.00  0.00     0.044 C 
ATOM     20  C   UNL A   1      33.788  28.643  26.746  1.00  0.00    -0.050 A 
ATOM     21  C   UNL A   1      32.494  29.168  26.780  1.00  0.00     0.004 A 
ATOM     22  C   UNL A   1      33.975  27.304  26.371  1.00  0.00     0.014 A 
ATOM     23  C   UNL A   1      31.401  28.366  26.459  1.00  0.00     0.004 A 
ATOM     24  C   UNL A   1      31.577  27.020  26.103  1.00  0.00    -0.042 A 
ATOM     25  C   UNL A   1      30.343  26.221  25.766  1.00  0.00     0.045 C 
ENDBRANCH   8  18
ENDBRANCH   4   7
ENDBRANCH   2   3
ENDBRANCH   1   2
BRANCH   1  26
ATOM     26  C   UNL A   1      38.126  23.894  26.145  1.00  0.00     0.118 C 
BRANCH  26  27
ATOM     27  N   UNL A   1      38.785  22.765  26.793  1.00  0.00    -0.352 N 
ATOM     28  C   UNL A   1      40.033  22.728  27.426  1.00  0.00     0.251 C 
ATOM     29  H   UNL A   1      38.286  21.916  26.784  1.00  0.00     0.163 HD
ATOM     30  O   UNL A   1      40.440  21.689  27.908  1.00  0.00    -0.269 OA
BRANCH  28  31
ATOM     31  C   UNL A   1      40.869  23.964  27.524  1.00  0.00     0.039 A 
ATOM     32  C   UNL A   1      41.994  24.051  28.358  1.00  0.00     0.014 A 
ATOM     33  C   UNL A   1      40.364  25.169  27.058  1.00  0.00     0.014 A 
ATOM     34  C   UNL A   1      42.366  25.335  28.811  1.00  0.00     0.010 A 
ATOM     35  C   UNL A   1      41.223  26.208  26.962  1.00  0.00     0.010 A 
ATOM     36  C   UNL A   1      41.761  26.430  28.201  1.00  0.00    -0.014 A 
BRANCH  36  37
ATOM     37  C   UNL A   1      41.438  27.735  28.769  1.00  0.00     0.031 A 
ATOM     38  C   UNL A   1      42.302  28.828  28.261  1.00  0.00     0.074 A 
ATOM     39  C   UNL A   1      40.252  28.167  29.257  1.00  0.00     0.049 A 
ATOM     40  N   UNL A   1      43.346  29.312  28.840  1.00  0.00    -0.248 NA
ATOM     41  C   UNL A   1      42.083  29.321  26.890  1.00  0.00     0.031 C 
ATOM     42  C   UNL A   1      38.935  27.533  29.318  1.00  0.00     0.029 A 
ATOM     43  N   UNL A   1      40.008  29.418  29.751  1.00  0.00    -0.354 N 
ATOM     44  C   UNL A   1      43.846  30.265  27.969  1.00  0.00     0.074 A 
ATOM     45  C   UNL A   1      43.182  30.053  26.709  1.00  0.00     0.031 C 
ATOM     46  C   UNL A   1      38.007  28.455  29.695  1.00  0.00     0.029 A 
ATOM     47  C   UNL A   1      38.685  29.696  30.042  1.00  0.00     0.049 A 
ATOM     48  H   UNL A   1      40.725  30.077  29.889  1.00  0.00     0.167 HD
ATOM     49  C   UNL A   1      44.624  31.293  28.403  1.00  0.00     0.037 A 
ATOM     50  C   UNL A   1      38.217  30.879  30.517  1.00  0.00     0.037 A 
ATOM     51  C   UNL A   1      44.933  31.158  29.806  1.00  0.00     0.049 A 
ATOM     52  C   UNL A   1      39.380  31.651  31.041  1.00  0.00     0.074 A 
ATOM     53  C   UNL A   1      45.580  30.205  30.571  1.00  0.00     0.029 A 
ATOM     54  N   UNL A   1      44.176  31.886  30.694  1.00  0.00    -0.354 N 
ATOM     55  N   UNL A   1      40.086  31.313  32.084  1.00  0.00    -0.248 NA
ATOM     56  C   UNL A   1      40.000  32.640  30.170  1.00  0.00     0.031 C 
ATOM     57  C   UNL A   1      44.812  30.106  31.773  1.00  0.00     0.029 A 
ATOM     58  C   UNL A   1      43.766  31.026  31.685  1.00  0.00     0.049 A 
ATOM     59  H   UNL A   1      43.966  32.845  30.632  1.00  0.00     0.167 HD
ATOM     60  C   UNL A   1      41.379  31.725  31.793  1.00  0.00     0.074 A 
ATOM     61  C   UNL A   1      41.238  32.641  30.669  1.00  0.00     0.031 C 
ATOM     62  C   UNL A   1      42.460  31.068  32.309  1.00  0.00     0.037 A 
BRANCH  49  63
ATOM     63  C   UNL A   1      44.868  32.566  27.645  1.00  0.00     0.064 A 
ATOM     64  C   UNL A   1      46.073  32.718  26.936  1.00  0.00     0.173 A 
ATOM     65  C   UNL A   1      44.061  33.721  27.736  1.00  0.00     0.173 A 
ATOM     66  F   UNL A   1      46.931  31.694  26.821  1.00  0.00    -0.203 F 
ATOM     67  C   UNL A   1      46.452  33.942  26.382  1.00  0.00     0.198 A 
ATOM     68  C   UNL A   1      44.410  34.922  27.122  1.00  0.00     0.198 A 
ATOM     69  F   UNL A   1      42.967  33.764  28.505  1.00  0.00    -0.203 F 
ATOM     70  F   UNL A   1      47.655  34.065  25.805  1.00  0.00    -0.200 F 
ATOM     71  C   UNL A   1      45.617  35.040  26.466  1.00  0.00     0.200 A 
ATOM     72  F   UNL A   1      43.592  35.979  27.230  1.00  0.00    -0.200 F 
ATOM     73  F   UNL A   1      45.991  36.222  25.961  1.00  0.00    -0.200 F 
ENDBRANCH  49  63
BRANCH  50  74
ATOM     74  C   UNL A   1      36.883  31.507  30.382  1.00  0.00     0.064 A 
ATOM     75  C   UNL A   1      36.037  31.670  31.493  1.00  0.00     0.173 A 
ATOM     76  C   UNL A   1      36.536  32.215  29.218  1.00  0.00     0.173 A 
ATOM     77  F   UNL A   1      36.324  31.068  32.656  1.00  0.00    -0.203 F 
ATOM     78  C   UNL A   1      34.921  32.513  31.448  1.00  0.00     0.198 A 
ATOM     79  C   UNL A   1      35.419  33.053  29.172  1.00  0.00     0.198 A 
ATOM     80  F   UNL A   1      37.332  32.185  28.139  1.00  0.00    -0.203 F 
ATOM     81  F   UNL A   1      34.174  32.694  32.547  1.00  0.00    -0.200 F 
ATOM     82  C   UNL A   1      34.620  33.212  30.291  1.00  0.00     0.200 A 
ATOM     83  F   UNL A   1      35.162  33.759  28.063  1.00  0.00    -0.200 F 
ATOM     84  F   UNL A   1      33.590  34.071  30.267  1.00  0.00    -0.200 F 
ENDBRANCH  50  74
BRANCH  62  85
ATOM     85  C   UNL A   1      42.212  30.114  33.448  1.00  0.00     0.064 A 
ATOM     86  C   UNL A   1      41.951  28.742  33.283  1.00  0.00     0.173 A 
ATOM     87  C   UNL A   1      42.359  30.581  34.760  1.00  0.00     0.173 A 
ATOM     88  F   UNL A   1      41.903  28.192  32.066  1.00  0.00    -0.203 F 
ATOM     89  C   UNL A   1      41.791  27.894  34.377  1.00  0.00     0.198 A 
ATOM     90  C   UNL A   1      42.238  29.724  35.853  1.00  0.00     0.198 A 
ATOM     91  F   UNL A   1      42.665  31.869  34.985  1.00  0.00    -0.203 F 
ATOM     92  F   UNL A   1      41.524  26.593  34.185  1.00  0.00    -0.200 F 
ATOM     93  C   UNL A   1      41.941  28.384  35.661  1.00  0.00     0.200 A 
ATOM     94  F   UNL A   1      42.433  30.194  37.093  1.00  0.00    -0.200 F 
ATOM     95  F   UNL A   1      41.826  27.562  36.714  1.00  0.00    -0.200 F 
ENDBRANCH  62  85
ENDBRANCH  36  37
ENDBRANCH  28  31
ENDBRANCH  26  27
ENDBRANCH   1  26
TORSDOF 11
ENDMDL
MODEL 3
REMARK VINA RESULT:     -14.6      4.299      9.364
REMARK SMILES Cc1ccc(C)c(-c2cc(C(=O)NCCCNC(=O)c3ccc(-c4c5nc(c(-c6c(F)c(F)c(F)c(F)c6F)c6ccc([nH]6)c(-c6c(F)c(F)c(F)c(F)c6F)c6nc(c(-c7c(F)c(F)c(F)c(F)c7F)c7ccc4[nH]7)C=C6)C=C5)cc3)c3cc(C)ccc3n2)c1
REMARK SMILES IDX 15 1 14 2 13 3 11 4 12 5 10 7 8 8 9 9 90 10 89 11 83 12
REMARK SMILES IDX 88 13 84 14 87 15 85 16 86 17 7 18 1 19 2 20 3 21 91 22 4 23
REMARK SMILES IDX 5 24 6 25 16 26 17 27 18 28 19 30 20 31 21 32 82 33 22 34
REMARK SMILES IDX 81 35 23 36 24 37 25 38 75 39 26 40 80 41 74 42 76 43 27 44
REMARK SMILES IDX 79 45 73 46 72 47 28 49 60 50 40 51 59 52 41 53 44 54 58 55
REMARK SMILES IDX 77 56 42 57 43 58 57 60 78 61 45 62 29 63 30 64 38 65 31 66
REMARK SMILES IDX 32 67 36 68 39 69 33 70 34 71 37 72 35 73 61 74 62 75 70 76
REMARK SMILES IDX 63 77 64 78 68 79 71 80 65 81 66 82 69 83 67 84 46 85 47 86
REMARK SMILES IDX 55 87 48 88 49 89 53 90 56 91 50 92 51 93 54 94 52 95
REMARK H PARENT 13 6 17 29 76 48 44 59
REMARK Flexibility Score: inf
ROOT
ATOM      1  C   UNL A   1      38.874  24.118  26.672  1.00  0.00     0.042 C 
ENDROOT
BRANCH   1   2
ATOM      2  C   UNL A   1      37.591  23.706  25.988  1.00  0.00     0.118 C 
BRANCH   2   3
ATOM      3  N   UNL A   1      37.564  23.234  24.611  1.00  0.00    -0.352 N 
ATOM      4  C   UNL A   1      36.462  23.194  23.759  1.00  0.00     0.252 C 
ATOM      5  O   UNL A   1      36.635  22.952  22.567  1.00  0.00    -0.269 OA
ATOM      6  H   UNL A   1      38.416  22.908  24.242  1.00  0.00     0.163 HD
BRANCH   4   7
ATOM      7  C   UNL A   1      35.066  23.293  24.296  1.00  0.00     0.051 A 
ATOM      8  C   UNL A   1      33.126  24.662  24.393  1.00  0.00     0.072 A 
ATOM      9  C   UNL A   1      34.500  24.568  24.267  1.00  0.00     0.043 A 
ATOM     10  N   UNL A   1      32.326  23.567  24.368  1.00  0.00    -0.248 NA
ATOM     11  C   UNL A   1      32.885  22.351  24.437  1.00  0.00     0.072 A 
ATOM     12  C   UNL A   1      34.261  22.173  24.597  1.00  0.00     0.013 A 
ATOM     13  C   UNL A   1      32.095  21.220  24.275  1.00  0.00     0.029 A 
ATOM     14  C   UNL A   1      34.750  20.883  24.911  1.00  0.00     0.014 A 
ATOM     15  C   UNL A   1      32.638  19.931  24.305  1.00  0.00     0.005 A 
ATOM     16  C   UNL A   1      33.973  19.750  24.652  1.00  0.00    -0.050 A 
ATOM     17  C   UNL A   1      34.630  18.405  24.513  1.00  0.00     0.044 C 
BRANCH   8  18
ATOM     18  C   UNL A   1      32.440  25.934  24.644  1.00  0.00     0.003 A 
ATOM     19  C   UNL A   1      31.597  28.231  27.594  1.00  0.00     0.044 C 
ATOM     20  C   UNL A   1      31.694  27.672  26.205  1.00  0.00    -0.050 A 
ATOM     21  C   UNL A   1      31.140  28.385  25.139  1.00  0.00     0.004 A 
ATOM     22  C   UNL A   1      32.344  26.455  25.950  1.00  0.00     0.014 A 
ATOM     23  C   UNL A   1      31.219  27.885  23.841  1.00  0.00     0.004 A 
ATOM     24  C   UNL A   1      31.850  26.659  23.580  1.00  0.00    -0.042 A 
ATOM     25  C   UNL A   1      31.897  26.190  22.148  1.00  0.00     0.045 C 
ENDBRANCH   8  18
ENDBRANCH   4   7
ENDBRANCH   2   3
ENDBRANCH   1   2
BRANCH   1  26
ATOM     26  C   UNL A   1      39.714  22.938  27.065  1.00  0.00     0.118 C 
BRANCH  26  27
ATOM     27  N   UNL A   1      40.651  22.367  26.102  1.00  0.00    -0.352 N 
ATOM     28  C   UNL A   1      42.009  22.654  25.931  1.00  0.00     0.251 C 
ATOM     29  H   UNL A   1      40.277  21.691  25.492  1.00  0.00     0.163 HD
ATOM     30  O   UNL A   1      42.645  22.089  25.063  1.00  0.00    -0.269 OA
BRANCH  28  31
ATOM     31  C   UNL A   1      42.691  23.646  26.818  1.00  0.00     0.039 A 
ATOM     32  C   UNL A   1      42.969  23.387  28.169  1.00  0.00     0.014 A 
ATOM     33  C   UNL A   1      42.761  24.975  26.429  1.00  0.00     0.014 A 
ATOM     34  C   UNL A   1      43.078  24.497  29.032  1.00  0.00     0.010 A 
ATOM     35  C   UNL A   1      43.569  25.792  27.142  1.00  0.00     0.010 A 
ATOM     36  C   UNL A   1      43.158  25.758  28.448  1.00  0.00    -0.014 A 
BRANCH  36  37
ATOM     37  C   UNL A   1      42.681  27.039  28.959  1.00  0.00     0.031 A 
ATOM     38  C   UNL A   1      43.472  28.197  28.474  1.00  0.00     0.074 A 
ATOM     39  C   UNL A   1      41.432  27.369  29.359  1.00  0.00     0.049 A 
ATOM     40  N   UNL A   1      44.427  28.789  29.103  1.00  0.00    -0.248 NA
ATOM     41  C   UNL A   1      43.296  28.637  27.079  1.00  0.00     0.031 C 
ATOM     42  C   UNL A   1      40.177  26.616  29.357  1.00  0.00     0.029 A 
ATOM     43  N   UNL A   1      41.042  28.603  29.803  1.00  0.00    -0.354 N 
ATOM     44  C   UNL A   1      44.893  29.766  28.238  1.00  0.00     0.074 A 
ATOM     45  C   UNL A   1      44.334  29.464  26.945  1.00  0.00     0.031 C 
ATOM     46  C   UNL A   1      39.147  27.456  29.650  1.00  0.00     0.029 A 
ATOM     47  C   UNL A   1      39.683  28.762  30.004  1.00  0.00     0.049 A 
ATOM     48  H   UNL A   1      41.686  29.329  29.967  1.00  0.00     0.167 HD
ATOM     49  C   UNL A   1      45.543  30.871  28.690  1.00  0.00     0.037 A 
ATOM     50  C   UNL A   1      39.079  29.906  30.415  1.00  0.00     0.037 A 
ATOM     51  C   UNL A   1      45.774  30.796  30.113  1.00  0.00     0.049 A 
ATOM     52  C   UNL A   1      40.131  30.795  30.989  1.00  0.00     0.074 A 
ATOM     53  C   UNL A   1      46.455  29.925  30.943  1.00  0.00     0.029 A 
ATOM     54  N   UNL A   1      44.897  31.470  30.932  1.00  0.00    -0.354 N 
ATOM     55  N   UNL A   1      40.797  30.548  32.082  1.00  0.00    -0.248 NA
ATOM     56  C   UNL A   1      40.711  31.818  30.130  1.00  0.00     0.031 C 
ATOM     57  C   UNL A   1      45.624  29.781  32.098  1.00  0.00     0.029 A 
ATOM     58  C   UNL A   1      44.505  30.597  31.919  1.00  0.00     0.049 A 
ATOM     59  H   UNL A   1      44.604  32.404  30.830  1.00  0.00     0.167 HD
ATOM     60  C   UNL A   1      42.062  31.073  31.860  1.00  0.00     0.074 A 
ATOM     61  C   UNL A   1      41.910  31.946  30.704  1.00  0.00     0.031 C 
ATOM     62  C   UNL A   1      43.164  30.531  32.460  1.00  0.00     0.037 A 
BRANCH  49  63
ATOM     63  C   UNL A   1      45.717  32.144  27.913  1.00  0.00     0.064 A 
ATOM     64  C   UNL A   1      44.594  32.955  27.671  1.00  0.00     0.173 A 
ATOM     65  C   UNL A   1      46.896  32.511  27.229  1.00  0.00     0.173 A 
ATOM     66  F   UNL A   1      43.413  32.673  28.241  1.00  0.00    -0.203 F 
ATOM     67  C   UNL A   1      44.643  34.038  26.791  1.00  0.00     0.198 A 
ATOM     68  C   UNL A   1      46.959  33.634  26.407  1.00  0.00     0.198 A 
ATOM     69  F   UNL A   1      47.993  31.746  27.244  1.00  0.00    -0.203 F 
ATOM     70  F   UNL A   1      43.523  34.718  26.513  1.00  0.00    -0.200 F 
ATOM     71  C   UNL A   1      45.827  34.383  26.167  1.00  0.00     0.200 A 
ATOM     72  F   UNL A   1      48.115  33.940  25.798  1.00  0.00    -0.200 F 
ATOM     73  F   UNL A   1      45.870  35.402  25.300  1.00  0.00    -0.200 F 
ENDBRANCH  49  63
BRANCH  50  74
ATOM     74  C   UNL A   1      37.705  30.403  30.181  1.00  0.00     0.064 A 
ATOM     75  C   UNL A   1      36.896  30.844  31.244  1.00  0.00     0.173 A 
ATOM     76  C   UNL A   1      37.267  30.723  28.884  1.00  0.00     0.173 A 
ATOM     77  F   UNL A   1      37.268  30.622  32.512  1.00  0.00    -0.203 F 
ATOM     78  C   UNL A   1      35.729  31.583  31.020  1.00  0.00     0.198 A 
ATOM     79  C   UNL A   1      36.100  31.458  28.661  1.00  0.00     0.198 A 
ATOM     80  F   UNL A   1      38.019  30.417  27.816  1.00  0.00    -0.203 F 
ATOM     81  F   UNL A   1      35.018  32.042  32.061  1.00  0.00    -0.200 F 
ATOM     82  C   UNL A   1      35.339  31.899  29.730  1.00  0.00     0.200 A 
ATOM     83  F   UNL A   1      35.754  31.796  27.411  1.00  0.00    -0.200 F 
ATOM     84  F   UNL A   1      34.258  32.664  29.517  1.00  0.00    -0.200 F 
ENDBRANCH  50  74
BRANCH  62  85
ATOM     85  C   UNL A   1      42.932  29.583  33.607  1.00  0.00     0.064 A 
ATOM     86  C   UNL A   1      42.787  28.192  33.463  1.00  0.00     0.173 A 
ATOM     87  C   UNL A   1      42.975  30.086  34.914  1.00  0.00     0.173 A 
ATOM     88  F   UNL A   1      42.844  27.616  32.258  1.00  0.00    -0.203 F 
ATOM     89  C   UNL A   1      42.636  27.356  34.567  1.00  0.00     0.198 A 
ATOM     90  C   UNL A   1      42.865  29.245  36.019  1.00  0.00     0.198 A 
ATOM     91  F   UNL A   1      43.169  31.398  35.123  1.00  0.00    -0.203 F 
ATOM     92  F   UNL A   1      42.482  26.035  34.393  1.00  0.00    -0.200 F 
ATOM     93  C   UNL A   1      42.682  27.882  35.845  1.00  0.00     0.200 A 
ATOM     94  F   UNL A   1      42.960  29.753  37.256  1.00  0.00    -0.200 F 
ATOM     95  F   UNL A   1      42.577  27.074  36.910  1.00  0.00    -0.200 F 
ENDBRANCH  62  85
ENDBRANCH  36  37
ENDBRANCH  28  31
ENDBRANCH  26  27
ENDBRANCH   1  26
TORSDOF 11
ENDMDL
