MODEL 1
REMARK VINA RESULT:     -11.6      0.000      0.000
REMARK SMILES C[C@@H]([C@H](C)O)[C@H](C(=O)NCCCNC(=O)c1ccc(-c2c3nc(c(-c4c(F)c(F)c(F)c(F)c4F)c4ccc([nH]4)c(-c4c(F)c(F)c(F)c(F)c4F)c4nc(c(-c5c(F)c(F)c(F)c(F)c5F)c5ccc2[nH]5)C=C4)C=C3)cc1)c1ccccc1Br
REMARK SMILES IDX 10 1 9 2 7 3 8 4 6 6 2 7 1 8 3 9 4 10 5 11 79 13 80 14 84 15
REMARK SMILES IDX 81 16 83 17 85 18 82 19 11 20 12 21 13 22 14 23 15 25 16 26
REMARK SMILES IDX 17 27 78 28 18 29 77 30 19 31 20 32 21 33 71 34 22 35 76 36
REMARK SMILES IDX 70 37 72 38 23 39 75 40 69 41 68 42 24 44 56 45 36 46 55 47
REMARK SMILES IDX 37 48 40 49 54 50 73 51 38 52 39 53 53 55 74 56 41 57 25 58
REMARK SMILES IDX 26 59 34 60 27 61 28 62 32 63 35 64 29 65 30 66 33 67 31 68
REMARK SMILES IDX 57 69 58 70 66 71 59 72 60 73 64 74 67 75 61 76 62 77 65 78
REMARK SMILES IDX 63 79 42 80 43 81 51 82 44 83 45 84 49 85 52 86 46 87 47 88
REMARK SMILES IDX 50 89 48 90
REMARK H PARENT 9 5 5 12 13 24 72 43 40 54
REMARK Flexibility Score: inf
ROOT
ATOM      1  C   UNL A   1      31.021  30.911  25.230  1.00  0.00     0.117 C 
ENDROOT
BRANCH   1   2
ATOM      2  N   UNL A   1      31.526  29.603  25.605  1.00  0.00    -0.355 N 
ATOM      3  C   UNL A   1      31.343  28.401  24.975  1.00  0.00     0.227 C 
ATOM      4  O   UNL A   1      31.292  27.412  25.711  1.00  0.00    -0.274 OA
ATOM      5  H   UNL A   1      32.074  29.576  26.423  1.00  0.00     0.163 HD
BRANCH   3   6
ATOM      6  C   UNL A   1      31.347  28.284  23.415  1.00  0.00     0.115 C 
BRANCH   6   7
ATOM      7  C   UNL A   1      32.164  26.958  23.175  1.00  0.00     0.031 C 
ATOM      8  C   UNL A   1      31.422  25.757  22.562  1.00  0.00     0.011 C 
BRANCH   7   9
ATOM      9  C   UNL A   1      33.585  27.099  22.580  1.00  0.00     0.115 C 
ATOM     10  C   UNL A   1      34.003  28.579  22.551  1.00  0.00     0.038 C 
BRANCH   9  11
ATOM     11  O   UNL A   1      33.650  26.592  21.249  1.00  0.00    -0.393 OA
ATOM     12  H   UNL A   1      34.314  27.089  20.746  1.00  0.00     0.210 HD
ENDBRANCH   9  11
ENDBRANCH   7   9
ENDBRANCH   6   7
BRANCH   6  13
ATOM     13  C   UNL A   1      29.962  28.678  22.874  1.00  0.00    -0.021 A 
ATOM     14  C   UNL A   1      29.972  29.730  21.925  1.00  0.00     0.006 A 
ATOM     15  C   UNL A   1      28.689  28.302  23.312  1.00  0.00     0.021 A 
ATOM     16  C   UNL A   1      28.867  30.548  21.676  1.00  0.00     0.000 A 
ATOM     17  C   UNL A   1      27.575  29.139  23.095  1.00  0.00     0.016 A 
ATOM     18  Br  UNL A   1      28.218  26.556  23.876  1.00  0.00    -0.051 Br
ATOM     19  C   UNL A   1      27.678  30.294  22.328  1.00  0.00     0.001 A 
ENDBRANCH   6  13
ENDBRANCH   3   6
ENDBRANCH   1   2
BRANCH   1  20
ATOM     20  C   UNL A   1      31.035  31.838  26.450  1.00  0.00     0.042 C 
BRANCH  20  21
ATOM     21  C   UNL A   1      32.433  32.269  26.879  1.00  0.00     0.118 C 
BRANCH  21  22
ATOM     22  N   UNL A   1      32.459  33.657  27.301  1.00  0.00    -0.352 N 
ATOM     23  C   UNL A   1      33.220  34.268  28.268  1.00  0.00     0.251 C 
ATOM     24  H   UNL A   1      31.838  34.251  26.821  1.00  0.00     0.163 HD
ATOM     25  O   UNL A   1      32.920  35.401  28.635  1.00  0.00    -0.269 OA
BRANCH  23  26
ATOM     26  C   UNL A   1      34.386  33.587  28.884  1.00  0.00     0.039 A 
ATOM     27  C   UNL A   1      34.157  32.714  29.954  1.00  0.00     0.014 A 
ATOM     28  C   UNL A   1      35.698  33.848  28.480  1.00  0.00     0.014 A 
ATOM     29  C   UNL A   1      35.231  32.082  30.591  1.00  0.00     0.010 A 
ATOM     30  C   UNL A   1      36.764  33.163  29.067  1.00  0.00     0.010 A 
ATOM     31  C   UNL A   1      36.545  32.287  30.141  1.00  0.00    -0.014 A 
BRANCH  31  32
ATOM     32  C   UNL A   1      37.695  31.610  30.795  1.00  0.00     0.031 A 
ATOM     33  C   UNL A   1      38.114  31.995  32.188  1.00  0.00     0.074 A 
ATOM     34  C   UNL A   1      38.403  30.687  30.118  1.00  0.00     0.049 A 
ATOM     35  N   UNL A   1      39.120  31.558  32.903  1.00  0.00    -0.248 NA
ATOM     36  C   UNL A   1      37.309  33.029  32.857  1.00  0.00     0.031 C 
ATOM     37  C   UNL A   1      38.136  30.262  28.744  1.00  0.00     0.029 A 
ATOM     38  N   UNL A   1      39.502  29.952  30.488  1.00  0.00    -0.354 N 
ATOM     39  C   UNL A   1      39.084  32.279  34.090  1.00  0.00     0.074 A 
ATOM     40  C   UNL A   1      37.983  33.212  33.983  1.00  0.00     0.031 C 
ATOM     41  C   UNL A   1      39.037  29.332  28.390  1.00  0.00     0.029 A 
ATOM     42  C   UNL A   1      39.963  29.117  29.499  1.00  0.00     0.049 A 
ATOM     43  H   UNL A   1      39.920  30.017  31.376  1.00  0.00     0.167 HD
ATOM     44  C   UNL A   1      39.885  32.163  35.177  1.00  0.00     0.037 A 
ATOM     45  C   UNL A   1      41.016  28.279  29.485  1.00  0.00     0.037 A 
ATOM     46  C   UNL A   1      40.959  31.211  35.298  1.00  0.00     0.049 A 
ATOM     47  C   UNL A   1      41.874  28.145  30.712  1.00  0.00     0.074 A 
ATOM     48  C   UNL A   1      41.768  30.956  36.393  1.00  0.00     0.029 A 
ATOM     49  N   UNL A   1      41.376  30.360  34.286  1.00  0.00    -0.354 N 
ATOM     50  N   UNL A   1      41.780  28.775  31.857  1.00  0.00    -0.248 NA
ATOM     51  C   UNL A   1      42.978  27.177  30.646  1.00  0.00     0.031 C 
ATOM     52  C   UNL A   1      42.703  29.981  36.027  1.00  0.00     0.029 A 
ATOM     53  C   UNL A   1      42.448  29.596  34.721  1.00  0.00     0.049 A 
ATOM     54  H   UNL A   1      40.971  30.306  33.390  1.00  0.00     0.167 HD
ATOM     55  C   UNL A   1      42.799  28.270  32.655  1.00  0.00     0.074 A 
ATOM     56  C   UNL A   1      43.488  27.268  31.867  1.00  0.00     0.031 C 
ATOM     57  C   UNL A   1      43.130  28.607  33.925  1.00  0.00     0.037 A 
BRANCH  44  58
ATOM     58  C   UNL A   1      39.631  33.098  36.326  1.00  0.00     0.064 A 
ATOM     59  C   UNL A   1      40.313  34.317  36.451  1.00  0.00     0.173 A 
ATOM     60  C   UNL A   1      38.677  32.776  37.304  1.00  0.00     0.173 A 
ATOM     61  F   UNL A   1      41.242  34.666  35.548  1.00  0.00    -0.203 F 
ATOM     62  C   UNL A   1      40.079  35.162  37.533  1.00  0.00     0.198 A 
ATOM     63  C   UNL A   1      38.423  33.639  38.368  1.00  0.00     0.198 A 
ATOM     64  F   UNL A   1      37.990  31.627  37.228  1.00  0.00    -0.203 F 
ATOM     65  F   UNL A   1      40.784  36.295  37.661  1.00  0.00    -0.200 F 
ATOM     66  C   UNL A   1      39.131  34.825  38.486  1.00  0.00     0.200 A 
ATOM     67  F   UNL A   1      37.498  33.318  39.283  1.00  0.00    -0.200 F 
ATOM     68  F   UNL A   1      38.905  35.640  39.527  1.00  0.00    -0.200 F 
ENDBRANCH  44  58
BRANCH  45  69
ATOM     69  C   UNL A   1      41.293  27.478  28.266  1.00  0.00     0.064 A 
ATOM     70  C   UNL A   1      42.188  27.939  27.290  1.00  0.00     0.173 A 
ATOM     71  C   UNL A   1      40.697  26.225  28.067  1.00  0.00     0.173 A 
ATOM     72  F   UNL A   1      42.766  29.141  27.428  1.00  0.00    -0.203 F 
ATOM     73  C   UNL A   1      42.470  27.179  26.157  1.00  0.00     0.198 A 
ATOM     74  C   UNL A   1      40.999  25.455  26.945  1.00  0.00     0.198 A 
ATOM     75  F   UNL A   1      39.838  25.738  28.975  1.00  0.00    -0.203 F 
ATOM     76  F   UNL A   1      43.308  27.655  25.226  1.00  0.00    -0.200 F 
ATOM     77  C   UNL A   1      41.882  25.934  25.990  1.00  0.00     0.200 A 
ATOM     78  F   UNL A   1      40.439  24.246  26.795  1.00  0.00    -0.200 F 
ATOM     79  F   UNL A   1      42.165  25.197  24.907  1.00  0.00    -0.200 F 
ENDBRANCH  45  69
BRANCH  57  80
ATOM     80  C   UNL A   1      44.282  27.876  34.552  1.00  0.00     0.064 A 
ATOM     81  C   UNL A   1      45.590  28.378  34.488  1.00  0.00     0.173 A 
ATOM     82  C   UNL A   1      44.069  26.680  35.253  1.00  0.00     0.173 A 
ATOM     83  F   UNL A   1      45.847  29.510  33.815  1.00  0.00    -0.203 F 
ATOM     84  C   UNL A   1      46.647  27.697  35.087  1.00  0.00     0.198 A 
ATOM     85  C   UNL A   1      45.123  26.016  35.872  1.00  0.00     0.198 A 
ATOM     86  F   UNL A   1      42.835  26.161  35.347  1.00  0.00    -0.203 F 
ATOM     87  F   UNL A   1      47.895  28.172  34.978  1.00  0.00    -0.200 F 
ATOM     88  C   UNL A   1      46.412  26.521  35.784  1.00  0.00     0.200 A 
ATOM     89  F   UNL A   1      44.893  24.885  36.555  1.00  0.00    -0.200 F 
ATOM     90  F   UNL A   1      47.430  25.870  36.364  1.00  0.00    -0.200 F 
ENDBRANCH  57  80
ENDBRANCH  31  32
ENDBRANCH  23  26
ENDBRANCH  21  22
ENDBRANCH  20  21
ENDBRANCH   1  20
TORSDOF 14
ENDMDL
MODEL 2
REMARK VINA RESULT:     -11.5      5.872      9.704
REMARK SMILES C[C@@H]([C@H](C)O)[C@H](C(=O)NCCCNC(=O)c1ccc(-c2c3nc(c(-c4c(F)c(F)c(F)c(F)c4F)c4ccc([nH]4)c(-c4c(F)c(F)c(F)c(F)c4F)c4nc(c(-c5c(F)c(F)c(F)c(F)c5F)c5ccc2[nH]5)C=C4)C=C3)cc1)c1ccccc1Br
REMARK SMILES IDX 10 1 9 2 7 3 8 4 6 6 2 7 1 8 3 9 4 10 5 11 79 13 80 14 84 15
REMARK SMILES IDX 81 16 83 17 85 18 82 19 11 20 12 21 13 22 14 23 15 25 16 26
REMARK SMILES IDX 17 27 78 28 18 29 77 30 19 31 20 32 21 33 71 34 22 35 76 36
REMARK SMILES IDX 70 37 72 38 23 39 75 40 69 41 68 42 24 44 56 45 36 46 55 47
REMARK SMILES IDX 37 48 40 49 54 50 73 51 38 52 39 53 53 55 74 56 41 57 25 58
REMARK SMILES IDX 26 59 34 60 27 61 28 62 32 63 35 64 29 65 30 66 33 67 31 68
REMARK SMILES IDX 57 69 58 70 66 71 59 72 60 73 64 74 67 75 61 76 62 77 65 78
REMARK SMILES IDX 63 79 42 80 43 81 51 82 44 83 45 84 49 85 52 86 46 87 47 88
REMARK SMILES IDX 50 89 48 90
REMARK H PARENT 9 5 5 12 13 24 72 43 40 54
REMARK Flexibility Score: inf
ROOT
ATOM      1  C   UNL A   1      36.824  20.510  24.654  1.00  0.00     0.117 C 
ENDROOT
BRANCH   1   2
ATOM      2  N   UNL A   1      35.766  20.330  25.631  1.00  0.00    -0.355 N 
ATOM      3  C   UNL A   1      34.502  20.858  25.632  1.00  0.00     0.227 C 
ATOM      4  O   UNL A   1      34.026  21.106  26.743  1.00  0.00    -0.274 OA
ATOM      5  H   UNL A   1      35.986  19.750  26.396  1.00  0.00     0.163 HD
BRANCH   3   6
ATOM      6  C   UNL A   1      33.669  20.995  24.315  1.00  0.00     0.115 C 
BRANCH   6   7
ATOM      7  C   UNL A   1      32.765  19.705  24.348  1.00  0.00     0.031 C 
ATOM      8  C   UNL A   1      32.153  19.221  23.022  1.00  0.00     0.011 C 
BRANCH   7   9
ATOM      9  C   UNL A   1      33.261  18.514  25.201  1.00  0.00     0.115 C 
ATOM     10  C   UNL A   1      33.084  17.197  24.426  1.00  0.00     0.038 C 
BRANCH   9  11
ATOM     11  O   UNL A   1      32.542  18.409  26.427  1.00  0.00    -0.393 OA
ATOM     12  H   UNL A   1      31.617  18.665  26.282  1.00  0.00     0.210 HD
ENDBRANCH   9  11
ENDBRANCH   7   9
ENDBRANCH   6   7
BRANCH   6  13
ATOM     13  C   UNL A   1      33.252  22.464  24.130  1.00  0.00    -0.021 A 
ATOM     14  C   UNL A   1      33.918  23.142  23.080  1.00  0.00     0.006 A 
ATOM     15  C   UNL A   1      32.473  23.284  24.951  1.00  0.00     0.021 A 
ATOM     16  C   UNL A   1      34.063  24.531  23.036  1.00  0.00     0.000 A 
ATOM     17  C   UNL A   1      32.640  24.685  24.938  1.00  0.00     0.016 A 
ATOM     18  Br  UNL A   1      30.908  22.722  25.860  1.00  0.00    -0.051 Br
ATOM     19  C   UNL A   1      33.482  25.303  24.021  1.00  0.00     0.001 A 
ENDBRANCH   6  13
ENDBRANCH   3   6
ENDBRANCH   1   2
BRANCH   1  20
ATOM     20  C   UNL A   1      37.964  19.528  24.942  1.00  0.00     0.042 C 
BRANCH  20  21
ATOM     21  C   UNL A   1      39.078  20.113  25.803  1.00  0.00     0.118 C 
BRANCH  21  22
ATOM     22  N   UNL A   1      40.180  19.182  25.958  1.00  0.00    -0.352 N 
ATOM     23  C   UNL A   1      41.524  19.427  26.101  1.00  0.00     0.251 C 
ATOM     24  H   UNL A   1      39.926  18.231  25.962  1.00  0.00     0.163 HD
ATOM     25  O   UNL A   1      42.315  18.496  25.977  1.00  0.00    -0.269 OA
BRANCH  23  26
ATOM     26  C   UNL A   1      42.039  20.788  26.391  1.00  0.00     0.039 A 
ATOM     27  C   UNL A   1      42.264  21.144  27.726  1.00  0.00     0.014 A 
ATOM     28  C   UNL A   1      42.232  21.740  25.386  1.00  0.00     0.014 A 
ATOM     29  C   UNL A   1      42.710  22.430  28.048  1.00  0.00     0.010 A 
ATOM     30  C   UNL A   1      42.746  23.000  25.700  1.00  0.00     0.010 A 
ATOM     31  C   UNL A   1      42.973  23.365  27.035  1.00  0.00    -0.014 A 
BRANCH  31  32
ATOM     32  C   UNL A   1      43.463  24.730  27.360  1.00  0.00     0.031 A 
ATOM     33  C   UNL A   1      42.527  25.762  27.928  1.00  0.00     0.074 A 
ATOM     34  C   UNL A   1      44.740  25.066  27.089  1.00  0.00     0.049 A 
ATOM     35  N   UNL A   1      42.755  27.017  28.224  1.00  0.00    -0.248 NA
ATOM     36  C   UNL A   1      41.143  25.332  28.172  1.00  0.00     0.031 C 
ATOM     37  C   UNL A   1      45.735  24.177  26.490  1.00  0.00     0.029 A 
ATOM     38  N   UNL A   1      45.413  26.248  27.271  1.00  0.00    -0.354 N 
ATOM     39  C   UNL A   1      41.541  27.531  28.662  1.00  0.00     0.074 A 
ATOM     40  C   UNL A   1      40.569  26.464  28.555  1.00  0.00     0.031 C 
ATOM     41  C   UNL A   1      46.895  24.841  26.363  1.00  0.00     0.029 A 
ATOM     42  C   UNL A   1      46.718  26.209  26.846  1.00  0.00     0.049 A 
ATOM     43  H   UNL A   1      45.000  27.048  27.668  1.00  0.00     0.167 HD
ATOM     44  C   UNL A   1      41.265  28.773  29.129  1.00  0.00     0.037 A 
ATOM     45  C   UNL A   1      47.663  27.166  26.837  1.00  0.00     0.037 A 
ATOM     46  C   UNL A   1      42.239  29.824  29.270  1.00  0.00     0.049 A 
ATOM     47  C   UNL A   1      47.342  28.529  27.386  1.00  0.00     0.074 A 
ATOM     48  C   UNL A   1      42.077  31.085  29.816  1.00  0.00     0.029 A 
ATOM     49  N   UNL A   1      43.560  29.736  28.856  1.00  0.00    -0.354 N 
ATOM     50  N   UNL A   1      46.212  28.978  27.873  1.00  0.00    -0.248 NA
ATOM     51  C   UNL A   1      48.434  29.514  27.392  1.00  0.00     0.031 C 
ATOM     52  C   UNL A   1      43.287  31.776  29.693  1.00  0.00     0.029 A 
ATOM     53  C   UNL A   1      44.218  30.929  29.111  1.00  0.00     0.049 A 
ATOM     54  H   UNL A   1      43.971  28.942  28.442  1.00  0.00     0.167 HD
ATOM     55  C   UNL A   1      46.456  30.289  28.259  1.00  0.00     0.074 A 
ATOM     56  C   UNL A   1      47.849  30.558  27.965  1.00  0.00     0.031 C 
ATOM     57  C   UNL A   1      45.602  31.187  28.808  1.00  0.00     0.037 A 
BRANCH  44  58
ATOM     58  C   UNL A   1      39.844  29.064  29.519  1.00  0.00     0.064 A 
ATOM     59  C   UNL A   1      39.401  28.940  30.844  1.00  0.00     0.173 A 
ATOM     60  C   UNL A   1      38.918  29.493  28.555  1.00  0.00     0.173 A 
ATOM     61  F   UNL A   1      40.244  28.524  31.801  1.00  0.00    -0.203 F 
ATOM     62  C   UNL A   1      38.075  29.196  31.184  1.00  0.00     0.198 A 
ATOM     63  C   UNL A   1      37.600  29.778  28.905  1.00  0.00     0.198 A 
ATOM     64  F   UNL A   1      39.290  29.638  27.275  1.00  0.00    -0.203 F 
ATOM     65  F   UNL A   1      37.662  29.015  32.446  1.00  0.00    -0.200 F 
ATOM     66  C   UNL A   1      37.178  29.620  30.216  1.00  0.00     0.200 A 
ATOM     67  F   UNL A   1      36.737  30.200  27.970  1.00  0.00    -0.200 F 
ATOM     68  F   UNL A   1      35.901  29.867  30.544  1.00  0.00    -0.200 F 
ENDBRANCH  44  58
BRANCH  45  69
ATOM     69  C   UNL A   1      49.016  26.851  26.313  1.00  0.00     0.064 A 
ATOM     70  C   UNL A   1      49.999  26.297  27.144  1.00  0.00     0.173 A 
ATOM     71  C   UNL A   1      49.342  27.066  24.966  1.00  0.00     0.173 A 
ATOM     72  F   UNL A   1      49.739  26.093  28.443  1.00  0.00    -0.203 F 
ATOM     73  C   UNL A   1      51.261  25.977  26.649  1.00  0.00     0.198 A 
ATOM     74  C   UNL A   1      50.597  26.722  24.467  1.00  0.00     0.198 A 
ATOM     75  F   UNL A   1      48.433  27.589  24.130  1.00  0.00    -0.203 F 
ATOM     76  F   UNL A   1      52.193  25.474  27.471  1.00  0.00    -0.200 F 
ATOM     77  C   UNL A   1      51.557  26.182  25.309  1.00  0.00     0.200 A 
ATOM     78  F   UNL A   1      50.873  26.909  23.168  1.00  0.00    -0.200 F 
ATOM     79  F   UNL A   1      52.766  25.860  24.830  1.00  0.00    -0.200 F 
ENDBRANCH  45  69
BRANCH  57  80
ATOM     80  C   UNL A   1      46.153  32.543  29.142  1.00  0.00     0.064 A 
ATOM     81  C   UNL A   1      46.747  32.807  30.384  1.00  0.00     0.173 A 
ATOM     82  C   UNL A   1      46.116  33.578  28.196  1.00  0.00     0.173 A 
ATOM     83  F   UNL A   1      46.792  31.854  31.327  1.00  0.00    -0.203 F 
ATOM     84  C   UNL A   1      47.268  34.065  30.675  1.00  0.00     0.198 A 
ATOM     85  C   UNL A   1      46.661  34.827  28.481  1.00  0.00     0.198 A 
ATOM     86  F   UNL A   1      45.562  33.375  26.991  1.00  0.00    -0.203 F 
ATOM     87  F   UNL A   1      47.794  34.308  31.883  1.00  0.00    -0.200 F 
ATOM     88  C   UNL A   1      47.230  35.072  29.721  1.00  0.00     0.200 A 
ATOM     89  F   UNL A   1      46.634  35.796  27.555  1.00  0.00    -0.200 F 
ATOM     90  F   UNL A   1      47.737  36.281  30.001  1.00  0.00    -0.200 F 
ENDBRANCH  57  80
ENDBRANCH  31  32
ENDBRANCH  23  26
ENDBRANCH  21  22
ENDBRANCH  20  21
ENDBRANCH   1  20
TORSDOF 14
ENDMDL
MODEL 3
REMARK VINA RESULT:     -11.4      3.662      6.819
REMARK SMILES C[C@@H]([C@H](C)O)[C@H](C(=O)NCCCNC(=O)c1ccc(-c2c3nc(c(-c4c(F)c(F)c(F)c(F)c4F)c4ccc([nH]4)c(-c4c(F)c(F)c(F)c(F)c4F)c4nc(c(-c5c(F)c(F)c(F)c(F)c5F)c5ccc2[nH]5)C=C4)C=C3)cc1)c1ccccc1Br
REMARK SMILES IDX 10 1 9 2 7 3 8 4 6 6 2 7 1 8 3 9 4 10 5 11 79 13 80 14 84 15
REMARK SMILES IDX 81 16 83 17 85 18 82 19 11 20 12 21 13 22 14 23 15 25 16 26
REMARK SMILES IDX 17 27 78 28 18 29 77 30 19 31 20 32 21 33 71 34 22 35 76 36
REMARK SMILES IDX 70 37 72 38 23 39 75 40 69 41 68 42 24 44 56 45 36 46 55 47
REMARK SMILES IDX 37 48 40 49 54 50 73 51 38 52 39 53 53 55 74 56 41 57 25 58
REMARK SMILES IDX 26 59 34 60 27 61 28 62 32 63 35 64 29 65 30 66 33 67 31 68
REMARK SMILES IDX 57 69 58 70 66 71 59 72 60 73 64 74 67 75 61 76 62 77 65 78
REMARK SMILES IDX 63 79 42 80 43 81 51 82 44 83 45 84 49 85 52 86 46 87 47 88
REMARK SMILES IDX 50 89 48 90
REMARK H PARENT 9 5 5 12 13 24 72 43 40 54
REMARK Flexibility Score: inf
ROOT
ATOM      1  C   UNL A   1      33.775  34.769  29.584  1.00  0.00     0.117 C 
ENDROOT
BRANCH   1   2
ATOM      2  N   UNL A   1      33.927  33.689  30.542  1.00  0.00    -0.355 N 
ATOM      3  C   UNL A   1      34.970  33.438  31.393  1.00  0.00     0.227 C 
ATOM      4  O   UNL A   1      35.195  32.248  31.628  1.00  0.00    -0.274 OA
ATOM      5  H   UNL A   1      33.178  33.050  30.586  1.00  0.00     0.163 HD
BRANCH   3   6
ATOM      6  C   UNL A   1      35.724  34.594  32.129  1.00  0.00     0.115 C 
BRANCH   6   7
ATOM      7  C   UNL A   1      34.742  34.943  33.311  1.00  0.00     0.031 C 
ATOM      8  C   UNL A   1      35.153  34.525  34.734  1.00  0.00     0.011 C 
BRANCH   7   9
ATOM      9  C   UNL A   1      34.098  36.349  33.305  1.00  0.00     0.115 C 
ATOM     10  C   UNL A   1      32.628  36.257  32.865  1.00  0.00     0.038 C 
BRANCH   9  11
ATOM     11  O   UNL A   1      34.775  37.234  32.415  1.00  0.00    -0.393 OA
ATOM     12  H   UNL A   1      34.445  38.137  32.545  1.00  0.00     0.210 HD
ENDBRANCH   9  11
ENDBRANCH   7   9
ENDBRANCH   6   7
BRANCH   6  13
ATOM     13  C   UNL A   1      37.226  34.265  32.184  1.00  0.00    -0.021 A 
ATOM     14  C   UNL A   1      37.761  34.154  33.490  1.00  0.00     0.006 A 
ATOM     15  C   UNL A   1      38.179  34.252  31.161  1.00  0.00     0.021 A 
ATOM     16  C   UNL A   1      39.115  34.338  33.782  1.00  0.00     0.000 A 
ATOM     17  C   UNL A   1      39.542  34.474  31.444  1.00  0.00     0.016 A 
ATOM     18  Br  UNL A   1      37.871  33.592  29.412  1.00  0.00    -0.051 Br
ATOM     19  C   UNL A   1      40.001  34.578  32.752  1.00  0.00     0.001 A 
ENDBRANCH   6  13
ENDBRANCH   3   6
ENDBRANCH   1   2
BRANCH   1  20
ATOM     20  C   UNL A   1      33.814  34.204  28.160  1.00  0.00     0.042 C 
BRANCH  20  21
ATOM     21  C   UNL A   1      34.726  32.993  28.003  1.00  0.00     0.118 C 
BRANCH  21  22
ATOM     22  N   UNL A   1      33.993  31.826  27.549  1.00  0.00    -0.352 N 
ATOM     23  C   UNL A   1      34.411  30.525  27.410  1.00  0.00     0.251 C 
ATOM     24  H   UNL A   1      33.055  31.992  27.302  1.00  0.00     0.163 HD
ATOM     25  O   UNL A   1      33.708  29.737  26.783  1.00  0.00    -0.269 OA
BRANCH  23  26
ATOM     26  C   UNL A   1      35.693  30.055  27.991  1.00  0.00     0.039 A 
ATOM     27  C   UNL A   1      35.694  29.591  29.312  1.00  0.00     0.014 A 
ATOM     28  C   UNL A   1      36.900  30.132  27.291  1.00  0.00     0.014 A 
ATOM     29  C   UNL A   1      36.887  29.177  29.913  1.00  0.00     0.010 A 
ATOM     30  C   UNL A   1      38.079  29.652  27.865  1.00  0.00     0.010 A 
ATOM     31  C   UNL A   1      38.089  29.186  29.188  1.00  0.00    -0.014 A 
BRANCH  31  32
ATOM     32  C   UNL A   1      39.362  28.733  29.807  1.00  0.00     0.031 A 
ATOM     33  C   UNL A   1      39.904  29.424  31.029  1.00  0.00     0.074 A 
ATOM     34  C   UNL A   1      40.066  27.736  29.239  1.00  0.00     0.049 A 
ATOM     35  N   UNL A   1      41.021  29.209  31.678  1.00  0.00    -0.248 NA
ATOM     36  C   UNL A   1      39.094  30.521  31.579  1.00  0.00     0.031 C 
ATOM     37  C   UNL A   1      39.680  27.019  28.024  1.00  0.00     0.029 A 
ATOM     38  N   UNL A   1      41.261  27.163  29.599  1.00  0.00    -0.354 N 
ATOM     39  C   UNL A   1      41.059  30.157  32.693  1.00  0.00     0.074 A 
ATOM     40  C   UNL A   1      39.875  30.976  32.549  1.00  0.00     0.031 C 
ATOM     41  C   UNL A   1      40.613  26.094  27.746  1.00  0.00     0.029 A 
ATOM     42  C   UNL A   1      41.676  26.172  28.744  1.00  0.00     0.049 A 
ATOM     43  H   UNL A   1      41.771  27.437  30.395  1.00  0.00     0.167 HD
ATOM     44  C   UNL A   1      41.988  30.319  33.667  1.00  0.00     0.037 A 
ATOM     45  C   UNL A   1      42.789  25.417  28.758  1.00  0.00     0.037 A 
ATOM     46  C   UNL A   1      43.148  29.482  33.832  1.00  0.00     0.049 A 
ATOM     47  C   UNL A   1      43.793  25.595  29.864  1.00  0.00     0.074 A 
ATOM     48  C   UNL A   1      44.097  29.510  34.839  1.00  0.00     0.029 A 
ATOM     49  N   UNL A   1      43.519  28.467  32.962  1.00  0.00    -0.354 N 
ATOM     50  N   UNL A   1      43.777  26.441  30.864  1.00  0.00    -0.248 NA
ATOM     51  C   UNL A   1      44.963  24.705  29.847  1.00  0.00     0.031 C 
ATOM     52  C   UNL A   1      45.066  28.541  34.555  1.00  0.00     0.029 A 
ATOM     53  C   UNL A   1      44.697  27.878  33.395  1.00  0.00     0.049 A 
ATOM     54  H   UNL A   1      43.019  28.203  32.156  1.00  0.00     0.167 HD
ATOM     55  C   UNL A   1      44.921  26.178  31.605  1.00  0.00     0.074 A 
ATOM     56  C   UNL A   1      45.600  25.079  30.948  1.00  0.00     0.031 C 
ATOM     57  C   UNL A   1      45.366  26.791  32.729  1.00  0.00     0.037 A 
BRANCH  44  58
ATOM     58  C   UNL A   1      41.787  31.453  34.631  1.00  0.00     0.064 A 
ATOM     59  C   UNL A   1      40.881  31.364  35.698  1.00  0.00     0.173 A 
ATOM     60  C   UNL A   1      42.526  32.638  34.496  1.00  0.00     0.173 A 
ATOM     61  F   UNL A   1      40.142  30.256  35.865  1.00  0.00    -0.203 F 
ATOM     62  C   UNL A   1      40.693  32.432  36.571  1.00  0.00     0.198 A 
ATOM     63  C   UNL A   1      42.358  33.694  35.390  1.00  0.00     0.198 A 
ATOM     64  F   UNL A   1      43.413  32.774  33.499  1.00  0.00    -0.203 F 
ATOM     65  F   UNL A   1      39.780  32.345  37.549  1.00  0.00    -0.200 F 
ATOM     66  C   UNL A   1      41.436  33.594  36.420  1.00  0.00     0.200 A 
ATOM     67  F   UNL A   1      43.085  34.811  35.250  1.00  0.00    -0.200 F 
ATOM     68  F   UNL A   1      41.255  34.621  37.261  1.00  0.00    -0.200 F 
ENDBRANCH  44  58
BRANCH  45  69
ATOM     69  C   UNL A   1      42.994  24.400  27.696  1.00  0.00     0.064 A 
ATOM     70  C   UNL A   1      42.533  23.086  27.858  1.00  0.00     0.173 A 
ATOM     71  C   UNL A   1      43.623  24.728  26.486  1.00  0.00     0.173 A 
ATOM     72  F   UNL A   1      41.945  22.722  29.006  1.00  0.00    -0.203 F 
ATOM     73  C   UNL A   1      42.702  22.136  26.853  1.00  0.00     0.198 A 
ATOM     74  C   UNL A   1      43.768  23.783  25.472  1.00  0.00     0.198 A 
ATOM     75  F   UNL A   1      44.076  25.974  26.280  1.00  0.00    -0.203 F 
ATOM     76  F   UNL A   1      42.277  20.880  27.045  1.00  0.00    -0.200 F 
ATOM     77  C   UNL A   1      43.311  22.488  25.658  1.00  0.00     0.200 A 
ATOM     78  F   UNL A   1      44.345  24.131  24.313  1.00  0.00    -0.200 F 
ATOM     79  F   UNL A   1      43.459  21.577  24.686  1.00  0.00    -0.200 F 
ENDBRANCH  45  69
BRANCH  57  80
ATOM     80  C   UNL A   1      46.643  26.279  33.331  1.00  0.00     0.064 A 
ATOM     81  C   UNL A   1      47.884  26.842  33.004  1.00  0.00     0.173 A 
ATOM     82  C   UNL A   1      46.619  25.238  34.271  1.00  0.00     0.173 A 
ATOM     83  F   UNL A   1      47.961  27.829  32.098  1.00  0.00    -0.203 F 
ATOM     84  C   UNL A   1      49.060  26.368  33.582  1.00  0.00     0.198 A 
ATOM     85  C   UNL A   1      47.793  24.784  34.865  1.00  0.00     0.198 A 
ATOM     86  F   UNL A   1      45.456  24.669  34.621  1.00  0.00    -0.203 F 
ATOM     87  F   UNL A   1      50.240  26.892  33.224  1.00  0.00    -0.200 F 
ATOM     88  C   UNL A   1      49.012  25.345  34.517  1.00  0.00     0.200 A 
ATOM     89  F   UNL A   1      47.744  23.803  35.777  1.00  0.00    -0.200 F 
ATOM     90  F   UNL A   1      50.144  24.893  35.076  1.00  0.00    -0.200 F 
ENDBRANCH  57  80
ENDBRANCH  31  32
ENDBRANCH  23  26
ENDBRANCH  21  22
ENDBRANCH  20  21
ENDBRANCH   1  20
TORSDOF 14
ENDMDL
