MODEL 1
REMARK VINA RESULT:     -13.0      0.000      0.000
REMARK SMILES O=C(NCCCNC(=O)c1nccnc1C(=O)N1CCC(Cc2ccccc2)CC1)c1ccc(-c2c3nc(c(-c4c(F)c(F)c(F)c(F)c4F)c4ccc([nH]4)c(-c4c(F)c(F)c(F)c(F)c4F)c4nc(c(-c5c(F)c(F)c(F)c(F)c5F)c5ccc2[nH]5)C=C4)C=C3)cc1
REMARK SMILES IDX 5 1 4 2 3 3 1 4 2 5 31 7 32 8 93 9 33 10 92 11 34 12 35 13
REMARK SMILES IDX 36 14 86 15 37 16 91 17 85 18 87 19 38 20 90 21 84 22 83 23
REMARK SMILES IDX 39 25 71 26 51 27 70 28 52 29 55 30 69 31 88 32 53 33 54 34
REMARK SMILES IDX 68 36 89 37 56 38 40 39 41 40 49 41 42 42 43 43 47 44 50 45
REMARK SMILES IDX 44 46 45 47 48 48 46 49 72 50 73 51 81 52 74 53 75 54 79 55
REMARK SMILES IDX 82 56 76 57 77 58 80 59 78 60 57 61 58 62 66 63 59 64 60 65
REMARK SMILES IDX 64 66 67 67 61 68 62 69 65 70 63 71 6 72 7 73 8 74 9 76
REMARK SMILES IDX 10 77 11 78 15 79 12 80 14 81 13 82 16 83 17 84 18 85 19 86
REMARK SMILES IDX 30 87 20 88 29 89 21 90 22 91 23 92 24 93 28 94 25 95 27 96
REMARK SMILES IDX 26 97
REMARK H PARENT 3 6 87 24 55 35 7 75
REMARK Flexibility Score: inf
ROOT
ATOM      1  C   UNL A   1      31.468  31.425  26.590  1.00  0.00     0.042 C 
ENDROOT
BRANCH   1   2
ATOM      2  C   UNL A   1      32.739  32.266  26.653  1.00  0.00     0.118 C 
BRANCH   2   3
ATOM      3  N   UNL A   1      32.526  33.572  27.252  1.00  0.00    -0.352 N 
ATOM      4  O   UNL A   1      32.618  35.232  28.759  1.00  0.00    -0.269 OA
ATOM      5  C   UNL A   1      33.113  34.189  28.328  1.00  0.00     0.251 C 
ATOM      6  H   UNL A   1      31.835  34.113  26.805  1.00  0.00     0.163 HD
BRANCH   5   7
ATOM      7  C   UNL A   1      34.309  33.628  28.992  1.00  0.00     0.039 A 
ATOM      8  C   UNL A   1      35.572  34.207  28.851  1.00  0.00     0.014 A 
ATOM      9  C   UNL A   1      34.143  32.534  29.849  1.00  0.00     0.014 A 
ATOM     10  C   UNL A   1      36.683  33.617  29.453  1.00  0.00     0.010 A 
ATOM     11  C   UNL A   1      35.245  31.989  30.513  1.00  0.00     0.010 A 
ATOM     12  C   UNL A   1      36.530  32.507  30.296  1.00  0.00    -0.014 A 
BRANCH  12  13
ATOM     13  C   UNL A   1      37.709  31.911  30.976  1.00  0.00     0.031 A 
ATOM     14  C   UNL A   1      38.539  30.864  30.289  1.00  0.00     0.074 A 
ATOM     15  C   UNL A   1      38.021  32.302  32.226  1.00  0.00     0.049 A 
ATOM     16  N   UNL A   1      39.565  30.187  30.745  1.00  0.00    -0.248 NA
ATOM     17  C   UNL A   1      38.162  30.523  28.910  1.00  0.00     0.031 C 
ATOM     18  C   UNL A   1      37.289  33.305  33.000  1.00  0.00     0.029 A 
ATOM     19  N   UNL A   1      39.026  31.899  33.067  1.00  0.00    -0.354 N 
ATOM     20  C   UNL A   1      39.941  29.329  29.720  1.00  0.00     0.074 A 
ATOM     21  C   UNL A   1      39.015  29.549  28.628  1.00  0.00     0.031 C 
ATOM     22  C   UNL A   1      37.878  33.451  34.196  1.00  0.00     0.029 A 
ATOM     23  C   UNL A   1      38.991  32.511  34.295  1.00  0.00     0.049 A 
ATOM     24  H   UNL A   1      39.708  31.234  32.815  1.00  0.00     0.167 HD
ATOM     25  C   UNL A   1      40.968  28.446  29.691  1.00  0.00     0.037 A 
ATOM     26  C   UNL A   1      39.752  32.321  35.390  1.00  0.00     0.037 A 
ATOM     27  C   UNL A   1      41.889  28.237  30.780  1.00  0.00     0.049 A 
ATOM     28  C   UNL A   1      40.861  31.309  35.348  1.00  0.00     0.074 A 
ATOM     29  C   UNL A   1      42.985  27.393  30.833  1.00  0.00     0.029 A 
ATOM     30  N   UNL A   1      41.815  28.874  32.010  1.00  0.00    -0.354 N 
ATOM     31  N   UNL A   1      41.231  30.530  34.361  1.00  0.00    -0.248 NA
ATOM     32  C   UNL A   1      41.659  31.149  36.571  1.00  0.00     0.031 C 
ATOM     33  C   UNL A   1      43.541  27.478  32.114  1.00  0.00     0.029 A 
ATOM     34  C   UNL A   1      42.831  28.421  32.840  1.00  0.00     0.049 A 
ATOM     35  H   UNL A   1      41.142  29.547  32.259  1.00  0.00     0.167 HD
ATOM     36  C   UNL A   1      42.320  29.809  34.831  1.00  0.00     0.074 A 
ATOM     37  C   UNL A   1      42.554  30.249  36.191  1.00  0.00     0.031 C 
ATOM     38  C   UNL A   1      43.060  28.873  34.189  1.00  0.00     0.037 A 
BRANCH  25  39
ATOM     39  C   UNL A   1      41.133  27.614  28.450  1.00  0.00     0.064 A 
ATOM     40  C   UNL A   1      40.435  26.411  28.266  1.00  0.00     0.173 A 
ATOM     41  C   UNL A   1      41.987  28.040  27.420  1.00  0.00     0.173 A 
ATOM     42  F   UNL A   1      39.614  25.954  29.224  1.00  0.00    -0.203 F 
ATOM     43  C   UNL A   1      40.613  25.648  27.114  1.00  0.00     0.198 A 
ATOM     44  C   UNL A   1      42.137  27.290  26.256  1.00  0.00     0.198 A 
ATOM     45  F   UNL A   1      42.673  29.186  27.540  1.00  0.00    -0.203 F 
ATOM     46  F   UNL A   1      39.978  24.473  26.987  1.00  0.00    -0.200 F 
ATOM     47  C   UNL A   1      41.458  26.090  26.108  1.00  0.00     0.200 A 
ATOM     48  F   UNL A   1      42.945  27.725  25.280  1.00  0.00    -0.200 F 
ATOM     49  F   UNL A   1      41.628  25.354  25.001  1.00  0.00    -0.200 F 
ENDBRANCH  25  39
BRANCH  26  50
ATOM     50  C   UNL A   1      39.476  33.115  36.615  1.00  0.00     0.064 A 
ATOM     51  C   UNL A   1      40.136  34.327  36.853  1.00  0.00     0.173 A 
ATOM     52  C   UNL A   1      38.523  32.693  37.554  1.00  0.00     0.173 A 
ATOM     53  F   UNL A   1      41.069  34.762  35.993  1.00  0.00    -0.203 F 
ATOM     54  C   UNL A   1      39.857  35.086  37.988  1.00  0.00     0.198 A 
ATOM     55  C   UNL A   1      38.224  33.466  38.673  1.00  0.00     0.198 A 
ATOM     56  F   UNL A   1      37.860  31.542  37.368  1.00  0.00    -0.203 F 
ATOM     57  F   UNL A   1      40.524  36.227  38.208  1.00  0.00    -0.200 F 
ATOM     58  C   UNL A   1      38.896  34.660  38.892  1.00  0.00     0.200 A 
ATOM     59  F   UNL A   1      37.282  33.060  39.534  1.00  0.00    -0.200 F 
ATOM     60  F   UNL A   1      38.617  35.398  39.975  1.00  0.00    -0.200 F 
ENDBRANCH  26  50
BRANCH  38  61
ATOM     61  C   UNL A   1      44.228  28.288  34.929  1.00  0.00     0.064 A 
ATOM     62  C   UNL A   1      45.484  28.909  34.937  1.00  0.00     0.173 A 
ATOM     63  C   UNL A   1      44.069  27.115  35.684  1.00  0.00     0.173 A 
ATOM     64  F   UNL A   1      45.693  30.023  34.219  1.00  0.00    -0.203 F 
ATOM     65  C   UNL A   1      46.545  28.368  35.661  1.00  0.00     0.198 A 
ATOM     66  C   UNL A   1      45.123  26.593  36.429  1.00  0.00     0.198 A 
ATOM     67  F   UNL A   1      42.885  26.485  35.713  1.00  0.00    -0.203 F 
ATOM     68  F   UNL A   1      47.749  28.956  35.623  1.00  0.00    -0.200 F 
ATOM     69  C   UNL A   1      46.361  27.217  36.413  1.00  0.00     0.200 A 
ATOM     70  F   UNL A   1      44.938  25.489  37.165  1.00  0.00    -0.200 F 
ATOM     71  F   UNL A   1      47.379  26.705  37.118  1.00  0.00    -0.200 F 
ENDBRANCH  38  61
ENDBRANCH  12  13
ENDBRANCH   5   7
ENDBRANCH   2   3
ENDBRANCH   1   2
BRANCH   1  72
ATOM     72  C   UNL A   1      31.671  29.945  26.898  1.00  0.00     0.118 C 
BRANCH  72  73
ATOM     73  N   UNL A   1      32.781  29.346  26.173  1.00  0.00    -0.351 N 
ATOM     74  C   UNL A   1      32.768  28.586  25.017  1.00  0.00     0.272 C 
ATOM     75  H   UNL A   1      33.671  29.506  26.562  1.00  0.00     0.163 HD
ATOM     76  O   UNL A   1      33.834  28.230  24.516  1.00  0.00    -0.267 OA
BRANCH  74  77
ATOM     77  C   UNL A   1      31.474  28.219  24.405  1.00  0.00     0.159 A 
ATOM     78  N   UNL A   1      31.108  29.043  23.367  1.00  0.00    -0.247 NA
ATOM     79  C   UNL A   1      30.715  27.123  24.792  1.00  0.00     0.159 A 
ATOM     80  C   UNL A   1      29.965  28.724  22.728  1.00  0.00     0.132 A 
ATOM     81  N   UNL A   1      29.520  26.864  24.161  1.00  0.00    -0.247 NA
ATOM     82  C   UNL A   1      29.179  27.665  23.126  1.00  0.00     0.132 A 
BRANCH  79  83
ATOM     83  C   UNL A   1      31.177  26.005  25.673  1.00  0.00     0.274 C 
ATOM     84  O   UNL A   1      31.244  26.245  26.884  1.00  0.00    -0.267 OA
ATOM     85  N   UNL A   1      31.452  24.721  25.206  1.00  0.00    -0.337 N 
ATOM     86  C   UNL A   1      31.061  23.616  26.076  1.00  0.00     0.120 C 
ATOM     87  C   UNL A   1      32.061  24.354  23.931  1.00  0.00     0.120 C 
ATOM     88  C   UNL A   1      32.204  22.645  26.310  1.00  0.00     0.025 C 
ATOM     89  C   UNL A   1      33.203  23.345  24.124  1.00  0.00     0.025 C 
ATOM     90  C   UNL A   1      32.751  22.134  24.969  1.00  0.00    -0.003 C 
BRANCH  90  91
ATOM     91  C   UNL A   1      33.900  21.124  25.160  1.00  0.00     0.039 C 
BRANCH  91  92
ATOM     92  C   UNL A   1      33.655  19.792  24.484  1.00  0.00    -0.048 A 
ATOM     93  C   UNL A   1      32.529  19.612  23.667  1.00  0.00     0.004 A 
ATOM     94  C   UNL A   1      34.561  18.732  24.626  1.00  0.00     0.004 A 
ATOM     95  C   UNL A   1      32.321  18.405  22.999  1.00  0.00     0.000 A 
ATOM     96  C   UNL A   1      34.352  17.525  23.955  1.00  0.00     0.000 A 
ATOM     97  C   UNL A   1      33.233  17.362  23.140  1.00  0.00     0.000 A 
ENDBRANCH  91  92
ENDBRANCH  90  91
ENDBRANCH  79  83
ENDBRANCH  74  77
ENDBRANCH  72  73
ENDBRANCH   1  72
TORSDOF 13
ENDMDL
MODEL 2
REMARK VINA RESULT:     -13.0      0.185      1.646
REMARK SMILES O=C(NCCCNC(=O)c1nccnc1C(=O)N1CCC(Cc2ccccc2)CC1)c1ccc(-c2c3nc(c(-c4c(F)c(F)c(F)c(F)c4F)c4ccc([nH]4)c(-c4c(F)c(F)c(F)c(F)c4F)c4nc(c(-c5c(F)c(F)c(F)c(F)c5F)c5ccc2[nH]5)C=C4)C=C3)cc1
REMARK SMILES IDX 5 1 4 2 3 3 1 4 2 5 31 7 32 8 93 9 33 10 92 11 34 12 35 13
REMARK SMILES IDX 36 14 86 15 37 16 91 17 85 18 87 19 38 20 90 21 84 22 83 23
REMARK SMILES IDX 39 25 71 26 51 27 70 28 52 29 55 30 69 31 88 32 53 33 54 34
REMARK SMILES IDX 68 36 89 37 56 38 40 39 41 40 49 41 42 42 43 43 47 44 50 45
REMARK SMILES IDX 44 46 45 47 48 48 46 49 72 50 73 51 81 52 74 53 75 54 79 55
REMARK SMILES IDX 82 56 76 57 77 58 80 59 78 60 57 61 58 62 66 63 59 64 60 65
REMARK SMILES IDX 64 66 67 67 61 68 62 69 65 70 63 71 6 72 7 73 8 74 9 76
REMARK SMILES IDX 10 77 11 78 15 79 12 80 14 81 13 82 16 83 17 84 18 85 19 86
REMARK SMILES IDX 30 87 20 88 29 89 21 90 22 91 23 92 24 93 28 94 25 95 27 96
REMARK SMILES IDX 26 97
REMARK H PARENT 3 6 87 24 55 35 7 75
REMARK Flexibility Score: inf
ROOT
ATOM      1  C   UNL A   1      31.336  31.734  26.528  1.00  0.00     0.042 C 
ENDROOT
BRANCH   1   2
ATOM      2  C   UNL A   1      32.643  32.502  26.694  1.00  0.00     0.118 C 
BRANCH   2   3
ATOM      3  N   UNL A   1      32.458  33.813  27.292  1.00  0.00    -0.352 N 
ATOM      4  O   UNL A   1      32.587  35.472  28.796  1.00  0.00    -0.269 OA
ATOM      5  C   UNL A   1      33.059  34.419  28.366  1.00  0.00     0.251 C 
ATOM      6  H   UNL A   1      31.778  34.368  26.845  1.00  0.00     0.163 HD
BRANCH   5   7
ATOM      7  C   UNL A   1      34.244  33.834  29.030  1.00  0.00     0.039 A 
ATOM      8  C   UNL A   1      35.527  34.350  28.839  1.00  0.00     0.014 A 
ATOM      9  C   UNL A   1      34.049  32.785  29.936  1.00  0.00     0.014 A 
ATOM     10  C   UNL A   1      36.625  33.737  29.443  1.00  0.00     0.010 A 
ATOM     11  C   UNL A   1      35.141  32.221  30.601  1.00  0.00     0.010 A 
ATOM     12  C   UNL A   1      36.442  32.671  30.336  1.00  0.00    -0.014 A 
BRANCH  12  13
ATOM     13  C   UNL A   1      37.609  32.053  31.017  1.00  0.00     0.031 A 
ATOM     14  C   UNL A   1      38.429  31.001  30.325  1.00  0.00     0.074 A 
ATOM     15  C   UNL A   1      37.918  32.428  32.273  1.00  0.00     0.049 A 
ATOM     16  N   UNL A   1      39.442  30.307  30.781  1.00  0.00    -0.248 NA
ATOM     17  C   UNL A   1      38.056  30.679  28.940  1.00  0.00     0.031 C 
ATOM     18  C   UNL A   1      37.195  33.433  33.053  1.00  0.00     0.029 A 
ATOM     19  N   UNL A   1      38.913  32.003  33.116  1.00  0.00    -0.354 N 
ATOM     20  C   UNL A   1      39.813  29.453  29.749  1.00  0.00     0.074 A 
ATOM     21  C   UNL A   1      38.897  29.696  28.654  1.00  0.00     0.031 C 
ATOM     22  C   UNL A   1      37.778  33.559  34.253  1.00  0.00     0.029 A 
ATOM     23  C   UNL A   1      38.878  32.604  34.350  1.00  0.00     0.049 A 
ATOM     24  H   UNL A   1      39.587  31.331  32.861  1.00  0.00     0.167 HD
ATOM     25  C   UNL A   1      40.828  28.557  29.718  1.00  0.00     0.037 A 
ATOM     26  C   UNL A   1      39.630  32.393  35.447  1.00  0.00     0.037 A 
ATOM     27  C   UNL A   1      41.740  28.324  30.810  1.00  0.00     0.049 A 
ATOM     28  C   UNL A   1      40.725  31.366  35.402  1.00  0.00     0.074 A 
ATOM     29  C   UNL A   1      42.823  27.465  30.862  1.00  0.00     0.029 A 
ATOM     30  N   UNL A   1      41.667  28.950  32.047  1.00  0.00    -0.354 N 
ATOM     31  N   UNL A   1      41.091  30.592  34.410  1.00  0.00    -0.248 NA
ATOM     32  C   UNL A   1      41.513  31.184  36.628  1.00  0.00     0.031 C 
ATOM     33  C   UNL A   1      43.373  27.530  32.147  1.00  0.00     0.029 A 
ATOM     34  C   UNL A   1      42.672  28.476  32.878  1.00  0.00     0.049 A 
ATOM     35  H   UNL A   1      41.001  29.631  32.298  1.00  0.00     0.167 HD
ATOM     36  C   UNL A   1      42.168  29.852  34.879  1.00  0.00     0.074 A 
ATOM     37  C   UNL A   1      42.399  30.275  36.245  1.00  0.00     0.031 C 
ATOM     38  C   UNL A   1      42.898  28.912  34.233  1.00  0.00     0.037 A 
BRANCH  25  39
ATOM     39  C   UNL A   1      40.990  27.735  28.470  1.00  0.00     0.064 A 
ATOM     40  C   UNL A   1      40.328  26.510  28.299  1.00  0.00     0.173 A 
ATOM     41  C   UNL A   1      41.803  28.192  27.421  1.00  0.00     0.173 A 
ATOM     42  F   UNL A   1      39.546  26.022  29.275  1.00  0.00    -0.203 F 
ATOM     43  C   UNL A   1      40.502  25.756  27.140  1.00  0.00     0.198 A 
ATOM     44  C   UNL A   1      41.948  27.450  26.250  1.00  0.00     0.198 A 
ATOM     45  F   UNL A   1      42.453  29.360  27.528  1.00  0.00    -0.203 F 
ATOM     46  F   UNL A   1      39.903  24.562  27.024  1.00  0.00    -0.200 F 
ATOM     47  C   UNL A   1      41.306  26.230  26.115  1.00  0.00     0.200 A 
ATOM     48  F   UNL A   1      42.717  27.916  25.256  1.00  0.00    -0.200 F 
ATOM     49  F   UNL A   1      41.472  25.503  25.001  1.00  0.00    -0.200 F 
ENDBRANCH  25  39
BRANCH  26  50
ATOM     50  C   UNL A   1      39.357  33.178  36.679  1.00  0.00     0.064 A 
ATOM     51  C   UNL A   1      38.458  32.713  37.646  1.00  0.00     0.173 A 
ATOM     52  C   UNL A   1      40.017  34.391  36.927  1.00  0.00     0.173 A 
ATOM     53  F   UNL A   1      37.790  31.568  37.445  1.00  0.00    -0.203 F 
ATOM     54  C   UNL A   1      38.224  33.435  38.815  1.00  0.00     0.198 A 
ATOM     55  C   UNL A   1      39.805  35.097  38.108  1.00  0.00     0.198 A 
ATOM     56  F   UNL A   1      40.893  34.875  36.033  1.00  0.00    -0.203 F 
ATOM     57  F   UNL A   1      37.336  32.984  39.711  1.00  0.00    -0.200 F 
ATOM     58  C   UNL A   1      38.904  34.622  39.049  1.00  0.00     0.200 A 
ATOM     59  F   UNL A   1      40.477  36.233  38.338  1.00  0.00    -0.200 F 
ATOM     60  F   UNL A   1      38.690  35.307  40.180  1.00  0.00    -0.200 F 
ENDBRANCH  26  50
BRANCH  38  61
ATOM     61  C   UNL A   1      44.054  28.304  34.974  1.00  0.00     0.064 A 
ATOM     62  C   UNL A   1      43.926  27.104  35.687  1.00  0.00     0.173 A 
ATOM     63  C   UNL A   1      45.321  28.907  34.923  1.00  0.00     0.173 A 
ATOM     64  F   UNL A   1      42.733  26.497  35.781  1.00  0.00    -0.203 F 
ATOM     65  C   UNL A   1      45.020  26.538  36.337  1.00  0.00     0.198 A 
ATOM     66  C   UNL A   1      46.418  28.323  35.549  1.00  0.00     0.198 A 
ATOM     67  F   UNL A   1      45.496  30.054  34.249  1.00  0.00    -0.203 F 
ATOM     68  F   UNL A   1      44.867  25.411  37.047  1.00  0.00    -0.200 F 
ATOM     69  C   UNL A   1      46.267  27.143  36.260  1.00  0.00     0.200 A 
ATOM     70  F   UNL A   1      47.623  28.903  35.461  1.00  0.00    -0.200 F 
ATOM     71  F   UNL A   1      47.320  26.591  36.876  1.00  0.00    -0.200 F 
ENDBRANCH  38  61
ENDBRANCH  12  13
ENDBRANCH   5   7
ENDBRANCH   2   3
ENDBRANCH   1   2
BRANCH   1  72
ATOM     72  C   UNL A   1      31.444  30.234  26.788  1.00  0.00     0.118 C 
BRANCH  72  73
ATOM     73  N   UNL A   1      32.602  29.616  26.159  1.00  0.00    -0.351 N 
ATOM     74  C   UNL A   1      32.660  28.765  25.070  1.00  0.00     0.272 C 
ATOM     75  H   UNL A   1      33.470  29.836  26.569  1.00  0.00     0.163 HD
ATOM     76  O   UNL A   1      33.757  28.404  24.643  1.00  0.00    -0.267 OA
BRANCH  74  77
ATOM     77  C   UNL A   1      31.405  28.307  24.440  1.00  0.00     0.159 A 
ATOM     78  N   UNL A   1      31.004  29.094  23.386  1.00  0.00    -0.247 NA
ATOM     79  C   UNL A   1      30.713  27.167  24.825  1.00  0.00     0.159 A 
ATOM     80  C   UNL A   1      29.897  28.694  22.730  1.00  0.00     0.132 A 
ATOM     81  N   UNL A   1      29.549  26.823  24.176  1.00  0.00    -0.247 NA
ATOM     82  C   UNL A   1      29.175  27.590  23.126  1.00  0.00     0.132 A 
BRANCH  79  83
ATOM     83  C   UNL A   1      31.231  26.090  25.726  1.00  0.00     0.274 C 
ATOM     84  O   UNL A   1      31.384  26.389  26.916  1.00  0.00    -0.267 OA
ATOM     85  N   UNL A   1      31.469  24.783  25.305  1.00  0.00    -0.337 N 
ATOM     86  C   UNL A   1      31.135  23.725  26.254  1.00  0.00     0.120 C 
ATOM     87  C   UNL A   1      31.986  24.350  24.011  1.00  0.00     0.120 C 
ATOM     88  C   UNL A   1      32.290  22.759  26.456  1.00  0.00     0.025 C 
ATOM     89  C   UNL A   1      33.135  23.343  24.173  1.00  0.00     0.025 C 
ATOM     90  C   UNL A   1      32.739  22.178  25.107  1.00  0.00    -0.003 C 
BRANCH  90  91
ATOM     91  C   UNL A   1      33.896  21.172  25.267  1.00  0.00     0.039 C 
BRANCH  91  92
ATOM     92  C   UNL A   1      33.677  19.875  24.518  1.00  0.00    -0.048 A 
ATOM     93  C   UNL A   1      34.609  18.832  24.626  1.00  0.00     0.004 A 
ATOM     94  C   UNL A   1      32.528  19.674  23.740  1.00  0.00     0.004 A 
ATOM     95  C   UNL A   1      34.392  17.614  23.981  1.00  0.00     0.000 A 
ATOM     96  C   UNL A   1      32.311  18.453  23.097  1.00  0.00     0.000 A 
ATOM     97  C   UNL A   1      33.242  17.423  23.219  1.00  0.00     0.000 A 
ENDBRANCH  91  92
ENDBRANCH  90  91
ENDBRANCH  79  83
ENDBRANCH  74  77
ENDBRANCH  72  73
ENDBRANCH   1  72
TORSDOF 13
ENDMDL
MODEL 3
REMARK VINA RESULT:     -12.9      5.158     11.014
REMARK SMILES O=C(NCCCNC(=O)c1nccnc1C(=O)N1CCC(Cc2ccccc2)CC1)c1ccc(-c2c3nc(c(-c4c(F)c(F)c(F)c(F)c4F)c4ccc([nH]4)c(-c4c(F)c(F)c(F)c(F)c4F)c4nc(c(-c5c(F)c(F)c(F)c(F)c5F)c5ccc2[nH]5)C=C4)C=C3)cc1
REMARK SMILES IDX 5 1 4 2 3 3 1 4 2 5 31 7 32 8 93 9 33 10 92 11 34 12 35 13
REMARK SMILES IDX 36 14 86 15 37 16 91 17 85 18 87 19 38 20 90 21 84 22 83 23
REMARK SMILES IDX 39 25 71 26 51 27 70 28 52 29 55 30 69 31 88 32 53 33 54 34
REMARK SMILES IDX 68 36 89 37 56 38 40 39 41 40 49 41 42 42 43 43 47 44 50 45
REMARK SMILES IDX 44 46 45 47 48 48 46 49 72 50 73 51 81 52 74 53 75 54 79 55
REMARK SMILES IDX 82 56 76 57 77 58 80 59 78 60 57 61 58 62 66 63 59 64 60 65
REMARK SMILES IDX 64 66 67 67 61 68 62 69 65 70 63 71 6 72 7 73 8 74 9 76
REMARK SMILES IDX 10 77 11 78 15 79 12 80 14 81 13 82 16 83 17 84 18 85 19 86
REMARK SMILES IDX 30 87 20 88 29 89 21 90 22 91 23 92 24 93 28 94 25 95 27 96
REMARK SMILES IDX 26 97
REMARK H PARENT 3 6 87 24 55 35 7 75
REMARK Flexibility Score: inf
ROOT
ATOM      1  C   UNL A   1      37.942  19.896  24.922  1.00  0.00     0.042 C 
ENDROOT
BRANCH   1   2
ATOM      2  C   UNL A   1      38.865  20.060  26.125  1.00  0.00     0.118 C 
BRANCH   2   3
ATOM      3  N   UNL A   1      40.039  19.207  26.060  1.00  0.00    -0.352 N 
ATOM      4  O   UNL A   1      42.187  18.603  25.826  1.00  0.00    -0.269 OA
ATOM      5  C   UNL A   1      41.380  19.494  26.095  1.00  0.00     0.251 C 
ATOM      6  H   UNL A   1      39.835  18.247  25.976  1.00  0.00     0.163 HD
BRANCH   5   7
ATOM      7  C   UNL A   1      41.879  20.846  26.428  1.00  0.00     0.039 A 
ATOM      8  C   UNL A   1      42.278  21.187  27.722  1.00  0.00     0.014 A 
ATOM      9  C   UNL A   1      42.028  21.775  25.392  1.00  0.00     0.014 A 
ATOM     10  C   UNL A   1      42.695  22.488  28.005  1.00  0.00     0.010 A 
ATOM     11  C   UNL A   1      42.519  23.055  25.662  1.00  0.00     0.010 A 
ATOM     12  C   UNL A   1      42.826  23.433  26.977  1.00  0.00    -0.014 A 
BRANCH  12  13
ATOM     13  C   UNL A   1      43.318  24.803  27.274  1.00  0.00     0.031 A 
ATOM     14  C   UNL A   1      42.400  25.833  27.867  1.00  0.00     0.074 A 
ATOM     15  C   UNL A   1      44.594  25.124  26.989  1.00  0.00     0.049 A 
ATOM     16  N   UNL A   1      42.632  27.094  28.136  1.00  0.00    -0.248 NA
ATOM     17  C   UNL A   1      41.035  25.392  28.190  1.00  0.00     0.031 C 
ATOM     18  C   UNL A   1      45.581  24.215  26.406  1.00  0.00     0.029 A 
ATOM     19  N   UNL A   1      45.277  26.304  27.142  1.00  0.00    -0.354 N 
ATOM     20  C   UNL A   1      41.441  27.601  28.641  1.00  0.00     0.074 A 
ATOM     21  C   UNL A   1      40.479  26.519  28.612  1.00  0.00     0.031 C 
ATOM     22  C   UNL A   1      46.746  24.863  26.266  1.00  0.00     0.029 A 
ATOM     23  C   UNL A   1      46.573  26.249  26.692  1.00  0.00     0.049 A 
ATOM     24  H   UNL A   1      44.877  27.113  27.536  1.00  0.00     0.167 HD
ATOM     25  C   UNL A   1      41.178  28.851  29.092  1.00  0.00     0.037 A 
ATOM     26  C   UNL A   1      47.512  27.210  26.607  1.00  0.00     0.037 A 
ATOM     27  C   UNL A   1      42.143  29.922  29.124  1.00  0.00     0.049 A 
ATOM     28  C   UNL A   1      47.186  28.600  27.078  1.00  0.00     0.074 A 
ATOM     29  C   UNL A   1      41.985  31.212  29.598  1.00  0.00     0.029 A 
ATOM     30  N   UNL A   1      43.445  29.826  28.652  1.00  0.00    -0.354 N 
ATOM     31  N   UNL A   1      46.069  29.058  27.588  1.00  0.00    -0.248 NA
ATOM     32  C   UNL A   1      48.251  29.604  26.963  1.00  0.00     0.031 C 
ATOM     33  C   UNL A   1      43.172  31.914  29.364  1.00  0.00     0.029 A 
ATOM     34  C   UNL A   1      44.093  31.044  28.801  1.00  0.00     0.049 A 
ATOM     35  H   UNL A   1      43.850  29.015  28.269  1.00  0.00     0.167 HD
ATOM     36  C   UNL A   1      46.303  30.394  27.881  1.00  0.00     0.074 A 
ATOM     37  C   UNL A   1      47.672  30.671  27.497  1.00  0.00     0.031 C 
ATOM     38  C   UNL A   1      45.459  31.305  28.424  1.00  0.00     0.037 A 
BRANCH  25  39
ATOM     39  C   UNL A   1      39.780  29.139  29.563  1.00  0.00     0.064 A 
ATOM     40  C   UNL A   1      39.414  29.019  30.912  1.00  0.00     0.173 A 
ATOM     41  C   UNL A   1      38.799  29.564  28.654  1.00  0.00     0.173 A 
ATOM     42  F   UNL A   1      40.311  28.608  31.822  1.00  0.00    -0.203 F 
ATOM     43  C   UNL A   1      38.109  29.278  31.327  1.00  0.00     0.198 A 
ATOM     44  C   UNL A   1      37.504  29.853  29.078  1.00  0.00     0.198 A 
ATOM     45  F   UNL A   1      39.096  29.703  27.353  1.00  0.00    -0.203 F 
ATOM     46  F   UNL A   1      37.770  29.101  32.612  1.00  0.00    -0.200 F 
ATOM     47  C   UNL A   1      37.158  29.700  30.411  1.00  0.00     0.200 A 
ATOM     48  F   UNL A   1      36.589  30.273  28.193  1.00  0.00    -0.200 F 
ATOM     49  F   UNL A   1      35.903  29.948  30.813  1.00  0.00    -0.200 F 
ENDBRANCH  25  39
BRANCH  26  50
ATOM     50  C   UNL A   1      48.847  26.878  26.047  1.00  0.00     0.064 A 
ATOM     51  C   UNL A   1      49.131  27.083  24.691  1.00  0.00     0.173 A 
ATOM     52  C   UNL A   1      49.874  26.383  26.864  1.00  0.00     0.173 A 
ATOM     53  F   UNL A   1      48.175  27.537  23.867  1.00  0.00    -0.203 F 
ATOM     54  C   UNL A   1      50.392  26.799  24.170  1.00  0.00     0.198 A 
ATOM     55  C   UNL A   1      51.142  26.127  26.349  1.00  0.00     0.198 A 
ATOM     56  F   UNL A   1      49.652  26.176  28.170  1.00  0.00    -0.203 F 
ATOM     57  F   UNL A   1      50.630  26.974  22.864  1.00  0.00    -0.200 F 
ATOM     58  C   UNL A   1      51.399  26.329  25.001  1.00  0.00     0.200 A 
ATOM     59  F   UNL A   1      52.116  25.691  27.159  1.00  0.00    -0.200 F 
ATOM     60  F   UNL A   1      52.616  26.072  24.504  1.00  0.00    -0.200 F 
ENDBRANCH  26  50
BRANCH  38  61
ATOM     61  C   UNL A   1      46.001  32.681  28.684  1.00  0.00     0.064 A 
ATOM     62  C   UNL A   1      46.716  32.985  29.851  1.00  0.00     0.173 A 
ATOM     63  C   UNL A   1      45.846  33.693  27.724  1.00  0.00     0.173 A 
ATOM     64  F   UNL A   1      46.878  32.057  30.806  1.00  0.00    -0.203 F 
ATOM     65  C   UNL A   1      47.242  34.259  30.055  1.00  0.00     0.198 A 
ATOM     66  C   UNL A   1      46.398  34.956  27.919  1.00  0.00     0.198 A 
ATOM     67  F   UNL A   1      45.174  33.451  26.589  1.00  0.00    -0.203 F 
ATOM     68  F   UNL A   1      47.889  34.540  31.195  1.00  0.00    -0.200 F 
ATOM     69  C   UNL A   1      47.090  35.240  29.086  1.00  0.00     0.200 A 
ATOM     70  F   UNL A   1      46.261  35.898  26.975  1.00  0.00    -0.200 F 
ATOM     71  F   UNL A   1      47.607  36.460  29.279  1.00  0.00    -0.200 F 
ENDBRANCH  38  61
ENDBRANCH  12  13
ENDBRANCH   5   7
ENDBRANCH   2   3
ENDBRANCH   1   2
BRANCH   1  72
ATOM     72  C   UNL A   1      37.290  21.189  24.442  1.00  0.00     0.118 C 
BRANCH  72  73
ATOM     73  N   UNL A   1      36.723  21.989  25.517  1.00  0.00    -0.351 N 
ATOM     74  C   UNL A   1      35.399  22.163  25.879  1.00  0.00     0.272 C 
ATOM     75  H   UNL A   1      37.378  22.477  26.067  1.00  0.00     0.163 HD
ATOM     76  O   UNL A   1      35.128  22.832  26.876  1.00  0.00    -0.267 OA
BRANCH  74  77
ATOM     77  C   UNL A   1      34.336  21.541  25.062  1.00  0.00     0.159 A 
ATOM     78  N   UNL A   1      33.867  20.359  25.585  1.00  0.00    -0.247 NA
ATOM     79  C   UNL A   1      33.813  22.106  23.907  1.00  0.00     0.159 A 
ATOM     80  C   UNL A   1      32.854  19.773  24.918  1.00  0.00     0.132 A 
ATOM     81  N   UNL A   1      32.824  21.447  23.213  1.00  0.00    -0.247 NA
ATOM     82  C   UNL A   1      32.352  20.297  23.747  1.00  0.00     0.132 A 
BRANCH  79  83
ATOM     83  C   UNL A   1      34.026  23.514  23.447  1.00  0.00     0.274 C 
ATOM     84  O   UNL A   1      35.162  23.803  23.054  1.00  0.00    -0.267 OA
ATOM     85  N   UNL A   1      33.007  24.462  23.373  1.00  0.00    -0.337 N 
ATOM     86  C   UNL A   1      33.052  25.376  22.236  1.00  0.00     0.120 C 
ATOM     87  C   UNL A   1      31.881  24.625  24.288  1.00  0.00     0.120 C 
ATOM     88  C   UNL A   1      32.945  26.828  22.671  1.00  0.00     0.025 C 
ATOM     89  C   UNL A   1      31.718  26.088  24.724  1.00  0.00     0.025 C 
ATOM     90  C   UNL A   1      31.675  27.040  23.508  1.00  0.00    -0.003 C 
BRANCH  90  91
ATOM     91  C   UNL A   1      31.513  28.507  23.952  1.00  0.00     0.039 C 
BRANCH  91  92
ATOM     92  C   UNL A   1      30.149  29.086  23.642  1.00  0.00    -0.048 A 
ATOM     93  C   UNL A   1      29.903  30.454  23.831  1.00  0.00     0.004 A 
ATOM     94  C   UNL A   1      29.122  28.281  23.126  1.00  0.00     0.004 A 
ATOM     95  C   UNL A   1      28.665  31.006  23.501  1.00  0.00     0.000 A 
ATOM     96  C   UNL A   1      27.885  28.837  22.794  1.00  0.00     0.000 A 
ATOM     97  C   UNL A   1      27.656  30.199  22.980  1.00  0.00     0.000 A 
ENDBRANCH  91  92
ENDBRANCH  90  91
ENDBRANCH  79  83
ENDBRANCH  74  77
ENDBRANCH  72  73
ENDBRANCH   1  72
TORSDOF 13
ENDMDL
