MODEL 1
REMARK VINA RESULT:     -11.2      0.000      0.000
REMARK SMILES C[C@H](CCO)S[C@H]1CC[C@]([NH2+]C2CC2)(C(=O)NCCCNC(=O)c2ccc(-c3c4nc(c(-c5c(F)c(F)c(F)c(F)c5F)c5ccc([nH]5)c(-c5c(F)c(F)c(F)c(F)c5F)c5nc(c(-c6c(F)c(F)c(F)c(F)c6F)c6ccc3[nH]6)C=C5)C=C4)cc2)C1
REMARK SMILES IDX 15 1 16 2 17 3 10 5 7 6 8 7 87 8 9 9 6 10 2 11 1 12 3 13
REMARK SMILES IDX 4 14 5 15 11 17 12 20 13 21 14 22 18 23 19 24 20 25 21 26
REMARK SMILES IDX 22 27 23 29 24 30 25 31 86 32 26 33 85 34 27 35 28 36 29 37
REMARK SMILES IDX 79 38 30 39 84 40 78 41 80 42 31 43 83 44 77 45 76 46 32 48
REMARK SMILES IDX 64 49 44 50 63 51 45 52 48 53 62 54 81 55 46 56 47 57 61 59
REMARK SMILES IDX 82 60 49 61 33 62 34 63 42 64 35 65 36 66 40 67 43 68 37 69
REMARK SMILES IDX 38 70 41 71 39 72 65 73 66 74 74 75 67 76 68 77 72 78 75 79
REMARK SMILES IDX 69 80 70 81 73 82 71 83 50 84 51 85 59 86 52 87 53 88 57 89
REMARK SMILES IDX 60 90 54 91 55 92 58 93 56 94
REMARK H PARENT 17 4 5 16 11 18 11 19 21 28 80 47 48 58
REMARK Flexibility Score: inf
ROOT
ATOM      1  C   UNL A   1      30.688  25.483  26.243  1.00  0.00     0.281 C 
ATOM      2  O   UNL A   1      29.526  25.125  26.501  1.00  0.00    -0.268 OA
ATOM      3  N   UNL A   1      31.067  26.614  26.887  1.00  0.00    -0.351 N 
ATOM      4  H   UNL A   1      30.415  26.913  27.561  1.00  0.00     0.163 HD
ENDROOT
BRANCH   1   5
ATOM      5  C   UNL A   1      31.632  24.530  25.408  1.00  0.00     0.176 C 
ATOM      6  C   UNL A   1      31.783  22.050  25.128  1.00  0.00     0.054 C 
ATOM      7  C   UNL A   1      32.312  22.432  26.507  1.00  0.00     0.022 C 
ATOM      8  C   UNL A   1      30.972  23.295  24.753  1.00  0.00     0.093 C 
ATOM      9  C   UNL A   1      32.661  23.918  26.408  1.00  0.00     0.080 C 
BRANCH   6  10
ATOM     10  S   UNL A   1      33.170  21.651  23.999  1.00  0.00    -0.155 SA
BRANCH  10  11
ATOM     11  C   UNL A   1      34.236  20.546  25.013  1.00  0.00     0.046 C 
ATOM     12  C   UNL A   1      35.706  20.961  24.995  1.00  0.00     0.019 C 
BRANCH  11  13
ATOM     13  C   UNL A   1      34.085  19.047  24.696  1.00  0.00     0.042 C 
BRANCH  13  14
ATOM     14  C   UNL A   1      32.742  18.437  25.090  1.00  0.00     0.157 C 
BRANCH  14  15
ATOM     15  O   UNL A   1      32.580  18.441  26.501  1.00  0.00    -0.396 OA
ATOM     16  H   UNL A   1      31.985  17.720  26.760  1.00  0.00     0.210 HD
ENDBRANCH  14  15
ENDBRANCH  13  14
ENDBRANCH  11  13
ENDBRANCH  10  11
ENDBRANCH   6  10
BRANCH   5  17
ATOM     17  N   UNL A   1      32.263  25.479  24.446  1.00  0.00    -0.331 N 
ATOM     18  H   UNL A   1      33.142  25.060  24.141  1.00  0.00     0.347 HD
ATOM     19  H   UNL A   1      32.342  26.351  24.968  1.00  0.00     0.347 HD
BRANCH  17  20
ATOM     20  C   UNL A   1      31.516  25.844  23.241  1.00  0.00     0.183 C 
ATOM     21  C   UNL A   1      31.994  26.995  22.401  1.00  0.00     0.071 C 
ATOM     22  C   UNL A   1      32.150  25.593  21.899  1.00  0.00     0.071 C 
ENDBRANCH  17  20
ENDBRANCH   5  17
ENDBRANCH   1   5
BRANCH   3  23
ATOM     23  C   UNL A   1      32.226  27.479  26.796  1.00  0.00     0.118 C 
BRANCH  23  24
ATOM     24  C   UNL A   1      31.789  28.929  26.554  1.00  0.00     0.042 C 
BRANCH  24  25
ATOM     25  C   UNL A   1      32.893  29.809  25.956  1.00  0.00     0.118 C 
BRANCH  25  26
ATOM     26  N   UNL A   1      32.727  31.205  26.327  1.00  0.00    -0.352 N 
ATOM     27  C   UNL A   1      33.388  31.965  27.255  1.00  0.00     0.251 C 
ATOM     28  H   UNL A   1      32.024  31.681  25.830  1.00  0.00     0.163 HD
ATOM     29  O   UNL A   1      32.921  33.058  27.568  1.00  0.00    -0.269 OA
BRANCH  27  30
ATOM     30  C   UNL A   1      34.649  31.509  27.882  1.00  0.00     0.039 A 
ATOM     31  C   UNL A   1      34.714  30.191  28.347  1.00  0.00     0.014 A 
ATOM     32  C   UNL A   1      35.717  32.380  28.117  1.00  0.00     0.014 A 
ATOM     33  C   UNL A   1      35.847  29.743  29.030  1.00  0.00     0.010 A 
ATOM     34  C   UNL A   1      36.872  31.915  28.750  1.00  0.00     0.010 A 
ATOM     35  C   UNL A   1      36.940  30.599  29.231  1.00  0.00    -0.014 A 
BRANCH  35  36
ATOM     36  C   UNL A   1      38.139  30.130  29.971  1.00  0.00     0.031 A 
ATOM     37  C   UNL A   1      38.397  30.598  31.377  1.00  0.00     0.074 A 
ATOM     38  C   UNL A   1      39.008  29.297  29.369  1.00  0.00     0.049 A 
ATOM     39  N   UNL A   1      39.392  30.309  32.179  1.00  0.00    -0.248 NA
ATOM     40  C   UNL A   1      37.420  31.536  31.951  1.00  0.00     0.031 C 
ATOM     41  C   UNL A   1      38.891  28.805  27.997  1.00  0.00     0.029 A 
ATOM     42  N   UNL A   1      40.163  28.720  29.834  1.00  0.00    -0.354 N 
ATOM     43  C   UNL A   1      39.168  31.037  33.341  1.00  0.00     0.074 A 
ATOM     44  C   UNL A   1      37.969  31.817  33.124  1.00  0.00     0.031 C 
ATOM     45  C   UNL A   1      39.919  27.982  27.736  1.00  0.00     0.029 A 
ATOM     46  C   UNL A   1      40.779  27.907  28.914  1.00  0.00     0.049 A 
ATOM     47  H   UNL A   1      40.516  28.873  30.739  1.00  0.00     0.167 HD
ATOM     48  C   UNL A   1      39.886  31.039  34.490  1.00  0.00     0.037 A 
ATOM     49  C   UNL A   1      41.907  27.179  29.013  1.00  0.00     0.037 A 
ATOM     50  C   UNL A   1      41.063  30.240  34.714  1.00  0.00     0.049 A 
ATOM     51  C   UNL A   1      42.667  27.174  30.311  1.00  0.00     0.074 A 
ATOM     52  C   UNL A   1      41.835  30.137  35.859  1.00  0.00     0.029 A 
ATOM     53  N   UNL A   1      41.637  29.402  33.769  1.00  0.00    -0.354 N 
ATOM     54  N   UNL A   1      42.413  27.821  31.422  1.00  0.00    -0.248 NA
ATOM     55  C   UNL A   1      43.863  26.323  30.372  1.00  0.00     0.031 C 
ATOM     56  C   UNL A   1      42.894  29.260  35.596  1.00  0.00     0.029 A 
ATOM     57  C   UNL A   1      42.757  28.785  34.302  1.00  0.00     0.049 A 
ATOM     58  H   UNL A   1      41.298  29.266  32.855  1.00  0.00     0.167 HD
ATOM     59  C   UNL A   1      43.397  27.436  32.322  1.00  0.00     0.074 A 
ATOM     60  C   UNL A   1      44.244  26.485  31.630  1.00  0.00     0.031 C 
ATOM     61  C   UNL A   1      43.584  27.834  33.604  1.00  0.00     0.037 A 
BRANCH  48  62
ATOM     62  C   UNL A   1      39.412  31.933  35.601  1.00  0.00     0.064 A 
ATOM     63  C   UNL A   1      38.501  31.483  36.569  1.00  0.00     0.173 A 
ATOM     64  C   UNL A   1      39.897  33.245  35.716  1.00  0.00     0.173 A 
ATOM     65  F   UNL A   1      38.000  30.240  36.497  1.00  0.00    -0.203 F 
ATOM     66  C   UNL A   1      38.070  32.322  37.592  1.00  0.00     0.198 A 
ATOM     67  C   UNL A   1      39.485  34.072  36.758  1.00  0.00     0.198 A 
ATOM     68  F   UNL A   1      40.773  33.724  34.821  1.00  0.00    -0.203 F 
ATOM     69  F   UNL A   1      37.163  31.885  38.478  1.00  0.00    -0.200 F 
ATOM     70  C   UNL A   1      38.567  33.613  37.691  1.00  0.00     0.200 A 
ATOM     71  F   UNL A   1      39.974  35.316  36.859  1.00  0.00    -0.200 F 
ATOM     72  F   UNL A   1      38.154  34.417  38.679  1.00  0.00    -0.200 F 
ENDBRANCH  48  62
BRANCH  49  73
ATOM     73  C   UNL A   1      42.360  26.358  27.862  1.00  0.00     0.064 A 
ATOM     74  C   UNL A   1      43.293  26.859  26.945  1.00  0.00     0.173 A 
ATOM     75  C   UNL A   1      41.874  25.058  27.656  1.00  0.00     0.173 A 
ATOM     76  F   UNL A   1      43.772  28.103  27.090  1.00  0.00    -0.203 F 
ATOM     77  C   UNL A   1      43.709  26.100  25.853  1.00  0.00     0.198 A 
ATOM     78  C   UNL A   1      42.310  24.291  26.579  1.00  0.00     0.198 A 
ATOM     79  F   UNL A   1      40.984  24.532  28.510  1.00  0.00    -0.203 F 
ATOM     80  F   UNL A   1      44.571  26.619  24.968  1.00  0.00    -0.200 F 
ATOM     81  C   UNL A   1      43.221  24.815  25.674  1.00  0.00     0.200 A 
ATOM     82  F   UNL A   1      41.847  23.044  26.417  1.00  0.00    -0.200 F 
ATOM     83  F   UNL A   1      43.625  24.083  24.627  1.00  0.00    -0.200 F 
ENDBRANCH  49  73
BRANCH  61  84
ATOM     84  C   UNL A   1      44.724  27.211  34.352  1.00  0.00     0.064 A 
ATOM     85  C   UNL A   1      46.007  27.779  34.345  1.00  0.00     0.173 A 
ATOM     86  C   UNL A   1      44.527  26.039  35.099  1.00  0.00     0.173 A 
ATOM     87  F   UNL A   1      46.249  28.889  33.634  1.00  0.00    -0.203 F 
ATOM     88  C   UNL A   1      47.059  27.176  35.032  1.00  0.00     0.198 A 
ATOM     89  C   UNL A   1      45.574  25.457  35.807  1.00  0.00     0.198 A 
ATOM     90  F   UNL A   1      43.318  25.461  35.143  1.00  0.00    -0.203 F 
ATOM     91  F   UNL A   1      48.287  27.707  34.967  1.00  0.00    -0.200 F 
ATOM     92  C   UNL A   1      46.840  26.021  35.765  1.00  0.00     0.200 A 
ATOM     93  F   UNL A   1      45.360  24.344  36.524  1.00  0.00    -0.200 F 
ATOM     94  F   UNL A   1      47.854  25.442  36.425  1.00  0.00    -0.200 F 
ENDBRANCH  61  84
ENDBRANCH  35  36
ENDBRANCH  27  30
ENDBRANCH  25  26
ENDBRANCH  24  25
ENDBRANCH  23  24
ENDBRANCH   3  23
TORSDOF 17
ENDMDL
MODEL 2
REMARK VINA RESULT:     -11.1      4.336      9.696
REMARK SMILES C[C@H](CCO)S[C@H]1CC[C@]([NH2+]C2CC2)(C(=O)NCCCNC(=O)c2ccc(-c3c4nc(c(-c5c(F)c(F)c(F)c(F)c5F)c5ccc([nH]5)c(-c5c(F)c(F)c(F)c(F)c5F)c5nc(c(-c6c(F)c(F)c(F)c(F)c6F)c6ccc3[nH]6)C=C5)C=C4)cc2)C1
REMARK SMILES IDX 15 1 16 2 17 3 10 5 7 6 8 7 87 8 9 9 6 10 2 11 1 12 3 13
REMARK SMILES IDX 4 14 5 15 11 17 12 20 13 21 14 22 18 23 19 24 20 25 21 26
REMARK SMILES IDX 22 27 23 29 24 30 25 31 86 32 26 33 85 34 27 35 28 36 29 37
REMARK SMILES IDX 79 38 30 39 84 40 78 41 80 42 31 43 83 44 77 45 76 46 32 48
REMARK SMILES IDX 64 49 44 50 63 51 45 52 48 53 62 54 81 55 46 56 47 57 61 59
REMARK SMILES IDX 82 60 49 61 33 62 34 63 42 64 35 65 36 66 40 67 43 68 37 69
REMARK SMILES IDX 38 70 41 71 39 72 65 73 66 74 74 75 67 76 68 77 72 78 75 79
REMARK SMILES IDX 69 80 70 81 73 82 71 83 50 84 51 85 59 86 52 87 53 88 57 89
REMARK SMILES IDX 60 90 54 91 55 92 58 93 56 94
REMARK H PARENT 17 4 5 16 11 18 11 19 21 28 80 47 48 58
REMARK Flexibility Score: inf
ROOT
ATOM      1  C   UNL A   1      31.887  23.428  26.918  1.00  0.00     0.281 C 
ATOM      2  O   UNL A   1      30.753  23.069  27.278  1.00  0.00    -0.268 OA
ATOM      3  N   UNL A   1      32.889  22.673  27.431  1.00  0.00    -0.351 N 
ATOM      4  H   UNL A   1      32.566  21.874  27.907  1.00  0.00     0.163 HD
ENDROOT
BRANCH   1   5
ATOM      5  C   UNL A   1      32.039  24.532  25.796  1.00  0.00     0.176 C 
ATOM      6  C   UNL A   1      32.445  26.998  25.835  1.00  0.00     0.054 C 
ATOM      7  C   UNL A   1      31.010  26.719  26.273  1.00  0.00     0.022 C 
ATOM      8  C   UNL A   1      33.101  25.628  26.037  1.00  0.00     0.093 C 
ATOM      9  C   UNL A   1      30.693  25.319  25.747  1.00  0.00     0.080 C 
BRANCH   6  10
ATOM     10  S   UNL A   1      32.477  27.634  24.117  1.00  0.00    -0.155 SA
BRANCH  10  11
ATOM     11  C   UNL A   1      31.778  29.329  24.280  1.00  0.00     0.046 C 
ATOM     12  C   UNL A   1      32.015  29.937  25.661  1.00  0.00     0.019 C 
BRANCH  11  13
ATOM     13  C   UNL A   1      30.298  29.451  23.874  1.00  0.00     0.042 C 
BRANCH  13  14
ATOM     14  C   UNL A   1      30.028  29.320  22.377  1.00  0.00     0.157 C 
BRANCH  14  15
ATOM     15  O   UNL A   1      30.969  30.075  21.626  1.00  0.00    -0.396 OA
ATOM     16  H   UNL A   1      31.664  29.485  21.293  1.00  0.00     0.210 HD
ENDBRANCH  14  15
ENDBRANCH  13  14
ENDBRANCH  11  13
ENDBRANCH  10  11
ENDBRANCH   6  10
BRANCH   5  17
ATOM     17  N   UNL A   1      32.266  23.707  24.575  1.00  0.00    -0.331 N 
ATOM     18  H   UNL A   1      31.442  23.814  23.982  1.00  0.00     0.347 HD
ATOM     19  H   UNL A   1      32.438  22.768  24.934  1.00  0.00     0.347 HD
BRANCH  17  20
ATOM     20  C   UNL A   1      33.438  24.000  23.748  1.00  0.00     0.183 C 
ATOM     21  C   UNL A   1      33.944  22.953  22.795  1.00  0.00     0.071 C 
ATOM     22  C   UNL A   1      33.246  24.167  22.264  1.00  0.00     0.071 C 
ENDBRANCH  17  20
ENDBRANCH   5  17
ENDBRANCH   1   5
BRANCH   3  23
ATOM     23  C   UNL A   1      34.334  22.787  27.430  1.00  0.00     0.118 C 
BRANCH  23  24
ATOM     24  C   UNL A   1      34.938  21.875  26.357  1.00  0.00     0.042 C 
BRANCH  24  25
ATOM     25  C   UNL A   1      36.254  22.403  25.774  1.00  0.00     0.118 C 
BRANCH  25  26
ATOM     26  N   UNL A   1      37.300  21.394  25.808  1.00  0.00    -0.352 N 
ATOM     27  C   UNL A   1      38.651  21.515  26.002  1.00  0.00     0.251 C 
ATOM     28  H   UNL A   1      36.986  20.472  25.668  1.00  0.00     0.163 HD
ATOM     29  O   UNL A   1      39.375  20.555  25.753  1.00  0.00    -0.269 OA
BRANCH  27  30
ATOM     30  C   UNL A   1      39.256  22.768  26.509  1.00  0.00     0.039 A 
ATOM     31  C   UNL A   1      38.922  23.967  25.869  1.00  0.00     0.014 A 
ATOM     32  C   UNL A   1      40.222  22.768  27.521  1.00  0.00     0.014 A 
ATOM     33  C   UNL A   1      39.539  25.161  26.250  1.00  0.00     0.010 A 
ATOM     34  C   UNL A   1      40.797  23.971  27.938  1.00  0.00     0.010 A 
ATOM     35  C   UNL A   1      40.477  25.175  27.293  1.00  0.00    -0.014 A 
BRANCH  35  36
ATOM     36  C   UNL A   1      41.146  26.440  27.688  1.00  0.00     0.031 A 
ATOM     37  C   UNL A   1      42.588  26.682  27.332  1.00  0.00     0.074 A 
ATOM     38  C   UNL A   1      40.462  27.364  28.388  1.00  0.00     0.049 A 
ATOM     39  N   UNL A   1      43.346  27.716  27.597  1.00  0.00    -0.248 NA
ATOM     40  C   UNL A   1      43.277  25.609  26.599  1.00  0.00     0.031 C 
ATOM     41  C   UNL A   1      39.074  27.229  28.829  1.00  0.00     0.029 A 
ATOM     42  N   UNL A   1      40.842  28.598  28.851  1.00  0.00    -0.354 N 
ATOM     43  C   UNL A   1      44.599  27.413  27.079  1.00  0.00     0.074 A 
ATOM     44  C   UNL A   1      44.513  26.080  26.524  1.00  0.00     0.031 C 
ATOM     45  C   UNL A   1      38.710  28.345  29.482  1.00  0.00     0.029 A 
ATOM     46  C   UNL A   1      39.846  29.263  29.523  1.00  0.00     0.049 A 
ATOM     47  H   UNL A   1      41.742  28.971  28.716  1.00  0.00     0.167 HD
ATOM     48  C   UNL A   1      45.713  28.184  27.051  1.00  0.00     0.037 A 
ATOM     49  C   UNL A   1      39.846  30.478  30.102  1.00  0.00     0.037 A 
ATOM     50  C   UNL A   1      45.789  29.521  27.580  1.00  0.00     0.049 A 
ATOM     51  C   UNL A   1      41.087  31.326  30.028  1.00  0.00     0.074 A 
ATOM     52  C   UNL A   1      46.858  30.401  27.560  1.00  0.00     0.029 A 
ATOM     53  N   UNL A   1      44.746  30.174  28.222  1.00  0.00    -0.354 N 
ATOM     54  N   UNL A   1      42.247  31.051  29.484  1.00  0.00    -0.248 NA
ATOM     55  C   UNL A   1      41.010  32.661  30.637  1.00  0.00     0.031 C 
ATOM     56  C   UNL A   1      46.472  31.574  28.218  1.00  0.00     0.029 A 
ATOM     57  C   UNL A   1      45.150  31.442  28.610  1.00  0.00     0.049 A 
ATOM     58  H   UNL A   1      43.853  29.792  28.379  1.00  0.00     0.167 HD
ATOM     59  C   UNL A   1      43.028  32.185  29.658  1.00  0.00     0.074 A 
ATOM     60  C   UNL A   1      42.203  33.158  30.344  1.00  0.00     0.031 C 
ATOM     61  C   UNL A   1      44.313  32.401  29.284  1.00  0.00     0.037 A 
BRANCH  48  62
ATOM     62  C   UNL A   1      46.944  27.597  26.422  1.00  0.00     0.064 A 
ATOM     63  C   UNL A   1      47.905  26.914  27.183  1.00  0.00     0.173 A 
ATOM     64  C   UNL A   1      47.152  27.693  25.037  1.00  0.00     0.173 A 
ATOM     65  F   UNL A   1      47.758  26.803  28.512  1.00  0.00    -0.203 F 
ATOM     66  C   UNL A   1      49.041  26.375  26.587  1.00  0.00     0.198 A 
ATOM     67  C   UNL A   1      48.276  27.128  24.441  1.00  0.00     0.198 A 
ATOM     68  F   UNL A   1      46.263  28.331  24.262  1.00  0.00    -0.203 F 
ATOM     69  F   UNL A   1      49.969  25.769  27.342  1.00  0.00    -0.200 F 
ATOM     70  C   UNL A   1      49.223  26.477  25.216  1.00  0.00     0.200 A 
ATOM     71  F   UNL A   1      48.446  27.217  23.114  1.00  0.00    -0.200 F 
ATOM     72  F   UNL A   1      50.316  25.954  24.644  1.00  0.00    -0.200 F 
ENDBRANCH  48  62
BRANCH  49  73
ATOM     73  C   UNL A   1      38.616  30.984  30.761  1.00  0.00     0.064 A 
ATOM     74  C   UNL A   1      38.447  30.874  32.148  1.00  0.00     0.173 A 
ATOM     75  C   UNL A   1      37.588  31.589  30.023  1.00  0.00     0.173 A 
ATOM     76  F   UNL A   1      39.394  30.285  32.893  1.00  0.00    -0.203 F 
ATOM     77  C   UNL A   1      37.287  31.330  32.770  1.00  0.00     0.198 A 
ATOM     78  C   UNL A   1      36.441  32.069  30.650  1.00  0.00     0.198 A 
ATOM     79  F   UNL A   1      37.706  31.724  28.694  1.00  0.00    -0.203 F 
ATOM     80  F   UNL A   1      37.133  31.174  34.092  1.00  0.00    -0.200 F 
ATOM     81  C   UNL A   1      36.288  31.932  32.022  1.00  0.00     0.200 A 
ATOM     82  F   UNL A   1      35.482  32.662  29.925  1.00  0.00    -0.200 F 
ATOM     83  F   UNL A   1      35.175  32.375  32.621  1.00  0.00    -0.200 F 
ENDBRANCH  49  73
BRANCH  61  84
ATOM     84  C   UNL A   1      44.890  33.755  29.576  1.00  0.00     0.064 A 
ATOM     85  C   UNL A   1      45.576  34.021  30.770  1.00  0.00     0.173 A 
ATOM     86  C   UNL A   1      44.767  34.794  28.641  1.00  0.00     0.173 A 
ATOM     87  F   UNL A   1      45.705  33.064  31.701  1.00  0.00    -0.203 F 
ATOM     88  C   UNL A   1      46.090  35.289  31.031  1.00  0.00     0.198 A 
ATOM     89  C   UNL A   1      45.308  36.051  28.893  1.00  0.00     0.198 A 
ATOM     90  F   UNL A   1      44.126  34.589  27.481  1.00  0.00    -0.203 F 
ATOM     91  F   UNL A   1      46.695  35.535  32.201  1.00  0.00    -0.200 F 
ATOM     92  C   UNL A   1      45.960  36.300  30.092  1.00  0.00     0.200 A 
ATOM     93  F   UNL A   1      45.190  37.026  27.981  1.00  0.00    -0.200 F 
ATOM     94  F   UNL A   1      46.455  37.520  30.345  1.00  0.00    -0.200 F 
ENDBRANCH  61  84
ENDBRANCH  35  36
ENDBRANCH  27  30
ENDBRANCH  25  26
ENDBRANCH  24  25
ENDBRANCH  23  24
ENDBRANCH   3  23
TORSDOF 17
ENDMDL
MODEL 3
REMARK VINA RESULT:     -11.1      1.901      2.865
REMARK SMILES C[C@H](CCO)S[C@H]1CC[C@]([NH2+]C2CC2)(C(=O)NCCCNC(=O)c2ccc(-c3c4nc(c(-c5c(F)c(F)c(F)c(F)c5F)c5ccc([nH]5)c(-c5c(F)c(F)c(F)c(F)c5F)c5nc(c(-c6c(F)c(F)c(F)c(F)c6F)c6ccc3[nH]6)C=C5)C=C4)cc2)C1
REMARK SMILES IDX 15 1 16 2 17 3 10 5 7 6 8 7 87 8 9 9 6 10 2 11 1 12 3 13
REMARK SMILES IDX 4 14 5 15 11 17 12 20 13 21 14 22 18 23 19 24 20 25 21 26
REMARK SMILES IDX 22 27 23 29 24 30 25 31 86 32 26 33 85 34 27 35 28 36 29 37
REMARK SMILES IDX 79 38 30 39 84 40 78 41 80 42 31 43 83 44 77 45 76 46 32 48
REMARK SMILES IDX 64 49 44 50 63 51 45 52 48 53 62 54 81 55 46 56 47 57 61 59
REMARK SMILES IDX 82 60 49 61 33 62 34 63 42 64 35 65 36 66 40 67 43 68 37 69
REMARK SMILES IDX 38 70 41 71 39 72 65 73 66 74 74 75 67 76 68 77 72 78 75 79
REMARK SMILES IDX 69 80 70 81 73 82 71 83 50 84 51 85 59 86 52 87 53 88 57 89
REMARK SMILES IDX 60 90 54 91 55 92 58 93 56 94
REMARK H PARENT 17 4 5 16 11 18 11 19 21 28 80 47 48 58
REMARK Flexibility Score: inf
ROOT
ATOM      1  C   UNL A   1      33.228  29.101  26.120  1.00  0.00     0.281 C 
ATOM      2  O   UNL A   1      34.408  29.023  26.502  1.00  0.00    -0.268 OA
ATOM      3  N   UNL A   1      32.680  30.330  26.282  1.00  0.00    -0.351 N 
ATOM      4  H   UNL A   1      33.335  31.012  26.558  1.00  0.00     0.163 HD
ENDROOT
BRANCH   1   5
ATOM      5  C   UNL A   1      32.579  27.893  25.333  1.00  0.00     0.176 C 
ATOM      6  C   UNL A   1      32.008  25.536  25.939  1.00  0.00     0.054 C 
ATOM      7  C   UNL A   1      33.522  25.663  25.790  1.00  0.00     0.022 C 
ATOM      8  C   UNL A   1      31.592  27.000  26.118  1.00  0.00     0.093 C 
ATOM      9  C   UNL A   1      33.740  26.923  24.951  1.00  0.00     0.080 C 
BRANCH   6  10
ATOM     10  S   UNL A   1      31.290  24.692  24.480  1.00  0.00    -0.155 SA
BRANCH  10  11
ATOM     11  C   UNL A   1      32.653  23.592  23.914  1.00  0.00     0.046 C 
ATOM     12  C   UNL A   1      33.162  23.948  22.519  1.00  0.00     0.019 C 
BRANCH  11  13
ATOM     13  C   UNL A   1      32.343  22.087  24.018  1.00  0.00     0.042 C 
BRANCH  13  14
ATOM     14  C   UNL A   1      31.794  21.635  25.368  1.00  0.00     0.157 C 
BRANCH  14  15
ATOM     15  O   UNL A   1      31.894  20.224  25.508  1.00  0.00    -0.396 OA
ATOM     16  H   UNL A   1      32.479  19.872  24.818  1.00  0.00     0.210 HD
ENDBRANCH  14  15
ENDBRANCH  13  14
ENDBRANCH  11  13
ENDBRANCH  10  11
ENDBRANCH   6  10
BRANCH   5  17
ATOM     17  N   UNL A   1      31.988  28.575  24.146  1.00  0.00    -0.331 N 
ATOM     18  H   UNL A   1      32.556  28.318  23.337  1.00  0.00     0.347 HD
ATOM     19  H   UNL A   1      31.990  29.563  24.396  1.00  0.00     0.347 HD
BRANCH  17  20
ATOM     20  C   UNL A   1      30.593  28.290  23.805  1.00  0.00     0.183 C 
ATOM     21  C   UNL A   1      29.872  29.195  22.846  1.00  0.00     0.071 C 
ATOM     22  C   UNL A   1      30.276  27.821  22.411  1.00  0.00     0.071 C 
ENDBRANCH  17  20
ENDBRANCH   5  17
ENDBRANCH   1   5
BRANCH   3  23
ATOM     23  C   UNL A   1      31.339  30.858  26.139  1.00  0.00     0.118 C 
BRANCH  23  24
ATOM     24  C   UNL A   1      31.309  32.344  26.516  1.00  0.00     0.042 C 
BRANCH  24  25
ATOM     25  C   UNL A   1      32.640  32.861  27.073  1.00  0.00     0.118 C 
BRANCH  25  26
ATOM     26  N   UNL A   1      32.512  34.206  27.609  1.00  0.00    -0.352 N 
ATOM     27  C   UNL A   1      33.099  34.792  28.700  1.00  0.00     0.251 C 
ATOM     28  H   UNL A   1      31.903  34.793  27.107  1.00  0.00     0.163 HD
ATOM     29  O   UNL A   1      32.662  35.867  29.104  1.00  0.00    -0.269 OA
BRANCH  27  30
ATOM     30  C   UNL A   1      34.247  34.168  29.396  1.00  0.00     0.039 A 
ATOM     31  C   UNL A   1      35.537  34.481  28.951  1.00  0.00     0.014 A 
ATOM     32  C   UNL A   1      34.074  33.205  30.396  1.00  0.00     0.014 A 
ATOM     33  C   UNL A   1      36.646  33.845  29.513  1.00  0.00     0.010 A 
ATOM     34  C   UNL A   1      35.187  32.611  30.995  1.00  0.00     0.010 A 
ATOM     35  C   UNL A   1      36.482  32.910  30.546  1.00  0.00    -0.014 A 
BRANCH  35  36
ATOM     36  C   UNL A   1      37.659  32.222  31.133  1.00  0.00     0.031 A 
ATOM     37  C   UNL A   1      38.139  32.578  32.514  1.00  0.00     0.074 A 
ATOM     38  C   UNL A   1      38.311  31.289  30.414  1.00  0.00     0.049 A 
ATOM     39  N   UNL A   1      39.152  32.096  33.190  1.00  0.00    -0.248 NA
ATOM     40  C   UNL A   1      37.396  33.633  33.220  1.00  0.00     0.031 C 
ATOM     41  C   UNL A   1      37.969  30.886  29.050  1.00  0.00     0.029 A 
ATOM     42  N   UNL A   1      39.397  30.513  30.730  1.00  0.00    -0.354 N 
ATOM     43  C   UNL A   1      39.175  32.796  34.390  1.00  0.00     0.074 A 
ATOM     44  C   UNL A   1      38.105  33.768  34.331  1.00  0.00     0.031 C 
ATOM     45  C   UNL A   1      38.814  29.921  28.652  1.00  0.00     0.029 A 
ATOM     46  C   UNL A   1      39.770  29.655  29.724  1.00  0.00     0.049 A 
ATOM     47  H   UNL A   1      39.865  30.566  31.593  1.00  0.00     0.167 HD
ATOM     48  C   UNL A   1      40.002  32.630  35.451  1.00  0.00     0.037 A 
ATOM     49  C   UNL A   1      40.767  28.752  29.675  1.00  0.00     0.037 A 
ATOM     50  C   UNL A   1      41.049  31.643  35.518  1.00  0.00     0.049 A 
ATOM     51  C   UNL A   1      41.649  28.565  30.879  1.00  0.00     0.074 A 
ATOM     52  C   UNL A   1      41.911  31.365  36.566  1.00  0.00     0.029 A 
ATOM     53  N   UNL A   1      41.373  30.768  34.492  1.00  0.00    -0.354 N 
ATOM     54  N   UNL A   1      41.625  29.193  32.029  1.00  0.00    -0.248 NA
ATOM     55  C   UNL A   1      42.689  27.531  30.781  1.00  0.00     0.031 C 
ATOM     56  C   UNL A   1      42.777  30.343  36.161  1.00  0.00     0.029 A 
ATOM     57  C   UNL A   1      42.427  29.955  34.878  1.00  0.00     0.049 A 
ATOM     58  H   UNL A   1      40.922  30.731  33.618  1.00  0.00     0.167 HD
ATOM     59  C   UNL A   1      42.621  28.613  32.801  1.00  0.00     0.074 A 
ATOM     60  C   UNL A   1      43.222  27.572  31.993  1.00  0.00     0.031 C 
ATOM     61  C   UNL A   1      43.007  28.917  34.065  1.00  0.00     0.037 A 
BRANCH  48  62
ATOM     62  C   UNL A   1      39.802  33.536  36.632  1.00  0.00     0.064 A 
ATOM     63  C   UNL A   1      40.496  34.750  36.753  1.00  0.00     0.173 A 
ATOM     64  C   UNL A   1      38.885  33.203  37.640  1.00  0.00     0.173 A 
ATOM     65  F   UNL A   1      41.392  35.110  35.821  1.00  0.00    -0.203 F 
ATOM     66  C   UNL A   1      40.301  35.581  37.852  1.00  0.00     0.198 A 
ATOM     67  C   UNL A   1      38.672  34.050  38.724  1.00  0.00     0.198 A 
ATOM     68  F   UNL A   1      38.191  32.057  37.571  1.00  0.00    -0.203 F 
ATOM     69  F   UNL A   1      41.011  36.712  37.970  1.00  0.00    -0.200 F 
ATOM     70  C   UNL A   1      39.385  35.234  38.834  1.00  0.00     0.200 A 
ATOM     71  F   UNL A   1      37.778  33.720  39.667  1.00  0.00    -0.200 F 
ATOM     72  F   UNL A   1      39.197  36.037  39.889  1.00  0.00    -0.200 F 
ENDBRANCH  48  62
BRANCH  49  73
ATOM     73  C   UNL A   1      40.954  27.922  28.458  1.00  0.00     0.064 A 
ATOM     74  C   UNL A   1      41.822  28.330  27.437  1.00  0.00     0.173 A 
ATOM     75  C   UNL A   1      40.272  26.708  28.291  1.00  0.00     0.173 A 
ATOM     76  F   UNL A   1      42.481  29.494  27.543  1.00  0.00    -0.203 F 
ATOM     77  C   UNL A   1      41.989  27.565  26.284  1.00  0.00     0.198 A 
ATOM     78  C   UNL A   1      40.459  25.930  27.150  1.00  0.00     0.198 A 
ATOM     79  F   UNL A   1      39.435  26.271  29.243  1.00  0.00    -0.203 F 
ATOM     80  F   UNL A   1      42.794  27.999  25.305  1.00  0.00    -0.200 F 
ATOM     81  C   UNL A   1      41.311  26.363  26.145  1.00  0.00     0.200 A 
ATOM     82  F   UNL A   1      39.814  24.763  27.024  1.00  0.00    -0.200 F 
ATOM     83  F   UNL A   1      41.475  25.625  25.039  1.00  0.00    -0.200 F 
ENDBRANCH  49  73
BRANCH  61  84
ATOM     84  C   UNL A   1      44.102  28.085  34.663  1.00  0.00     0.064 A 
ATOM     85  C   UNL A   1      45.450  28.460  34.560  1.00  0.00     0.173 A 
ATOM     86  C   UNL A   1      43.798  26.906  35.360  1.00  0.00     0.173 A 
ATOM     87  F   UNL A   1      45.792  29.570  33.890  1.00  0.00    -0.203 F 
ATOM     88  C   UNL A   1      46.456  27.666  35.107  1.00  0.00     0.198 A 
ATOM     89  C   UNL A   1      44.803  26.131  35.930  1.00  0.00     0.198 A 
ATOM     90  F   UNL A   1      42.524  26.508  35.492  1.00  0.00    -0.203 F 
ATOM     91  F   UNL A   1      47.740  28.016  34.951  1.00  0.00    -0.200 F 
ATOM     92  C   UNL A   1      46.132  26.507  35.794  1.00  0.00     0.200 A 
ATOM     93  F   UNL A   1      44.488  25.015  36.603  1.00  0.00    -0.200 F 
ATOM     94  F   UNL A   1      47.101  25.743  36.319  1.00  0.00    -0.200 F 
ENDBRANCH  61  84
ENDBRANCH  35  36
ENDBRANCH  27  30
ENDBRANCH  25  26
ENDBRANCH  24  25
ENDBRANCH  23  24
ENDBRANCH   3  23
TORSDOF 17
ENDMDL
