MODEL 1
REMARK VINA RESULT:     -12.7      0.000      0.000
REMARK SMILES Cn1ccnc1[C@@H]1[C@@H](C(=O)NCCCNC(=O)c2ccc(-c3c4nc(c(-c5c(F)c(F)c(F)c(F)c5F)c5ccc([nH]5)c(-c5c(F)c(F)c(F)c(F)c5F)c5nc(c(-c6c(F)c(F)c(F)c(F)c6F)c6ccc3[nH]6)C=C5)C=C4)cc2)CC(=O)N1CCCOC1CCCCC1
REMARK SMILES IDX 9 1 10 2 11 3 8 5 7 6 84 7 81 8 82 9 83 10 6 11 1 12 2 13
REMARK SMILES IDX 3 14 4 15 5 16 85 17 86 18 87 19 88 20 89 21 90 22 94 23
REMARK SMILES IDX 91 24 93 25 92 26 12 27 13 28 14 29 15 30 16 31 17 33 18 34
REMARK SMILES IDX 19 35 80 36 20 37 79 38 21 39 22 40 23 41 73 42 24 43 78 44
REMARK SMILES IDX 72 45 74 46 25 47 77 48 71 49 70 50 26 52 58 53 38 54 57 55
REMARK SMILES IDX 39 56 42 57 56 58 75 59 40 60 41 61 55 63 76 64 43 65 27 66
REMARK SMILES IDX 28 67 36 68 29 69 30 70 34 71 37 72 31 73 32 74 35 75 33 76
REMARK SMILES IDX 59 77 60 78 68 79 61 80 62 81 66 82 69 83 63 84 64 85 67 86
REMARK SMILES IDX 65 87 44 88 45 89 53 90 46 91 47 92 51 93 54 94 48 95 49 96
REMARK SMILES IDX 52 97 50 98
REMARK H PARENT 11 4 15 32 74 51 42 62
REMARK Flexibility Score: inf
ROOT
ATOM      1  C   UNL A   1      31.866  28.402  27.028  1.00  0.00     0.226 C 
ATOM      2  O   UNL A   1      31.578  27.678  27.981  1.00  0.00    -0.275 OA
ATOM      3  N   UNL A   1      31.585  29.723  27.117  1.00  0.00    -0.356 N 
ATOM      4  H   UNL A   1      31.183  30.000  27.972  1.00  0.00     0.163 HD
ENDROOT
BRANCH   1   5
ATOM      5  C   UNL A   1      32.492  27.815  25.794  1.00  0.00     0.118 C 
ATOM      6  C   UNL A   1      31.484  26.999  24.993  1.00  0.00     0.164 C 
ATOM      7  N   UNL A   1      32.188  25.790  24.583  1.00  0.00    -0.332 N 
ATOM      8  C   UNL A   1      33.670  26.908  26.083  1.00  0.00     0.116 C 
ATOM      9  C   UNL A   1      33.467  25.729  25.175  1.00  0.00     0.224 C 
ATOM     10  O   UNL A   1      34.255  24.810  25.088  1.00  0.00    -0.275 OA
BRANCH   6  11
ATOM     11  C   UNL A   1      30.702  27.828  24.007  1.00  0.00     0.132 A 
ATOM     12  C   UNL A   1      28.376  26.730  23.802  1.00  0.00     0.151 C 
ATOM     13  N   UNL A   1      29.421  27.679  23.507  1.00  0.00    -0.336 N 
ATOM     14  C   UNL A   1      29.238  28.637  22.533  1.00  0.00     0.107 A 
ATOM     15  C   UNL A   1      30.432  29.289  22.422  1.00  0.00     0.131 A 
ATOM     16  N   UNL A   1      31.328  28.768  23.306  1.00  0.00    -0.239 NA
ENDBRANCH   6  11
BRANCH   7  17
ATOM     17  C   UNL A   1      31.625  24.456  24.271  1.00  0.00     0.122 C 
BRANCH  17  18
ATOM     18  C   UNL A   1      31.231  23.365  25.276  1.00  0.00     0.050 C 
BRANCH  18  19
ATOM     19  C   UNL A   1      31.940  22.024  25.463  1.00  0.00     0.162 C 
BRANCH  19  20
ATOM     20  O   UNL A   1      32.541  21.411  24.318  1.00  0.00    -0.378 OA
BRANCH  20  21
ATOM     21  C   UNL A   1      32.557  19.978  24.351  1.00  0.00     0.118 C 
ATOM     22  C   UNL A   1      32.159  19.488  22.976  1.00  0.00     0.032 C 
ATOM     23  C   UNL A   1      33.939  19.445  24.723  1.00  0.00     0.032 C 
ATOM     24  C   UNL A   1      32.346  18.031  22.651  1.00  0.00     0.003 C 
ATOM     25  C   UNL A   1      34.007  17.928  24.525  1.00  0.00     0.003 C 
ATOM     26  C   UNL A   1      33.703  17.531  23.082  1.00  0.00     0.000 C 
ENDBRANCH  20  21
ENDBRANCH  19  20
ENDBRANCH  18  19
ENDBRANCH  17  18
ENDBRANCH   7  17
ENDBRANCH   1   5
BRANCH   3  27
ATOM     27  C   UNL A   1      31.775  30.804  26.161  1.00  0.00     0.117 C 
BRANCH  27  28
ATOM     28  C   UNL A   1      31.479  32.154  26.753  1.00  0.00     0.042 C 
BRANCH  28  29
ATOM     29  C   UNL A   1      32.725  32.836  27.263  1.00  0.00     0.118 C 
BRANCH  29  30
ATOM     30  N   UNL A   1      32.484  34.220  27.654  1.00  0.00    -0.352 N 
ATOM     31  C   UNL A   1      33.047  34.941  28.678  1.00  0.00     0.251 C 
ATOM     32  H   UNL A   1      31.825  34.706  27.107  1.00  0.00     0.163 HD
ATOM     33  O   UNL A   1      32.587  36.030  29.003  1.00  0.00    -0.269 OA
BRANCH  31  34
ATOM     34  C   UNL A   1      34.194  34.366  29.405  1.00  0.00     0.039 A 
ATOM     35  C   UNL A   1      33.965  33.543  30.507  1.00  0.00     0.014 A 
ATOM     36  C   UNL A   1      35.494  34.594  28.950  1.00  0.00     0.014 A 
ATOM     37  C   UNL A   1      35.042  32.889  31.104  1.00  0.00     0.010 A 
ATOM     38  C   UNL A   1      36.536  33.830  29.445  1.00  0.00     0.010 A 
ATOM     39  C   UNL A   1      36.328  32.992  30.549  1.00  0.00    -0.014 A 
BRANCH  39  40
ATOM     40  C   UNL A   1      37.488  32.276  31.130  1.00  0.00     0.031 A 
ATOM     41  C   UNL A   1      37.983  32.659  32.499  1.00  0.00     0.074 A 
ATOM     42  C   UNL A   1      38.129  31.337  30.409  1.00  0.00     0.049 A 
ATOM     43  N   UNL A   1      39.023  32.218  33.157  1.00  0.00    -0.248 NA
ATOM     44  C   UNL A   1      37.231  33.709  33.209  1.00  0.00     0.031 C 
ATOM     45  C   UNL A   1      37.779  30.924  29.049  1.00  0.00     0.029 A 
ATOM     46  N   UNL A   1      39.219  30.564  30.718  1.00  0.00    -0.354 N 
ATOM     47  C   UNL A   1      39.056  32.946  34.339  1.00  0.00     0.074 A 
ATOM     48  C   UNL A   1      37.983  33.910  34.278  1.00  0.00     0.031 C 
ATOM     49  C   UNL A   1      38.613  29.949  28.655  1.00  0.00     0.029 A 
ATOM     50  C   UNL A   1      39.585  29.700  29.715  1.00  0.00     0.049 A 
ATOM     51  H   UNL A   1      39.695  30.623  31.579  1.00  0.00     0.167 HD
ATOM     52  C   UNL A   1      39.885  32.798  35.398  1.00  0.00     0.037 A 
ATOM     53  C   UNL A   1      40.595  28.812  29.660  1.00  0.00     0.037 A 
ATOM     54  C   UNL A   1      40.928  31.811  35.467  1.00  0.00     0.049 A 
ATOM     55  C   UNL A   1      41.506  28.671  30.851  1.00  0.00     0.074 A 
ATOM     56  C   UNL A   1      41.784  31.535  36.517  1.00  0.00     0.029 A 
ATOM     57  N   UNL A   1      41.255  30.938  34.440  1.00  0.00    -0.354 N 
ATOM     58  N   UNL A   1      41.481  29.312  31.994  1.00  0.00    -0.248 NA
ATOM     59  C   UNL A   1      42.585  27.679  30.744  1.00  0.00     0.031 C 
ATOM     60  C   UNL A   1      42.665  30.530  36.105  1.00  0.00     0.029 A 
ATOM     61  C   UNL A   1      42.318  30.137  34.822  1.00  0.00     0.049 A 
ATOM     62  H   UNL A   1      40.799  30.895  33.568  1.00  0.00     0.167 HD
ATOM     63  C   UNL A   1      42.513  28.778  32.754  1.00  0.00     0.074 A 
ATOM     64  C   UNL A   1      43.136  27.750  31.947  1.00  0.00     0.031 C 
ATOM     65  C   UNL A   1      42.912  29.109  34.007  1.00  0.00     0.037 A 
BRANCH  52  66
ATOM     66  C   UNL A   1      39.687  33.715  36.570  1.00  0.00     0.064 A 
ATOM     67  C   UNL A   1      40.297  34.978  36.631  1.00  0.00     0.173 A 
ATOM     68  C   UNL A   1      38.851  33.341  37.633  1.00  0.00     0.173 A 
ATOM     69  F   UNL A   1      41.119  35.379  35.649  1.00  0.00    -0.203 F 
ATOM     70  C   UNL A   1      40.101  35.819  37.723  1.00  0.00     0.198 A 
ATOM     71  C   UNL A   1      38.629  34.198  38.707  1.00  0.00     0.198 A 
ATOM     72  F   UNL A   1      38.242  32.146  37.627  1.00  0.00    -0.203 F 
ATOM     73  F   UNL A   1      40.738  36.996  37.783  1.00  0.00    -0.200 F 
ATOM     74  C   UNL A   1      39.260  35.432  38.756  1.00  0.00     0.200 A 
ATOM     75  F   UNL A   1      37.806  33.829  39.698  1.00  0.00    -0.200 F 
ATOM     76  F   UNL A   1      39.063  36.246  39.801  1.00  0.00    -0.200 F 
ENDBRANCH  52  66
BRANCH  53  77
ATOM     77  C   UNL A   1      40.786  27.970  28.450  1.00  0.00     0.064 A 
ATOM     78  C   UNL A   1      41.565  28.419  27.373  1.00  0.00     0.173 A 
ATOM     79  C   UNL A   1      40.182  26.709  28.333  1.00  0.00     0.173 A 
ATOM     80  F   UNL A   1      42.149  29.625  27.429  1.00  0.00    -0.203 F 
ATOM     81  C   UNL A   1      41.707  27.656  26.217  1.00  0.00     0.198 A 
ATOM     82  C   UNL A   1      40.352  25.931  27.189  1.00  0.00     0.198 A 
ATOM     83  F   UNL A   1      39.433  26.227  29.336  1.00  0.00    -0.203 F 
ATOM     84  F   UNL A   1      42.409  28.135  25.182  1.00  0.00    -0.200 F 
ATOM     85  C   UNL A   1      41.104  26.409  26.127  1.00  0.00     0.200 A 
ATOM     86  F   UNL A   1      39.781  24.721  27.114  1.00  0.00    -0.200 F 
ATOM     87  F   UNL A   1      41.239  25.676  25.015  1.00  0.00    -0.200 F 
ENDBRANCH  53  77
BRANCH  65  88
ATOM     88  C   UNL A   1      44.046  28.324  34.601  1.00  0.00     0.064 A 
ATOM     89  C   UNL A   1      43.835  27.103  35.257  1.00  0.00     0.173 A 
ATOM     90  C   UNL A   1      45.367  28.780  34.468  1.00  0.00     0.173 A 
ATOM     91  F   UNL A   1      42.590  26.630  35.422  1.00  0.00    -0.203 F 
ATOM     92  C   UNL A   1      44.902  26.380  35.783  1.00  0.00     0.198 A 
ATOM     93  C   UNL A   1      46.434  28.037  34.963  1.00  0.00     0.198 A 
ATOM     94  F   UNL A   1      45.623  29.937  33.840  1.00  0.00    -0.203 F 
ATOM     95  F   UNL A   1      44.672  25.242  36.451  1.00  0.00    -0.200 F 
ATOM     96  C   UNL A   1      46.200  26.843  35.627  1.00  0.00     0.200 A 
ATOM     97  F   UNL A   1      47.689  28.477  34.795  1.00  0.00    -0.200 F 
ATOM     98  F   UNL A   1      47.228  26.140  36.124  1.00  0.00    -0.200 F 
ENDBRANCH  65  88
ENDBRANCH  39  40
ENDBRANCH  31  34
ENDBRANCH  29  30
ENDBRANCH  28  29
ENDBRANCH  27  28
ENDBRANCH   3  27
TORSDOF 16
ENDMDL
MODEL 2
REMARK VINA RESULT:     -12.7      5.352      9.844
REMARK SMILES Cn1ccnc1[C@@H]1[C@@H](C(=O)NCCCNC(=O)c2ccc(-c3c4nc(c(-c5c(F)c(F)c(F)c(F)c5F)c5ccc([nH]5)c(-c5c(F)c(F)c(F)c(F)c5F)c5nc(c(-c6c(F)c(F)c(F)c(F)c6F)c6ccc3[nH]6)C=C5)C=C4)cc2)CC(=O)N1CCCOC1CCCCC1
REMARK SMILES IDX 9 1 10 2 11 3 8 5 7 6 84 7 81 8 82 9 83 10 6 11 1 12 2 13
REMARK SMILES IDX 3 14 4 15 5 16 85 17 86 18 87 19 88 20 89 21 90 22 94 23
REMARK SMILES IDX 91 24 93 25 92 26 12 27 13 28 14 29 15 30 16 31 17 33 18 34
REMARK SMILES IDX 19 35 80 36 20 37 79 38 21 39 22 40 23 41 73 42 24 43 78 44
REMARK SMILES IDX 72 45 74 46 25 47 77 48 71 49 70 50 26 52 58 53 38 54 57 55
REMARK SMILES IDX 39 56 42 57 56 58 75 59 40 60 41 61 55 63 76 64 43 65 27 66
REMARK SMILES IDX 28 67 36 68 29 69 30 70 34 71 37 72 31 73 32 74 35 75 33 76
REMARK SMILES IDX 59 77 60 78 68 79 61 80 62 81 66 82 69 83 63 84 64 85 67 86
REMARK SMILES IDX 65 87 44 88 45 89 53 90 46 91 47 92 51 93 54 94 48 95 49 96
REMARK SMILES IDX 52 97 50 98
REMARK H PARENT 11 4 15 32 74 51 42 62
REMARK Flexibility Score: inf
ROOT
ATOM      1  C   UNL A   1      35.531  22.757  24.892  1.00  0.00     0.226 C 
ATOM      2  O   UNL A   1      35.582  23.839  24.306  1.00  0.00    -0.275 OA
ATOM      3  N   UNL A   1      36.582  21.912  24.772  1.00  0.00    -0.356 N 
ATOM      4  H   UNL A   1      37.326  22.258  24.229  1.00  0.00     0.163 HD
ENDROOT
BRANCH   1   5
ATOM      5  C   UNL A   1      34.316  22.390  25.697  1.00  0.00     0.118 C 
ATOM      6  C   UNL A   1      33.104  22.162  24.802  1.00  0.00     0.164 C 
ATOM      7  N   UNL A   1      31.986  22.816  25.472  1.00  0.00    -0.332 N 
ATOM      8  C   UNL A   1      33.924  23.436  26.720  1.00  0.00     0.116 C 
ATOM      9  C   UNL A   1      32.431  23.533  26.602  1.00  0.00     0.224 C 
ATOM     10  O   UNL A   1      31.750  24.241  27.316  1.00  0.00    -0.275 OA
BRANCH   6  11
ATOM     11  C   UNL A   1      32.999  20.746  24.296  1.00  0.00     0.132 A 
ATOM     12  C   UNL A   1      31.788  20.864  22.020  1.00  0.00     0.151 C 
ATOM     13  N   UNL A   1      32.423  20.230  23.149  1.00  0.00    -0.336 N 
ATOM     14  C   UNL A   1      32.488  18.855  23.231  1.00  0.00     0.107 A 
ATOM     15  C   UNL A   1      33.036  18.580  24.450  1.00  0.00     0.131 A 
ATOM     16  N   UNL A   1      33.317  19.740  25.105  1.00  0.00    -0.239 NA
ENDBRANCH   6  11
BRANCH   7  17
ATOM     17  C   UNL A   1      30.751  23.372  24.875  1.00  0.00     0.122 C 
BRANCH  17  18
ATOM     18  C   UNL A   1      30.649  24.247  23.618  1.00  0.00     0.050 C 
BRANCH  18  19
ATOM     19  C   UNL A   1      31.310  25.612  23.424  1.00  0.00     0.162 C 
BRANCH  19  20
ATOM     20  O   UNL A   1      32.620  25.813  23.963  1.00  0.00    -0.378 OA
BRANCH  20  21
ATOM     21  C   UNL A   1      32.782  27.038  24.689  1.00  0.00     0.118 C 
ATOM     22  C   UNL A   1      31.512  27.270  25.479  1.00  0.00     0.032 C 
ATOM     23  C   UNL A   1      33.985  26.974  25.628  1.00  0.00     0.032 C 
ATOM     24  C   UNL A   1      31.508  28.344  26.533  1.00  0.00     0.003 C 
ATOM     25  C   UNL A   1      34.009  28.187  26.564  1.00  0.00     0.003 C 
ATOM     26  C   UNL A   1      32.738  28.278  27.404  1.00  0.00     0.000 C 
ENDBRANCH  20  21
ENDBRANCH  19  20
ENDBRANCH  18  19
ENDBRANCH  17  18
ENDBRANCH   7  17
ENDBRANCH   1   5
BRANCH   3  27
ATOM     27  C   UNL A   1      36.796  20.576  25.310  1.00  0.00     0.117 C 
BRANCH  27  28
ATOM     28  C   UNL A   1      38.095  19.974  24.852  1.00  0.00     0.042 C 
BRANCH  28  29
ATOM     29  C   UNL A   1      39.234  20.302  25.788  1.00  0.00     0.118 C 
BRANCH  29  30
ATOM     30  N   UNL A   1      40.172  19.195  25.935  1.00  0.00    -0.352 N 
ATOM     31  C   UNL A   1      41.534  19.232  26.104  1.00  0.00     0.251 C 
ATOM     32  H   UNL A   1      39.772  18.295  25.909  1.00  0.00     0.163 HD
ATOM     33  O   UNL A   1      42.203  18.210  26.006  1.00  0.00    -0.269 OA
BRANCH  31  34
ATOM     34  C   UNL A   1      42.181  20.529  26.371  1.00  0.00     0.039 A 
ATOM     35  C   UNL A   1      42.613  21.313  25.302  1.00  0.00     0.014 A 
ATOM     36  C   UNL A   1      42.301  20.993  27.683  1.00  0.00     0.014 A 
ATOM     37  C   UNL A   1      43.096  22.597  25.551  1.00  0.00     0.010 A 
ATOM     38  C   UNL A   1      42.636  22.316  27.912  1.00  0.00     0.010 A 
ATOM     39  C   UNL A   1      43.067  23.124  26.852  1.00  0.00    -0.014 A 
BRANCH  39  40
ATOM     40  C   UNL A   1      43.531  24.501  27.147  1.00  0.00     0.031 A 
ATOM     41  C   UNL A   1      42.556  25.508  27.695  1.00  0.00     0.074 A 
ATOM     42  C   UNL A   1      44.797  24.860  26.861  1.00  0.00     0.049 A 
ATOM     43  N   UNL A   1      42.731  26.779  27.947  1.00  0.00    -0.248 NA
ATOM     44  C   UNL A   1      41.186  25.032  27.960  1.00  0.00     0.031 C 
ATOM     45  C   UNL A   1      45.814  23.988  26.271  1.00  0.00     0.029 A 
ATOM     46  N   UNL A   1      45.443  26.058  27.024  1.00  0.00    -0.354 N 
ATOM     47  C   UNL A   1      41.499  27.250  28.378  1.00  0.00     0.074 A 
ATOM     48  C   UNL A   1      40.563  26.154  28.282  1.00  0.00     0.031 C 
ATOM     49  C   UNL A   1      46.964  24.670  26.155  1.00  0.00     0.029 A 
ATOM     50  C   UNL A   1      46.754  26.038  26.619  1.00  0.00     0.049 A 
ATOM     51  H   UNL A   1      45.006  26.860  27.396  1.00  0.00     0.167 HD
ATOM     52  C   UNL A   1      41.182  28.478  28.849  1.00  0.00     0.037 A 
ATOM     53  C   UNL A   1      47.679  27.016  26.619  1.00  0.00     0.037 A 
ATOM     54  C   UNL A   1      42.127  29.554  28.978  1.00  0.00     0.049 A 
ATOM     55  C   UNL A   1      47.299  28.376  27.143  1.00  0.00     0.074 A 
ATOM     56  C   UNL A   1      41.927  30.819  29.500  1.00  0.00     0.029 A 
ATOM     57  N   UNL A   1      43.453  29.489  28.577  1.00  0.00    -0.354 N 
ATOM     58  N   UNL A   1      46.150  28.789  27.620  1.00  0.00    -0.248 NA
ATOM     59  C   UNL A   1      48.348  29.405  27.134  1.00  0.00     0.031 C 
ATOM     60  C   UNL A   1      43.119  31.537  29.367  1.00  0.00     0.029 A 
ATOM     61  C   UNL A   1      44.079  30.700  28.819  1.00  0.00     0.049 A 
ATOM     62  H   UNL A   1      43.886  28.698  28.180  1.00  0.00     0.167 HD
ATOM     63  C   UNL A   1      46.346  30.110  27.999  1.00  0.00     0.074 A 
ATOM     64  C   UNL A   1      47.730  30.425  27.710  1.00  0.00     0.031 C 
ATOM     65  C   UNL A   1      45.462  30.986  28.536  1.00  0.00     0.037 A 
BRANCH  52  66
ATOM     66  C   UNL A   1      39.761  28.717  29.272  1.00  0.00     0.064 A 
ATOM     67  C   UNL A   1      39.333  28.481  30.587  1.00  0.00     0.173 A 
ATOM     68  C   UNL A   1      38.823  29.220  28.358  1.00  0.00     0.173 A 
ATOM     69  F   UNL A   1      40.185  27.984  31.497  1.00  0.00    -0.203 F 
ATOM     70  C   UNL A   1      38.012  28.711  30.965  1.00  0.00     0.198 A 
ATOM     71  C   UNL A   1      37.513  29.483  28.748  1.00  0.00     0.198 A 
ATOM     72  F   UNL A   1      39.178  29.466  27.089  1.00  0.00    -0.203 F 
ATOM     73  F   UNL A   1      37.615  28.425  32.212  1.00  0.00    -0.200 F 
ATOM     74  C   UNL A   1      37.106  29.220  30.048  1.00  0.00     0.200 A 
ATOM     75  F   UNL A   1      36.641  29.988  27.865  1.00  0.00    -0.200 F 
ATOM     76  F   UNL A   1      35.838  29.452  30.414  1.00  0.00    -0.200 F 
ENDBRANCH  52  66
BRANCH  53  77
ATOM     77  C   UNL A   1      49.057  26.745  26.131  1.00  0.00     0.064 A 
ATOM     78  C   UNL A   1      49.430  27.053  24.815  1.00  0.00     0.173 A 
ATOM     79  C   UNL A   1      50.023  26.155  26.960  1.00  0.00     0.173 A 
ATOM     80  F   UNL A   1      48.537  27.601  23.978  1.00  0.00    -0.203 F 
ATOM     81  C   UNL A   1      50.705  26.755  24.338  1.00  0.00     0.198 A 
ATOM     82  C   UNL A   1      51.309  25.889  26.492  1.00  0.00     0.198 A 
ATOM     83  F   UNL A   1      49.722  25.848  28.230  1.00  0.00    -0.203 F 
ATOM     84  F   UNL A   1      51.015  27.008  23.060  1.00  0.00    -0.200 F 
ATOM     85  C   UNL A   1      51.645  26.177  25.178  1.00  0.00     0.200 A 
ATOM     86  F   UNL A   1      52.218  25.345  27.312  1.00  0.00    -0.200 F 
ATOM     87  F   UNL A   1      52.870  25.890  24.719  1.00  0.00    -0.200 F 
ENDBRANCH  53  77
BRANCH  65  88
ATOM     88  C   UNL A   1      45.972  32.354  28.889  1.00  0.00     0.064 A 
ATOM     89  C   UNL A   1      46.536  32.632  30.142  1.00  0.00     0.173 A 
ATOM     90  C   UNL A   1      45.937  33.387  27.940  1.00  0.00     0.173 A 
ATOM     91  F   UNL A   1      46.581  31.681  31.089  1.00  0.00    -0.203 F 
ATOM     92  C   UNL A   1      47.022  33.901  30.442  1.00  0.00     0.198 A 
ATOM     93  C   UNL A   1      46.457  34.645  28.230  1.00  0.00     0.198 A 
ATOM     94  F   UNL A   1      45.417  33.171  26.723  1.00  0.00    -0.203 F 
ATOM     95  F   UNL A   1      47.509  34.158  31.663  1.00  0.00    -0.200 F 
ATOM     96  C   UNL A   1      46.990  34.903  29.484  1.00  0.00     0.200 A 
ATOM     97  F   UNL A   1      46.441  35.606  27.296  1.00  0.00    -0.200 F 
ATOM     98  F   UNL A   1      47.468  36.122  29.770  1.00  0.00    -0.200 F 
ENDBRANCH  65  88
ENDBRANCH  39  40
ENDBRANCH  31  34
ENDBRANCH  29  30
ENDBRANCH  28  29
ENDBRANCH  27  28
ENDBRANCH   3  27
TORSDOF 16
ENDMDL
MODEL 3
REMARK VINA RESULT:     -12.7      5.203     10.946
REMARK SMILES Cn1ccnc1[C@@H]1[C@@H](C(=O)NCCCNC(=O)c2ccc(-c3c4nc(c(-c5c(F)c(F)c(F)c(F)c5F)c5ccc([nH]5)c(-c5c(F)c(F)c(F)c(F)c5F)c5nc(c(-c6c(F)c(F)c(F)c(F)c6F)c6ccc3[nH]6)C=C5)C=C4)cc2)CC(=O)N1CCCOC1CCCCC1
REMARK SMILES IDX 9 1 10 2 11 3 8 5 7 6 84 7 81 8 82 9 83 10 6 11 1 12 2 13
REMARK SMILES IDX 3 14 4 15 5 16 85 17 86 18 87 19 88 20 89 21 90 22 94 23
REMARK SMILES IDX 91 24 93 25 92 26 12 27 13 28 14 29 15 30 16 31 17 33 18 34
REMARK SMILES IDX 19 35 80 36 20 37 79 38 21 39 22 40 23 41 73 42 24 43 78 44
REMARK SMILES IDX 72 45 74 46 25 47 77 48 71 49 70 50 26 52 58 53 38 54 57 55
REMARK SMILES IDX 39 56 42 57 56 58 75 59 40 60 41 61 55 63 76 64 43 65 27 66
REMARK SMILES IDX 28 67 36 68 29 69 30 70 34 71 37 72 31 73 32 74 35 75 33 76
REMARK SMILES IDX 59 77 60 78 68 79 61 80 62 81 66 82 69 83 63 84 64 85 67 86
REMARK SMILES IDX 65 87 44 88 45 89 53 90 46 91 47 92 51 93 54 94 48 95 49 96
REMARK SMILES IDX 52 97 50 98
REMARK H PARENT 11 4 15 32 74 51 42 62
REMARK Flexibility Score: inf
ROOT
ATOM      1  C   UNL A   1      35.574  22.576  25.083  1.00  0.00     0.226 C 
ATOM      2  O   UNL A   1      35.642  23.733  24.666  1.00  0.00    -0.275 OA
ATOM      3  N   UNL A   1      36.596  21.732  24.806  1.00  0.00    -0.356 N 
ATOM      4  H   UNL A   1      37.336  22.137  24.299  1.00  0.00     0.163 HD
ENDROOT
BRANCH   1   5
ATOM      5  C   UNL A   1      34.370  22.122  25.859  1.00  0.00     0.118 C 
ATOM      6  C   UNL A   1      33.142  22.004  24.963  1.00  0.00     0.164 C 
ATOM      7  N   UNL A   1      32.039  22.580  25.723  1.00  0.00    -0.332 N 
ATOM      8  C   UNL A   1      33.999  23.043  27.003  1.00  0.00     0.116 C 
ATOM      9  C   UNL A   1      32.505  23.159  26.921  1.00  0.00     0.224 C 
ATOM     10  O   UNL A   1      31.840  23.783  27.724  1.00  0.00    -0.275 OA
BRANCH   6  11
ATOM     11  C   UNL A   1      33.022  20.657  24.298  1.00  0.00     0.132 A 
ATOM     12  C   UNL A   1      31.795  21.047  22.062  1.00  0.00     0.151 C 
ATOM     13  N   UNL A   1      32.432  20.281  23.105  1.00  0.00    -0.336 N 
ATOM     14  C   UNL A   1      32.486  18.906  23.026  1.00  0.00     0.107 A 
ATOM     15  C   UNL A   1      33.041  18.487  24.201  1.00  0.00     0.131 A 
ATOM     16  N   UNL A   1      33.337  19.562  24.983  1.00  0.00    -0.239 NA
ENDBRANCH   6  11
BRANCH   7  17
ATOM     17  C   UNL A   1      30.798  23.208  25.214  1.00  0.00     0.122 C 
BRANCH  17  18
ATOM     18  C   UNL A   1      30.680  24.212  24.061  1.00  0.00     0.050 C 
BRANCH  18  19
ATOM     19  C   UNL A   1      31.219  25.643  24.063  1.00  0.00     0.162 C 
BRANCH  19  20
ATOM     20  O   UNL A   1      32.563  25.859  24.505  1.00  0.00    -0.378 OA
BRANCH  20  21
ATOM     21  C   UNL A   1      32.672  26.496  25.784  1.00  0.00     0.118 C 
ATOM     22  C   UNL A   1      33.777  27.525  25.686  1.00  0.00     0.032 C 
ATOM     23  C   UNL A   1      31.360  27.165  26.187  1.00  0.00     0.032 C 
ATOM     24  C   UNL A   1      33.931  28.522  26.803  1.00  0.00     0.003 C 
ATOM     25  C   UNL A   1      31.555  28.037  27.432  1.00  0.00     0.003 C 
ATOM     26  C   UNL A   1      32.606  29.120  27.207  1.00  0.00     0.000 C 
ENDBRANCH  20  21
ENDBRANCH  19  20
ENDBRANCH  18  19
ENDBRANCH  17  18
ENDBRANCH   7  17
ENDBRANCH   1   5
BRANCH   3  27
ATOM     27  C   UNL A   1      36.783  20.325  25.130  1.00  0.00     0.117 C 
BRANCH  27  28
ATOM     28  C   UNL A   1      38.157  19.831  24.771  1.00  0.00     0.042 C 
BRANCH  28  29
ATOM     29  C   UNL A   1      39.180  20.186  25.824  1.00  0.00     0.118 C 
BRANCH  29  30
ATOM     30  N   UNL A   1      40.201  19.156  25.978  1.00  0.00    -0.352 N 
ATOM     31  C   UNL A   1      41.556  19.300  26.152  1.00  0.00     0.251 C 
ATOM     32  H   UNL A   1      39.873  18.228  25.956  1.00  0.00     0.163 HD
ATOM     33  O   UNL A   1      42.304  18.334  26.060  1.00  0.00    -0.269 OA
BRANCH  31  34
ATOM     34  C   UNL A   1      42.099  20.646  26.414  1.00  0.00     0.039 A 
ATOM     35  C   UNL A   1      42.377  21.494  25.344  1.00  0.00     0.014 A 
ATOM     36  C   UNL A   1      42.271  21.085  27.729  1.00  0.00     0.014 A 
ATOM     37  C   UNL A   1      42.757  22.811  25.599  1.00  0.00     0.010 A 
ATOM     38  C   UNL A   1      42.499  22.427  27.977  1.00  0.00     0.010 A 
ATOM     39  C   UNL A   1      42.775  23.299  26.916  1.00  0.00    -0.014 A 
BRANCH  39  40
ATOM     40  C   UNL A   1      43.130  24.705  27.221  1.00  0.00     0.031 A 
ATOM     41  C   UNL A   1      44.533  25.186  26.966  1.00  0.00     0.074 A 
ATOM     42  C   UNL A   1      42.219  25.522  27.784  1.00  0.00     0.049 A 
ATOM     43  N   UNL A   1      45.073  26.347  27.233  1.00  0.00    -0.248 NA
ATOM     44  C   UNL A   1      45.469  24.219  26.365  1.00  0.00     0.031 C 
ATOM     45  C   UNL A   1      40.847  25.151  28.134  1.00  0.00     0.029 A 
ATOM     46  N   UNL A   1      42.314  26.835  28.168  1.00  0.00    -0.354 N 
ATOM     47  C   UNL A   1      46.404  26.239  26.851  1.00  0.00     0.074 A 
ATOM     48  C   UNL A   1      46.613  24.881  26.407  1.00  0.00     0.031 C 
ATOM     49  C   UNL A   1      40.219  26.220  28.647  1.00  0.00     0.029 A 
ATOM     50  C   UNL A   1      41.155  27.338  28.705  1.00  0.00     0.049 A 
ATOM     51  H   UNL A   1      43.138  27.367  28.069  1.00  0.00     0.167 HD
ATOM     52  C   UNL A   1      47.358  27.198  26.837  1.00  0.00     0.037 A 
ATOM     53  C   UNL A   1      40.884  28.563  29.193  1.00  0.00     0.037 A 
ATOM     54  C   UNL A   1      47.133  28.557  27.246  1.00  0.00     0.049 A 
ATOM     55  C   UNL A   1      41.966  29.611  29.170  1.00  0.00     0.074 A 
ATOM     56  C   UNL A   1      48.012  29.624  27.213  1.00  0.00     0.029 A 
ATOM     57  N   UNL A   1      45.938  29.036  27.764  1.00  0.00    -0.354 N 
ATOM     58  N   UNL A   1      43.200  29.520  28.735  1.00  0.00    -0.248 NA
ATOM     59  C   UNL A   1      41.616  30.935  29.702  1.00  0.00     0.031 C 
ATOM     60  C   UNL A   1      47.366  30.736  27.761  1.00  0.00     0.029 A 
ATOM     61  C   UNL A   1      46.065  30.379  28.078  1.00  0.00     0.049 A 
ATOM     62  H   UNL A   1      45.121  28.500  27.889  1.00  0.00     0.167 HD
ATOM     63  C   UNL A   1      43.760  30.778  28.908  1.00  0.00     0.074 A 
ATOM     64  C   UNL A   1      42.726  31.620  29.473  1.00  0.00     0.031 C 
ATOM     65  C   UNL A   1      45.017  31.201  28.626  1.00  0.00     0.037 A 
BRANCH  52  66
ATOM     66  C   UNL A   1      48.725  26.812  26.351  1.00  0.00     0.064 A 
ATOM     67  C   UNL A   1      49.680  26.243  27.208  1.00  0.00     0.173 A 
ATOM     68  C   UNL A   1      49.076  26.984  25.004  1.00  0.00     0.173 A 
ATOM     69  F   UNL A   1      49.403  26.072  28.510  1.00  0.00    -0.203 F 
ATOM     70  C   UNL A   1      50.943  25.888  26.742  1.00  0.00     0.198 A 
ATOM     71  C   UNL A   1      50.327  26.596  24.533  1.00  0.00     0.198 A 
ATOM     72  F   UNL A   1      48.202  27.522  24.140  1.00  0.00    -0.203 F 
ATOM     73  F   UNL A   1      51.856  25.398  27.592  1.00  0.00    -0.200 F 
ATOM     74  C   UNL A   1      51.262  26.056  25.403  1.00  0.00     0.200 A 
ATOM     75  F   UNL A   1      50.629  26.745  23.236  1.00  0.00    -0.200 F 
ATOM     76  F   UNL A   1      52.473  25.703  24.952  1.00  0.00    -0.200 F 
ENDBRANCH  52  66
BRANCH  53  77
ATOM     77  C   UNL A   1      39.530  28.877  29.721  1.00  0.00     0.064 A 
ATOM     78  C   UNL A   1      39.204  28.631  31.062  1.00  0.00     0.173 A 
ATOM     79  C   UNL A   1      38.529  29.410  28.895  1.00  0.00     0.173 A 
ATOM     80  F   UNL A   1      40.121  28.105  31.888  1.00  0.00    -0.203 F 
ATOM     81  C   UNL A   1      37.922  28.876  31.550  1.00  0.00     0.198 A 
ATOM     82  C   UNL A   1      37.257  29.687  29.392  1.00  0.00     0.198 A 
ATOM     83  F   UNL A   1      38.790  29.672  27.606  1.00  0.00    -0.203 F 
ATOM     84  F   UNL A   1      37.622  28.578  32.820  1.00  0.00    -0.200 F 
ATOM     85  C   UNL A   1      36.950  29.409  30.715  1.00  0.00     0.200 A 
ATOM     86  F   UNL A   1      36.326  30.215  28.586  1.00  0.00    -0.200 F 
ATOM     87  F   UNL A   1      35.718  29.643  31.184  1.00  0.00    -0.200 F 
ENDBRANCH  53  77
BRANCH  65  88
ATOM     88  C   UNL A   1      45.333  32.647  28.881  1.00  0.00     0.064 A 
ATOM     89  C   UNL A   1      45.901  33.076  30.089  1.00  0.00     0.173 A 
ATOM     90  C   UNL A   1      45.105  33.607  27.883  1.00  0.00     0.173 A 
ATOM     91  F   UNL A   1      46.127  32.200  31.080  1.00  0.00    -0.203 F 
ATOM     92  C   UNL A   1      46.206  34.418  30.297  1.00  0.00     0.198 A 
ATOM     93  C   UNL A   1      45.444  34.941  28.082  1.00  0.00     0.198 A 
ATOM     94  F   UNL A   1      44.572  33.245  26.706  1.00  0.00    -0.203 F 
ATOM     95  F   UNL A   1      46.700  34.815  31.478  1.00  0.00    -0.200 F 
ATOM     96  C   UNL A   1      45.985  35.347  29.292  1.00  0.00     0.200 A 
ATOM     97  F   UNL A   1      45.247  35.834  27.101  1.00  0.00    -0.200 F 
ATOM     98  F   UNL A   1      46.289  36.638  29.490  1.00  0.00    -0.200 F 
ENDBRANCH  65  88
ENDBRANCH  39  40
ENDBRANCH  31  34
ENDBRANCH  29  30
ENDBRANCH  28  29
ENDBRANCH  27  28
ENDBRANCH   3  27
TORSDOF 16
ENDMDL
