MODEL 1
REMARK VINA RESULT:     -13.8      0.000      0.000
REMARK SMILES Cc1ccccc1/C=C1\SC(=S)N(CCC(=O)N[C@@H](C)C(=O)NCCCNC(=O)c2ccc(-c3c4nc(c(-c5c(F)c(F)c(F)c(F)c5F)c5ccc([nH]5)c(-c5c(F)c(F)c(F)c(F)c5F)c5nc(c(-c6c(F)c(F)c(F)c(F)c6F)c6ccc3[nH]6)C=C5)C=C4)cc2)C1=O
REMARK SMILES IDX 21 1 22 2 23 3 19 5 20 6 18 7 16 8 17 9 15 11 14 12 13 13
REMARK SMILES IDX 8 14 9 15 10 16 93 17 11 18 94 19 12 20 7 21 1 22 2 23 3 24
REMARK SMILES IDX 4 25 6 26 5 27 24 28 25 29 26 30 27 31 28 32 29 34 30 35
REMARK SMILES IDX 31 36 92 37 32 38 91 39 33 40 34 41 35 42 85 43 36 44 90 45
REMARK SMILES IDX 84 46 86 47 37 48 89 49 83 50 82 51 38 53 70 54 50 55 69 56
REMARK SMILES IDX 51 57 54 58 68 59 87 60 52 61 53 62 67 64 88 65 55 66 39 67
REMARK SMILES IDX 40 68 48 69 41 70 42 71 46 72 49 73 43 74 44 75 47 76 45 77
REMARK SMILES IDX 71 78 72 79 80 80 73 81 74 82 78 83 81 84 75 85 76 86 79 87
REMARK SMILES IDX 77 88 56 89 57 90 65 91 58 92 59 93 63 94 66 95 60 96 61 97
REMARK SMILES IDX 64 98 62 99
REMARK H PARENT 23 4 18 10 27 33 86 52 54 63
REMARK Flexibility Score: inf
ROOT
ATOM      1  C   UNL A   1      31.115  27.386  25.683  1.00  0.00     0.242 C 
ATOM      2  O   UNL A   1      30.693  26.536  26.478  1.00  0.00    -0.273 OA
ATOM      3  N   UNL A   1      31.600  28.531  26.245  1.00  0.00    -0.354 N 
ATOM      4  H   UNL A   1      31.725  28.465  27.219  1.00  0.00     0.163 HD
ENDROOT
BRANCH   1   5
ATOM      5  C   UNL A   1      31.056  27.104  24.156  1.00  0.00     0.168 C 
ATOM      6  C   UNL A   1      29.746  27.400  23.475  1.00  0.00     0.041 C 
BRANCH   5   7
ATOM      7  N   UNL A   1      31.412  25.735  23.783  1.00  0.00    -0.345 N 
ATOM      8  C   UNL A   1      32.685  25.290  23.531  1.00  0.00     0.222 C 
ATOM      9  O   UNL A   1      32.848  24.395  22.703  1.00  0.00    -0.275 OA
ATOM     10  H   UNL A   1      30.679  25.083  23.705  1.00  0.00     0.164 HD
BRANCH   8  11
ATOM     11  C   UNL A   1      33.854  25.860  24.325  1.00  0.00     0.122 C 
BRANCH  11  12
ATOM     12  C   UNL A   1      34.072  25.307  25.748  1.00  0.00     0.137 C 
BRANCH  12  13
ATOM     13  N   UNL A   1      34.224  23.835  25.823  1.00  0.00    -0.292 N 
ATOM     14  C   UNL A   1      32.420  20.804  25.369  1.00  0.00     0.029 C 
ATOM     15  C   UNL A   1      33.411  21.630  25.732  1.00  0.00     0.081 C 
ATOM     16  S   UNL A   1      35.102  21.413  25.584  1.00  0.00    -0.054 SA
ATOM     17  C   UNL A   1      33.119  23.043  26.102  1.00  0.00     0.266 C 
ATOM     18  C   UNL A   1      35.417  23.146  25.718  1.00  0.00     0.148 C 
ATOM     19  O   UNL A   1      32.026  23.427  26.498  1.00  0.00    -0.268 OA
ATOM     20  S   UNL A   1      36.966  23.762  25.689  1.00  0.00    -0.052 S 
BRANCH  14  21
ATOM     21  C   UNL A   1      32.546  19.486  24.727  1.00  0.00    -0.021 A 
ATOM     22  C   UNL A   1      32.106  20.492  22.439  1.00  0.00     0.045 C 
ATOM     23  C   UNL A   1      32.461  19.338  23.334  1.00  0.00    -0.044 A 
ATOM     24  C   UNL A   1      32.664  18.067  22.767  1.00  0.00     0.004 A 
ATOM     25  C   UNL A   1      32.984  16.967  23.563  1.00  0.00     0.000 A 
ATOM     26  C   UNL A   1      32.844  18.363  25.518  1.00  0.00     0.008 A 
ATOM     27  C   UNL A   1      33.076  17.113  24.941  1.00  0.00     0.001 A 
ENDBRANCH  14  21
ENDBRANCH  12  13
ENDBRANCH  11  12
ENDBRANCH   8  11
ENDBRANCH   5   7
ENDBRANCH   1   5
BRANCH   3  28
ATOM     28  C   UNL A   1      31.973  29.835  25.701  1.00  0.00     0.117 C 
BRANCH  28  29
ATOM     29  C   UNL A   1      32.324  30.830  26.809  1.00  0.00     0.042 C 
BRANCH  29  30
ATOM     30  C   UNL A   1      33.496  30.341  27.632  1.00  0.00     0.118 C 
BRANCH  30  31
ATOM     31  N   UNL A   1      34.171  31.389  28.388  1.00  0.00    -0.352 N 
ATOM     32  C   UNL A   1      35.379  31.349  29.070  1.00  0.00     0.251 C 
ATOM     33  H   UNL A   1      33.701  32.253  28.417  1.00  0.00     0.163 HD
ATOM     34  O   UNL A   1      35.749  32.297  29.728  1.00  0.00    -0.269 OA
BRANCH  32  35
ATOM     35  C   UNL A   1      36.277  30.185  28.856  1.00  0.00     0.039 A 
ATOM     36  C   UNL A   1      36.656  29.446  29.982  1.00  0.00     0.014 A 
ATOM     37  C   UNL A   1      36.940  30.021  27.646  1.00  0.00     0.014 A 
ATOM     38  C   UNL A   1      37.865  28.759  29.963  1.00  0.00     0.010 A 
ATOM     39  C   UNL A   1      38.202  29.469  27.670  1.00  0.00     0.010 A 
ATOM     40  C   UNL A   1      38.689  28.892  28.849  1.00  0.00    -0.014 A 
BRANCH  40  41
ATOM     41  C   UNL A   1      40.098  28.519  28.841  1.00  0.00     0.031 A 
ATOM     42  C   UNL A   1      40.481  27.149  28.442  1.00  0.00     0.074 A 
ATOM     43  C   UNL A   1      41.038  29.457  29.097  1.00  0.00     0.049 A 
ATOM     44  N   UNL A   1      41.600  26.584  28.738  1.00  0.00    -0.248 NA
ATOM     45  C   UNL A   1      39.579  26.277  27.701  1.00  0.00     0.031 C 
ATOM     46  C   UNL A   1      42.476  29.355  28.866  1.00  0.00     0.029 A 
ATOM     47  N   UNL A   1      40.884  30.658  29.812  1.00  0.00    -0.354 N 
ATOM     48  C   UNL A   1      41.680  25.402  28.034  1.00  0.00     0.074 A 
ATOM     49  C   UNL A   1      40.374  25.235  27.446  1.00  0.00     0.031 C 
ATOM     50  C   UNL A   1      43.105  30.243  29.654  1.00  0.00     0.029 A 
ATOM     51  C   UNL A   1      42.099  30.831  30.520  1.00  0.00     0.049 A 
ATOM     52  H   UNL A   1      40.099  31.252  29.821  1.00  0.00     0.167 HD
ATOM     53  C   UNL A   1      42.886  24.768  27.938  1.00  0.00     0.037 A 
ATOM     54  C   UNL A   1      42.134  30.807  31.884  1.00  0.00     0.037 A 
ATOM     55  C   UNL A   1      43.885  25.437  28.771  1.00  0.00     0.049 A 
ATOM     56  C   UNL A   1      43.000  29.706  32.454  1.00  0.00     0.074 A 
ATOM     57  C   UNL A   1      44.863  26.376  28.489  1.00  0.00     0.029 A 
ATOM     58  N   UNL A   1      43.740  25.421  30.155  1.00  0.00    -0.354 N 
ATOM     59  N   UNL A   1      43.395  28.666  31.774  1.00  0.00    -0.248 NA
ATOM     60  C   UNL A   1      43.443  29.666  33.846  1.00  0.00     0.031 C 
ATOM     61  C   UNL A   1      45.252  26.984  29.710  1.00  0.00     0.029 A 
ATOM     62  C   UNL A   1      44.533  26.394  30.735  1.00  0.00     0.049 A 
ATOM     63  H   UNL A   1      43.156  24.805  30.650  1.00  0.00     0.167 HD
ATOM     64  C   UNL A   1      44.073  27.813  32.602  1.00  0.00     0.074 A 
ATOM     65  C   UNL A   1      44.103  28.495  33.882  1.00  0.00     0.031 C 
ATOM     66  C   UNL A   1      44.526  26.598  32.175  1.00  0.00     0.037 A 
BRANCH  53  67
ATOM     67  C   UNL A   1      43.231  23.739  26.879  1.00  0.00     0.064 A 
ATOM     68  C   UNL A   1      42.829  22.392  27.028  1.00  0.00     0.173 A 
ATOM     69  C   UNL A   1      44.017  23.982  25.737  1.00  0.00     0.173 A 
ATOM     70  F   UNL A   1      41.976  22.019  27.991  1.00  0.00    -0.203 F 
ATOM     71  C   UNL A   1      43.288  21.369  26.190  1.00  0.00     0.198 A 
ATOM     72  C   UNL A   1      44.523  22.954  24.932  1.00  0.00     0.198 A 
ATOM     73  F   UNL A   1      44.264  25.225  25.309  1.00  0.00    -0.203 F 
ATOM     74  F   UNL A   1      42.875  20.109  26.393  1.00  0.00    -0.200 F 
ATOM     75  C   UNL A   1      44.169  21.645  25.168  1.00  0.00     0.200 A 
ATOM     76  F   UNL A   1      45.352  23.252  23.920  1.00  0.00    -0.200 F 
ATOM     77  F   UNL A   1      44.647  20.661  24.393  1.00  0.00    -0.200 F 
ENDBRANCH  53  67
BRANCH  54  78
ATOM     78  C   UNL A   1      40.884  31.313  32.510  1.00  0.00     0.064 A 
ATOM     79  C   UNL A   1      40.640  32.700  32.487  1.00  0.00     0.173 A 
ATOM     80  C   UNL A   1      39.797  30.469  32.766  1.00  0.00     0.173 A 
ATOM     81  F   UNL A   1      41.645  33.554  32.241  1.00  0.00    -0.203 F 
ATOM     82  C   UNL A   1      39.348  33.210  32.590  1.00  0.00     0.198 A 
ATOM     83  C   UNL A   1      38.505  30.987  32.883  1.00  0.00     0.198 A 
ATOM     84  F   UNL A   1      39.959  29.138  32.779  1.00  0.00    -0.203 F 
ATOM     85  F   UNL A   1      39.136  34.526  32.441  1.00  0.00    -0.200 F 
ATOM     86  C   UNL A   1      38.277  32.350  32.759  1.00  0.00     0.200 A 
ATOM     87  F   UNL A   1      37.463  30.151  33.015  1.00  0.00    -0.200 F 
ATOM     88  F   UNL A   1      37.025  32.827  32.758  1.00  0.00    -0.200 F 
ENDBRANCH  54  78
BRANCH  66  89
ATOM     89  C   UNL A   1      45.060  25.510  33.068  1.00  0.00     0.064 A 
ATOM     90  C   UNL A   1      46.425  25.209  33.193  1.00  0.00     0.173 A 
ATOM     91  C   UNL A   1      44.195  24.838  33.963  1.00  0.00     0.173 A 
ATOM     92  F   UNL A   1      47.349  25.860  32.472  1.00  0.00    -0.203 F 
ATOM     93  C   UNL A   1      46.889  24.264  34.110  1.00  0.00     0.198 A 
ATOM     94  C   UNL A   1      44.667  23.936  34.914  1.00  0.00     0.198 A 
ATOM     95  F   UNL A   1      42.872  25.058  33.952  1.00  0.00    -0.203 F 
ATOM     96  F   UNL A   1      48.199  23.984  34.170  1.00  0.00    -0.200 F 
ATOM     97  C   UNL A   1      46.014  23.639  34.980  1.00  0.00     0.200 A 
ATOM     98  F   UNL A   1      43.814  23.376  35.783  1.00  0.00    -0.200 F 
ATOM     99  F   UNL A   1      46.469  22.769  35.891  1.00  0.00    -0.200 F 
ENDBRANCH  66  89
ENDBRANCH  40  41
ENDBRANCH  32  35
ENDBRANCH  30  31
ENDBRANCH  29  30
ENDBRANCH  28  29
ENDBRANCH   3  28
TORSDOF 15
ENDMDL
MODEL 2
REMARK VINA RESULT:     -13.6      1.701      2.940
REMARK SMILES Cc1ccccc1/C=C1\SC(=S)N(CCC(=O)N[C@@H](C)C(=O)NCCCNC(=O)c2ccc(-c3c4nc(c(-c5c(F)c(F)c(F)c(F)c5F)c5ccc([nH]5)c(-c5c(F)c(F)c(F)c(F)c5F)c5nc(c(-c6c(F)c(F)c(F)c(F)c6F)c6ccc3[nH]6)C=C5)C=C4)cc2)C1=O
REMARK SMILES IDX 21 1 22 2 23 3 19 5 20 6 18 7 16 8 17 9 15 11 14 12 13 13
REMARK SMILES IDX 8 14 9 15 10 16 93 17 11 18 94 19 12 20 7 21 1 22 2 23 3 24
REMARK SMILES IDX 4 25 6 26 5 27 24 28 25 29 26 30 27 31 28 32 29 34 30 35
REMARK SMILES IDX 31 36 92 37 32 38 91 39 33 40 34 41 35 42 85 43 36 44 90 45
REMARK SMILES IDX 84 46 86 47 37 48 89 49 83 50 82 51 38 53 70 54 50 55 69 56
REMARK SMILES IDX 51 57 54 58 68 59 87 60 52 61 53 62 67 64 88 65 55 66 39 67
REMARK SMILES IDX 40 68 48 69 41 70 42 71 46 72 49 73 43 74 44 75 47 76 45 77
REMARK SMILES IDX 71 78 72 79 80 80 73 81 74 82 78 83 81 84 75 85 76 86 79 87
REMARK SMILES IDX 77 88 56 89 57 90 65 91 58 92 59 93 63 94 66 95 60 96 61 97
REMARK SMILES IDX 64 98 62 99
REMARK H PARENT 23 4 18 10 27 33 86 52 54 63
REMARK Flexibility Score: inf
ROOT
ATOM      1  C   UNL A   1      31.660  27.288  26.368  1.00  0.00     0.242 C 
ATOM      2  O   UNL A   1      30.726  26.752  26.977  1.00  0.00    -0.273 OA
ATOM      3  N   UNL A   1      31.809  28.628  26.575  1.00  0.00    -0.354 N 
ATOM      4  H   UNL A   1      31.269  28.969  27.325  1.00  0.00     0.163 HD
ENDROOT
BRANCH   1   5
ATOM      5  C   UNL A   1      32.561  26.430  25.436  1.00  0.00     0.168 C 
ATOM      6  C   UNL A   1      34.033  26.426  25.754  1.00  0.00     0.041 C 
BRANCH   5   7
ATOM      7  N   UNL A   1      32.449  26.763  24.017  1.00  0.00    -0.345 N 
ATOM      8  C   UNL A   1      31.777  26.018  23.080  1.00  0.00     0.222 C 
ATOM      9  O   UNL A   1      32.193  26.004  21.922  1.00  0.00    -0.275 OA
ATOM     10  H   UNL A   1      32.891  27.587  23.709  1.00  0.00     0.164 HD
BRANCH   8  11
ATOM     11  C   UNL A   1      30.501  25.284  23.474  1.00  0.00     0.122 C 
BRANCH  11  12
ATOM     12  C   UNL A   1      30.530  23.743  23.412  1.00  0.00     0.137 C 
BRANCH  12  13
ATOM     13  N   UNL A   1      31.636  23.114  24.172  1.00  0.00    -0.292 N 
ATOM     14  C   UNL A   1      35.127  22.456  24.012  1.00  0.00     0.029 C 
ATOM     15  C   UNL A   1      33.859  22.397  24.442  1.00  0.00     0.081 C 
ATOM     16  S   UNL A   1      33.266  22.393  26.047  1.00  0.00    -0.054 SA
ATOM     17  C   UNL A   1      32.729  22.596  23.492  1.00  0.00     0.266 C 
ATOM     18  C   UNL A   1      31.655  22.910  25.538  1.00  0.00     0.148 C 
ATOM     19  O   UNL A   1      32.819  22.412  22.286  1.00  0.00    -0.268 OA
ATOM     20  S   UNL A   1      30.413  23.116  26.631  1.00  0.00    -0.052 S 
BRANCH  14  21
ATOM     21  C   UNL A   1      36.345  22.550  24.832  1.00  0.00    -0.021 A 
ATOM     22  C   UNL A   1      36.670  20.034  24.745  1.00  0.00     0.045 C 
ATOM     23  C   UNL A   1      37.117  21.416  25.132  1.00  0.00    -0.044 A 
ATOM     24  C   UNL A   1      38.312  21.574  25.856  1.00  0.00     0.004 A 
ATOM     25  C   UNL A   1      38.756  22.838  26.244  1.00  0.00     0.000 A 
ATOM     26  C   UNL A   1      36.793  23.814  25.252  1.00  0.00     0.008 A 
ATOM     27  C   UNL A   1      37.999  23.961  25.942  1.00  0.00     0.001 A 
ENDBRANCH  14  21
ENDBRANCH  12  13
ENDBRANCH  11  12
ENDBRANCH   8  11
ENDBRANCH   5   7
ENDBRANCH   1   5
BRANCH   3  28
ATOM     28  C   UNL A   1      32.602  29.664  25.916  1.00  0.00     0.117 C 
BRANCH  28  29
ATOM     29  C   UNL A   1      33.140  30.688  26.917  1.00  0.00     0.042 C 
BRANCH  29  30
ATOM     30  C   UNL A   1      34.336  30.141  27.668  1.00  0.00     0.118 C 
BRANCH  30  31
ATOM     31  N   UNL A   1      34.928  31.083  28.609  1.00  0.00    -0.352 N 
ATOM     32  C   UNL A   1      36.057  30.946  29.404  1.00  0.00     0.251 C 
ATOM     33  H   UNL A   1      34.459  31.944  28.691  1.00  0.00     0.163 HD
ATOM     34  O   UNL A   1      36.357  31.805  30.206  1.00  0.00    -0.269 OA
BRANCH  32  35
ATOM     35  C   UNL A   1      36.971  29.803  29.149  1.00  0.00     0.039 A 
ATOM     36  C   UNL A   1      37.240  28.940  30.217  1.00  0.00     0.014 A 
ATOM     37  C   UNL A   1      37.747  29.766  27.997  1.00  0.00     0.014 A 
ATOM     38  C   UNL A   1      38.445  28.246  30.237  1.00  0.00     0.010 A 
ATOM     39  C   UNL A   1      39.001  29.201  28.080  1.00  0.00     0.010 A 
ATOM     40  C   UNL A   1      39.372  28.492  29.229  1.00  0.00    -0.014 A 
BRANCH  40  41
ATOM     41  C   UNL A   1      40.775  28.107  29.313  1.00  0.00     0.031 A 
ATOM     42  C   UNL A   1      41.199  26.796  28.780  1.00  0.00     0.074 A 
ATOM     43  C   UNL A   1      41.683  28.992  29.783  1.00  0.00     0.049 A 
ATOM     44  N   UNL A   1      42.282  26.184  29.110  1.00  0.00    -0.248 NA
ATOM     45  C   UNL A   1      40.377  26.038  27.845  1.00  0.00     0.031 C 
ATOM     46  C   UNL A   1      43.137  28.904  29.686  1.00  0.00     0.029 A 
ATOM     47  N   UNL A   1      41.456  30.092  30.630  1.00  0.00    -0.354 N 
ATOM     48  C   UNL A   1      42.435  25.102  28.270  1.00  0.00     0.074 A 
ATOM     49  C   UNL A   1      41.195  25.029  27.536  1.00  0.00     0.031 C 
ATOM     50  C   UNL A   1      43.682  29.674  30.643  1.00  0.00     0.029 A 
ATOM     51  C   UNL A   1      42.592  30.157  31.473  1.00  0.00     0.049 A 
ATOM     52  H   UNL A   1      40.673  30.689  30.637  1.00  0.00     0.167 HD
ATOM     53  C   UNL A   1      43.645  24.472  28.214  1.00  0.00     0.037 A 
ATOM     54  C   UNL A   1      42.490  29.954  32.818  1.00  0.00     0.037 A 
ATOM     55  C   UNL A   1      44.554  25.015  29.223  1.00  0.00     0.049 A 
ATOM     56  C   UNL A   1      43.295  28.779  33.324  1.00  0.00     0.074 A 
ATOM     57  C   UNL A   1      45.555  25.971  29.166  1.00  0.00     0.029 A 
ATOM     58  N   UNL A   1      44.270  24.821  30.571  1.00  0.00    -0.354 N 
ATOM     59  N   UNL A   1      43.758  27.831  32.557  1.00  0.00    -0.248 NA
ATOM     60  C   UNL A   1      43.595  28.553  34.736  1.00  0.00     0.031 C 
ATOM     61  C   UNL A   1      45.817  26.410  30.488  1.00  0.00     0.029 A 
ATOM     62  C   UNL A   1      44.999  25.701  31.351  1.00  0.00     0.049 A 
ATOM     63  H   UNL A   1      43.639  24.153  30.921  1.00  0.00     0.167 HD
ATOM     64  C   UNL A   1      44.350  26.870  33.330  1.00  0.00     0.074 A 
ATOM     65  C   UNL A   1      44.249  27.379  34.685  1.00  0.00     0.031 C 
ATOM     66  C   UNL A   1      44.846  25.716  32.797  1.00  0.00     0.037 A 
BRANCH  53  67
ATOM     67  C   UNL A   1      44.098  23.585  27.069  1.00  0.00     0.064 A 
ATOM     68  C   UNL A   1      45.040  24.056  26.126  1.00  0.00     0.173 A 
ATOM     69  C   UNL A   1      43.594  22.301  26.789  1.00  0.00     0.173 A 
ATOM     70  F   UNL A   1      45.705  25.203  26.314  1.00  0.00    -0.203 F 
ATOM     71  C   UNL A   1      45.340  23.363  24.947  1.00  0.00     0.198 A 
ATOM     72  C   UNL A   1      43.849  21.634  25.585  1.00  0.00     0.198 A 
ATOM     73  F   UNL A   1      42.900  21.609  27.697  1.00  0.00    -0.203 F 
ATOM     74  F   UNL A   1      46.237  23.870  24.089  1.00  0.00    -0.200 F 
ATOM     75  C   UNL A   1      44.711  22.172  24.657  1.00  0.00     0.200 A 
ATOM     76  F   UNL A   1      43.252  20.458  25.340  1.00  0.00    -0.200 F 
ATOM     77  F   UNL A   1      44.961  21.530  23.507  1.00  0.00    -0.200 F 
ENDBRANCH  53  67
BRANCH  54  78
ATOM     78  C   UNL A   1      41.181  30.389  33.377  1.00  0.00     0.064 A 
ATOM     79  C   UNL A   1      40.932  31.771  33.493  1.00  0.00     0.173 A 
ATOM     80  C   UNL A   1      40.080  29.528  33.425  1.00  0.00     0.173 A 
ATOM     81  F   UNL A   1      41.951  32.643  33.447  1.00  0.00    -0.203 F 
ATOM     82  C   UNL A   1      39.633  32.272  33.531  1.00  0.00     0.198 A 
ATOM     83  C   UNL A   1      38.780  30.034  33.478  1.00  0.00     0.198 A 
ATOM     84  F   UNL A   1      40.249  28.203  33.297  1.00  0.00    -0.203 F 
ATOM     85  F   UNL A   1      39.428  33.597  33.518  1.00  0.00    -0.200 F 
ATOM     86  C   UNL A   1      38.557  31.403  33.494  1.00  0.00     0.200 A 
ATOM     87  F   UNL A   1      37.736  29.194  33.409  1.00  0.00    -0.200 F 
ATOM     88  F   UNL A   1      37.307  31.884  33.428  1.00  0.00    -0.200 F 
ENDBRANCH  54  78
BRANCH  66  89
ATOM     89  C   UNL A   1      45.288  24.515  33.588  1.00  0.00     0.064 A 
ATOM     90  C   UNL A   1      44.489  23.378  33.784  1.00  0.00     0.173 A 
ATOM     91  C   UNL A   1      46.624  24.415  34.042  1.00  0.00     0.173 A 
ATOM     92  F   UNL A   1      43.239  23.316  33.304  1.00  0.00    -0.203 F 
ATOM     93  C   UNL A   1      44.974  22.241  34.435  1.00  0.00     0.198 A 
ATOM     94  C   UNL A   1      47.121  23.259  34.640  1.00  0.00     0.198 A 
ATOM     95  F   UNL A   1      47.489  25.430  33.891  1.00  0.00    -0.203 F 
ATOM     96  F   UNL A   1      44.162  21.191  34.630  1.00  0.00    -0.200 F 
ATOM     97  C   UNL A   1      46.291  22.175  34.849  1.00  0.00     0.200 A 
ATOM     98  F   UNL A   1      48.413  23.192  34.991  1.00  0.00    -0.200 F 
ATOM     99  F   UNL A   1      46.766  21.065  35.428  1.00  0.00    -0.200 F 
ENDBRANCH  66  89
ENDBRANCH  40  41
ENDBRANCH  32  35
ENDBRANCH  30  31
ENDBRANCH  29  30
ENDBRANCH  28  29
ENDBRANCH   3  28
TORSDOF 15
ENDMDL
MODEL 3
REMARK VINA RESULT:     -13.5      1.840      2.891
REMARK SMILES Cc1ccccc1/C=C1\SC(=S)N(CCC(=O)N[C@@H](C)C(=O)NCCCNC(=O)c2ccc(-c3c4nc(c(-c5c(F)c(F)c(F)c(F)c5F)c5ccc([nH]5)c(-c5c(F)c(F)c(F)c(F)c5F)c5nc(c(-c6c(F)c(F)c(F)c(F)c6F)c6ccc3[nH]6)C=C5)C=C4)cc2)C1=O
REMARK SMILES IDX 21 1 22 2 23 3 19 5 20 6 18 7 16 8 17 9 15 11 14 12 13 13
REMARK SMILES IDX 8 14 9 15 10 16 93 17 11 18 94 19 12 20 7 21 1 22 2 23 3 24
REMARK SMILES IDX 4 25 6 26 5 27 24 28 25 29 26 30 27 31 28 32 29 34 30 35
REMARK SMILES IDX 31 36 92 37 32 38 91 39 33 40 34 41 35 42 85 43 36 44 90 45
REMARK SMILES IDX 84 46 86 47 37 48 89 49 83 50 82 51 38 53 70 54 50 55 69 56
REMARK SMILES IDX 51 57 54 58 68 59 87 60 52 61 53 62 67 64 88 65 55 66 39 67
REMARK SMILES IDX 40 68 48 69 41 70 42 71 46 72 49 73 43 74 44 75 47 76 45 77
REMARK SMILES IDX 71 78 72 79 80 80 73 81 74 82 78 83 81 84 75 85 76 86 79 87
REMARK SMILES IDX 77 88 56 89 57 90 65 91 58 92 59 93 63 94 66 95 60 96 61 97
REMARK SMILES IDX 64 98 62 99
REMARK H PARENT 23 4 18 10 27 33 86 52 54 63
REMARK Flexibility Score: inf
ROOT
ATOM      1  C   UNL A   1      32.886  28.910  23.688  1.00  0.00     0.242 C 
ATOM      2  O   UNL A   1      33.888  28.654  23.009  1.00  0.00    -0.273 OA
ATOM      3  N   UNL A   1      33.097  29.702  24.779  1.00  0.00    -0.354 N 
ATOM      4  H   UNL A   1      33.987  30.122  24.789  1.00  0.00     0.163 HD
ENDROOT
BRANCH   1   5
ATOM      5  C   UNL A   1      31.507  28.327  23.270  1.00  0.00     0.168 C 
ATOM      6  C   UNL A   1      30.487  29.319  22.778  1.00  0.00     0.041 C 
BRANCH   5   7
ATOM      7  N   UNL A   1      30.846  27.540  24.310  1.00  0.00    -0.345 N 
ATOM      8  C   UNL A   1      30.333  26.278  24.141  1.00  0.00     0.222 C 
ATOM      9  O   UNL A   1      29.342  25.948  24.793  1.00  0.00    -0.275 OA
ATOM     10  H   UNL A   1      30.762  27.948  25.202  1.00  0.00     0.164 HD
BRANCH   8  11
ATOM     11  C   UNL A   1      31.033  25.297  23.209  1.00  0.00     0.122 C 
BRANCH  11  12
ATOM     12  C   UNL A   1      30.832  23.794  23.493  1.00  0.00     0.137 C 
BRANCH  12  13
ATOM     13  N   UNL A   1      31.936  23.154  24.245  1.00  0.00    -0.292 N 
ATOM     14  C   UNL A   1      35.446  22.590  24.137  1.00  0.00     0.029 C 
ATOM     15  C   UNL A   1      34.170  22.477  24.532  1.00  0.00     0.081 C 
ATOM     16  S   UNL A   1      33.541  22.376  26.120  1.00  0.00    -0.054 SA
ATOM     17  C   UNL A   1      33.058  22.698  23.566  1.00  0.00     0.266 C 
ATOM     18  C   UNL A   1      31.929  22.880  25.599  1.00  0.00     0.148 C 
ATOM     19  O   UNL A   1      33.180  22.580  22.355  1.00  0.00    -0.268 OA
ATOM     20  S   UNL A   1      30.657  22.999  26.671  1.00  0.00    -0.052 S 
BRANCH  14  21
ATOM     21  C   UNL A   1      36.642  22.670  24.990  1.00  0.00    -0.021 A 
ATOM     22  C   UNL A   1      37.154  20.214  24.608  1.00  0.00     0.045 C 
ATOM     23  C   UNL A   1      37.491  21.567  25.168  1.00  0.00    -0.044 A 
ATOM     24  C   UNL A   1      38.661  21.720  25.933  1.00  0.00     0.004 A 
ATOM     25  C   UNL A   1      39.005  22.957  26.481  1.00  0.00     0.000 A 
ATOM     26  C   UNL A   1      36.989  23.903  25.569  1.00  0.00     0.008 A 
ATOM     27  C   UNL A   1      38.170  24.051  26.299  1.00  0.00     0.001 A 
ENDBRANCH  14  21
ENDBRANCH  12  13
ENDBRANCH  11  12
ENDBRANCH   8  11
ENDBRANCH   5   7
ENDBRANCH   1   5
BRANCH   3  28
ATOM     28  C   UNL A   1      32.277  30.055  25.936  1.00  0.00     0.117 C 
BRANCH  28  29
ATOM     29  C   UNL A   1      33.017  29.802  27.252  1.00  0.00     0.042 C 
BRANCH  29  30
ATOM     30  C   UNL A   1      34.417  30.377  27.210  1.00  0.00     0.118 C 
BRANCH  30  31
ATOM     31  N   UNL A   1      34.777  31.151  28.391  1.00  0.00    -0.352 N 
ATOM     32  C   UNL A   1      35.758  30.909  29.342  1.00  0.00     0.251 C 
ATOM     33  H   UNL A   1      34.246  31.968  28.535  1.00  0.00     0.163 HD
ATOM     34  O   UNL A   1      35.859  31.618  30.321  1.00  0.00    -0.269 OA
BRANCH  32  35
ATOM     35  C   UNL A   1      36.773  29.862  29.063  1.00  0.00     0.039 A 
ATOM     36  C   UNL A   1      37.056  28.947  30.084  1.00  0.00     0.014 A 
ATOM     37  C   UNL A   1      37.609  29.968  27.958  1.00  0.00     0.014 A 
ATOM     38  C   UNL A   1      38.310  28.349  30.126  1.00  0.00     0.010 A 
ATOM     39  C   UNL A   1      38.899  29.497  28.074  1.00  0.00     0.010 A 
ATOM     40  C   UNL A   1      39.266  28.738  29.191  1.00  0.00    -0.014 A 
BRANCH  40  41
ATOM     41  C   UNL A   1      40.689  28.458  29.330  1.00  0.00     0.031 A 
ATOM     42  C   UNL A   1      41.245  27.227  28.732  1.00  0.00     0.074 A 
ATOM     43  C   UNL A   1      41.496  29.373  29.913  1.00  0.00     0.049 A 
ATOM     44  N   UNL A   1      42.357  26.678  29.081  1.00  0.00    -0.248 NA
ATOM     45  C   UNL A   1      40.539  26.479  27.699  1.00  0.00     0.031 C 
ATOM     46  C   UNL A   1      42.956  29.405  29.895  1.00  0.00     0.029 A 
ATOM     47  N   UNL A   1      41.136  30.385  30.820  1.00  0.00    -0.354 N 
ATOM     48  C   UNL A   1      42.640  25.677  28.177  1.00  0.00     0.074 A 
ATOM     49  C   UNL A   1      41.451  25.563  27.369  1.00  0.00     0.031 C 
ATOM     50  C   UNL A   1      43.385  30.142  30.933  1.00  0.00     0.029 A 
ATOM     51  C   UNL A   1      42.217  30.475  31.730  1.00  0.00     0.049 A 
ATOM     52  H   UNL A   1      40.308  30.918  30.824  1.00  0.00     0.167 HD
ATOM     53  C   UNL A   1      43.899  25.148  28.147  1.00  0.00     0.037 A 
ATOM     54  C   UNL A   1      42.062  30.166  33.050  1.00  0.00     0.037 A 
ATOM     55  C   UNL A   1      44.707  25.683  29.244  1.00  0.00     0.049 A 
ATOM     56  C   UNL A   1      42.933  29.022  33.518  1.00  0.00     0.074 A 
ATOM     57  C   UNL A   1      45.628  26.716  29.312  1.00  0.00     0.029 A 
ATOM     58  N   UNL A   1      44.370  25.368  30.556  1.00  0.00    -0.354 N 
ATOM     59  N   UNL A   1      43.510  28.173  32.714  1.00  0.00    -0.248 NA
ATOM     60  C   UNL A   1      43.175  28.715  34.926  1.00  0.00     0.031 C 
ATOM     61  C   UNL A   1      45.784  27.074  30.675  1.00  0.00     0.029 A 
ATOM     62  C   UNL A   1      44.982  26.241  31.436  1.00  0.00     0.049 A 
ATOM     63  H   UNL A   1      43.778  24.629  30.820  1.00  0.00     0.167 HD
ATOM     64  C   UNL A   1      44.137  27.205  33.452  1.00  0.00     0.074 A 
ATOM     65  C   UNL A   1      43.925  27.603  34.830  1.00  0.00     0.031 C 
ATOM     66  C   UNL A   1      44.753  26.136  32.868  1.00  0.00     0.037 A 
BRANCH  53  67
ATOM     67  C   UNL A   1      44.482  24.387  26.971  1.00  0.00     0.064 A 
ATOM     68  C   UNL A   1      44.113  23.044  26.732  1.00  0.00     0.173 A 
ATOM     69  C   UNL A   1      45.461  24.881  26.090  1.00  0.00     0.173 A 
ATOM     70  F   UNL A   1      43.107  22.465  27.400  1.00  0.00    -0.203 F 
ATOM     71  C   UNL A   1      44.763  22.237  25.791  1.00  0.00     0.198 A 
ATOM     72  C   UNL A   1      46.152  24.062  25.189  1.00  0.00     0.198 A 
ATOM     73  F   UNL A   1      45.737  26.187  26.010  1.00  0.00    -0.203 F 
ATOM     74  F   UNL A   1      44.370  20.967  25.620  1.00  0.00    -0.200 F 
ATOM     75  C   UNL A   1      45.813  22.735  25.050  1.00  0.00     0.200 A 
ATOM     76  F   UNL A   1      47.147  24.579  24.452  1.00  0.00    -0.200 F 
ATOM     77  F   UNL A   1      46.468  21.952  24.182  1.00  0.00    -0.200 F 
ENDBRANCH  53  67
BRANCH  54  78
ATOM     78  C   UNL A   1      40.695  30.456  33.561  1.00  0.00     0.064 A 
ATOM     79  C   UNL A   1      40.340  31.799  33.794  1.00  0.00     0.173 A 
ATOM     80  C   UNL A   1      39.657  29.523  33.452  1.00  0.00     0.173 A 
ATOM     81  F   UNL A   1      41.296  32.736  33.901  1.00  0.00    -0.203 F 
ATOM     82  C   UNL A   1      39.009  32.208  33.795  1.00  0.00     0.198 A 
ATOM     83  C   UNL A   1      38.323  29.935  33.467  1.00  0.00     0.198 A 
ATOM     84  F   UNL A   1      39.928  28.233  33.207  1.00  0.00    -0.203 F 
ATOM     85  F   UNL A   1      38.711  33.511  33.897  1.00  0.00    -0.200 F 
ATOM     86  C   UNL A   1      38.001  31.278  33.602  1.00  0.00     0.200 A 
ATOM     87  F   UNL A   1      37.347  29.040  33.249  1.00  0.00    -0.200 F 
ATOM     88  F   UNL A   1      36.727  31.681  33.501  1.00  0.00    -0.200 F 
ENDBRANCH  54  78
BRANCH  66  89
ATOM     89  C   UNL A   1      45.250  24.917  33.598  1.00  0.00     0.064 A 
ATOM     90  C   UNL A   1      44.440  23.813  33.904  1.00  0.00     0.173 A 
ATOM     91  C   UNL A   1      46.630  24.764  33.868  1.00  0.00     0.173 A 
ATOM     92  F   UNL A   1      43.135  23.801  33.596  1.00  0.00    -0.203 F 
ATOM     93  C   UNL A   1      44.962  22.656  34.488  1.00  0.00     0.198 A 
ATOM     94  C   UNL A   1      47.156  23.588  34.399  1.00  0.00     0.198 A 
ATOM     95  F   UNL A   1      47.505  25.744  33.599  1.00  0.00    -0.203 F 
ATOM     96  F   UNL A   1      44.143  21.640  34.794  1.00  0.00    -0.200 F 
ATOM     97  C   UNL A   1      46.320  22.538  34.721  1.00  0.00     0.200 A 
ATOM     98  F   UNL A   1      48.480  23.470  34.573  1.00  0.00    -0.200 F 
ATOM     99  F   UNL A   1      46.824  21.409  35.236  1.00  0.00    -0.200 F 
ENDBRANCH  66  89
ENDBRANCH  40  41
ENDBRANCH  32  35
ENDBRANCH  30  31
ENDBRANCH  29  30
ENDBRANCH  28  29
ENDBRANCH   3  28
TORSDOF 15
ENDMDL
