MODEL 1
REMARK VINA RESULT:     -13.8      0.000      0.000
REMARK SMILES CCc1nc(-c2cccnc2)nc(Oc2ccc(C(=O)NCCCNC(=O)c3ccc(-c4c5nc(c(-c6c(F)c(F)c(F)c(F)c6F)c6ccc([nH]6)c(-c6c(F)c(F)c(F)c(F)c6F)c6nc(c(-c7c(F)c(F)c(F)c(F)c7F)c7ccc4[nH]7)C=C6)C=C5)cc3)cc2)c1C
REMARK SMILES IDX 22 1 21 2 19 3 20 4 18 6 15 7 16 8 92 9 17 10 91 11 14 12
REMARK SMILES IDX 13 13 3 14 4 15 93 16 5 17 94 18 12 19 2 20 1 21 6 22 7 23
REMARK SMILES IDX 11 24 8 25 10 26 9 27 23 28 24 29 25 30 26 31 27 33 28 34
REMARK SMILES IDX 29 35 90 36 30 37 89 38 31 39 32 40 33 41 83 42 34 43 88 44
REMARK SMILES IDX 82 45 84 46 35 47 87 48 81 49 80 50 36 52 68 53 48 54 67 55
REMARK SMILES IDX 49 56 52 57 66 58 85 59 50 60 51 61 65 63 86 64 53 65 37 66
REMARK SMILES IDX 38 67 46 68 39 69 40 70 44 71 47 72 41 73 42 74 45 75 43 76
REMARK SMILES IDX 69 77 70 78 78 79 71 80 72 81 76 82 79 83 73 84 74 85 77 86
REMARK SMILES IDX 75 87 54 88 55 89 63 90 56 91 57 92 61 93 64 94 58 95 59 96
REMARK SMILES IDX 62 97 60 98
REMARK H PARENT 21 5 25 32 84 51 52 62
REMARK Flexibility Score: inf
ROOT
ATOM      1  C   UNL A   1      32.676  27.930  22.835  1.00  0.00     0.118 C 
ENDROOT
BRANCH   1   2
ATOM      2  N   UNL A   1      31.255  28.216  22.937  1.00  0.00    -0.352 N 
ATOM      3  C   UNL A   1      30.197  27.473  23.396  1.00  0.00     0.251 C 
ATOM      4  O   UNL A   1      29.081  27.989  23.388  1.00  0.00    -0.269 OA
ATOM      5  H   UNL A   1      31.004  29.112  22.617  1.00  0.00     0.163 HD
BRANCH   3   6
ATOM      6  C   UNL A   1      30.371  26.123  23.990  1.00  0.00     0.040 A 
ATOM      7  C   UNL A   1      31.074  23.750  25.261  1.00  0.00     0.129 A 
ATOM      8  C   UNL A   1      30.711  24.856  26.028  1.00  0.00     0.048 A 
ATOM      9  C   UNL A   1      30.903  23.760  23.878  1.00  0.00     0.048 A 
ATOM     10  C   UNL A   1      30.379  26.050  25.391  1.00  0.00     0.017 A 
ATOM     11  C   UNL A   1      30.544  24.952  23.243  1.00  0.00     0.017 A 
BRANCH   7  12
ATOM     12  O   UNL A   1      31.578  22.662  25.908  1.00  0.00    -0.439 OA
BRANCH  12  13
ATOM     13  C   UNL A   1      32.784  22.107  25.535  1.00  0.00     0.226 A 
ATOM     14  C   UNL A   1      35.080  21.878  25.026  1.00  0.00     0.051 A 
ATOM     15  N   UNL A   1      34.925  20.546  24.882  1.00  0.00    -0.233 NA
ATOM     16  C   UNL A   1      34.036  22.725  25.419  1.00  0.00     0.033 A 
ATOM     17  C   UNL A   1      33.694  20.051  25.045  1.00  0.00     0.165 A 
ATOM     18  C   UNL A   1      34.315  24.184  25.621  1.00  0.00     0.052 C 
ATOM     19  N   UNL A   1      32.613  20.783  25.334  1.00  0.00    -0.193 NA
BRANCH  14  20
ATOM     20  C   UNL A   1      36.468  22.374  24.685  1.00  0.00     0.053 C 
ATOM     21  C   UNL A   1      36.644  22.740  23.219  1.00  0.00     0.011 C 
ENDBRANCH  14  20
BRANCH  17  22
ATOM     22  C   UNL A   1      33.519  18.616  24.871  1.00  0.00     0.038 A 
ATOM     23  C   UNL A   1      34.137  17.904  23.835  1.00  0.00     0.015 A 
ATOM     24  C   UNL A   1      32.728  17.874  25.747  1.00  0.00     0.123 A 
ATOM     25  C   UNL A   1      33.955  16.526  23.724  1.00  0.00     0.021 A 
ATOM     26  N   UNL A   1      32.517  16.537  25.658  1.00  0.00    -0.264 NA
ATOM     27  C   UNL A   1      33.139  15.895  24.648  1.00  0.00     0.111 A 
ENDBRANCH  17  22
ENDBRANCH  12  13
ENDBRANCH   7  12
ENDBRANCH   3   6
ENDBRANCH   1   2
BRANCH   1  28
ATOM     28  C   UNL A   1      33.501  29.047  23.469  1.00  0.00     0.042 C 
BRANCH  28  29
ATOM     29  C   UNL A   1      33.480  29.020  24.994  1.00  0.00     0.118 C 
BRANCH  29  30
ATOM     30  N   UNL A   1      32.844  30.201  25.557  1.00  0.00    -0.352 N 
ATOM     31  C   UNL A   1      33.153  30.908  26.693  1.00  0.00     0.251 C 
ATOM     32  H   UNL A   1      32.075  30.545  25.047  1.00  0.00     0.163 HD
ATOM     33  O   UNL A   1      32.370  31.751  27.117  1.00  0.00    -0.269 OA
BRANCH  31  34
ATOM     34  C   UNL A   1      34.418  30.648  27.416  1.00  0.00     0.039 A 
ATOM     35  C   UNL A   1      35.295  31.713  27.644  1.00  0.00     0.014 A 
ATOM     36  C   UNL A   1      34.759  29.361  27.837  1.00  0.00     0.014 A 
ATOM     37  C   UNL A   1      36.485  31.497  28.345  1.00  0.00     0.010 A 
ATOM     38  C   UNL A   1      35.907  29.161  28.600  1.00  0.00     0.010 A 
ATOM     39  C   UNL A   1      36.785  30.224  28.856  1.00  0.00    -0.014 A 
BRANCH  39  40
ATOM     40  C   UNL A   1      38.017  29.976  29.648  1.00  0.00     0.031 A 
ATOM     41  C   UNL A   1      39.075  29.046  29.119  1.00  0.00     0.074 A 
ATOM     42  C   UNL A   1      38.149  30.523  30.871  1.00  0.00     0.049 A 
ATOM     43  N   UNL A   1      40.164  28.612  29.702  1.00  0.00    -0.248 NA
ATOM     44  C   UNL A   1      38.866  28.513  27.763  1.00  0.00     0.031 C 
ATOM     45  C   UNL A   1      37.178  31.413  31.508  1.00  0.00     0.029 A 
ATOM     46  N   UNL A   1      39.146  30.397  31.806  1.00  0.00    -0.354 N 
ATOM     47  C   UNL A   1      40.755  27.741  28.795  1.00  0.00     0.074 A 
ATOM     48  C   UNL A   1      39.881  27.670  27.645  1.00  0.00     0.031 C 
ATOM     49  C   UNL A   1      37.632  31.763  32.722  1.00  0.00     0.029 A 
ATOM     50  C   UNL A   1      38.903  31.089  32.968  1.00  0.00     0.049 A 
ATOM     51  H   UNL A   1      39.959  29.861  31.659  1.00  0.00     0.167 HD
ATOM     52  C   UNL A   1      41.932  27.078  28.904  1.00  0.00     0.037 A 
ATOM     53  C   UNL A   1      39.617  31.158  34.108  1.00  0.00     0.037 A 
ATOM     54  C   UNL A   1      42.809  27.172  30.041  1.00  0.00     0.049 A 
ATOM     55  C   UNL A   1      40.913  30.398  34.209  1.00  0.00     0.074 A 
ATOM     56  C   UNL A   1      44.048  26.583  30.226  1.00  0.00     0.029 A 
ATOM     57  N   UNL A   1      42.538  27.901  31.189  1.00  0.00    -0.354 N 
ATOM     58  N   UNL A   1      41.492  29.625  33.323  1.00  0.00    -0.248 NA
ATOM     59  C   UNL A   1      41.657  30.525  35.470  1.00  0.00     0.031 C 
ATOM     60  C   UNL A   1      44.503  26.915  31.506  1.00  0.00     0.029 A 
ATOM     61  C   UNL A   1      43.577  27.759  32.096  1.00  0.00     0.049 A 
ATOM     62  H   UNL A   1      41.728  28.440  31.339  1.00  0.00     0.167 HD
ATOM     63  C   UNL A   1      42.682  29.205  33.901  1.00  0.00     0.074 A 
ATOM     64  C   UNL A   1      42.746  29.815  35.213  1.00  0.00     0.031 C 
ATOM     65  C   UNL A   1      43.635  28.387  33.391  1.00  0.00     0.037 A 
BRANCH  52  66
ATOM     66  C   UNL A   1      42.338  26.189  27.763  1.00  0.00     0.064 A 
ATOM     67  C   UNL A   1      43.248  26.616  26.784  1.00  0.00     0.173 A 
ATOM     68  C   UNL A   1      41.840  24.881  27.667  1.00  0.00     0.173 A 
ATOM     69  F   UNL A   1      43.748  27.860  26.822  1.00  0.00    -0.203 F 
ATOM     70  C   UNL A   1      43.619  25.778  25.734  1.00  0.00     0.198 A 
ATOM     71  C   UNL A   1      42.238  24.034  26.636  1.00  0.00     0.198 A 
ATOM     72  F   UNL A   1      40.972  24.418  28.580  1.00  0.00    -0.203 F 
ATOM     73  F   UNL A   1      44.448  26.226  24.782  1.00  0.00    -0.200 F 
ATOM     74  C   UNL A   1      43.119  24.486  25.665  1.00  0.00     0.200 A 
ATOM     75  F   UNL A   1      41.766  22.781  26.578  1.00  0.00    -0.200 F 
ATOM     76  F   UNL A   1      43.483  23.679  24.659  1.00  0.00    -0.200 F 
ENDBRANCH  52  66
BRANCH  53  77
ATOM     77  C   UNL A   1      39.132  31.992  35.239  1.00  0.00     0.064 A 
ATOM     78  C   UNL A   1      39.418  33.363  35.296  1.00  0.00     0.173 A 
ATOM     79  C   UNL A   1      38.382  31.439  36.287  1.00  0.00     0.173 A 
ATOM     80  F   UNL A   1      40.149  33.935  34.329  1.00  0.00    -0.203 F 
ATOM     81  C   UNL A   1      38.993  34.144  36.369  1.00  0.00     0.198 A 
ATOM     82  C   UNL A   1      37.929  32.227  37.343  1.00  0.00     0.198 A 
ATOM     83  F   UNL A   1      38.074  30.133  36.278  1.00  0.00    -0.203 F 
ATOM     84  F   UNL A   1      39.322  35.441  36.422  1.00  0.00    -0.200 F 
ATOM     85  C   UNL A   1      38.243  33.576  37.388  1.00  0.00     0.200 A 
ATOM     86  F   UNL A   1      37.191  31.678  38.318  1.00  0.00    -0.200 F 
ATOM     87  F   UNL A   1      37.831  34.329  38.418  1.00  0.00    -0.200 F 
ENDBRANCH  53  77
BRANCH  65  88
ATOM     88  C   UNL A   1      44.859  28.144  34.227  1.00  0.00     0.064 A 
ATOM     89  C   UNL A   1      44.948  27.060  35.111  1.00  0.00     0.173 A 
ATOM     90  C   UNL A   1      45.978  28.983  34.099  1.00  0.00     0.173 A 
ATOM     91  F   UNL A   1      43.901  26.238  35.279  1.00  0.00    -0.203 F 
ATOM     92  C   UNL A   1      46.105  26.835  35.853  1.00  0.00     0.198 A 
ATOM     93  C   UNL A   1      47.144  28.737  34.819  1.00  0.00     0.198 A 
ATOM     94  F   UNL A   1      45.946  30.031  33.262  1.00  0.00    -0.203 F 
ATOM     95  F   UNL A   1      46.152  25.819  36.725  1.00  0.00    -0.200 F 
ATOM     96  C   UNL A   1      47.204  27.668  35.700  1.00  0.00     0.200 A 
ATOM     97  F   UNL A   1      48.210  29.532  34.657  1.00  0.00    -0.200 F 
ATOM     98  F   UNL A   1      48.321  27.443  36.406  1.00  0.00    -0.200 F 
ENDBRANCH  65  88
ENDBRANCH  39  40
ENDBRANCH  31  34
ENDBRANCH  29  30
ENDBRANCH  28  29
ENDBRANCH   1  28
TORSDOF 14
ENDMDL
MODEL 2
REMARK VINA RESULT:     -13.3      3.661      9.394
REMARK SMILES CCc1nc(-c2cccnc2)nc(Oc2ccc(C(=O)NCCCNC(=O)c3ccc(-c4c5nc(c(-c6c(F)c(F)c(F)c(F)c6F)c6ccc([nH]6)c(-c6c(F)c(F)c(F)c(F)c6F)c6nc(c(-c7c(F)c(F)c(F)c(F)c7F)c7ccc4[nH]7)C=C6)C=C5)cc3)cc2)c1C
REMARK SMILES IDX 22 1 21 2 19 3 20 4 18 6 15 7 16 8 92 9 17 10 91 11 14 12
REMARK SMILES IDX 13 13 3 14 4 15 93 16 5 17 94 18 12 19 2 20 1 21 6 22 7 23
REMARK SMILES IDX 11 24 8 25 10 26 9 27 23 28 24 29 25 30 26 31 27 33 28 34
REMARK SMILES IDX 29 35 90 36 30 37 89 38 31 39 32 40 33 41 83 42 34 43 88 44
REMARK SMILES IDX 82 45 84 46 35 47 87 48 81 49 80 50 36 52 68 53 48 54 67 55
REMARK SMILES IDX 49 56 52 57 66 58 85 59 50 60 51 61 65 63 86 64 53 65 37 66
REMARK SMILES IDX 38 67 46 68 39 69 40 70 44 71 47 72 41 73 42 74 45 75 43 76
REMARK SMILES IDX 69 77 70 78 78 79 71 80 72 81 76 82 79 83 73 84 74 85 77 86
REMARK SMILES IDX 75 87 54 88 55 89 63 90 56 91 57 92 61 93 64 94 58 95 59 96
REMARK SMILES IDX 62 97 60 98
REMARK H PARENT 21 5 25 32 84 51 52 62
REMARK Flexibility Score: inf
ROOT
ATOM      1  C   UNL A   1      33.977  34.475  27.792  1.00  0.00     0.118 C 
ENDROOT
BRANCH   1   2
ATOM      2  N   UNL A   1      35.296  33.877  27.915  1.00  0.00    -0.352 N 
ATOM      3  C   UNL A   1      35.714  32.571  27.957  1.00  0.00     0.251 C 
ATOM      4  O   UNL A   1      36.921  32.351  28.043  1.00  0.00    -0.269 OA
ATOM      5  H   UNL A   1      36.028  34.532  27.979  1.00  0.00     0.163 HD
BRANCH   3   6
ATOM      6  C   UNL A   1      34.776  31.430  27.802  1.00  0.00     0.040 A 
ATOM      7  C   UNL A   1      33.240  29.206  27.141  1.00  0.00     0.129 A 
ATOM      8  C   UNL A   1      34.561  29.029  27.550  1.00  0.00     0.048 A 
ATOM      9  C   UNL A   1      32.627  30.453  27.244  1.00  0.00     0.048 A 
ATOM     10  C   UNL A   1      35.335  30.145  27.862  1.00  0.00     0.017 A 
ATOM     11  C   UNL A   1      33.400  31.567  27.582  1.00  0.00     0.017 A 
BRANCH   7  12
ATOM     12  O   UNL A   1      32.570  28.122  26.659  1.00  0.00    -0.439 OA
BRANCH  12  13
ATOM     13  C   UNL A   1      32.411  27.926  25.304  1.00  0.00     0.226 A 
ATOM     14  C   UNL A   1      32.653  27.037  23.128  1.00  0.00     0.051 A 
ATOM     15  N   UNL A   1      31.665  27.838  22.681  1.00  0.00    -0.233 NA
ATOM     16  C   UNL A   1      33.041  26.991  24.473  1.00  0.00     0.033 A 
ATOM     17  C   UNL A   1      31.107  28.674  23.563  1.00  0.00     0.165 A 
ATOM     18  C   UNL A   1      34.104  26.020  24.894  1.00  0.00     0.052 C 
ATOM     19  N   UNL A   1      31.463  28.771  24.847  1.00  0.00    -0.193 NA
BRANCH  14  20
ATOM     20  C   UNL A   1      33.327  26.229  22.041  1.00  0.00     0.053 C 
ATOM     21  C   UNL A   1      32.399  25.847  20.898  1.00  0.00     0.011 C 
ENDBRANCH  14  20
BRANCH  17  22
ATOM     22  C   UNL A   1      30.052  29.554  23.078  1.00  0.00     0.038 A 
ATOM     23  C   UNL A   1      29.533  30.601  23.850  1.00  0.00     0.015 A 
ATOM     24  C   UNL A   1      29.512  29.397  21.803  1.00  0.00     0.123 A 
ATOM     25  C   UNL A   1      28.537  31.429  23.332  1.00  0.00     0.021 A 
ATOM     26  N   UNL A   1      28.531  30.173  21.275  1.00  0.00    -0.264 NA
ATOM     27  C   UNL A   1      28.070  31.173  22.054  1.00  0.00     0.111 A 
ENDBRANCH  17  22
ENDBRANCH  12  13
ENDBRANCH   7  12
ENDBRANCH   3   6
ENDBRANCH   1   2
BRANCH   1  28
ATOM     28  C   UNL A   1      33.341  34.670  29.166  1.00  0.00     0.042 C 
BRANCH  28  29
ATOM     29  C   UNL A   1      33.374  36.118  29.645  1.00  0.00     0.118 C 
BRANCH  29  30
ATOM     30  N   UNL A   1      32.514  36.336  30.797  1.00  0.00    -0.352 N 
ATOM     31  C   UNL A   1      32.590  35.810  32.063  1.00  0.00     0.251 C 
ATOM     32  H   UNL A   1      31.762  36.955  30.647  1.00  0.00     0.163 HD
ATOM     33  O   UNL A   1      31.650  35.948  32.838  1.00  0.00    -0.269 OA
BRANCH  31  34
ATOM     34  C   UNL A   1      33.794  35.064  32.493  1.00  0.00     0.039 A 
ATOM     35  C   UNL A   1      33.647  33.746  32.938  1.00  0.00     0.014 A 
ATOM     36  C   UNL A   1      35.055  35.664  32.495  1.00  0.00     0.014 A 
ATOM     37  C   UNL A   1      34.772  33.014  33.328  1.00  0.00     0.010 A 
ATOM     38  C   UNL A   1      36.183  34.911  32.811  1.00  0.00     0.010 A 
ATOM     39  C   UNL A   1      36.053  33.581  33.238  1.00  0.00    -0.014 A 
BRANCH  39  40
ATOM     40  C   UNL A   1      37.271  32.811  33.598  1.00  0.00     0.031 A 
ATOM     41  C   UNL A   1      38.003  33.117  34.876  1.00  0.00     0.074 A 
ATOM     42  C   UNL A   1      37.760  31.893  32.741  1.00  0.00     0.049 A 
ATOM     43  N   UNL A   1      39.141  32.639  35.314  1.00  0.00    -0.248 NA
ATOM     44  C   UNL A   1      37.387  34.113  35.766  1.00  0.00     0.031 C 
ATOM     45  C   UNL A   1      37.161  31.531  31.457  1.00  0.00     0.029 A 
ATOM     46  N   UNL A   1      38.884  31.109  32.816  1.00  0.00    -0.354 N 
ATOM     47  C   UNL A   1      39.384  33.291  36.517  1.00  0.00     0.074 A 
ATOM     48  C   UNL A   1      38.304  34.232  36.714  1.00  0.00     0.031 C 
ATOM     49  C   UNL A   1      37.914  30.588  30.870  1.00  0.00     0.029 A 
ATOM     50  C   UNL A   1      39.072  30.310  31.714  1.00  0.00     0.049 A 
ATOM     51  H   UNL A   1      39.499  31.118  33.585  1.00  0.00     0.167 HD
ATOM     52  C   UNL A   1      40.407  33.105  37.387  1.00  0.00     0.037 A 
ATOM     53  C   UNL A   1      40.074  29.463  31.411  1.00  0.00     0.037 A 
ATOM     54  C   UNL A   1      41.465  32.150  37.196  1.00  0.00     0.049 A 
ATOM     55  C   UNL A   1      41.207  29.287  32.388  1.00  0.00     0.074 A 
ATOM     56  C   UNL A   1      42.517  31.846  38.043  1.00  0.00     0.029 A 
ATOM     57  N   UNL A   1      41.609  31.343  36.077  1.00  0.00    -0.354 N 
ATOM     58  N   UNL A   1      41.396  29.865  33.549  1.00  0.00    -0.248 NA
ATOM     59  C   UNL A   1      42.262  28.336  32.013  1.00  0.00     0.031 C 
ATOM     60  C   UNL A   1      43.325  30.893  37.415  1.00  0.00     0.029 A 
ATOM     61  C   UNL A   1      42.745  30.558  36.202  1.00  0.00     0.049 A 
ATOM     62  H   UNL A   1      40.996  31.330  35.307  1.00  0.00     0.167 HD
ATOM     63  C   UNL A   1      42.568  29.322  34.059  1.00  0.00     0.074 A 
ATOM     64  C   UNL A   1      43.043  28.363  33.083  1.00  0.00     0.031 C 
ATOM     65  C   UNL A   1      43.195  29.594  35.230  1.00  0.00     0.037 A 
BRANCH  52  66
ATOM     66  C   UNL A   1      40.429  33.955  38.625  1.00  0.00     0.064 A 
ATOM     67  C   UNL A   1      39.766  33.566  39.799  1.00  0.00     0.173 A 
ATOM     68  C   UNL A   1      41.154  35.156  38.651  1.00  0.00     0.173 A 
ATOM     69  F   UNL A   1      39.049  32.432  39.826  1.00  0.00    -0.203 F 
ATOM     70  C   UNL A   1      39.800  34.364  40.941  1.00  0.00     0.198 A 
ATOM     71  C   UNL A   1      41.215  35.934  39.804  1.00  0.00     0.198 A 
ATOM     72  F   UNL A   1      41.814  35.573  37.559  1.00  0.00    -0.203 F 
ATOM     73  F   UNL A   1      39.115  33.997  42.033  1.00  0.00    -0.200 F 
ATOM     74  C   UNL A   1      40.531  35.543  40.945  1.00  0.00     0.200 A 
ATOM     75  F   UNL A   1      41.933  37.066  39.812  1.00  0.00    -0.200 F 
ATOM     76  F   UNL A   1      40.569  36.304  42.047  1.00  0.00    -0.200 F 
ENDBRANCH  52  66
BRANCH  53  77
ATOM     77  C   UNL A   1      40.044  28.701  30.135  1.00  0.00     0.064 A 
ATOM     78  C   UNL A   1      39.435  27.440  30.064  1.00  0.00     0.173 A 
ATOM     79  C   UNL A   1      40.626  29.210  28.965  1.00  0.00     0.173 A 
ATOM     80  F   UNL A   1      38.882  26.902  31.161  1.00  0.00    -0.203 F 
ATOM     81  C   UNL A   1      39.430  26.708  28.879  1.00  0.00     0.198 A 
ATOM     82  C   UNL A   1      40.592  28.490  27.772  1.00  0.00     0.198 A 
ATOM     83  F   UNL A   1      41.215  30.415  28.976  1.00  0.00    -0.203 F 
ATOM     84  F   UNL A   1      38.884  25.485  28.853  1.00  0.00    -0.200 F 
ATOM     85  C   UNL A   1      40.003  27.236  27.732  1.00  0.00     0.200 A 
ATOM     86  F   UNL A   1      41.132  29.012  26.662  1.00  0.00    -0.200 F 
ATOM     87  F   UNL A   1      39.994  26.533  26.591  1.00  0.00    -0.200 F 
ENDBRANCH  53  77
BRANCH  65  88
ATOM     88  C   UNL A   1      44.433  28.809  35.552  1.00  0.00     0.064 A 
ATOM     89  C   UNL A   1      45.711  29.259  35.190  1.00  0.00     0.173 A 
ATOM     90  C   UNL A   1      44.339  27.612  36.281  1.00  0.00     0.173 A 
ATOM     91  F   UNL A   1      45.852  30.389  34.481  1.00  0.00    -0.203 F 
ATOM     92  C   UNL A   1      46.848  28.530  35.527  1.00  0.00     0.198 A 
ATOM     93  C   UNL A   1      45.480  26.902  36.643  1.00  0.00     0.198 A 
ATOM     94  F   UNL A   1      43.141  27.141  36.657  1.00  0.00    -0.203 F 
ATOM     95  F   UNL A   1      48.056  28.956  35.133  1.00  0.00    -0.200 F 
ATOM     96  C   UNL A   1      46.733  27.358  36.261  1.00  0.00     0.200 A 
ATOM     97  F   UNL A   1      45.368  25.780  37.366  1.00  0.00    -0.200 F 
ATOM     98  F   UNL A   1      47.830  26.664  36.595  1.00  0.00    -0.200 F 
ENDBRANCH  65  88
ENDBRANCH  39  40
ENDBRANCH  31  34
ENDBRANCH  29  30
ENDBRANCH  28  29
ENDBRANCH   1  28
TORSDOF 14
ENDMDL
MODEL 3
REMARK VINA RESULT:     -13.3      4.486     10.315
REMARK SMILES CCc1nc(-c2cccnc2)nc(Oc2ccc(C(=O)NCCCNC(=O)c3ccc(-c4c5nc(c(-c6c(F)c(F)c(F)c(F)c6F)c6ccc([nH]6)c(-c6c(F)c(F)c(F)c(F)c6F)c6nc(c(-c7c(F)c(F)c(F)c(F)c7F)c7ccc4[nH]7)C=C6)C=C5)cc3)cc2)c1C
REMARK SMILES IDX 22 1 21 2 19 3 20 4 18 6 15 7 16 8 92 9 17 10 91 11 14 12
REMARK SMILES IDX 13 13 3 14 4 15 93 16 5 17 94 18 12 19 2 20 1 21 6 22 7 23
REMARK SMILES IDX 11 24 8 25 10 26 9 27 23 28 24 29 25 30 26 31 27 33 28 34
REMARK SMILES IDX 29 35 90 36 30 37 89 38 31 39 32 40 33 41 83 42 34 43 88 44
REMARK SMILES IDX 82 45 84 46 35 47 87 48 81 49 80 50 36 52 68 53 48 54 67 55
REMARK SMILES IDX 49 56 52 57 66 58 85 59 50 60 51 61 65 63 86 64 53 65 37 66
REMARK SMILES IDX 38 67 46 68 39 69 40 70 44 71 47 72 41 73 42 74 45 75 43 76
REMARK SMILES IDX 69 77 70 78 78 79 71 80 72 81 76 82 79 83 73 84 74 85 77 86
REMARK SMILES IDX 75 87 54 88 55 89 63 90 56 91 57 92 61 93 64 94 58 95 59 96
REMARK SMILES IDX 62 97 60 98
REMARK H PARENT 21 5 25 32 84 51 52 62
REMARK Flexibility Score: inf
ROOT
ATOM      1  C   UNL A   1      36.642  20.654  24.949  1.00  0.00     0.118 C 
ENDROOT
BRANCH   1   2
ATOM      2  N   UNL A   1      35.403  20.028  25.379  1.00  0.00    -0.352 N 
ATOM      3  C   UNL A   1      34.088  20.371  25.196  1.00  0.00     0.251 C 
ATOM      4  O   UNL A   1      33.225  19.627  25.660  1.00  0.00    -0.269 OA
ATOM      5  H   UNL A   1      35.532  19.202  25.898  1.00  0.00     0.163 HD
BRANCH   3   6
ATOM      6  C   UNL A   1      33.676  21.540  24.377  1.00  0.00     0.040 A 
ATOM      7  C   UNL A   1      33.128  23.968  23.136  1.00  0.00     0.129 A 
ATOM      8  C   UNL A   1      34.423  23.455  23.094  1.00  0.00     0.048 A 
ATOM      9  C   UNL A   1      32.074  23.196  23.619  1.00  0.00     0.048 A 
ATOM     10  C   UNL A   1      34.700  22.249  23.733  1.00  0.00     0.017 A 
ATOM     11  C   UNL A   1      32.352  21.973  24.237  1.00  0.00     0.017 A 
BRANCH   7  12
ATOM     12  O   UNL A   1      32.927  25.235  22.674  1.00  0.00    -0.439 OA
BRANCH  12  13
ATOM     13  C   UNL A   1      32.501  26.241  23.514  1.00  0.00     0.226 A 
ATOM     14  C   UNL A   1      32.357  27.696  25.370  1.00  0.00     0.051 A 
ATOM     15  N   UNL A   1      31.392  28.406  24.751  1.00  0.00    -0.233 NA
ATOM     16  C   UNL A   1      33.008  26.613  24.766  1.00  0.00     0.033 A 
ATOM     17  C   UNL A   1      31.000  27.985  23.544  1.00  0.00     0.165 A 
ATOM     18  C   UNL A   1      34.117  25.923  25.502  1.00  0.00     0.052 C 
ATOM     19  N   UNL A   1      31.494  26.914  22.916  1.00  0.00    -0.193 NA
BRANCH  14  20
ATOM     20  C   UNL A   1      32.640  28.149  26.786  1.00  0.00     0.053 C 
ATOM     21  C   UNL A   1      31.401  28.214  27.667  1.00  0.00     0.011 C 
ENDBRANCH  14  20
BRANCH  17  22
ATOM     22  C   UNL A   1      29.945  28.739  22.881  1.00  0.00     0.038 A 
ATOM     23  C   UNL A   1      28.589  28.549  23.174  1.00  0.00     0.015 A 
ATOM     24  C   UNL A   1      30.243  29.703  21.919  1.00  0.00     0.123 A 
ATOM     25  C   UNL A   1      27.617  29.311  22.526  1.00  0.00     0.021 A 
ATOM     26  N   UNL A   1      29.322  30.449  21.258  1.00  0.00    -0.264 NA
ATOM     27  C   UNL A   1      28.030  30.236  21.581  1.00  0.00     0.111 A 
ENDBRANCH  17  22
ENDBRANCH  12  13
ENDBRANCH   7  12
ENDBRANCH   3   6
ENDBRANCH   1   2
BRANCH   1  28
ATOM     28  C   UNL A   1      37.802  19.663  25.018  1.00  0.00     0.042 C 
BRANCH  28  29
ATOM     29  C   UNL A   1      39.020  20.212  25.753  1.00  0.00     0.118 C 
BRANCH  29  30
ATOM     30  N   UNL A   1      40.061  19.209  25.920  1.00  0.00    -0.352 N 
ATOM     31  C   UNL A   1      41.410  19.367  26.117  1.00  0.00     0.251 C 
ATOM     32  H   UNL A   1      39.751  18.275  25.886  1.00  0.00     0.163 HD
ATOM     33  O   UNL A   1      42.157  18.399  26.023  1.00  0.00    -0.269 OA
BRANCH  31  34
ATOM     34  C   UNL A   1      41.972  20.702  26.426  1.00  0.00     0.039 A 
ATOM     35  C   UNL A   1      42.265  21.571  25.370  1.00  0.00     0.014 A 
ATOM     36  C   UNL A   1      42.243  21.085  27.741  1.00  0.00     0.014 A 
ATOM     37  C   UNL A   1      42.774  22.844  25.639  1.00  0.00     0.010 A 
ATOM     38  C   UNL A   1      42.680  22.379  28.012  1.00  0.00     0.010 A 
ATOM     39  C   UNL A   1      42.956  23.270  26.964  1.00  0.00    -0.014 A 
BRANCH  39  40
ATOM     40  C   UNL A   1      43.449  24.635  27.281  1.00  0.00     0.031 A 
ATOM     41  C   UNL A   1      42.503  25.666  27.834  1.00  0.00     0.074 A 
ATOM     42  C   UNL A   1      44.723  24.969  27.000  1.00  0.00     0.049 A 
ATOM     43  N   UNL A   1      42.707  26.938  28.069  1.00  0.00    -0.248 NA
ATOM     44  C   UNL A   1      41.136  25.211  28.137  1.00  0.00     0.031 C 
ATOM     45  C   UNL A   1      45.727  24.070  26.431  1.00  0.00     0.029 A 
ATOM     46  N   UNL A   1      45.387  26.162  27.139  1.00  0.00    -0.354 N 
ATOM     47  C   UNL A   1      41.493  27.436  28.525  1.00  0.00     0.074 A 
ATOM     48  C   UNL A   1      40.546  26.344  28.487  1.00  0.00     0.031 C 
ATOM     49  C   UNL A   1      46.882  24.737  26.282  1.00  0.00     0.029 A 
ATOM     50  C   UNL A   1      46.689  26.122  26.703  1.00  0.00     0.049 A 
ATOM     51  H   UNL A   1      44.971  26.971  27.516  1.00  0.00     0.167 HD
ATOM     52  C   UNL A   1      41.202  28.687  28.957  1.00  0.00     0.037 A 
ATOM     53  C   UNL A   1      47.617  27.096  26.633  1.00  0.00     0.037 A 
ATOM     54  C   UNL A   1      42.155  29.763  29.015  1.00  0.00     0.049 A 
ATOM     55  C   UNL A   1      47.263  28.481  27.104  1.00  0.00     0.074 A 
ATOM     56  C   UNL A   1      41.974  31.052  29.487  1.00  0.00     0.029 A 
ATOM     57  N   UNL A   1      43.471  29.677  28.584  1.00  0.00    -0.354 N 
ATOM     58  N   UNL A   1      46.129  28.927  27.589  1.00  0.00    -0.248 NA
ATOM     59  C   UNL A   1      48.320  29.499  27.022  1.00  0.00     0.031 C 
ATOM     60  C   UNL A   1      43.165  31.760  29.295  1.00  0.00     0.029 A 
ATOM     61  C   UNL A   1      44.107  30.896  28.759  1.00  0.00     0.049 A 
ATOM     62  H   UNL A   1      43.891  28.870  28.210  1.00  0.00     0.167 HD
ATOM     63  C   UNL A   1      46.347  30.262  27.904  1.00  0.00     0.074 A 
ATOM     64  C   UNL A   1      47.723  30.552  27.561  1.00  0.00     0.031 C 
ATOM     65  C   UNL A   1      45.484  31.165  28.430  1.00  0.00     0.037 A 
BRANCH  52  66
ATOM     66  C   UNL A   1      39.792  28.960  29.399  1.00  0.00     0.064 A 
ATOM     67  C   UNL A   1      38.815  29.424  28.505  1.00  0.00     0.173 A 
ATOM     68  C   UNL A   1      39.404  28.719  30.726  1.00  0.00     0.173 A 
ATOM     69  F   UNL A   1      39.135  29.681  27.228  1.00  0.00    -0.203 F 
ATOM     70  C   UNL A   1      37.511  29.668  28.931  1.00  0.00     0.198 A 
ATOM     71  C   UNL A   1      38.091  28.931  31.140  1.00  0.00     0.198 A 
ATOM     72  F   UNL A   1      40.295  28.267  31.621  1.00  0.00    -0.203 F 
ATOM     73  F   UNL A   1      36.609  30.161  28.071  1.00  0.00    -0.200 F 
ATOM     74  C   UNL A   1      37.149  29.414  30.245  1.00  0.00     0.200 A 
ATOM     75  F   UNL A   1      37.738  28.671  32.406  1.00  0.00    -0.200 F 
ATOM     76  F   UNL A   1      35.891  29.641  30.650  1.00  0.00    -0.200 F 
ENDBRANCH  52  66
BRANCH  53  77
ATOM     77  C   UNL A   1      48.977  26.792  26.114  1.00  0.00     0.064 A 
ATOM     78  C   UNL A   1      49.295  27.001  24.765  1.00  0.00     0.173 A 
ATOM     79  C   UNL A   1      49.981  26.282  26.949  1.00  0.00     0.173 A 
ATOM     80  F   UNL A   1      48.363  27.468  23.922  1.00  0.00    -0.203 F 
ATOM     81  C   UNL A   1      50.558  26.690  24.267  1.00  0.00     0.198 A 
ATOM     82  C   UNL A   1      51.254  26.001  26.456  1.00  0.00     0.198 A 
ATOM     83  F   UNL A   1      49.732  26.070  28.250  1.00  0.00    -0.203 F 
ATOM     84  F   UNL A   1      50.820  26.853  22.963  1.00  0.00    -0.200 F 
ATOM     85  C   UNL A   1      51.539  26.196  25.114  1.00  0.00     0.200 A 
ATOM     86  F   UNL A   1      52.203  25.540  27.283  1.00  0.00    -0.200 F 
ATOM     87  F   UNL A   1      52.755  25.901  24.634  1.00  0.00    -0.200 F 
ENDBRANCH  53  77
BRANCH  65  88
ATOM     88  C   UNL A   1      46.012  32.540  28.720  1.00  0.00     0.064 A 
ATOM     89  C   UNL A   1      45.943  33.575  27.776  1.00  0.00     0.173 A 
ATOM     90  C   UNL A   1      46.547  32.838  29.983  1.00  0.00     0.173 A 
ATOM     91  F   UNL A   1      45.453  33.337  26.550  1.00  0.00    -0.203 F 
ATOM     92  C   UNL A   1      46.410  34.851  28.078  1.00  0.00     0.198 A 
ATOM     93  C   UNL A   1      46.984  34.123  30.292  1.00  0.00     0.198 A 
ATOM     94  F   UNL A   1      46.630  31.885  30.925  1.00  0.00    -0.203 F 
ATOM     95  F   UNL A   1      46.375  35.813  27.145  1.00  0.00    -0.200 F 
ATOM     96  C   UNL A   1      46.922  35.126  29.338  1.00  0.00     0.200 A 
ATOM     97  F   UNL A   1      47.462  34.391  31.515  1.00  0.00    -0.200 F 
ATOM     98  F   UNL A   1      47.359  36.359  29.630  1.00  0.00    -0.200 F 
ENDBRANCH  65  88
ENDBRANCH  39  40
ENDBRANCH  31  34
ENDBRANCH  29  30
ENDBRANCH  28  29
ENDBRANCH   1  28
TORSDOF 14
ENDMDL
