MODEL 1
REMARK VINA RESULT:     -13.3      0.000      0.000
REMARK SMILES CCn1nc(-c2cccnc2)c2cc(C(=O)NCCCNC(=O)c3ccc(-c4c5nc(c(-c6c(F)c(F)c(F)c(F)c6F)c6ccc([nH]6)c(-c6c(F)c(F)c(F)c(F)c6F)c6nc(c(-c7c(F)c(F)c(F)c(F)c7F)c7ccc4[nH]7)C=C6)C=C5)cc3)sc21
REMARK SMILES IDX 19 1 18 2 17 3 15 4 16 5 14 7 3 8 4 9 88 10 5 11 12 12 87 13
REMARK SMILES IDX 13 14 2 15 1 16 6 17 7 18 11 19 8 20 10 21 9 22 20 23 21 24
REMARK SMILES IDX 22 25 23 27 24 28 25 29 86 30 26 31 85 32 27 33 28 34 29 35
REMARK SMILES IDX 79 36 30 37 84 38 78 39 80 40 31 41 83 42 77 43 76 44 32 46
REMARK SMILES IDX 64 47 44 48 63 49 45 50 48 51 62 52 81 53 46 54 47 55 61 57
REMARK SMILES IDX 82 58 49 59 33 60 34 61 42 62 35 63 36 64 40 65 43 66 37 67
REMARK SMILES IDX 38 68 41 69 39 70 65 71 66 72 74 73 67 74 68 75 72 76 75 77
REMARK SMILES IDX 69 78 70 79 73 80 71 81 50 82 51 83 59 84 52 85 53 86 57 87
REMARK SMILES IDX 60 88 54 89 55 90 58 91 56 92
REMARK H PARENT 17 6 21 26 80 45 48 56
REMARK Flexibility Score: inf
ROOT
ATOM      1  C   UNL A   1      39.123  21.722  26.189  1.00  0.00     0.042 C 
ENDROOT
BRANCH   1   2
ATOM      2  C   UNL A   1      38.210  22.953  26.039  1.00  0.00     0.118 C 
BRANCH   2   3
ATOM      3  N   UNL A   1      37.864  23.263  24.652  1.00  0.00    -0.351 N 
ATOM      4  C   UNL A   1      36.674  23.135  23.951  1.00  0.00     0.261 C 
ATOM      5  O   UNL A   1      36.632  23.696  22.854  1.00  0.00    -0.268 OA
ATOM      6  H   UNL A   1      38.608  23.630  24.121  1.00  0.00     0.163 HD
BRANCH   4   7
ATOM      7  C   UNL A   1      35.523  22.429  24.502  1.00  0.00     0.095 A 
ATOM      8  N   UNL A   1      32.035  21.687  25.538  1.00  0.00    -0.254 N 
ATOM      9  N   UNL A   1      31.774  20.361  25.352  1.00  0.00    -0.171 NA
ATOM     10  C   UNL A   1      33.335  21.952  25.331  1.00  0.00     0.122 A 
ATOM     11  C   UNL A   1      32.983  19.820  25.019  1.00  0.00     0.103 A 
ATOM     12  C   UNL A   1      33.921  20.848  24.886  1.00  0.00     0.040 A 
ATOM     13  S   UNL A   1      34.323  23.249  25.455  1.00  0.00    -0.110 S 
ATOM     14  C   UNL A   1      35.229  21.052  24.433  1.00  0.00     0.038 A 
BRANCH   8  15
ATOM     15  C   UNL A   1      31.033  22.717  25.713  1.00  0.00     0.142 C 
ATOM     16  C   UNL A   1      30.816  23.681  24.570  1.00  0.00     0.029 C 
ENDBRANCH   8  15
BRANCH  11  17
ATOM     17  C   UNL A   1      33.175  18.384  24.913  1.00  0.00     0.021 A 
ATOM     18  C   UNL A   1      33.935  17.810  23.895  1.00  0.00     0.013 A 
ATOM     19  C   UNL A   1      32.532  17.523  25.799  1.00  0.00     0.121 A 
ATOM     20  C   UNL A   1      34.030  16.420  23.810  1.00  0.00     0.021 A 
ATOM     21  N   UNL A   1      32.605  16.170  25.741  1.00  0.00    -0.264 NA
ATOM     22  C   UNL A   1      33.351  15.652  24.743  1.00  0.00     0.111 A 
ENDBRANCH  11  17
ENDBRANCH   4   7
ENDBRANCH   2   3
ENDBRANCH   1   2
BRANCH   1  23
ATOM     23  C   UNL A   1      40.309  21.972  27.090  1.00  0.00     0.118 C 
BRANCH  23  24
ATOM     24  N   UNL A   1      41.561  22.150  26.353  1.00  0.00    -0.352 N 
ATOM     25  C   UNL A   1      42.207  23.335  26.036  1.00  0.00     0.251 C 
ATOM     26  H   UNL A   1      41.998  21.324  26.042  1.00  0.00     0.163 HD
ATOM     27  O   UNL A   1      43.020  23.391  25.133  1.00  0.00    -0.269 OA
BRANCH  25  28
ATOM     28  C   UNL A   1      41.870  24.536  26.824  1.00  0.00     0.039 A 
ATOM     29  C   UNL A   1      42.401  24.762  28.094  1.00  0.00     0.014 A 
ATOM     30  C   UNL A   1      41.054  25.481  26.216  1.00  0.00     0.014 A 
ATOM     31  C   UNL A   1      42.162  25.995  28.696  1.00  0.00     0.010 A 
ATOM     32  C   UNL A   1      41.054  26.764  26.680  1.00  0.00     0.010 A 
ATOM     33  C   UNL A   1      41.509  27.003  27.962  1.00  0.00    -0.014 A 
BRANCH  33  34
ATOM     34  C   UNL A   1      41.349  28.349  28.487  1.00  0.00     0.031 A 
ATOM     35  C   UNL A   1      42.398  29.287  28.031  1.00  0.00     0.074 A 
ATOM     36  C   UNL A   1      40.258  28.761  29.171  1.00  0.00     0.049 A 
ATOM     37  N   UNL A   1      43.434  29.665  28.699  1.00  0.00    -0.248 NA
ATOM     38  C   UNL A   1      42.411  29.710  26.623  1.00  0.00     0.031 C 
ATOM     39  C   UNL A   1      38.988  28.050  29.377  1.00  0.00     0.029 A 
ATOM     40  N   UNL A   1      40.025  29.962  29.773  1.00  0.00    -0.354 N 
ATOM     41  C   UNL A   1      44.083  30.590  27.888  1.00  0.00     0.074 A 
ATOM     42  C   UNL A   1      43.555  30.400  26.564  1.00  0.00     0.031 C 
ATOM     43  C   UNL A   1      38.051  28.906  29.840  1.00  0.00     0.029 A 
ATOM     44  C   UNL A   1      38.703  30.159  30.160  1.00  0.00     0.049 A 
ATOM     45  H   UNL A   1      40.730  30.633  29.921  1.00  0.00     0.167 HD
ATOM     46  C   UNL A   1      44.732  31.642  28.461  1.00  0.00     0.037 A 
ATOM     47  C   UNL A   1      38.185  31.274  30.725  1.00  0.00     0.037 A 
ATOM     48  C   UNL A   1      44.829  31.447  29.888  1.00  0.00     0.049 A 
ATOM     49  C   UNL A   1      39.307  32.007  31.355  1.00  0.00     0.074 A 
ATOM     50  C   UNL A   1      45.587  30.690  30.754  1.00  0.00     0.029 A 
ATOM     51  N   UNL A   1      43.701  31.831  30.562  1.00  0.00    -0.354 N 
ATOM     52  N   UNL A   1      39.983  31.545  32.371  1.00  0.00    -0.248 NA
ATOM     53  C   UNL A   1      39.937  33.104  30.630  1.00  0.00     0.031 C 
ATOM     54  C   UNL A   1      44.799  30.524  31.934  1.00  0.00     0.029 A 
ATOM     55  C   UNL A   1      43.603  31.221  31.781  1.00  0.00     0.049 A 
ATOM     56  H   UNL A   1      43.038  32.469  30.210  1.00  0.00     0.167 HD
ATOM     57  C   UNL A   1      41.273  31.981  32.146  1.00  0.00     0.074 A 
ATOM     58  C   UNL A   1      41.152  33.069  31.185  1.00  0.00     0.031 C 
ATOM     59  C   UNL A   1      42.341  31.205  32.488  1.00  0.00     0.037 A 
BRANCH  46  60
ATOM     60  C   UNL A   1      44.806  33.043  27.891  1.00  0.00     0.064 A 
ATOM     61  C   UNL A   1      46.064  33.539  27.484  1.00  0.00     0.173 A 
ATOM     62  C   UNL A   1      43.792  34.015  28.029  1.00  0.00     0.173 A 
ATOM     63  F   UNL A   1      47.109  32.710  27.337  1.00  0.00    -0.203 F 
ATOM     64  C   UNL A   1      46.302  34.905  27.307  1.00  0.00     0.198 A 
ATOM     65  C   UNL A   1      44.021  35.372  27.803  1.00  0.00     0.198 A 
ATOM     66  F   UNL A   1      42.576  33.720  28.500  1.00  0.00    -0.203 F 
ATOM     67  F   UNL A   1      47.543  35.338  27.041  1.00  0.00    -0.200 F 
ATOM     68  C   UNL A   1      45.281  35.821  27.472  1.00  0.00     0.200 A 
ATOM     69  F   UNL A   1      43.023  36.247  27.993  1.00  0.00    -0.200 F 
ATOM     70  F   UNL A   1      45.517  37.135  27.362  1.00  0.00    -0.200 F 
ENDBRANCH  46  60
BRANCH  47  71
ATOM     71  C   UNL A   1      36.849  31.878  30.530  1.00  0.00     0.064 A 
ATOM     72  C   UNL A   1      35.922  31.943  31.584  1.00  0.00     0.173 A 
ATOM     73  C   UNL A   1      36.579  32.679  29.404  1.00  0.00     0.173 A 
ATOM     74  F   UNL A   1      36.126  31.235  32.703  1.00  0.00    -0.203 F 
ATOM     75  C   UNL A   1      34.816  32.798  31.534  1.00  0.00     0.198 A 
ATOM     76  C   UNL A   1      35.475  33.531  29.356  1.00  0.00     0.198 A 
ATOM     77  F   UNL A   1      37.439  32.727  28.376  1.00  0.00    -0.203 F 
ATOM     78  F   UNL A   1      33.996  32.889  32.590  1.00  0.00    -0.200 F 
ATOM     79  C   UNL A   1      34.604  33.604  30.428  1.00  0.00     0.200 A 
ATOM     80  F   UNL A   1      35.300  34.335  28.297  1.00  0.00    -0.200 F 
ATOM     81  F   UNL A   1      33.590  34.481  30.415  1.00  0.00    -0.200 F 
ENDBRANCH  47  71
BRANCH  59  82
ATOM     82  C   UNL A   1      42.140  30.184  33.564  1.00  0.00     0.064 A 
ATOM     83  C   UNL A   1      41.760  28.850  33.345  1.00  0.00     0.173 A 
ATOM     84  C   UNL A   1      42.415  30.572  34.882  1.00  0.00     0.173 A 
ATOM     85  F   UNL A   1      41.549  28.387  32.106  1.00  0.00    -0.203 F 
ATOM     86  C   UNL A   1      41.628  27.958  34.408  1.00  0.00     0.198 A 
ATOM     87  C   UNL A   1      42.317  29.671  35.936  1.00  0.00     0.198 A 
ATOM     88  F   UNL A   1      42.815  31.826  35.142  1.00  0.00    -0.203 F 
ATOM     89  F   UNL A   1      41.246  26.692  34.180  1.00  0.00    -0.200 F 
ATOM     90  C   UNL A   1      41.913  28.367  35.701  1.00  0.00     0.200 A 
ATOM     91  F   UNL A   1      42.632  30.065  37.177  1.00  0.00    -0.200 F 
ATOM     92  F   UNL A   1      41.817  27.502  36.720  1.00  0.00    -0.200 F 
ENDBRANCH  59  82
ENDBRANCH  33  34
ENDBRANCH  25  28
ENDBRANCH  23  24
ENDBRANCH   1  23
TORSDOF 12
ENDMDL
MODEL 2
REMARK VINA RESULT:     -13.1      2.103      3.873
REMARK SMILES CCn1nc(-c2cccnc2)c2cc(C(=O)NCCCNC(=O)c3ccc(-c4c5nc(c(-c6c(F)c(F)c(F)c(F)c6F)c6ccc([nH]6)c(-c6c(F)c(F)c(F)c(F)c6F)c6nc(c(-c7c(F)c(F)c(F)c(F)c7F)c7ccc4[nH]7)C=C6)C=C5)cc3)sc21
REMARK SMILES IDX 19 1 18 2 17 3 15 4 16 5 14 7 3 8 4 9 88 10 5 11 12 12 87 13
REMARK SMILES IDX 13 14 2 15 1 16 6 17 7 18 11 19 8 20 10 21 9 22 20 23 21 24
REMARK SMILES IDX 22 25 23 27 24 28 25 29 86 30 26 31 85 32 27 33 28 34 29 35
REMARK SMILES IDX 79 36 30 37 84 38 78 39 80 40 31 41 83 42 77 43 76 44 32 46
REMARK SMILES IDX 64 47 44 48 63 49 45 50 48 51 62 52 81 53 46 54 47 55 61 57
REMARK SMILES IDX 82 58 49 59 33 60 34 61 42 62 35 63 36 64 40 65 43 66 37 67
REMARK SMILES IDX 38 68 41 69 39 70 65 71 66 72 74 73 67 74 68 75 72 76 75 77
REMARK SMILES IDX 69 78 70 79 73 80 71 81 50 82 51 83 59 84 52 85 53 86 57 87
REMARK SMILES IDX 60 88 54 89 55 90 58 91 56 92
REMARK H PARENT 17 6 21 26 80 45 48 56
REMARK Flexibility Score: inf
ROOT
ATOM      1  C   UNL A   1      38.563  21.837  25.557  1.00  0.00     0.042 C 
ENDROOT
BRANCH   1   2
ATOM      2  C   UNL A   1      37.410  22.857  25.594  1.00  0.00     0.118 C 
BRANCH   2   3
ATOM      3  N   UNL A   1      36.218  22.373  26.291  1.00  0.00    -0.351 N 
ATOM      4  C   UNL A   1      34.895  22.784  26.242  1.00  0.00     0.261 C 
ATOM      5  O   UNL A   1      34.077  22.031  26.774  1.00  0.00    -0.268 OA
ATOM      6  H   UNL A   1      36.385  21.621  26.905  1.00  0.00     0.163 HD
BRANCH   4   7
ATOM      7  C   UNL A   1      34.487  24.003  25.553  1.00  0.00     0.095 A 
ATOM      8  N   UNL A   1      32.676  26.290  23.255  1.00  0.00    -0.254 N 
ATOM      9  N   UNL A   1      32.508  27.504  23.856  1.00  0.00    -0.171 NA
ATOM     10  C   UNL A   1      33.472  25.499  23.993  1.00  0.00     0.122 A 
ATOM     11  C   UNL A   1      33.242  27.420  25.005  1.00  0.00     0.103 A 
ATOM     12  C   UNL A   1      33.733  26.118  25.137  1.00  0.00     0.040 A 
ATOM     13  S   UNL A   1      34.140  24.013  23.850  1.00  0.00    -0.110 S 
ATOM     14  C   UNL A   1      34.377  25.307  26.079  1.00  0.00     0.038 A 
BRANCH   8  15
ATOM     15  C   UNL A   1      31.937  25.820  22.103  1.00  0.00     0.142 C 
ATOM     16  C   UNL A   1      32.686  25.689  20.798  1.00  0.00     0.029 C 
ENDBRANCH   8  15
BRANCH  11  17
ATOM     17  C   UNL A   1      33.472  28.577  25.850  1.00  0.00     0.021 A 
ATOM     18  C   UNL A   1      34.566  28.662  26.711  1.00  0.00     0.013 A 
ATOM     19  C   UNL A   1      32.550  29.621  25.879  1.00  0.00     0.121 A 
ATOM     20  C   UNL A   1      34.699  29.774  27.544  1.00  0.00     0.021 A 
ATOM     21  N   UNL A   1      32.652  30.712  26.676  1.00  0.00    -0.264 NA
ATOM     22  C   UNL A   1      33.725  30.759  27.495  1.00  0.00     0.111 A 
ENDBRANCH  11  17
ENDBRANCH   4   7
ENDBRANCH   2   3
ENDBRANCH   1   2
BRANCH   1  23
ATOM     23  C   UNL A   1      39.592  22.070  26.638  1.00  0.00     0.118 C 
BRANCH  23  24
ATOM     24  N   UNL A   1      40.965  22.076  26.129  1.00  0.00    -0.352 N 
ATOM     25  C   UNL A   1      41.825  23.156  25.998  1.00  0.00     0.251 C 
ATOM     26  H   UNL A   1      41.321  21.204  25.842  1.00  0.00     0.163 HD
ATOM     27  O   UNL A   1      42.780  23.116  25.247  1.00  0.00    -0.269 OA
BRANCH  25  28
ATOM     28  C   UNL A   1      41.540  24.364  26.795  1.00  0.00     0.039 A 
ATOM     29  C   UNL A   1      42.124  24.585  28.043  1.00  0.00     0.014 A 
ATOM     30  C   UNL A   1      40.717  25.322  26.216  1.00  0.00     0.014 A 
ATOM     31  C   UNL A   1      41.929  25.823  28.649  1.00  0.00     0.010 A 
ATOM     32  C   UNL A   1      40.757  26.606  26.676  1.00  0.00     0.010 A 
ATOM     33  C   UNL A   1      41.266  26.840  27.938  1.00  0.00    -0.014 A 
BRANCH  33  34
ATOM     34  C   UNL A   1      41.149  28.190  28.465  1.00  0.00     0.031 A 
ATOM     35  C   UNL A   1      42.216  29.099  27.993  1.00  0.00     0.074 A 
ATOM     36  C   UNL A   1      40.079  28.632  29.164  1.00  0.00     0.049 A 
ATOM     37  N   UNL A   1      43.272  29.450  28.647  1.00  0.00    -0.248 NA
ATOM     38  C   UNL A   1      42.221  29.522  26.585  1.00  0.00     0.031 C 
ATOM     39  C   UNL A   1      38.794  27.955  29.388  1.00  0.00     0.029 A 
ATOM     40  N   UNL A   1      39.887  29.839  29.768  1.00  0.00    -0.354 N 
ATOM     41  C   UNL A   1      43.933  30.356  27.826  1.00  0.00     0.074 A 
ATOM     42  C   UNL A   1      43.382  30.180  26.510  1.00  0.00     0.031 C 
ATOM     43  C   UNL A   1      37.887  28.836  29.864  1.00  0.00     0.029 A 
ATOM     44  C   UNL A   1      38.577  30.071  30.174  1.00  0.00     0.049 A 
ATOM     45  H   UNL A   1      40.612  30.490  29.906  1.00  0.00     0.167 HD
ATOM     46  C   UNL A   1      44.618  31.391  28.390  1.00  0.00     0.037 A 
ATOM     47  C   UNL A   1      38.096  31.200  30.745  1.00  0.00     0.037 A 
ATOM     48  C   UNL A   1      44.731  31.194  29.815  1.00  0.00     0.049 A 
ATOM     49  C   UNL A   1      39.247  31.902  31.359  1.00  0.00     0.074 A 
ATOM     50  C   UNL A   1      45.480  30.417  30.671  1.00  0.00     0.029 A 
ATOM     51  N   UNL A   1      43.622  31.608  30.505  1.00  0.00    -0.354 N 
ATOM     52  N   UNL A   1      39.924  31.422  32.366  1.00  0.00    -0.248 NA
ATOM     53  C   UNL A   1      39.896  32.982  30.624  1.00  0.00     0.031 C 
ATOM     54  C   UNL A   1      44.704  30.272  31.862  1.00  0.00     0.029 A 
ATOM     55  C   UNL A   1      43.525  31.001  31.725  1.00  0.00     0.049 A 
ATOM     56  H   UNL A   1      42.972  32.264  30.161  1.00  0.00     0.167 HD
ATOM     57  C   UNL A   1      41.222  31.823  32.123  1.00  0.00     0.074 A 
ATOM     58  C   UNL A   1      41.117  32.914  31.162  1.00  0.00     0.031 C 
ATOM     59  C   UNL A   1      42.273  31.019  32.450  1.00  0.00     0.037 A 
BRANCH  46  60
ATOM     60  C   UNL A   1      44.722  32.790  27.818  1.00  0.00     0.064 A 
ATOM     61  C   UNL A   1      45.955  33.201  27.265  1.00  0.00     0.173 A 
ATOM     62  C   UNL A   1      43.802  33.827  28.077  1.00  0.00     0.173 A 
ATOM     63  F   UNL A   1      46.915  32.304  26.994  1.00  0.00    -0.203 F 
ATOM     64  C   UNL A   1      46.265  34.550  27.064  1.00  0.00     0.198 A 
ATOM     65  C   UNL A   1      44.096  35.168  27.828  1.00  0.00     0.198 A 
ATOM     66  F   UNL A   1      42.633  33.612  28.688  1.00  0.00    -0.203 F 
ATOM     67  F   UNL A   1      47.493  34.898  26.654  1.00  0.00    -0.200 F 
ATOM     68  C   UNL A   1      45.337  35.533  27.352  1.00  0.00     0.200 A 
ATOM     69  F   UNL A   1      43.191  36.108  28.138  1.00  0.00    -0.200 F 
ATOM     70  F   UNL A   1      45.649  36.828  27.217  1.00  0.00    -0.200 F 
ENDBRANCH  46  60
BRANCH  47  71
ATOM     71  C   UNL A   1      36.775  31.840  30.569  1.00  0.00     0.064 A 
ATOM     72  C   UNL A   1      35.866  31.932  31.636  1.00  0.00     0.173 A 
ATOM     73  C   UNL A   1      36.510  32.645  29.444  1.00  0.00     0.173 A 
ATOM     74  F   UNL A   1      36.068  31.221  32.755  1.00  0.00    -0.203 F 
ATOM     75  C   UNL A   1      34.783  32.816  31.601  1.00  0.00     0.198 A 
ATOM     76  C   UNL A   1      35.428  33.526  29.411  1.00  0.00     0.198 A 
ATOM     77  F   UNL A   1      37.355  32.667  28.404  1.00  0.00    -0.203 F 
ATOM     78  F   UNL A   1      33.982  32.933  32.668  1.00  0.00    -0.200 F 
ATOM     79  C   UNL A   1      34.576  33.626  30.496  1.00  0.00     0.200 A 
ATOM     80  F   UNL A   1      35.260  34.333  28.352  1.00  0.00    -0.200 F 
ATOM     81  F   UNL A   1      33.587  34.530  30.495  1.00  0.00    -0.200 F 
ENDBRANCH  47  71
BRANCH  59  82
ATOM     82  C   UNL A   1      42.060  30.004  33.529  1.00  0.00     0.064 A 
ATOM     83  C   UNL A   1      41.684  28.669  33.313  1.00  0.00     0.173 A 
ATOM     84  C   UNL A   1      42.319  30.400  34.848  1.00  0.00     0.173 A 
ATOM     85  F   UNL A   1      41.488  28.199  32.075  1.00  0.00    -0.203 F 
ATOM     86  C   UNL A   1      41.540  27.783  34.380  1.00  0.00     0.198 A 
ATOM     87  C   UNL A   1      42.209  29.505  35.906  1.00  0.00     0.198 A 
ATOM     88  F   UNL A   1      42.715  31.656  35.106  1.00  0.00    -0.203 F 
ATOM     89  F   UNL A   1      41.161  26.515  34.155  1.00  0.00    -0.200 F 
ATOM     90  C   UNL A   1      41.808  28.200  35.674  1.00  0.00     0.200 A 
ATOM     91  F   UNL A   1      42.509  29.906  37.148  1.00  0.00    -0.200 F 
ATOM     92  F   UNL A   1      41.701  27.340  36.697  1.00  0.00    -0.200 F 
ENDBRANCH  59  82
ENDBRANCH  33  34
ENDBRANCH  25  28
ENDBRANCH  23  24
ENDBRANCH   1  23
TORSDOF 12
ENDMDL
MODEL 3
REMARK VINA RESULT:     -12.8      4.733      9.866
REMARK SMILES CCn1nc(-c2cccnc2)c2cc(C(=O)NCCCNC(=O)c3ccc(-c4c5nc(c(-c6c(F)c(F)c(F)c(F)c6F)c6ccc([nH]6)c(-c6c(F)c(F)c(F)c(F)c6F)c6nc(c(-c7c(F)c(F)c(F)c(F)c7F)c7ccc4[nH]7)C=C6)C=C5)cc3)sc21
REMARK SMILES IDX 19 1 18 2 17 3 15 4 16 5 14 7 3 8 4 9 88 10 5 11 12 12 87 13
REMARK SMILES IDX 13 14 2 15 1 16 6 17 7 18 11 19 8 20 10 21 9 22 20 23 21 24
REMARK SMILES IDX 22 25 23 27 24 28 25 29 86 30 26 31 85 32 27 33 28 34 29 35
REMARK SMILES IDX 79 36 30 37 84 38 78 39 80 40 31 41 83 42 77 43 76 44 32 46
REMARK SMILES IDX 64 47 44 48 63 49 45 50 48 51 62 52 81 53 46 54 47 55 61 57
REMARK SMILES IDX 82 58 49 59 33 60 34 61 42 62 35 63 36 64 40 65 43 66 37 67
REMARK SMILES IDX 38 68 41 69 39 70 65 71 66 72 74 73 67 74 68 75 72 76 75 77
REMARK SMILES IDX 69 78 70 79 73 80 71 81 50 82 51 83 59 84 52 85 53 86 57 87
REMARK SMILES IDX 60 88 54 89 55 90 58 91 56 92
REMARK H PARENT 17 6 21 26 80 45 48 56
REMARK Flexibility Score: inf
ROOT
ATOM      1  C   UNL A   1      34.505  31.011  27.302  1.00  0.00     0.042 C 
ENDROOT
BRANCH   1   2
ATOM      2  C   UNL A   1      34.577  29.474  27.318  1.00  0.00     0.118 C 
BRANCH   2   3
ATOM      3  N   UNL A   1      33.422  28.838  27.954  1.00  0.00    -0.351 N 
ATOM      4  C   UNL A   1      32.306  28.215  27.417  1.00  0.00     0.261 C 
ATOM      5  O   UNL A   1      31.615  27.571  28.210  1.00  0.00    -0.268 OA
ATOM      6  H   UNL A   1      33.441  28.855  28.938  1.00  0.00     0.163 HD
BRANCH   4   7
ATOM      7  C   UNL A   1      32.000  28.266  25.992  1.00  0.00     0.095 A 
ATOM      8  N   UNL A   1      31.269  27.162  22.523  1.00  0.00    -0.254 N 
ATOM      9  N   UNL A   1      30.367  28.011  21.952  1.00  0.00    -0.171 NA
ATOM     10  C   UNL A   1      31.678  27.629  23.713  1.00  0.00     0.122 A 
ATOM     11  C   UNL A   1      30.241  29.030  22.854  1.00  0.00     0.103 A 
ATOM     12  C   UNL A   1      30.969  28.712  24.004  1.00  0.00     0.040 A 
ATOM     13  S   UNL A   1      32.763  27.194  24.857  1.00  0.00    -0.110 S 
ATOM     14  C   UNL A   1      31.153  29.168  25.314  1.00  0.00     0.038 A 
BRANCH   8  15
ATOM     15  C   UNL A   1      31.586  25.834  22.039  1.00  0.00     0.142 C 
ATOM     16  C   UNL A   1      32.553  25.724  20.884  1.00  0.00     0.029 C 
ENDBRANCH   8  15
BRANCH  11  17
ATOM     17  C   UNL A   1      29.500  30.239  22.542  1.00  0.00     0.021 A 
ATOM     18  C   UNL A   1      29.108  31.144  23.527  1.00  0.00     0.013 A 
ATOM     19  C   UNL A   1      29.092  30.495  21.235  1.00  0.00     0.121 A 
ATOM     20  C   UNL A   1      28.343  32.256  23.172  1.00  0.00     0.021 A 
ATOM     21  N   UNL A   1      28.350  31.566  20.860  1.00  0.00    -0.264 NA
ATOM     22  C   UNL A   1      27.990  32.419  21.841  1.00  0.00     0.111 A 
ENDBRANCH  11  17
ENDBRANCH   4   7
ENDBRANCH   2   3
ENDBRANCH   1   2
BRANCH   1  23
ATOM     23  C   UNL A   1      35.759  31.666  27.832  1.00  0.00     0.118 C 
BRANCH  23  24
ATOM     24  N   UNL A   1      35.510  32.528  28.989  1.00  0.00    -0.352 N 
ATOM     25  C   UNL A   1      35.900  32.329  30.304  1.00  0.00     0.251 C 
ATOM     26  H   UNL A   1      35.000  33.352  28.810  1.00  0.00     0.163 HD
ATOM     27  O   UNL A   1      35.344  32.901  31.222  1.00  0.00    -0.269 OA
BRANCH  25  28
ATOM     28  C   UNL A   1      37.008  31.390  30.560  1.00  0.00     0.039 A 
ATOM     29  C   UNL A   1      36.797  30.023  30.742  1.00  0.00     0.014 A 
ATOM     30  C   UNL A   1      38.295  31.914  30.537  1.00  0.00     0.014 A 
ATOM     31  C   UNL A   1      37.910  29.190  30.812  1.00  0.00     0.010 A 
ATOM     32  C   UNL A   1      39.354  31.079  30.333  1.00  0.00     0.010 A 
ATOM     33  C   UNL A   1      39.188  29.729  30.575  1.00  0.00    -0.014 A 
BRANCH  33  34
ATOM     34  C   UNL A   1      40.372  28.888  30.505  1.00  0.00     0.031 A 
ATOM     35  C   UNL A   1      41.012  28.664  31.819  1.00  0.00     0.074 A 
ATOM     36  C   UNL A   1      40.752  28.221  29.392  1.00  0.00     0.049 A 
ATOM     37  N   UNL A   1      42.055  29.268  32.279  1.00  0.00    -0.248 NA
ATOM     38  C   UNL A   1      40.328  27.821  32.811  1.00  0.00     0.031 C 
ATOM     39  C   UNL A   1      40.015  28.057  28.131  1.00  0.00     0.029 A 
ATOM     40  N   UNL A   1      41.870  27.470  29.181  1.00  0.00    -0.354 N 
ATOM     41  C   UNL A   1      42.313  28.679  33.512  1.00  0.00     0.074 A 
ATOM     42  C   UNL A   1      41.110  27.985  33.882  1.00  0.00     0.031 C 
ATOM     43  C   UNL A   1      40.583  27.081  27.389  1.00  0.00     0.029 A 
ATOM     44  C   UNL A   1      41.832  26.704  28.020  1.00  0.00     0.049 A 
ATOM     45  H   UNL A   1      42.639  27.469  29.796  1.00  0.00     0.167 HD
ATOM     46  C   UNL A   1      43.603  28.541  33.929  1.00  0.00     0.037 A 
ATOM     47  C   UNL A   1      42.775  25.831  27.597  1.00  0.00     0.037 A 
ATOM     48  C   UNL A   1      44.486  29.294  33.071  1.00  0.00     0.049 A 
ATOM     49  C   UNL A   1      44.051  26.220  28.241  1.00  0.00     0.074 A 
ATOM     50  C   UNL A   1      44.834  30.614  32.890  1.00  0.00     0.029 A 
ATOM     51  N   UNL A   1      44.829  28.622  31.928  1.00  0.00    -0.354 N 
ATOM     52  N   UNL A   1      44.667  27.342  27.989  1.00  0.00    -0.248 NA
ATOM     53  C   UNL A   1      44.474  25.532  29.455  1.00  0.00     0.031 C 
ATOM     54  C   UNL A   1      45.276  30.730  31.536  1.00  0.00     0.029 A 
ATOM     55  C   UNL A   1      45.235  29.472  30.938  1.00  0.00     0.049 A 
ATOM     56  H   UNL A   1      44.787  27.642  31.830  1.00  0.00     0.167 HD
ATOM     57  C   UNL A   1      45.218  27.706  29.201  1.00  0.00     0.074 A 
ATOM     58  C   UNL A   1      45.228  26.489  30.002  1.00  0.00     0.031 C 
ATOM     59  C   UNL A   1      45.296  29.017  29.567  1.00  0.00     0.037 A 
BRANCH  46  60
ATOM     60  C   UNL A   1      44.149  27.370  34.721  1.00  0.00     0.064 A 
ATOM     61  C   UNL A   1      44.010  26.071  34.185  1.00  0.00     0.173 A 
ATOM     62  C   UNL A   1      44.494  27.424  36.087  1.00  0.00     0.173 A 
ATOM     63  F   UNL A   1      43.667  25.896  32.900  1.00  0.00    -0.203 F 
ATOM     64  C   UNL A   1      44.129  24.925  34.977  1.00  0.00     0.198 A 
ATOM     65  C   UNL A   1      44.661  26.277  36.863  1.00  0.00     0.198 A 
ATOM     66  F   UNL A   1      44.566  28.576  36.763  1.00  0.00    -0.203 F 
ATOM     67  F   UNL A   1      43.866  23.720  34.451  1.00  0.00    -0.200 F 
ATOM     68  C   UNL A   1      44.449  25.029  36.317  1.00  0.00     0.200 A 
ATOM     69  F   UNL A   1      44.946  26.401  38.168  1.00  0.00    -0.200 F 
ATOM     70  F   UNL A   1      44.507  23.939  37.093  1.00  0.00    -0.200 F 
ENDBRANCH  46  60
BRANCH  47  71
ATOM     71  C   UNL A   1      42.598  24.540  26.896  1.00  0.00     0.064 A 
ATOM     72  C   UNL A   1      43.101  24.346  25.599  1.00  0.00     0.173 A 
ATOM     73  C   UNL A   1      42.214  23.385  27.603  1.00  0.00     0.173 A 
ATOM     74  F   UNL A   1      43.518  25.395  24.875  1.00  0.00    -0.203 F 
ATOM     75  C   UNL A   1      43.257  23.066  25.059  1.00  0.00     0.198 A 
ATOM     76  C   UNL A   1      42.370  22.108  27.062  1.00  0.00     0.198 A 
ATOM     77  F   UNL A   1      41.780  23.469  28.869  1.00  0.00    -0.203 F 
ATOM     78  F   UNL A   1      43.811  22.915  23.848  1.00  0.00    -0.200 F 
ATOM     79  C   UNL A   1      42.908  21.947  25.798  1.00  0.00     0.200 A 
ATOM     80  F   UNL A   1      42.066  21.031  27.801  1.00  0.00    -0.200 F 
ATOM     81  F   UNL A   1      43.133  20.718  25.312  1.00  0.00    -0.200 F 
ENDBRANCH  47  71
BRANCH  59  82
ATOM     82  C   UNL A   1      45.303  30.041  28.475  1.00  0.00     0.064 A 
ATOM     83  C   UNL A   1      44.160  30.675  27.962  1.00  0.00     0.173 A 
ATOM     84  C   UNL A   1      46.548  30.445  27.976  1.00  0.00     0.173 A 
ATOM     85  F   UNL A   1      42.941  30.394  28.439  1.00  0.00    -0.203 F 
ATOM     86  C   UNL A   1      44.265  31.645  26.965  1.00  0.00     0.198 A 
ATOM     87  C   UNL A   1      46.652  31.436  27.007  1.00  0.00     0.198 A 
ATOM     88  F   UNL A   1      47.674  29.895  28.457  1.00  0.00    -0.203 F 
ATOM     89  F   UNL A   1      43.160  32.225  26.473  1.00  0.00    -0.200 F 
ATOM     90  C   UNL A   1      45.510  32.029  26.493  1.00  0.00     0.200 A 
ATOM     91  F   UNL A   1      47.861  31.829  26.586  1.00  0.00    -0.200 F 
ATOM     92  F   UNL A   1      45.614  32.983  25.558  1.00  0.00    -0.200 F 
ENDBRANCH  59  82
ENDBRANCH  33  34
ENDBRANCH  25  28
ENDBRANCH  23  24
ENDBRANCH   1  23
TORSDOF 12
ENDMDL
