MODEL 1
REMARK VINA RESULT:     -13.2      0.000      0.000
REMARK SMILES Cc1cc(Cl)c2c(c1)C=C(C(=O)NCCCNC(=O)c1ccc(-c3c4nc(c(-c5c(F)c(F)c(F)c(F)c5F)c5ccc([nH]5)c(-c5c(F)c(F)c(F)c(F)c5F)c5nc(c(-c6c(F)c(F)c(F)c(F)c6F)c6ccc3[nH]6)C=C5)C=C4)cc1)[C@@H](C(F)(F)F)O2
REMARK SMILES IDX 15 1 14 2 13 3 11 4 12 5 10 7 1 8 2 9 3 10 8 11 4 12 7 13
REMARK SMILES IDX 5 14 6 15 9 16 88 17 83 18 84 19 85 20 86 21 87 22 16 23
REMARK SMILES IDX 17 24 18 25 19 27 20 28 21 29 82 30 22 31 81 32 23 33 24 34
REMARK SMILES IDX 25 35 75 36 26 37 80 38 74 39 76 40 27 41 79 42 73 43 72 44
REMARK SMILES IDX 28 46 60 47 40 48 59 49 41 50 44 51 58 52 77 53 42 54 43 55
REMARK SMILES IDX 57 57 78 58 45 59 29 60 30 61 38 62 31 63 32 64 36 65 39 66
REMARK SMILES IDX 33 67 34 68 37 69 35 70 61 71 62 72 70 73 63 74 64 75 68 76
REMARK SMILES IDX 71 77 65 78 66 79 69 80 67 81 46 82 47 83 55 84 48 85 49 86
REMARK SMILES IDX 53 87 56 88 50 89 51 90 54 91 52 92
REMARK H PARENT 13 6 17 26 76 45 44 56
REMARK Flexibility Score: inf
ROOT
ATOM      1  C   UNL A   1      31.406  32.215  26.657  1.00  0.00     0.042 C 
ENDROOT
BRANCH   1   2
ATOM      2  C   UNL A   1      31.531  30.725  26.381  1.00  0.00     0.118 C 
BRANCH   2   3
ATOM      3  N   UNL A   1      31.237  30.404  24.993  1.00  0.00    -0.352 N 
ATOM      4  C   UNL A   1      31.176  29.293  24.223  1.00  0.00     0.251 C 
ATOM      5  O   UNL A   1      30.872  29.488  23.042  1.00  0.00    -0.270 OA
ATOM      6  H   UNL A   1      31.026  31.213  24.473  1.00  0.00     0.163 HD
BRANCH   4   7
ATOM      7  C   UNL A   1      31.446  27.905  24.698  1.00  0.00     0.067 C 
ATOM      8  C   UNL A   1      36.133  23.979  25.699  1.00  0.00     0.044 C 
ATOM      9  C   UNL A   1      34.715  24.469  25.695  1.00  0.00    -0.049 A 
ATOM     10  C   UNL A   1      33.701  23.659  26.220  1.00  0.00     0.028 A 
ATOM     11  C   UNL A   1      34.396  25.749  25.223  1.00  0.00     0.015 A 
ATOM     12  C   UNL A   1      32.387  24.120  26.265  1.00  0.00     0.084 A 
ATOM     13  C   UNL A   1      33.076  26.214  25.261  1.00  0.00     0.019 A 
ATOM     14  Cl  UNL A   1      31.169  23.088  26.926  1.00  0.00    -0.080 Cl
ATOM     15  C   UNL A   1      32.071  25.394  25.782  1.00  0.00     0.146 A 
ATOM     16  C   UNL A   1      32.742  27.560  24.810  1.00  0.00     0.025 C 
ATOM     17  O   UNL A   1      30.779  25.823  25.892  1.00  0.00    -0.474 OA
ATOM     18  C   UNL A   1      30.373  26.906  25.019  1.00  0.00     0.314 C 
BRANCH  18  19
ATOM     19  C   UNL A   1      29.705  26.323  23.758  1.00  0.00     0.429 C 
ATOM     20  F   UNL A   1      28.486  26.887  23.564  1.00  0.00    -0.167 F 
ATOM     21  F   UNL A   1      30.419  26.564  22.631  1.00  0.00    -0.167 F 
ATOM     22  F   UNL A   1      29.531  24.985  23.830  1.00  0.00    -0.167 F 
ENDBRANCH  18  19
ENDBRANCH   4   7
ENDBRANCH   2   3
ENDBRANCH   1   2
BRANCH   1  23
ATOM     23  C   UNL A   1      32.707  32.810  27.182  1.00  0.00     0.118 C 
BRANCH  23  24
ATOM     24  N   UNL A   1      32.537  34.200  27.596  1.00  0.00    -0.352 N 
ATOM     25  C   UNL A   1      33.059  34.875  28.669  1.00  0.00     0.251 C 
ATOM     26  H   UNL A   1      31.955  34.738  27.012  1.00  0.00     0.163 HD
ATOM     27  O   UNL A   1      32.576  35.954  29.009  1.00  0.00    -0.269 OA
BRANCH  25  28
ATOM     28  C   UNL A   1      34.198  34.311  29.413  1.00  0.00     0.039 A 
ATOM     29  C   UNL A   1      33.961  33.577  30.579  1.00  0.00     0.014 A 
ATOM     30  C   UNL A   1      35.505  34.534  28.977  1.00  0.00     0.014 A 
ATOM     31  C   UNL A   1      35.035  33.015  31.268  1.00  0.00     0.010 A 
ATOM     32  C   UNL A   1      36.563  33.888  29.602  1.00  0.00     0.010 A 
ATOM     33  C   UNL A   1      36.342  33.139  30.765  1.00  0.00    -0.014 A 
BRANCH  33  34
ATOM     34  C   UNL A   1      37.498  32.524  31.457  1.00  0.00     0.031 A 
ATOM     35  C   UNL A   1      38.222  31.374  30.813  1.00  0.00     0.074 A 
ATOM     36  C   UNL A   1      37.851  32.959  32.681  1.00  0.00     0.049 A 
ATOM     37  N   UNL A   1      39.205  30.650  31.286  1.00  0.00    -0.248 NA
ATOM     38  C   UNL A   1      37.768  30.960  29.473  1.00  0.00     0.031 C 
ATOM     39  C   UNL A   1      37.185  34.033  33.421  1.00  0.00     0.029 A 
ATOM     40  N   UNL A   1      38.852  32.549  33.525  1.00  0.00    -0.354 N 
ATOM     41  C   UNL A   1      39.471  29.696  30.312  1.00  0.00     0.074 A 
ATOM     42  C   UNL A   1      38.514  29.889  29.248  1.00  0.00     0.031 C 
ATOM     43  C   UNL A   1      37.811  34.213  34.595  1.00  0.00     0.029 A 
ATOM     44  C   UNL A   1      38.895  33.243  34.710  1.00  0.00     0.049 A 
ATOM     45  H   UNL A   1      39.480  31.825  33.302  1.00  0.00     0.167 HD
ATOM     46  C   UNL A   1      40.451  28.765  30.297  1.00  0.00     0.037 A 
ATOM     47  C   UNL A   1      39.712  33.104  35.771  1.00  0.00     0.037 A 
ATOM     48  C   UNL A   1      41.429  28.612  31.339  1.00  0.00     0.049 A 
ATOM     49  C   UNL A   1      40.794  32.057  35.722  1.00  0.00     0.074 A 
ATOM     50  C   UNL A   1      42.507  27.745  31.383  1.00  0.00     0.029 A 
ATOM     51  N   UNL A   1      41.453  29.347  32.514  1.00  0.00    -0.354 N 
ATOM     52  N   UNL A   1      41.082  31.210  34.764  1.00  0.00    -0.248 NA
ATOM     53  C   UNL A   1      41.668  31.947  36.899  1.00  0.00     0.031 C 
ATOM     54  C   UNL A   1      43.153  27.920  32.609  1.00  0.00     0.029 A 
ATOM     55  C   UNL A   1      42.512  28.934  33.302  1.00  0.00     0.049 A 
ATOM     56  H   UNL A   1      40.812  30.056  32.752  1.00  0.00     0.167 HD
ATOM     57  C   UNL A   1      42.180  30.488  35.209  1.00  0.00     0.074 A 
ATOM     58  C   UNL A   1      42.522  31.008  36.514  1.00  0.00     0.031 C 
ATOM     59  C   UNL A   1      42.843  29.478  34.594  1.00  0.00     0.037 A 
BRANCH  46  60
ATOM     60  C   UNL A   1      40.548  27.851  29.112  1.00  0.00     0.064 A 
ATOM     61  C   UNL A   1      39.733  26.716  28.998  1.00  0.00     0.173 A 
ATOM     62  C   UNL A   1      41.381  28.176  28.031  1.00  0.00     0.173 A 
ATOM     63  F   UNL A   1      38.929  26.356  30.010  1.00  0.00    -0.203 F 
ATOM     64  C   UNL A   1      39.744  25.940  27.841  1.00  0.00     0.198 A 
ATOM     65  C   UNL A   1      41.370  27.414  26.866  1.00  0.00     0.198 A 
ATOM     66  F   UNL A   1      42.179  29.252  28.092  1.00  0.00    -0.203 F 
ATOM     67  F   UNL A   1      38.968  24.852  27.760  1.00  0.00    -0.200 F 
ATOM     68  C   UNL A   1      40.551  26.299  26.771  1.00  0.00     0.200 A 
ATOM     69  F   UNL A   1      42.138  27.770  25.827  1.00  0.00    -0.200 F 
ATOM     70  F   UNL A   1      40.536  25.570  25.647  1.00  0.00    -0.200 F 
ENDBRANCH  46  60
BRANCH  47  71
ATOM     71  C   UNL A   1      39.552  33.984  36.959  1.00  0.00     0.064 A 
ATOM     72  C   UNL A   1      40.167  35.243  37.014  1.00  0.00     0.173 A 
ATOM     73  C   UNL A   1      38.791  33.584  38.067  1.00  0.00     0.173 A 
ATOM     74  F   UNL A   1      40.920  35.665  35.987  1.00  0.00    -0.203 F 
ATOM     75  C   UNL A   1      40.048  36.057  38.139  1.00  0.00     0.198 A 
ATOM     76  C   UNL A   1      38.646  34.412  39.180  1.00  0.00     0.198 A 
ATOM     77  F   UNL A   1      38.176  32.393  38.066  1.00  0.00    -0.203 F 
ATOM     78  F   UNL A   1      40.690  37.232  38.185  1.00  0.00    -0.200 F 
ATOM     79  C   UNL A   1      39.283  35.642  39.218  1.00  0.00     0.200 A 
ATOM     80  F   UNL A   1      37.891  34.015  40.213  1.00  0.00    -0.200 F 
ATOM     81  F   UNL A   1      39.166  36.425  40.300  1.00  0.00    -0.200 F 
ENDBRANCH  47  71
BRANCH  59  82
ATOM     82  C   UNL A   1      44.017  28.876  35.308  1.00  0.00     0.064 A 
ATOM     83  C   UNL A   1      43.861  27.794  36.187  1.00  0.00     0.173 A 
ATOM     84  C   UNL A   1      45.319  29.325  35.039  1.00  0.00     0.173 A 
ATOM     85  F   UNL A   1      42.636  27.336  36.483  1.00  0.00    -0.203 F 
ATOM     86  C   UNL A   1      44.966  27.190  36.778  1.00  0.00     0.198 A 
ATOM     87  C   UNL A   1      46.423  28.698  35.607  1.00  0.00     0.198 A 
ATOM     88  F   UNL A   1      45.520  30.350  34.197  1.00  0.00    -0.203 F 
ATOM     89  F   UNL A   1      44.793  26.178  37.639  1.00  0.00    -0.200 F 
ATOM     90  C   UNL A   1      46.247  27.635  36.479  1.00  0.00     0.200 A 
ATOM     91  F   UNL A   1      47.659  29.115  35.300  1.00  0.00    -0.200 F 
ATOM     92  F   UNL A   1      47.310  27.036  37.031  1.00  0.00    -0.200 F 
ENDBRANCH  59  82
ENDBRANCH  33  34
ENDBRANCH  25  28
ENDBRANCH  23  24
ENDBRANCH   1  23
TORSDOF 11
ENDMDL
MODEL 2
REMARK VINA RESULT:     -13.2      0.124      1.208
REMARK SMILES Cc1cc(Cl)c2c(c1)C=C(C(=O)NCCCNC(=O)c1ccc(-c3c4nc(c(-c5c(F)c(F)c(F)c(F)c5F)c5ccc([nH]5)c(-c5c(F)c(F)c(F)c(F)c5F)c5nc(c(-c6c(F)c(F)c(F)c(F)c6F)c6ccc3[nH]6)C=C5)C=C4)cc1)[C@@H](C(F)(F)F)O2
REMARK SMILES IDX 15 1 14 2 13 3 11 4 12 5 10 7 1 8 2 9 3 10 8 11 4 12 7 13
REMARK SMILES IDX 5 14 6 15 9 16 88 17 83 18 84 19 85 20 86 21 87 22 16 23
REMARK SMILES IDX 17 24 18 25 19 27 20 28 21 29 82 30 22 31 81 32 23 33 24 34
REMARK SMILES IDX 25 35 75 36 26 37 80 38 74 39 76 40 27 41 79 42 73 43 72 44
REMARK SMILES IDX 28 46 60 47 40 48 59 49 41 50 44 51 58 52 77 53 42 54 43 55
REMARK SMILES IDX 57 57 78 58 45 59 29 60 30 61 38 62 31 63 32 64 36 65 39 66
REMARK SMILES IDX 33 67 34 68 37 69 35 70 61 71 62 72 70 73 63 74 64 75 68 76
REMARK SMILES IDX 71 77 65 78 66 79 69 80 67 81 46 82 47 83 55 84 48 85 49 86
REMARK SMILES IDX 53 87 56 88 50 89 51 90 54 91 52 92
REMARK H PARENT 13 6 17 26 76 45 44 56
REMARK Flexibility Score: inf
ROOT
ATOM      1  C   UNL A   1      31.402  32.180  26.714  1.00  0.00     0.042 C 
ENDROOT
BRANCH   1   2
ATOM      2  C   UNL A   1      31.556  30.694  26.428  1.00  0.00     0.118 C 
BRANCH   2   3
ATOM      3  N   UNL A   1      31.293  30.380  25.032  1.00  0.00    -0.352 N 
ATOM      4  C   UNL A   1      31.249  29.274  24.254  1.00  0.00     0.251 C 
ATOM      5  O   UNL A   1      30.972  29.476  23.068  1.00  0.00    -0.270 OA
ATOM      6  H   UNL A   1      31.095  31.193  24.512  1.00  0.00     0.163 HD
BRANCH   4   7
ATOM      7  C   UNL A   1      31.507  27.883  24.728  1.00  0.00     0.067 C 
ATOM      8  C   UNL A   1      36.158  23.913  25.721  1.00  0.00     0.044 C 
ATOM      9  C   UNL A   1      34.745  24.416  25.719  1.00  0.00    -0.049 A 
ATOM     10  C   UNL A   1      33.724  23.615  26.244  1.00  0.00     0.028 A 
ATOM     11  C   UNL A   1      34.437  25.700  25.248  1.00  0.00     0.015 A 
ATOM     12  C   UNL A   1      32.414  24.089  26.292  1.00  0.00     0.084 A 
ATOM     13  C   UNL A   1      33.121  26.177  25.288  1.00  0.00     0.019 A 
ATOM     14  Cl  UNL A   1      31.188  23.067  26.953  1.00  0.00    -0.080 Cl
ATOM     15  C   UNL A   1      32.110  25.365  25.810  1.00  0.00     0.146 A 
ATOM     16  C   UNL A   1      32.799  27.526  24.838  1.00  0.00     0.025 C 
ATOM     17  O   UNL A   1      30.821  25.807  25.922  1.00  0.00    -0.474 OA
ATOM     18  C   UNL A   1      30.425  26.894  25.050  1.00  0.00     0.314 C 
BRANCH  18  19
ATOM     19  C   UNL A   1      29.750  26.318  23.789  1.00  0.00     0.429 C 
ATOM     20  F   UNL A   1      29.567  24.980  23.919  1.00  0.00    -0.167 F 
ATOM     21  F   UNL A   1      28.523  26.849  23.566  1.00  0.00    -0.167 F 
ATOM     22  F   UNL A   1      30.474  26.526  22.668  1.00  0.00    -0.167 F 
ENDBRANCH  18  19
ENDBRANCH   4   7
ENDBRANCH   2   3
ENDBRANCH   1   2
BRANCH   1  23
ATOM     23  C   UNL A   1      32.716  32.818  27.144  1.00  0.00     0.118 C 
BRANCH  23  24
ATOM     24  N   UNL A   1      32.530  34.202  27.572  1.00  0.00    -0.352 N 
ATOM     25  C   UNL A   1      33.039  34.869  28.656  1.00  0.00     0.251 C 
ATOM     26  H   UNL A   1      31.948  34.741  26.990  1.00  0.00     0.163 HD
ATOM     27  O   UNL A   1      32.543  35.940  29.005  1.00  0.00    -0.269 OA
BRANCH  25  28
ATOM     28  C   UNL A   1      34.178  34.307  29.402  1.00  0.00     0.039 A 
ATOM     29  C   UNL A   1      33.943  33.598  30.584  1.00  0.00     0.014 A 
ATOM     30  C   UNL A   1      35.484  34.508  28.951  1.00  0.00     0.014 A 
ATOM     31  C   UNL A   1      35.017  33.038  31.275  1.00  0.00     0.010 A 
ATOM     32  C   UNL A   1      36.540  33.864  29.580  1.00  0.00     0.010 A 
ATOM     33  C   UNL A   1      36.321  33.139  30.758  1.00  0.00    -0.014 A 
BRANCH  33  34
ATOM     34  C   UNL A   1      37.476  32.525  31.453  1.00  0.00     0.031 A 
ATOM     35  C   UNL A   1      38.203  31.376  30.811  1.00  0.00     0.074 A 
ATOM     36  C   UNL A   1      37.827  32.961  32.678  1.00  0.00     0.049 A 
ATOM     37  N   UNL A   1      39.185  30.653  31.285  1.00  0.00    -0.248 NA
ATOM     38  C   UNL A   1      37.752  30.961  29.470  1.00  0.00     0.031 C 
ATOM     39  C   UNL A   1      37.158  34.034  33.416  1.00  0.00     0.029 A 
ATOM     40  N   UNL A   1      38.826  32.551  33.524  1.00  0.00    -0.354 N 
ATOM     41  C   UNL A   1      39.454  29.700  30.312  1.00  0.00     0.074 A 
ATOM     42  C   UNL A   1      38.500  29.892  29.246  1.00  0.00     0.031 C 
ATOM     43  C   UNL A   1      37.782  34.214  34.592  1.00  0.00     0.029 A 
ATOM     44  C   UNL A   1      38.866  33.245  34.709  1.00  0.00     0.049 A 
ATOM     45  H   UNL A   1      39.456  31.827  33.302  1.00  0.00     0.167 HD
ATOM     46  C   UNL A   1      40.435  28.769  30.298  1.00  0.00     0.037 A 
ATOM     47  C   UNL A   1      39.681  33.106  35.771  1.00  0.00     0.037 A 
ATOM     48  C   UNL A   1      41.412  28.617  31.342  1.00  0.00     0.049 A 
ATOM     49  C   UNL A   1      40.765  32.060  35.725  1.00  0.00     0.074 A 
ATOM     50  C   UNL A   1      42.490  27.751  31.389  1.00  0.00     0.029 A 
ATOM     51  N   UNL A   1      41.433  29.352  32.517  1.00  0.00    -0.354 N 
ATOM     52  N   UNL A   1      41.056  31.215  34.767  1.00  0.00    -0.248 NA
ATOM     53  C   UNL A   1      41.636  31.952  36.904  1.00  0.00     0.031 C 
ATOM     54  C   UNL A   1      43.134  27.926  32.615  1.00  0.00     0.029 A 
ATOM     55  C   UNL A   1      42.491  28.940  33.308  1.00  0.00     0.049 A 
ATOM     56  H   UNL A   1      40.791  30.061  32.754  1.00  0.00     0.167 HD
ATOM     57  C   UNL A   1      42.153  30.493  35.214  1.00  0.00     0.074 A 
ATOM     58  C   UNL A   1      42.492  31.014  36.520  1.00  0.00     0.031 C 
ATOM     59  C   UNL A   1      42.818  29.484  34.601  1.00  0.00     0.037 A 
BRANCH  46  60
ATOM     60  C   UNL A   1      40.537  27.856  29.113  1.00  0.00     0.064 A 
ATOM     61  C   UNL A   1      39.729  26.714  29.002  1.00  0.00     0.173 A 
ATOM     62  C   UNL A   1      41.363  28.187  28.030  1.00  0.00     0.173 A 
ATOM     63  F   UNL A   1      38.932  26.348  30.017  1.00  0.00    -0.203 F 
ATOM     64  C   UNL A   1      39.743  25.938  27.846  1.00  0.00     0.198 A 
ATOM     65  C   UNL A   1      41.354  27.424  26.865  1.00  0.00     0.198 A 
ATOM     66  F   UNL A   1      42.153  29.269  28.087  1.00  0.00    -0.203 F 
ATOM     67  F   UNL A   1      38.976  24.843  27.767  1.00  0.00    -0.200 F 
ATOM     68  C   UNL A   1      40.544  26.302  26.773  1.00  0.00     0.200 A 
ATOM     69  F   UNL A   1      42.117  27.786  25.823  1.00  0.00    -0.200 F 
ATOM     70  F   UNL A   1      40.531  25.574  25.649  1.00  0.00    -0.200 F 
ENDBRANCH  46  60
BRANCH  47  71
ATOM     71  C   UNL A   1      39.517  33.987  36.959  1.00  0.00     0.064 A 
ATOM     72  C   UNL A   1      40.127  35.248  37.013  1.00  0.00     0.173 A 
ATOM     73  C   UNL A   1      38.759  33.583  38.068  1.00  0.00     0.173 A 
ATOM     74  F   UNL A   1      40.877  35.673  35.986  1.00  0.00    -0.203 F 
ATOM     75  C   UNL A   1      40.005  36.061  38.138  1.00  0.00     0.198 A 
ATOM     76  C   UNL A   1      38.611  34.411  39.180  1.00  0.00     0.198 A 
ATOM     77  F   UNL A   1      38.149  32.389  38.068  1.00  0.00    -0.203 F 
ATOM     78  F   UNL A   1      40.641  37.240  38.183  1.00  0.00    -0.200 F 
ATOM     79  C   UNL A   1      39.242  35.644  39.218  1.00  0.00     0.200 A 
ATOM     80  F   UNL A   1      37.859  34.011  40.215  1.00  0.00    -0.200 F 
ATOM     81  F   UNL A   1      39.123  36.427  40.300  1.00  0.00    -0.200 F 
ENDBRANCH  47  71
BRANCH  59  82
ATOM     82  C   UNL A   1      43.991  28.884  35.317  1.00  0.00     0.064 A 
ATOM     83  C   UNL A   1      45.290  29.382  35.138  1.00  0.00     0.173 A 
ATOM     84  C   UNL A   1      43.800  27.863  36.261  1.00  0.00     0.173 A 
ATOM     85  F   UNL A   1      45.524  30.350  34.240  1.00  0.00    -0.203 F 
ATOM     86  C   UNL A   1      46.357  28.872  35.871  1.00  0.00     0.198 A 
ATOM     87  C   UNL A   1      44.865  27.379  37.015  1.00  0.00     0.198 A 
ATOM     88  F   UNL A   1      42.575  27.362  36.477  1.00  0.00    -0.203 F 
ATOM     89  F   UNL A   1      47.595  29.340  35.661  1.00  0.00    -0.200 F 
ATOM     90  C   UNL A   1      46.142  27.879  36.817  1.00  0.00     0.200 A 
ATOM     91  F   UNL A   1      44.651  26.436  37.943  1.00  0.00    -0.200 F 
ATOM     92  F   UNL A   1      47.167  27.408  37.538  1.00  0.00    -0.200 F 
ENDBRANCH  59  82
ENDBRANCH  33  34
ENDBRANCH  25  28
ENDBRANCH  23  24
ENDBRANCH   1  23
TORSDOF 11
ENDMDL
MODEL 3
REMARK VINA RESULT:     -13.2      2.169      3.276
REMARK SMILES Cc1cc(Cl)c2c(c1)C=C(C(=O)NCCCNC(=O)c1ccc(-c3c4nc(c(-c5c(F)c(F)c(F)c(F)c5F)c5ccc([nH]5)c(-c5c(F)c(F)c(F)c(F)c5F)c5nc(c(-c6c(F)c(F)c(F)c(F)c6F)c6ccc3[nH]6)C=C5)C=C4)cc1)[C@@H](C(F)(F)F)O2
REMARK SMILES IDX 15 1 14 2 13 3 11 4 12 5 10 7 1 8 2 9 3 10 8 11 4 12 7 13
REMARK SMILES IDX 5 14 6 15 9 16 88 17 83 18 84 19 85 20 86 21 87 22 16 23
REMARK SMILES IDX 17 24 18 25 19 27 20 28 21 29 82 30 22 31 81 32 23 33 24 34
REMARK SMILES IDX 25 35 75 36 26 37 80 38 74 39 76 40 27 41 79 42 73 43 72 44
REMARK SMILES IDX 28 46 60 47 40 48 59 49 41 50 44 51 58 52 77 53 42 54 43 55
REMARK SMILES IDX 57 57 78 58 45 59 29 60 30 61 38 62 31 63 32 64 36 65 39 66
REMARK SMILES IDX 33 67 34 68 37 69 35 70 61 71 62 72 70 73 63 74 64 75 68 76
REMARK SMILES IDX 71 77 65 78 66 79 69 80 67 81 46 82 47 83 55 84 48 85 49 86
REMARK SMILES IDX 53 87 56 88 50 89 51 90 54 91 52 92
REMARK H PARENT 13 6 17 26 76 45 44 56
REMARK Flexibility Score: inf
ROOT
ATOM      1  C   UNL A   1      33.472  28.879  23.535  1.00  0.00     0.042 C 
ENDROOT
BRANCH   1   2
ATOM      2  C   UNL A   1      32.273  28.027  23.151  1.00  0.00     0.118 C 
BRANCH   2   3
ATOM      3  N   UNL A   1      32.579  27.124  22.052  1.00  0.00    -0.352 N 
ATOM      4  C   UNL A   1      32.989  25.843  21.904  1.00  0.00     0.251 C 
ATOM      5  O   UNL A   1      33.126  25.466  20.736  1.00  0.00    -0.270 OA
ATOM      6  H   UNL A   1      32.453  27.564  21.179  1.00  0.00     0.163 HD
BRANCH   4   7
ATOM      7  C   UNL A   1      33.278  24.901  23.024  1.00  0.00     0.067 C 
ATOM      8  C   UNL A   1      37.489  20.746  24.865  1.00  0.00     0.044 C 
ATOM      9  C   UNL A   1      36.263  21.606  24.953  1.00  0.00    -0.049 A 
ATOM     10  C   UNL A   1      35.478  21.577  26.112  1.00  0.00     0.028 A 
ATOM     11  C   UNL A   1      35.919  22.481  23.914  1.00  0.00     0.015 A 
ATOM     12  C   UNL A   1      34.363  22.405  26.227  1.00  0.00     0.084 A 
ATOM     13  C   UNL A   1      34.796  23.310  24.022  1.00  0.00     0.019 A 
ATOM     14  Cl  UNL A   1      33.427  22.338  27.677  1.00  0.00    -0.080 Cl
ATOM     15  C   UNL A   1      34.017  23.267  25.182  1.00  0.00     0.146 A 
ATOM     16  C   UNL A   1      34.455  24.252  22.962  1.00  0.00     0.025 C 
ATOM     17  O   UNL A   1      32.945  24.096  25.358  1.00  0.00    -0.474 OA
ATOM     18  C   UNL A   1      32.334  24.638  24.161  1.00  0.00     0.314 C 
BRANCH  18  19
ATOM     19  C   UNL A   1      31.140  23.753  23.751  1.00  0.00     0.429 C 
ATOM     20  F   UNL A   1      30.618  23.131  24.838  1.00  0.00    -0.167 F 
ATOM     21  F   UNL A   1      30.129  24.466  23.198  1.00  0.00    -0.167 F 
ATOM     22  F   UNL A   1      31.480  22.800  22.856  1.00  0.00    -0.167 F 
ENDBRANCH  18  19
ENDBRANCH   4   7
ENDBRANCH   2   3
ENDBRANCH   1   2
BRANCH   1  23
ATOM     23  C   UNL A   1      33.639  28.983  25.046  1.00  0.00     0.118 C 
BRANCH  23  24
ATOM     24  N   UNL A   1      33.039  30.205  25.573  1.00  0.00    -0.352 N 
ATOM     25  C   UNL A   1      33.308  30.899  26.724  1.00  0.00     0.251 C 
ATOM     26  H   UNL A   1      32.328  30.593  25.013  1.00  0.00     0.163 HD
ATOM     27  O   UNL A   1      32.508  31.738  27.136  1.00  0.00    -0.269 OA
BRANCH  25  28
ATOM     28  C   UNL A   1      34.554  30.642  27.468  1.00  0.00     0.039 A 
ATOM     29  C   UNL A   1      35.488  31.671  27.620  1.00  0.00     0.014 A 
ATOM     30  C   UNL A   1      34.814  29.373  27.989  1.00  0.00     0.014 A 
ATOM     31  C   UNL A   1      36.652  31.439  28.351  1.00  0.00     0.010 A 
ATOM     32  C   UNL A   1      35.920  29.173  28.802  1.00  0.00     0.010 A 
ATOM     33  C   UNL A   1      36.860  30.197  28.976  1.00  0.00    -0.014 A 
BRANCH  33  34
ATOM     34  C   UNL A   1      38.072  29.934  29.787  1.00  0.00     0.031 A 
ATOM     35  C   UNL A   1      39.132  29.008  29.260  1.00  0.00     0.074 A 
ATOM     36  C   UNL A   1      38.184  30.479  31.014  1.00  0.00     0.049 A 
ATOM     37  N   UNL A   1      40.226  28.588  29.844  1.00  0.00    -0.248 NA
ATOM     38  C   UNL A   1      38.928  28.454  27.909  1.00  0.00     0.031 C 
ATOM     39  C   UNL A   1      37.191  31.351  31.645  1.00  0.00     0.029 A 
ATOM     40  N   UNL A   1      39.177  30.376  31.954  1.00  0.00    -0.354 N 
ATOM     41  C   UNL A   1      40.824  27.719  28.941  1.00  0.00     0.074 A 
ATOM     42  C   UNL A   1      39.951  27.620  27.796  1.00  0.00     0.031 C 
ATOM     43  C   UNL A   1      37.638  31.722  32.856  1.00  0.00     0.029 A 
ATOM     44  C   UNL A   1      38.926  31.084  33.104  1.00  0.00     0.049 A 
ATOM     45  H   UNL A   1      39.994  29.843  31.817  1.00  0.00     0.167 HD
ATOM     46  C   UNL A   1      42.014  27.087  29.049  1.00  0.00     0.037 A 
ATOM     47  C   UNL A   1      39.652  31.197  34.232  1.00  0.00     0.037 A 
ATOM     48  C   UNL A   1      42.900  27.230  30.172  1.00  0.00     0.049 A 
ATOM     49  C   UNL A   1      40.975  30.481  34.321  1.00  0.00     0.074 A 
ATOM     50  C   UNL A   1      44.161  26.689  30.345  1.00  0.00     0.029 A 
ATOM     51  N   UNL A   1      42.620  27.973  31.309  1.00  0.00    -0.354 N 
ATOM     52  N   UNL A   1      41.564  29.721  33.430  1.00  0.00    -0.248 NA
ATOM     53  C   UNL A   1      41.736  30.640  35.568  1.00  0.00     0.031 C 
ATOM     54  C   UNL A   1      44.624  27.061  31.608  1.00  0.00     0.029 A 
ATOM     55  C   UNL A   1      43.676  27.881  32.199  1.00  0.00     0.049 A 
ATOM     56  H   UNL A   1      41.794  28.488  31.460  1.00  0.00     0.167 HD
ATOM     57  C   UNL A   1      42.770  29.333  33.996  1.00  0.00     0.074 A 
ATOM     58  C   UNL A   1      42.841  29.959  35.299  1.00  0.00     0.031 C 
ATOM     59  C   UNL A   1      43.731  28.526  33.486  1.00  0.00     0.037 A 
BRANCH  46  60
ATOM     60  C   UNL A   1      42.459  26.206  27.921  1.00  0.00     0.064 A 
ATOM     61  C   UNL A   1      41.951  24.908  27.766  1.00  0.00     0.173 A 
ATOM     62  C   UNL A   1      43.311  26.703  26.924  1.00  0.00     0.173 A 
ATOM     63  F   UNL A   1      41.143  24.382  28.700  1.00  0.00    -0.203 F 
ATOM     64  C   UNL A   1      42.277  24.140  26.651  1.00  0.00     0.198 A 
ATOM     65  C   UNL A   1      43.613  25.943  25.798  1.00  0.00     0.198 A 
ATOM     66  F   UNL A   1      43.823  27.938  27.026  1.00  0.00    -0.203 F 
ATOM     67  F   UNL A   1      41.792  22.897  26.532  1.00  0.00    -0.200 F 
ATOM     68  C   UNL A   1      43.095  24.663  25.661  1.00  0.00     0.200 A 
ATOM     69  F   UNL A   1      44.392  26.455  24.834  1.00  0.00    -0.200 F 
ATOM     70  F   UNL A   1      43.381  23.936  24.573  1.00  0.00    -0.200 F 
ENDBRANCH  46  60
BRANCH  47  71
ATOM     71  C   UNL A   1      39.155  32.030  35.360  1.00  0.00     0.064 A 
ATOM     72  C   UNL A   1      39.447  33.400  35.430  1.00  0.00     0.173 A 
ATOM     73  C   UNL A   1      38.390  31.475  36.396  1.00  0.00     0.173 A 
ATOM     74  F   UNL A   1      40.191  33.975  34.474  1.00  0.00    -0.203 F 
ATOM     75  C   UNL A   1      39.014  34.177  36.503  1.00  0.00     0.198 A 
ATOM     76  C   UNL A   1      37.928  32.260  37.452  1.00  0.00     0.198 A 
ATOM     77  F   UNL A   1      38.076  30.172  36.377  1.00  0.00    -0.203 F 
ATOM     78  F   UNL A   1      39.351  35.472  36.569  1.00  0.00    -0.200 F 
ATOM     79  C   UNL A   1      38.250  33.607  37.510  1.00  0.00     0.200 A 
ATOM     80  F   UNL A   1      37.177  31.709  38.415  1.00  0.00    -0.200 F 
ATOM     81  F   UNL A   1      37.831  34.354  38.541  1.00  0.00    -0.200 F 
ENDBRANCH  47  71
BRANCH  59  82
ATOM     82  C   UNL A   1      44.954  28.282  34.320  1.00  0.00     0.064 A 
ATOM     83  C   UNL A   1      46.054  29.150  34.275  1.00  0.00     0.173 A 
ATOM     84  C   UNL A   1      44.986  27.223  35.240  1.00  0.00     0.173 A 
ATOM     85  F   UNL A   1      46.074  30.170  33.405  1.00  0.00    -0.203 F 
ATOM     86  C   UNL A   1      47.147  28.960  35.115  1.00  0.00     0.198 A 
ATOM     87  C   UNL A   1      46.067  27.056  36.101  1.00  0.00     0.198 A 
ATOM     88  F   UNL A   1      43.952  26.372  35.329  1.00  0.00    -0.203 F 
ATOM     89  F   UNL A   1      48.202  29.783  35.033  1.00  0.00    -0.200 F 
ATOM     90  C   UNL A   1      47.148  27.921  36.034  1.00  0.00     0.200 A 
ATOM     91  F   UNL A   1      46.055  26.064  37.002  1.00  0.00    -0.200 F 
ATOM     92  F   UNL A   1      48.191  27.755  36.858  1.00  0.00    -0.200 F 
ENDBRANCH  59  82
ENDBRANCH  33  34
ENDBRANCH  25  28
ENDBRANCH  23  24
ENDBRANCH   1  23
TORSDOF 11
ENDMDL
