MODEL 1
REMARK VINA RESULT:     -12.6      0.000      0.000
REMARK SMILES C[C@H](c1ccoc1)[N@@H+]1CCc2ccccc2[C@@H]1C(=O)NCCCNC(=O)c1ccc(-c2c3nc(c(-c4c(F)c(F)c(F)c(F)c4F)c4ccc([nH]4)c(-c4c(F)c(F)c(F)c(F)c4F)c4nc(c(-c5c(F)c(F)c(F)c(F)c5F)c5ccc2[nH]5)C=C4)C=C3)cc1
REMARK SMILES IDX 22 1 21 2 20 3 18 4 19 5 17 7 8 8 9 9 10 11 16 12 11 13
REMARK SMILES IDX 15 14 12 15 14 16 13 17 2 18 1 19 3 20 4 21 7 22 5 23 6 24
REMARK SMILES IDX 23 25 24 26 25 27 26 29 27 30 28 31 89 32 29 33 88 34 30 35
REMARK SMILES IDX 31 36 32 37 82 38 33 39 87 40 81 41 83 42 34 43 86 44 80 45
REMARK SMILES IDX 79 46 35 48 67 49 47 50 66 51 48 52 51 53 65 54 84 55 49 56
REMARK SMILES IDX 50 57 64 59 85 60 52 61 36 62 37 63 45 64 38 65 39 66 43 67
REMARK SMILES IDX 46 68 40 69 41 70 44 71 42 72 68 73 69 74 77 75 70 76 71 77
REMARK SMILES IDX 75 78 78 79 72 80 73 81 76 82 74 83 53 84 54 85 62 86 55 87
REMARK SMILES IDX 56 88 60 89 63 90 57 91 58 92 61 93 59 94
REMARK H PARENT 20 6 8 10 24 28 83 47 51 58
REMARK Flexibility Score: inf
ROOT
ATOM      1  C   UNL A   1      31.697  29.202  26.277  1.00  0.00     0.042 C 
ENDROOT
BRANCH   1   2
ATOM      2  C   UNL A   1      31.905  28.210  27.430  1.00  0.00     0.118 C 
BRANCH   2   3
ATOM      3  N   UNL A   1      31.290  26.907  27.221  1.00  0.00    -0.351 N 
ATOM      4  C   UNL A   1      31.367  25.993  26.206  1.00  0.00     0.283 C 
ATOM      5  O   UNL A   1      30.757  24.936  26.402  1.00  0.00    -0.268 OA
ATOM      6  H   UNL A   1      30.701  26.628  27.959  1.00  0.00     0.163 HD
BRANCH   4   7
ATOM      7  C   UNL A   1      32.146  26.281  24.879  1.00  0.00     0.306 C 
ATOM      8  N   UNL A   1      31.246  26.499  23.695  1.00  0.00    -0.315 N 
ATOM      9  C   UNL A   1      31.317  25.486  22.640  1.00  0.00     0.268 C 
ATOM     10  H   UNL A   1      31.711  27.301  23.270  1.00  0.00     0.349 HD
ATOM     11  C   UNL A   1      31.564  24.065  23.137  1.00  0.00     0.097 C 
ATOM     12  C   UNL A   1      33.184  25.160  24.681  1.00  0.00     0.022 A 
ATOM     13  C   UNL A   1      32.869  24.050  23.873  1.00  0.00    -0.033 A 
ATOM     14  C   UNL A   1      34.404  25.158  25.374  1.00  0.00     0.011 A 
ATOM     15  C   UNL A   1      33.744  22.964  23.770  1.00  0.00     0.004 A 
ATOM     16  C   UNL A   1      35.283  24.075  25.257  1.00  0.00     0.001 A 
ATOM     17  C   UNL A   1      34.952  22.979  24.460  1.00  0.00     0.000 A 
BRANCH   8  18
ATOM     18  C   UNL A   1      29.925  27.081  23.937  1.00  0.00     0.216 C 
ATOM     19  C   UNL A   1      28.734  26.115  23.876  1.00  0.00     0.081 C 
BRANCH  18  20
ATOM     20  C   UNL A   1      29.702  28.282  23.042  1.00  0.00     0.047 A 
ATOM     21  C   UNL A   1      28.479  28.963  22.752  1.00  0.00     0.052 A 
ATOM     22  C   UNL A   1      30.671  29.011  22.377  1.00  0.00     0.204 A 
ATOM     23  C   UNL A   1      28.795  30.036  21.955  1.00  0.00     0.195 A 
ATOM     24  O   UNL A   1      30.130  30.072  21.726  1.00  0.00    -0.472 OA
ENDBRANCH  18  20
ENDBRANCH   8  18
ENDBRANCH   4   7
ENDBRANCH   2   3
ENDBRANCH   1   2
BRANCH   1  25
ATOM     25  C   UNL A   1      32.903  30.059  25.899  1.00  0.00     0.118 C 
BRANCH  25  26
ATOM     26  N   UNL A   1      32.755  31.446  26.310  1.00  0.00    -0.352 N 
ATOM     27  C   UNL A   1      33.401  32.150  27.296  1.00  0.00     0.251 C 
ATOM     28  H   UNL A   1      32.088  31.961  25.801  1.00  0.00     0.163 HD
ATOM     29  O   UNL A   1      32.977  33.263  27.614  1.00  0.00    -0.269 OA
BRANCH  27  30
ATOM     30  C   UNL A   1      34.582  31.598  28.003  1.00  0.00     0.039 A 
ATOM     31  C   UNL A   1      35.693  32.427  28.199  1.00  0.00     0.014 A 
ATOM     32  C   UNL A   1      34.641  30.264  28.416  1.00  0.00     0.014 A 
ATOM     33  C   UNL A   1      36.831  31.939  28.848  1.00  0.00     0.010 A 
ATOM     34  C   UNL A   1      35.753  29.795  29.123  1.00  0.00     0.010 A 
ATOM     35  C   UNL A   1      36.863  30.625  29.343  1.00  0.00    -0.014 A 
BRANCH  35  36
ATOM     36  C   UNL A   1      38.050  30.109  30.080  1.00  0.00     0.031 A 
ATOM     37  C   UNL A   1      38.325  30.549  31.492  1.00  0.00     0.074 A 
ATOM     38  C   UNL A   1      38.912  29.277  29.463  1.00  0.00     0.049 A 
ATOM     39  N   UNL A   1      39.336  30.255  32.272  1.00  0.00    -0.248 NA
ATOM     40  C   UNL A   1      37.344  31.459  32.104  1.00  0.00     0.031 C 
ATOM     41  C   UNL A   1      38.787  28.800  28.086  1.00  0.00     0.029 A 
ATOM     42  N   UNL A   1      40.071  28.693  29.913  1.00  0.00    -0.354 N 
ATOM     43  C   UNL A   1      39.123  30.954  33.452  1.00  0.00     0.074 A 
ATOM     44  C   UNL A   1      37.909  31.721  33.274  1.00  0.00     0.031 C 
ATOM     45  C   UNL A   1      39.816  27.983  27.808  1.00  0.00     0.029 A 
ATOM     46  C   UNL A   1      40.692  27.904  28.973  1.00  0.00     0.049 A 
ATOM     47  H   UNL A   1      40.425  28.827  30.822  1.00  0.00     0.167 HD
ATOM     48  C   UNL A   1      39.861  30.944  34.590  1.00  0.00     0.037 A 
ATOM     49  C   UNL A   1      41.841  27.204  29.041  1.00  0.00     0.037 A 
ATOM     50  C   UNL A   1      41.052  30.157  34.783  1.00  0.00     0.049 A 
ATOM     51  C   UNL A   1      42.641  27.210  30.314  1.00  0.00     0.074 A 
ATOM     52  C   UNL A   1      41.829  30.034  35.922  1.00  0.00     0.029 A 
ATOM     53  N   UNL A   1      41.640  29.360  33.812  1.00  0.00    -0.354 N 
ATOM     54  N   UNL A   1      42.395  27.827  31.444  1.00  0.00    -0.248 NA
ATOM     55  C   UNL A   1      43.879  26.417  30.322  1.00  0.00     0.031 C 
ATOM     56  C   UNL A   1      42.909  29.194  35.630  1.00  0.00     0.029 A 
ATOM     57  C   UNL A   1      42.780  28.758  34.321  1.00  0.00     0.049 A 
ATOM     58  H   UNL A   1      41.298  29.240  32.897  1.00  0.00     0.167 HD
ATOM     59  C   UNL A   1      43.427  27.475  32.303  1.00  0.00     0.074 A 
ATOM     60  C   UNL A   1      44.297  26.581  31.570  1.00  0.00     0.031 C 
ATOM     61  C   UNL A   1      43.634  27.862  33.585  1.00  0.00     0.037 A 
BRANCH  48  62
ATOM     62  C   UNL A   1      39.400  31.811  35.725  1.00  0.00     0.064 A 
ATOM     63  C   UNL A   1      39.876  33.121  35.891  1.00  0.00     0.173 A 
ATOM     64  C   UNL A   1      38.436  31.345  36.631  1.00  0.00     0.173 A 
ATOM     65  F   UNL A   1      40.805  33.611  35.056  1.00  0.00    -0.203 F 
ATOM     66  C   UNL A   1      39.426  33.920  36.938  1.00  0.00     0.198 A 
ATOM     67  C   UNL A   1      37.966  32.157  37.660  1.00  0.00     0.198 A 
ATOM     68  F   UNL A   1      37.939  30.104  36.513  1.00  0.00    -0.203 F 
ATOM     69  F   UNL A   1      39.929  35.151  37.103  1.00  0.00    -0.200 F 
ATOM     70  C   UNL A   1      38.467  33.441  37.817  1.00  0.00     0.200 A 
ATOM     71  F   UNL A   1      37.029  31.697  38.501  1.00  0.00    -0.200 F 
ATOM     72  F   UNL A   1      38.028  34.215  38.820  1.00  0.00    -0.200 F 
ENDBRANCH  48  62
BRANCH  49  73
ATOM     73  C   UNL A   1      42.294  26.413  27.867  1.00  0.00     0.064 A 
ATOM     74  C   UNL A   1      43.213  26.947  26.954  1.00  0.00     0.173 A 
ATOM     75  C   UNL A   1      41.815  25.116  27.630  1.00  0.00     0.173 A 
ATOM     76  F   UNL A   1      43.680  28.192  27.124  1.00  0.00    -0.203 F 
ATOM     77  C   UNL A   1      43.623  26.221  25.837  1.00  0.00     0.198 A 
ATOM     78  C   UNL A   1      42.246  24.381  26.528  1.00  0.00     0.198 A 
ATOM     79  F   UNL A   1      40.934  24.560  28.476  1.00  0.00    -0.203 F 
ATOM     80  F   UNL A   1      44.469  26.772  24.957  1.00  0.00    -0.200 F 
ATOM     81  C   UNL A   1      43.144  24.936  25.628  1.00  0.00     0.200 A 
ATOM     82  F   UNL A   1      41.789  23.136  26.336  1.00  0.00    -0.200 F 
ATOM     83  F   UNL A   1      43.541  24.237  24.557  1.00  0.00    -0.200 F 
ENDBRANCH  49  73
BRANCH  61  84
ATOM     84  C   UNL A   1      44.829  27.292  34.293  1.00  0.00     0.064 A 
ATOM     85  C   UNL A   1      46.061  27.961  34.313  1.00  0.00     0.173 A 
ATOM     86  C   UNL A   1      44.728  26.078  34.989  1.00  0.00     0.173 A 
ATOM     87  F   UNL A   1      46.211  29.117  33.649  1.00  0.00    -0.203 F 
ATOM     88  C   UNL A   1      47.155  27.425  34.985  1.00  0.00     0.198 A 
ATOM     89  C   UNL A   1      45.817  25.557  35.683  1.00  0.00     0.198 A 
ATOM     90  F   UNL A   1      43.571  25.401  35.005  1.00  0.00    -0.203 F 
ATOM     91  F   UNL A   1      48.336  28.059  34.954  1.00  0.00    -0.200 F 
ATOM     92  C   UNL A   1      47.031  26.227  35.675  1.00  0.00     0.200 A 
ATOM     93  F   UNL A   1      45.692  24.407  36.359  1.00  0.00    -0.200 F 
ATOM     94  F   UNL A   1      48.084  25.716  36.327  1.00  0.00    -0.200 F 
ENDBRANCH  61  84
ENDBRANCH  35  36
ENDBRANCH  27  30
ENDBRANCH  25  26
ENDBRANCH   1  25
TORSDOF 12
ENDMDL
MODEL 2
REMARK VINA RESULT:     -12.6      0.084      1.129
REMARK SMILES C[C@H](c1ccoc1)[N@@H+]1CCc2ccccc2[C@@H]1C(=O)NCCCNC(=O)c1ccc(-c2c3nc(c(-c4c(F)c(F)c(F)c(F)c4F)c4ccc([nH]4)c(-c4c(F)c(F)c(F)c(F)c4F)c4nc(c(-c5c(F)c(F)c(F)c(F)c5F)c5ccc2[nH]5)C=C4)C=C3)cc1
REMARK SMILES IDX 22 1 21 2 20 3 18 4 19 5 17 7 8 8 9 9 10 11 16 12 11 13
REMARK SMILES IDX 15 14 12 15 14 16 13 17 2 18 1 19 3 20 4 21 7 22 5 23 6 24
REMARK SMILES IDX 23 25 24 26 25 27 26 29 27 30 28 31 89 32 29 33 88 34 30 35
REMARK SMILES IDX 31 36 32 37 82 38 33 39 87 40 81 41 83 42 34 43 86 44 80 45
REMARK SMILES IDX 79 46 35 48 67 49 47 50 66 51 48 52 51 53 65 54 84 55 49 56
REMARK SMILES IDX 50 57 64 59 85 60 52 61 36 62 37 63 45 64 38 65 39 66 43 67
REMARK SMILES IDX 46 68 40 69 41 70 44 71 42 72 68 73 69 74 77 75 70 76 71 77
REMARK SMILES IDX 75 78 78 79 72 80 73 81 76 82 74 83 53 84 54 85 62 86 55 87
REMARK SMILES IDX 56 88 60 89 63 90 57 91 58 92 61 93 59 94
REMARK H PARENT 20 6 8 10 24 28 83 47 51 58
REMARK Flexibility Score: inf
ROOT
ATOM      1  C   UNL A   1      31.684  29.206  26.280  1.00  0.00     0.042 C 
ENDROOT
BRANCH   1   2
ATOM      2  C   UNL A   1      31.959  28.200  27.406  1.00  0.00     0.118 C 
BRANCH   2   3
ATOM      3  N   UNL A   1      31.330  26.901  27.220  1.00  0.00    -0.351 N 
ATOM      4  C   UNL A   1      31.393  25.970  26.218  1.00  0.00     0.283 C 
ATOM      5  O   UNL A   1      30.772  24.923  26.434  1.00  0.00    -0.268 OA
ATOM      6  H   UNL A   1      30.741  26.639  27.964  1.00  0.00     0.163 HD
BRANCH   4   7
ATOM      7  C   UNL A   1      32.168  26.229  24.885  1.00  0.00     0.306 C 
ATOM      8  N   UNL A   1      31.266  26.453  23.703  1.00  0.00    -0.315 N 
ATOM      9  C   UNL A   1      31.311  25.428  22.658  1.00  0.00     0.268 C 
ATOM     10  H   UNL A   1      31.744  27.242  23.267  1.00  0.00     0.349 HD
ATOM     11  C   UNL A   1      31.533  24.007  23.169  1.00  0.00     0.097 C 
ATOM     12  C   UNL A   1      33.183  25.087  24.692  1.00  0.00     0.022 A 
ATOM     13  C   UNL A   1      32.843  23.975  23.897  1.00  0.00    -0.033 A 
ATOM     14  C   UNL A   1      34.407  25.068  25.377  1.00  0.00     0.011 A 
ATOM     15  C   UNL A   1      33.696  22.871  23.801  1.00  0.00     0.004 A 
ATOM     16  C   UNL A   1      35.264  23.968  25.267  1.00  0.00     0.001 A 
ATOM     17  C   UNL A   1      34.908  22.870  24.483  1.00  0.00     0.000 A 
BRANCH   8  18
ATOM     18  C   UNL A   1      29.958  27.063  23.947  1.00  0.00     0.216 C 
ATOM     19  C   UNL A   1      28.746  26.124  23.876  1.00  0.00     0.081 C 
BRANCH  18  20
ATOM     20  C   UNL A   1      29.764  28.275  23.061  1.00  0.00     0.047 A 
ATOM     21  C   UNL A   1      28.553  28.970  22.752  1.00  0.00     0.052 A 
ATOM     22  C   UNL A   1      30.753  29.003  22.424  1.00  0.00     0.204 A 
ATOM     23  C   UNL A   1      28.895  30.048  21.974  1.00  0.00     0.195 A 
ATOM     24  O   UNL A   1      30.235  30.076  21.774  1.00  0.00    -0.472 OA
ENDBRANCH  18  20
ENDBRANCH   8  18
ENDBRANCH   4   7
ENDBRANCH   2   3
ENDBRANCH   1   2
BRANCH   1  25
ATOM     25  C   UNL A   1      32.863  30.077  25.851  1.00  0.00     0.118 C 
BRANCH  25  26
ATOM     26  N   UNL A   1      32.713  31.463  26.261  1.00  0.00    -0.352 N 
ATOM     27  C   UNL A   1      33.354  32.166  27.251  1.00  0.00     0.251 C 
ATOM     28  H   UNL A   1      32.049  31.979  25.749  1.00  0.00     0.163 HD
ATOM     29  O   UNL A   1      32.929  33.279  27.568  1.00  0.00    -0.269 OA
BRANCH  27  30
ATOM     30  C   UNL A   1      34.531  31.614  27.965  1.00  0.00     0.039 A 
ATOM     31  C   UNL A   1      35.639  32.444  28.172  1.00  0.00     0.014 A 
ATOM     32  C   UNL A   1      34.589  30.278  28.373  1.00  0.00     0.014 A 
ATOM     33  C   UNL A   1      36.773  31.955  28.828  1.00  0.00     0.010 A 
ATOM     34  C   UNL A   1      35.696  29.808  29.086  1.00  0.00     0.010 A 
ATOM     35  C   UNL A   1      36.804  30.639  29.317  1.00  0.00    -0.014 A 
BRANCH  35  36
ATOM     36  C   UNL A   1      37.986  30.122  30.061  1.00  0.00     0.031 A 
ATOM     37  C   UNL A   1      38.260  30.570  31.470  1.00  0.00     0.074 A 
ATOM     38  C   UNL A   1      38.846  29.282  29.452  1.00  0.00     0.049 A 
ATOM     39  N   UNL A   1      39.268  30.276  32.255  1.00  0.00    -0.248 NA
ATOM     40  C   UNL A   1      37.282  31.489  32.074  1.00  0.00     0.031 C 
ATOM     41  C   UNL A   1      38.722  28.797  28.077  1.00  0.00     0.029 A 
ATOM     42  N   UNL A   1      40.001  28.695  29.909  1.00  0.00    -0.354 N 
ATOM     43  C   UNL A   1      39.055  30.984  33.431  1.00  0.00     0.074 A 
ATOM     44  C   UNL A   1      37.845  31.756  33.243  1.00  0.00     0.031 C 
ATOM     45  C   UNL A   1      39.747  27.972  27.808  1.00  0.00     0.029 A 
ATOM     46  C   UNL A   1      40.620  27.897  28.976  1.00  0.00     0.049 A 
ATOM     47  H   UNL A   1      40.353  28.833  30.817  1.00  0.00     0.167 HD
ATOM     48  C   UNL A   1      39.790  30.978  34.570  1.00  0.00     0.037 A 
ATOM     49  C   UNL A   1      41.765  27.192  29.051  1.00  0.00     0.037 A 
ATOM     50  C   UNL A   1      40.976  30.187  34.772  1.00  0.00     0.049 A 
ATOM     51  C   UNL A   1      42.563  27.202  30.326  1.00  0.00     0.074 A 
ATOM     52  C   UNL A   1      41.750  30.067  35.914  1.00  0.00     0.029 A 
ATOM     53  N   UNL A   1      41.563  29.380  33.808  1.00  0.00    -0.354 N 
ATOM     54  N   UNL A   1      42.316  27.828  31.451  1.00  0.00    -0.248 NA
ATOM     55  C   UNL A   1      43.796  26.403  30.343  1.00  0.00     0.031 C 
ATOM     56  C   UNL A   1      42.826  29.221  35.629  1.00  0.00     0.029 A 
ATOM     57  C   UNL A   1      42.699  28.776  34.323  1.00  0.00     0.049 A 
ATOM     58  H   UNL A   1      41.222  29.256  32.893  1.00  0.00     0.167 HD
ATOM     59  C   UNL A   1      43.345  27.477  32.316  1.00  0.00     0.074 A 
ATOM     60  C   UNL A   1      44.212  26.574  31.590  1.00  0.00     0.031 C 
ATOM     61  C   UNL A   1      43.550  27.871  33.596  1.00  0.00     0.037 A 
BRANCH  48  62
ATOM     62  C   UNL A   1      39.330  31.855  35.698  1.00  0.00     0.064 A 
ATOM     63  C   UNL A   1      38.377  31.416  36.630  1.00  0.00     0.173 A 
ATOM     64  C   UNL A   1      39.880  33.133  35.877  1.00  0.00     0.173 A 
ATOM     65  F   UNL A   1      37.814  30.205  36.498  1.00  0.00    -0.203 F 
ATOM     66  C   UNL A   1      37.973  32.232  37.682  1.00  0.00     0.198 A 
ATOM     67  C   UNL A   1      39.496  33.937  36.947  1.00  0.00     0.198 A 
ATOM     68  F   UNL A   1      40.802  33.600  35.020  1.00  0.00    -0.203 F 
ATOM     69  F   UNL A   1      37.029  31.808  38.533  1.00  0.00    -0.200 F 
ATOM     70  C   UNL A   1      38.537  33.489  37.844  1.00  0.00     0.200 A 
ATOM     71  F   UNL A   1      40.051  35.146  37.110  1.00  0.00    -0.200 F 
ATOM     72  F   UNL A   1      38.153  34.272  38.862  1.00  0.00    -0.200 F 
ENDBRANCH  48  62
BRANCH  49  73
ATOM     73  C   UNL A   1      42.217  26.390  27.883  1.00  0.00     0.064 A 
ATOM     74  C   UNL A   1      43.159  26.905  26.982  1.00  0.00     0.173 A 
ATOM     75  C   UNL A   1      41.716  25.103  27.642  1.00  0.00     0.173 A 
ATOM     76  F   UNL A   1      43.648  28.141  27.157  1.00  0.00    -0.203 F 
ATOM     77  C   UNL A   1      43.568  26.170  25.871  1.00  0.00     0.198 A 
ATOM     78  C   UNL A   1      42.147  24.359  26.546  1.00  0.00     0.198 A 
ATOM     79  F   UNL A   1      40.814  24.566  28.476  1.00  0.00    -0.203 F 
ATOM     80  F   UNL A   1      44.436  26.703  25.001  1.00  0.00    -0.200 F 
ATOM     81  C   UNL A   1      43.066  24.895  25.657  1.00  0.00     0.200 A 
ATOM     82  F   UNL A   1      41.667  23.123  26.349  1.00  0.00    -0.200 F 
ATOM     83  F   UNL A   1      43.463  24.187  24.592  1.00  0.00    -0.200 F 
ENDBRANCH  49  73
BRANCH  61  84
ATOM     84  C   UNL A   1      44.740  27.299  34.310  1.00  0.00     0.064 A 
ATOM     85  C   UNL A   1      45.972  27.969  34.340  1.00  0.00     0.173 A 
ATOM     86  C   UNL A   1      44.635  26.084  35.004  1.00  0.00     0.173 A 
ATOM     87  F   UNL A   1      46.126  29.126  33.679  1.00  0.00    -0.203 F 
ATOM     88  C   UNL A   1      47.062  27.432  35.018  1.00  0.00     0.198 A 
ATOM     89  C   UNL A   1      45.719  25.562  35.704  1.00  0.00     0.198 A 
ATOM     90  F   UNL A   1      43.477  25.407  35.010  1.00  0.00    -0.203 F 
ATOM     91  F   UNL A   1      48.242  28.066  34.997  1.00  0.00    -0.200 F 
ATOM     92  C   UNL A   1      46.934  26.233  35.705  1.00  0.00     0.200 A 
ATOM     93  F   UNL A   1      45.590  24.411  36.376  1.00  0.00    -0.200 F 
ATOM     94  F   UNL A   1      47.982  25.720  36.363  1.00  0.00    -0.200 F 
ENDBRANCH  61  84
ENDBRANCH  35  36
ENDBRANCH  27  30
ENDBRANCH  25  26
ENDBRANCH   1  25
TORSDOF 12
ENDMDL
MODEL 3
REMARK VINA RESULT:     -12.5      1.847      3.055
REMARK SMILES C[C@H](c1ccoc1)[N@@H+]1CCc2ccccc2[C@@H]1C(=O)NCCCNC(=O)c1ccc(-c2c3nc(c(-c4c(F)c(F)c(F)c(F)c4F)c4ccc([nH]4)c(-c4c(F)c(F)c(F)c(F)c4F)c4nc(c(-c5c(F)c(F)c(F)c(F)c5F)c5ccc2[nH]5)C=C4)C=C3)cc1
REMARK SMILES IDX 22 1 21 2 20 3 18 4 19 5 17 7 8 8 9 9 10 11 16 12 11 13
REMARK SMILES IDX 15 14 12 15 14 16 13 17 2 18 1 19 3 20 4 21 7 22 5 23 6 24
REMARK SMILES IDX 23 25 24 26 25 27 26 29 27 30 28 31 89 32 29 33 88 34 30 35
REMARK SMILES IDX 31 36 32 37 82 38 33 39 87 40 81 41 83 42 34 43 86 44 80 45
REMARK SMILES IDX 79 46 35 48 67 49 47 50 66 51 48 52 51 53 65 54 84 55 49 56
REMARK SMILES IDX 50 57 64 59 85 60 52 61 36 62 37 63 45 64 38 65 39 66 43 67
REMARK SMILES IDX 46 68 40 69 41 70 44 71 42 72 68 73 69 74 77 75 70 76 71 77
REMARK SMILES IDX 75 78 78 79 72 80 73 81 76 82 74 83 53 84 54 85 62 86 55 87
REMARK SMILES IDX 56 88 60 89 63 90 57 91 58 92 61 93 59 94
REMARK H PARENT 20 6 8 10 24 28 83 47 51 58
REMARK Flexibility Score: inf
ROOT
ATOM      1  C   UNL A   1      33.286  28.198  27.251  1.00  0.00     0.042 C 
ENDROOT
BRANCH   1   2
ATOM      2  C   UNL A   1      31.759  28.341  27.321  1.00  0.00     0.118 C 
BRANCH   2   3
ATOM      3  N   UNL A   1      31.032  27.085  27.213  1.00  0.00    -0.351 N 
ATOM      4  C   UNL A   1      31.021  26.093  26.270  1.00  0.00     0.283 C 
ATOM      5  O   UNL A   1      30.322  25.112  26.547  1.00  0.00    -0.268 OA
ATOM      6  H   UNL A   1      30.425  26.916  27.969  1.00  0.00     0.163 HD
BRANCH   4   7
ATOM      7  C   UNL A   1      31.813  26.209  24.926  1.00  0.00     0.306 C 
ATOM      8  N   UNL A   1      30.930  26.435  23.730  1.00  0.00    -0.315 N 
ATOM      9  C   UNL A   1      30.890  25.350  22.748  1.00  0.00     0.268 C 
ATOM     10  H   UNL A   1      31.469  27.155  23.250  1.00  0.00     0.349 HD
ATOM     11  C   UNL A   1      30.998  23.948  23.342  1.00  0.00     0.097 C 
ATOM     12  C   UNL A   1      32.732  24.979  24.804  1.00  0.00     0.022 A 
ATOM     13  C   UNL A   1      32.301  23.853  24.076  1.00  0.00    -0.033 A 
ATOM     14  C   UNL A   1      33.952  24.902  25.493  1.00  0.00     0.011 A 
ATOM     15  C   UNL A   1      33.062  22.680  24.047  1.00  0.00     0.004 A 
ATOM     16  C   UNL A   1      34.717  23.731  25.450  1.00  0.00     0.001 A 
ATOM     17  C   UNL A   1      34.271  22.622  24.732  1.00  0.00     0.000 A 
BRANCH   8  18
ATOM     18  C   UNL A   1      29.676  27.162  23.934  1.00  0.00     0.216 C 
ATOM     19  C   UNL A   1      28.389  26.328  23.876  1.00  0.00     0.081 C 
BRANCH  18  20
ATOM     20  C   UNL A   1      29.598  28.354  23.005  1.00  0.00     0.047 A 
ATOM     21  C   UNL A   1      28.450  29.125  22.637  1.00  0.00     0.052 A 
ATOM     22  C   UNL A   1      30.655  28.987  22.376  1.00  0.00     0.204 A 
ATOM     23  C   UNL A   1      28.893  30.149  21.837  1.00  0.00     0.195 A 
ATOM     24  O   UNL A   1      30.237  30.072  21.677  1.00  0.00    -0.472 OA
ENDBRANCH  18  20
ENDBRANCH   8  18
ENDBRANCH   4   7
ENDBRANCH   2   3
ENDBRANCH   1   2
BRANCH   1  25
ATOM     25  C   UNL A   1      34.012  29.171  26.324  1.00  0.00     0.118 C 
BRANCH  25  26
ATOM     26  N   UNL A   1      33.933  30.548  26.786  1.00  0.00    -0.352 N 
ATOM     27  C   UNL A   1      34.690  31.212  27.719  1.00  0.00     0.251 C 
ATOM     28  H   UNL A   1      33.227  31.088  26.363  1.00  0.00     0.163 HD
ATOM     29  O   UNL A   1      34.322  32.322  28.110  1.00  0.00    -0.269 OA
BRANCH  27  30
ATOM     30  C   UNL A   1      35.927  30.621  28.286  1.00  0.00     0.039 A 
ATOM     31  C   UNL A   1      37.140  30.845  27.626  1.00  0.00     0.014 A 
ATOM     32  C   UNL A   1      35.902  29.796  29.415  1.00  0.00     0.014 A 
ATOM     33  C   UNL A   1      38.325  30.293  28.121  1.00  0.00     0.010 A 
ATOM     34  C   UNL A   1      37.096  29.298  29.947  1.00  0.00     0.010 A 
ATOM     35  C   UNL A   1      38.321  29.535  29.304  1.00  0.00    -0.014 A 
BRANCH  35  36
ATOM     36  C   UNL A   1      39.583  28.983  29.869  1.00  0.00     0.031 A 
ATOM     37  C   UNL A   1      40.243  29.639  31.052  1.00  0.00     0.074 A 
ATOM     38  C   UNL A   1      40.166  27.916  29.290  1.00  0.00     0.049 A 
ATOM     39  N   UNL A   1      41.373  29.338  31.645  1.00  0.00    -0.248 NA
ATOM     40  C   UNL A   1      39.553  30.800  31.635  1.00  0.00     0.031 C 
ATOM     41  C   UNL A   1      39.655  27.208  28.116  1.00  0.00     0.029 A 
ATOM     42  N   UNL A   1      41.325  27.247  29.603  1.00  0.00    -0.354 N 
ATOM     43  C   UNL A   1      41.537  30.280  32.653  1.00  0.00     0.074 A 
ATOM     44  C   UNL A   1      40.413  31.188  32.566  1.00  0.00     0.031 C 
ATOM     45  C   UNL A   1      40.483  26.193  27.821  1.00  0.00     0.029 A 
ATOM     46  C   UNL A   1      41.602  26.199  28.758  1.00  0.00     0.049 A 
ATOM     47  H   UNL A   1      41.902  27.495  30.361  1.00  0.00     0.167 HD
ATOM     48  C   UNL A   1      42.523  30.370  33.578  1.00  0.00     0.037 A 
ATOM     49  C   UNL A   1      42.643  25.344  28.738  1.00  0.00     0.037 A 
ATOM     50  C   UNL A   1      43.625  29.450  33.688  1.00  0.00     0.049 A 
ATOM     51  C   UNL A   1      43.725  25.465  29.775  1.00  0.00     0.074 A 
ATOM     52  C   UNL A   1      44.637  29.423  34.633  1.00  0.00     0.029 A 
ATOM     53  N   UNL A   1      43.862  28.392  32.822  1.00  0.00    -0.354 N 
ATOM     54  N   UNL A   1      43.835  26.323  30.761  1.00  0.00    -0.248 NA
ATOM     55  C   UNL A   1      44.826  24.495  29.701  1.00  0.00     0.031 C 
ATOM     56  C   UNL A   1      45.508  28.376  34.316  1.00  0.00     0.029 A 
ATOM     57  C   UNL A   1      45.015  27.720  33.199  1.00  0.00     0.049 A 
ATOM     58  H   UNL A   1      43.296  28.154  32.053  1.00  0.00     0.167 HD
ATOM     59  C   UNL A   1      44.997  25.979  31.437  1.00  0.00     0.074 A 
ATOM     60  C   UNL A   1      45.552  24.828  30.759  1.00  0.00     0.031 C 
ATOM     61  C   UNL A   1      45.553  26.568  32.524  1.00  0.00     0.037 A 
BRANCH  48  62
ATOM     62  C   UNL A   1      42.456  31.506  34.557  1.00  0.00     0.064 A 
ATOM     63  C   UNL A   1      41.768  31.388  35.774  1.00  0.00     0.173 A 
ATOM     64  C   UNL A   1      43.125  32.711  34.297  1.00  0.00     0.173 A 
ATOM     65  F   UNL A   1      41.104  30.259  36.067  1.00  0.00    -0.203 F 
ATOM     66  C   UNL A   1      41.728  32.443  36.681  1.00  0.00     0.198 A 
ATOM     67  C   UNL A   1      43.109  33.754  35.218  1.00  0.00     0.198 A 
ATOM     68  F   UNL A   1      43.806  32.874  33.152  1.00  0.00    -0.203 F 
ATOM     69  F   UNL A   1      41.028  32.324  37.817  1.00  0.00    -0.200 F 
ATOM     70  C   UNL A   1      42.405  33.623  36.407  1.00  0.00     0.200 A 
ATOM     71  F   UNL A   1      43.774  34.889  34.957  1.00  0.00    -0.200 F 
ATOM     72  F   UNL A   1      42.373  34.635  37.284  1.00  0.00    -0.200 F 
ENDBRANCH  48  62
BRANCH  49  73
ATOM     73  C   UNL A   1      42.701  24.275  27.706  1.00  0.00     0.064 A 
ATOM     74  C   UNL A   1      42.230  22.985  27.983  1.00  0.00     0.173 A 
ATOM     75  C   UNL A   1      43.233  24.517  26.432  1.00  0.00     0.173 A 
ATOM     76  F   UNL A   1      41.735  22.699  29.197  1.00  0.00    -0.203 F 
ATOM     77  C   UNL A   1      42.305  21.971  27.031  1.00  0.00     0.198 A 
ATOM     78  C   UNL A   1      43.283  23.510  25.471  1.00  0.00     0.198 A 
ATOM     79  F   UNL A   1      43.697  25.736  26.118  1.00  0.00    -0.203 F 
ATOM     80  F   UNL A   1      41.887  20.736  27.336  1.00  0.00    -0.200 F 
ATOM     81  C   UNL A   1      42.826  22.236  25.773  1.00  0.00     0.200 A 
ATOM     82  F   UNL A   1      43.777  23.773  24.253  1.00  0.00    -0.200 F 
ATOM     83  F   UNL A   1      42.895  21.262  24.856  1.00  0.00    -0.200 F 
ENDBRANCH  49  73
BRANCH  61  84
ATOM     84  C   UNL A   1      46.810  25.957  33.071  1.00  0.00     0.064 A 
ATOM     85  C   UNL A   1      46.774  24.906  33.999  1.00  0.00     0.173 A 
ATOM     86  C   UNL A   1      48.066  26.406  32.634  1.00  0.00     0.173 A 
ATOM     87  F   UNL A   1      45.599  24.453  34.460  1.00  0.00    -0.203 F 
ATOM     88  C   UNL A   1      47.949  24.342  34.487  1.00  0.00     0.198 A 
ATOM     89  C   UNL A   1      49.239  25.822  33.103  1.00  0.00     0.198 A 
ATOM     90  F   UNL A   1      48.154  27.405  31.744  1.00  0.00    -0.203 F 
ATOM     91  F   UNL A   1      47.893  23.369  35.406  1.00  0.00    -0.200 F 
ATOM     92  C   UNL A   1      49.180  24.795  34.034  1.00  0.00     0.200 A 
ATOM     93  F   UNL A   1      50.426  26.252  32.656  1.00  0.00    -0.200 F 
ATOM     94  F   UNL A   1      50.310  24.247  34.500  1.00  0.00    -0.200 F 
ENDBRANCH  61  84
ENDBRANCH  35  36
ENDBRANCH  27  30
ENDBRANCH  25  26
ENDBRANCH   1  25
TORSDOF 12
ENDMDL
