MODEL 1
REMARK VINA RESULT:     -12.5      0.000      0.000
REMARK SMILES Cc1cc(S(=O)(=O)N[C@@H](CO)C(=O)NCCCNC(=O)c2ccc(-c3c4nc(c(-c5c(F)c(F)c(F)c(F)c5F)c5ccc([nH]5)c(-c5c(F)c(F)c(F)c(F)c5F)c5nc(c(-c6c(F)c(F)c(F)c(F)c6F)c6ccc3[nH]6)C=C5)C=C4)cc2)ccc1OC(C)C
REMARK SMILES IDX 12 1 13 2 14 3 9 5 8 6 5 8 6 9 7 10 4 11 1 12 2 13 3 14
REMARK SMILES IDX 86 15 85 16 84 17 87 18 88 19 89 20 90 21 10 22 11 23 15 25
REMARK SMILES IDX 16 26 17 27 18 28 19 29 20 31 21 32 22 33 83 34 23 35 82 36
REMARK SMILES IDX 24 37 25 38 26 39 76 40 27 41 81 42 75 43 77 44 28 45 80 46
REMARK SMILES IDX 74 47 73 48 29 50 61 51 41 52 60 53 42 54 45 55 59 56 78 57
REMARK SMILES IDX 43 58 44 59 58 61 79 62 46 63 30 64 31 65 39 66 32 67 33 68
REMARK SMILES IDX 37 69 40 70 34 71 35 72 38 73 36 74 62 75 63 76 71 77 64 78
REMARK SMILES IDX 65 79 69 80 72 81 66 82 67 83 70 84 68 85 47 86 48 87 56 88
REMARK SMILES IDX 49 89 50 90 54 91 57 92 51 93 52 94 55 95 53 96
REMARK H PARENT 14 4 8 7 11 24 18 30 77 49 45 60
REMARK Flexibility Score: inf
ROOT
ATOM      1  C   UNL A   1      34.315  21.796  26.225  1.00  0.00     0.240 C 
ATOM      2  O   UNL A   1      33.951  22.411  27.231  1.00  0.00    -0.273 OA
ATOM      3  N   UNL A   1      35.603  21.344  26.176  1.00  0.00    -0.355 N 
ATOM      4  H   UNL A   1      36.180  21.607  26.928  1.00  0.00     0.163 HD
ENDROOT
BRANCH   1   5
ATOM      5  C   UNL A   1      33.370  21.630  25.022  1.00  0.00     0.184 C 
BRANCH   5   6
ATOM      6  N   UNL A   1      33.903  22.495  23.949  1.00  0.00    -0.196 NA
ATOM      7  H   UNL A   1      34.636  23.051  24.391  1.00  0.00     0.142 HD
BRANCH   6   8
ATOM      8  S   UNL A   1      33.028  23.568  23.050  1.00  0.00     0.241 S 
ATOM      9  O   UNL A   1      31.627  23.246  23.275  1.00  0.00    -0.207 OA
ATOM     10  O   UNL A   1      33.608  23.553  21.737  1.00  0.00    -0.207 OA
BRANCH   8  11
ATOM     11  C   UNL A   1      33.339  25.154  23.754  1.00  0.00     0.083 A 
ATOM     12  C   UNL A   1      33.922  28.536  22.240  1.00  0.00     0.048 C 
ATOM     13  C   UNL A   1      33.703  27.553  23.356  1.00  0.00    -0.008 A 
ATOM     14  C   UNL A   1      33.504  26.233  22.885  1.00  0.00     0.029 A 
ATOM     15  C   UNL A   1      33.673  27.772  24.743  1.00  0.00     0.122 A 
ATOM     16  C   UNL A   1      33.530  26.658  25.599  1.00  0.00     0.048 A 
ATOM     17  C   UNL A   1      33.396  25.357  25.123  1.00  0.00     0.025 A 
BRANCH  15  18
ATOM     18  O   UNL A   1      33.742  28.900  25.500  1.00  0.00    -0.491 OA
BRANCH  18  19
ATOM     19  C   UNL A   1      33.441  29.033  26.880  1.00  0.00     0.167 C 
ATOM     20  C   UNL A   1      34.377  30.005  27.594  1.00  0.00     0.052 C 
ATOM     21  C   UNL A   1      31.941  29.129  27.155  1.00  0.00     0.052 C 
ENDBRANCH  18  19
ENDBRANCH  15  18
ENDBRANCH   8  11
ENDBRANCH   6   8
ENDBRANCH   5   6
BRANCH   5  22
ATOM     22  C   UNL A   1      33.071  20.159  24.689  1.00  0.00     0.186 C 
BRANCH  22  23
ATOM     23  O   UNL A   1      32.334  19.429  25.660  1.00  0.00    -0.394 OA
ATOM     24  H   UNL A   1      32.897  19.254  26.430  1.00  0.00     0.210 HD
ENDBRANCH  22  23
ENDBRANCH   5  22
ENDBRANCH   1   5
BRANCH   3  25
ATOM     25  C   UNL A   1      36.226  20.524  25.151  1.00  0.00     0.117 C 
BRANCH  25  26
ATOM     26  C   UNL A   1      37.697  20.818  24.962  1.00  0.00     0.042 C 
BRANCH  26  27
ATOM     27  C   UNL A   1      38.114  22.115  25.607  1.00  0.00     0.118 C 
BRANCH  27  28
ATOM     28  N   UNL A   1      39.237  21.989  26.524  1.00  0.00    -0.352 N 
ATOM     29  C   UNL A   1      40.048  22.952  27.094  1.00  0.00     0.251 C 
ATOM     30  H   UNL A   1      39.456  21.064  26.782  1.00  0.00     0.163 HD
ATOM     31  O   UNL A   1      41.028  22.595  27.742  1.00  0.00    -0.269 OA
BRANCH  29  32
ATOM     32  C   UNL A   1      39.637  24.382  27.116  1.00  0.00     0.039 A 
ATOM     33  C   UNL A   1      40.365  25.259  26.296  1.00  0.00     0.014 A 
ATOM     34  C   UNL A   1      38.951  24.884  28.204  1.00  0.00     0.014 A 
ATOM     35  C   UNL A   1      40.668  26.528  26.765  1.00  0.00     0.010 A 
ATOM     36  C   UNL A   1      39.467  25.992  28.800  1.00  0.00     0.010 A 
ATOM     37  C   UNL A   1      40.343  26.806  28.080  1.00  0.00    -0.014 A 
BRANCH  37  38
ATOM     38  C   UNL A   1      40.693  27.995  28.818  1.00  0.00     0.031 A 
ATOM     39  C   UNL A   1      39.701  29.087  28.760  1.00  0.00     0.074 A 
ATOM     40  C   UNL A   1      41.622  27.846  29.787  1.00  0.00     0.049 A 
ATOM     41  N   UNL A   1      39.827  30.209  29.359  1.00  0.00    -0.248 NA
ATOM     42  C   UNL A   1      38.446  28.985  28.011  1.00  0.00     0.031 C 
ATOM     43  C   UNL A   1      41.778  28.613  31.017  1.00  0.00     0.029 A 
ATOM     44  N   UNL A   1      42.764  27.027  29.751  1.00  0.00    -0.354 N 
ATOM     45  C   UNL A   1      38.599  30.837  29.344  1.00  0.00     0.074 A 
ATOM     46  C   UNL A   1      37.791  30.067  28.436  1.00  0.00     0.031 C 
ATOM     47  C   UNL A   1      43.047  28.494  31.447  1.00  0.00     0.029 A 
ATOM     48  C   UNL A   1      43.770  27.781  30.406  1.00  0.00     0.049 A 
ATOM     49  H   UNL A   1      42.847  26.128  29.358  1.00  0.00     0.167 HD
ATOM     50  C   UNL A   1      38.414  31.859  30.224  1.00  0.00     0.037 A 
ATOM     51  C   UNL A   1      44.804  28.315  29.686  1.00  0.00     0.037 A 
ATOM     52  C   UNL A   1      39.679  32.142  30.896  1.00  0.00     0.049 A 
ATOM     53  C   UNL A   1      44.810  29.825  29.728  1.00  0.00     0.074 A 
ATOM     54  C   UNL A   1      40.207  31.731  32.108  1.00  0.00     0.029 A 
ATOM     55  N   UNL A   1      40.744  32.601  30.130  1.00  0.00    -0.354 N 
ATOM     56  N   UNL A   1      43.735  30.558  29.855  1.00  0.00    -0.248 NA
ATOM     57  C   UNL A   1      46.033  30.620  29.709  1.00  0.00     0.031 C 
ATOM     58  C   UNL A   1      41.616  31.900  32.045  1.00  0.00     0.029 A 
ATOM     59  C   UNL A   1      41.934  32.428  30.804  1.00  0.00     0.049 A 
ATOM     60  H   UNL A   1      40.659  32.993  29.232  1.00  0.00     0.167 HD
ATOM     61  C   UNL A   1      44.097  31.875  29.987  1.00  0.00     0.074 A 
ATOM     62  C   UNL A   1      45.544  31.861  29.875  1.00  0.00     0.031 C 
ATOM     63  C   UNL A   1      43.185  32.870  30.211  1.00  0.00     0.037 A 
BRANCH  50  64
ATOM     64  C   UNL A   1      37.101  32.463  30.664  1.00  0.00     0.064 A 
ATOM     65  C   UNL A   1      36.403  33.327  29.787  1.00  0.00     0.173 A 
ATOM     66  C   UNL A   1      36.485  32.282  31.915  1.00  0.00     0.173 A 
ATOM     67  F   UNL A   1      36.835  33.563  28.541  1.00  0.00    -0.203 F 
ATOM     68  C   UNL A   1      35.232  33.994  30.152  1.00  0.00     0.198 A 
ATOM     69  C   UNL A   1      35.324  32.969  32.291  1.00  0.00     0.198 A 
ATOM     70  F   UNL A   1      36.946  31.407  32.812  1.00  0.00    -0.203 F 
ATOM     71  F   UNL A   1      34.630  34.809  29.274  1.00  0.00    -0.200 F 
ATOM     72  C   UNL A   1      34.700  33.828  31.412  1.00  0.00     0.200 A 
ATOM     73  F   UNL A   1      34.812  32.783  33.516  1.00  0.00    -0.200 F 
ATOM     74  F   UNL A   1      33.584  34.476  31.769  1.00  0.00    -0.200 F 
ENDBRANCH  50  64
BRANCH  51  75
ATOM     75  C   UNL A   1      45.159  27.454  28.517  1.00  0.00     0.064 A 
ATOM     76  C   UNL A   1      45.742  26.202  28.809  1.00  0.00     0.173 A 
ATOM     77  C   UNL A   1      44.495  27.585  27.291  1.00  0.00     0.173 A 
ATOM     78  F   UNL A   1      46.415  26.032  29.958  1.00  0.00    -0.203 F 
ATOM     79  C   UNL A   1      45.486  25.083  28.018  1.00  0.00     0.198 A 
ATOM     80  C   UNL A   1      44.281  26.467  26.478  1.00  0.00     0.198 A 
ATOM     81  F   UNL A   1      43.933  28.751  26.942  1.00  0.00    -0.203 F 
ATOM     82  F   UNL A   1      45.899  23.873  28.420  1.00  0.00    -0.200 F 
ATOM     83  C   UNL A   1      44.717  25.210  26.874  1.00  0.00     0.200 A 
ATOM     84  F   UNL A   1      43.549  26.585  25.359  1.00  0.00    -0.200 F 
ATOM     85  F   UNL A   1      44.359  24.120  26.181  1.00  0.00    -0.200 F 
ENDBRANCH  51  75
BRANCH  63  86
ATOM     86  C   UNL A   1      43.386  34.359  30.005  1.00  0.00     0.064 A 
ATOM     87  C   UNL A   1      43.529  35.288  31.048  1.00  0.00     0.173 A 
ATOM     88  C   UNL A   1      43.614  34.887  28.704  1.00  0.00     0.173 A 
ATOM     89  F   UNL A   1      43.477  34.916  32.332  1.00  0.00    -0.203 F 
ATOM     90  C   UNL A   1      43.802  36.638  30.809  1.00  0.00     0.198 A 
ATOM     91  C   UNL A   1      43.968  36.214  28.477  1.00  0.00     0.198 A 
ATOM     92  F   UNL A   1      43.540  34.127  27.601  1.00  0.00    -0.203 F 
ATOM     93  F   UNL A   1      43.869  37.489  31.842  1.00  0.00    -0.200 F 
ATOM     94  C   UNL A   1      44.037  37.098  29.528  1.00  0.00     0.200 A 
ATOM     95  F   UNL A   1      44.263  36.620  27.234  1.00  0.00    -0.200 F 
ATOM     96  F   UNL A   1      44.353  38.381  29.312  1.00  0.00    -0.200 F 
ENDBRANCH  63  86
ENDBRANCH  37  38
ENDBRANCH  29  32
ENDBRANCH  27  28
ENDBRANCH  26  27
ENDBRANCH  25  26
ENDBRANCH   3  25
TORSDOF 17
ENDMDL
MODEL 2
REMARK VINA RESULT:     -12.5      3.033      9.113
REMARK SMILES Cc1cc(S(=O)(=O)N[C@@H](CO)C(=O)NCCCNC(=O)c2ccc(-c3c4nc(c(-c5c(F)c(F)c(F)c(F)c5F)c5ccc([nH]5)c(-c5c(F)c(F)c(F)c(F)c5F)c5nc(c(-c6c(F)c(F)c(F)c(F)c6F)c6ccc3[nH]6)C=C5)C=C4)cc2)ccc1OC(C)C
REMARK SMILES IDX 12 1 13 2 14 3 9 5 8 6 5 8 6 9 7 10 4 11 1 12 2 13 3 14
REMARK SMILES IDX 86 15 85 16 84 17 87 18 88 19 89 20 90 21 10 22 11 23 15 25
REMARK SMILES IDX 16 26 17 27 18 28 19 29 20 31 21 32 22 33 83 34 23 35 82 36
REMARK SMILES IDX 24 37 25 38 26 39 76 40 27 41 81 42 75 43 77 44 28 45 80 46
REMARK SMILES IDX 74 47 73 48 29 50 61 51 41 52 60 53 42 54 45 55 59 56 78 57
REMARK SMILES IDX 43 58 44 59 58 61 79 62 46 63 30 64 31 65 39 66 32 67 33 68
REMARK SMILES IDX 37 69 40 70 34 71 35 72 38 73 36 74 62 75 63 76 71 77 64 78
REMARK SMILES IDX 65 79 69 80 72 81 66 82 67 83 70 84 68 85 47 86 48 87 56 88
REMARK SMILES IDX 49 89 50 90 54 91 57 92 51 93 52 94 55 95 53 96
REMARK H PARENT 14 4 8 7 11 24 18 30 77 49 45 60
REMARK Flexibility Score: inf
ROOT
ATOM      1  C   UNL A   1      30.564  28.557  23.516  1.00  0.00     0.240 C 
ATOM      2  O   UNL A   1      29.611  28.803  22.772  1.00  0.00    -0.273 OA
ATOM      3  N   UNL A   1      31.246  29.608  24.061  1.00  0.00    -0.355 N 
ATOM      4  H   UNL A   1      30.968  30.503  23.761  1.00  0.00     0.163 HD
ENDROOT
BRANCH   1   5
ATOM      5  C   UNL A   1      31.029  27.108  23.743  1.00  0.00     0.184 C 
BRANCH   5   6
ATOM      6  N   UNL A   1      30.182  26.562  24.824  1.00  0.00    -0.196 NA
ATOM      7  H   UNL A   1      29.613  27.347  25.142  1.00  0.00     0.142 HD
BRANCH   6   8
ATOM      8  S   UNL A   1      30.727  25.834  26.202  1.00  0.00     0.241 S 
ATOM      9  O   UNL A   1      29.641  24.992  26.679  1.00  0.00    -0.207 OA
ATOM     10  O   UNL A   1      31.287  26.880  27.010  1.00  0.00    -0.207 OA
BRANCH   8  11
ATOM     11  C   UNL A   1      32.050  24.780  25.701  1.00  0.00     0.083 A 
ATOM     12  C   UNL A   1      32.168  21.681  23.591  1.00  0.00     0.048 C 
ATOM     13  C   UNL A   1      32.742  22.819  24.389  1.00  0.00    -0.008 A 
ATOM     14  C   UNL A   1      31.743  23.690  24.887  1.00  0.00     0.029 A 
ATOM     15  C   UNL A   1      34.082  23.112  24.687  1.00  0.00     0.122 A 
ATOM     16  C   UNL A   1      34.362  24.207  25.534  1.00  0.00     0.048 A 
ATOM     17  C   UNL A   1      33.364  25.019  26.067  1.00  0.00     0.025 A 
BRANCH  15  18
ATOM     18  O   UNL A   1      35.257  22.544  24.304  1.00  0.00    -0.491 OA
BRANCH  18  19
ATOM     19  C   UNL A   1      35.938  21.467  24.927  1.00  0.00     0.167 C 
ATOM     20  C   UNL A   1      35.114  20.182  24.941  1.00  0.00     0.052 C 
ATOM     21  C   UNL A   1      37.411  21.385  24.528  1.00  0.00     0.052 C 
ENDBRANCH  18  19
ENDBRANCH  15  18
ENDBRANCH   8  11
ENDBRANCH   6   8
ENDBRANCH   5   6
BRANCH   5  22
ATOM     22  C   UNL A   1      31.152  26.303  22.439  1.00  0.00     0.186 C 
BRANCH  22  23
ATOM     23  O   UNL A   1      31.351  27.054  21.249  1.00  0.00    -0.394 OA
ATOM     24  H   UNL A   1      31.729  27.920  21.472  1.00  0.00     0.210 HD
ENDBRANCH  22  23
ENDBRANCH   5  22
ENDBRANCH   1   5
BRANCH   3  25
ATOM     25  C   UNL A   1      32.328  29.569  25.029  1.00  0.00     0.117 C 
BRANCH  25  26
ATOM     26  C   UNL A   1      32.114  30.495  26.205  1.00  0.00     0.042 C 
BRANCH  26  27
ATOM     27  C   UNL A   1      33.110  30.261  27.311  1.00  0.00     0.118 C 
BRANCH  27  28
ATOM     28  N   UNL A   1      34.028  31.370  27.529  1.00  0.00    -0.352 N 
ATOM     29  C   UNL A   1      35.290  31.398  28.092  1.00  0.00     0.251 C 
ATOM     30  H   UNL A   1      33.694  32.245  27.226  1.00  0.00     0.163 HD
ATOM     31  O   UNL A   1      35.826  32.484  28.292  1.00  0.00    -0.269 OA
BRANCH  29  32
ATOM     32  C   UNL A   1      36.082  30.150  28.254  1.00  0.00     0.039 A 
ATOM     33  C   UNL A   1      36.220  29.656  29.561  1.00  0.00     0.014 A 
ATOM     34  C   UNL A   1      37.009  29.793  27.295  1.00  0.00     0.014 A 
ATOM     35  C   UNL A   1      37.436  29.117  29.956  1.00  0.00     0.010 A 
ATOM     36  C   UNL A   1      38.276  29.544  27.724  1.00  0.00     0.010 A 
ATOM     37  C   UNL A   1      38.488  29.222  29.065  1.00  0.00    -0.014 A 
BRANCH  37  38
ATOM     38  C   UNL A   1      39.864  28.869  29.317  1.00  0.00     0.031 A 
ATOM     39  C   UNL A   1      40.223  27.472  29.002  1.00  0.00     0.074 A 
ATOM     40  C   UNL A   1      40.740  29.894  29.393  1.00  0.00     0.049 A 
ATOM     41  N   UNL A   1      41.393  26.979  29.145  1.00  0.00    -0.248 NA
ATOM     42  C   UNL A   1      39.262  26.502  28.470  1.00  0.00     0.031 C 
ATOM     43  C   UNL A   1      42.162  29.895  29.070  1.00  0.00     0.029 A 
ATOM     44  N   UNL A   1      40.522  31.157  29.969  1.00  0.00    -0.354 N 
ATOM     45  C   UNL A   1      41.431  25.777  28.467  1.00  0.00     0.074 A 
ATOM     46  C   UNL A   1      40.064  25.493  28.123  1.00  0.00     0.031 C 
ATOM     47  C   UNL A   1      42.755  30.913  29.718  1.00  0.00     0.029 A 
ATOM     48  C   UNL A   1      41.749  31.483  30.600  1.00  0.00     0.049 A 
ATOM     49  H   UNL A   1      39.700  31.697  29.940  1.00  0.00     0.167 HD
ATOM     50  C   UNL A   1      42.660  25.264  28.183  1.00  0.00     0.037 A 
ATOM     51  C   UNL A   1      41.839  31.485  31.965  1.00  0.00     0.037 A 
ATOM     52  C   UNL A   1      43.679  26.085  28.830  1.00  0.00     0.049 A 
ATOM     53  C   UNL A   1      42.807  30.445  32.477  1.00  0.00     0.074 A 
ATOM     54  C   UNL A   1      44.460  27.135  28.378  1.00  0.00     0.029 A 
ATOM     55  N   UNL A   1      43.696  26.142  30.218  1.00  0.00    -0.354 N 
ATOM     56  N   UNL A   1      43.057  29.315  31.867  1.00  0.00    -0.248 NA
ATOM     57  C   UNL A   1      43.625  30.632  33.670  1.00  0.00     0.031 C 
ATOM     58  C   UNL A   1      44.909  27.859  29.514  1.00  0.00     0.029 A 
ATOM     59  C   UNL A   1      44.413  27.237  30.649  1.00  0.00     0.049 A 
ATOM     60  H   UNL A   1      43.257  25.491  30.811  1.00  0.00     0.167 HD
ATOM     61  C   UNL A   1      44.070  28.661  32.522  1.00  0.00     0.074 A 
ATOM     62  C   UNL A   1      44.380  29.520  33.650  1.00  0.00     0.031 C 
ATOM     63  C   UNL A   1      44.599  27.483  32.069  1.00  0.00     0.037 A 
BRANCH  50  64
ATOM     64  C   UNL A   1      42.993  24.191  27.173  1.00  0.00     0.064 A 
ATOM     65  C   UNL A   1      42.675  22.842  27.459  1.00  0.00     0.173 A 
ATOM     66  C   UNL A   1      43.644  24.388  25.942  1.00  0.00     0.173 A 
ATOM     67  F   UNL A   1      42.011  22.496  28.569  1.00  0.00    -0.203 F 
ATOM     68  C   UNL A   1      43.031  21.785  26.618  1.00  0.00     0.198 A 
ATOM     69  C   UNL A   1      44.022  23.327  25.110  1.00  0.00     0.198 A 
ATOM     70  F   UNL A   1      43.906  25.607  25.466  1.00  0.00    -0.203 F 
ATOM     71  F   UNL A   1      42.708  20.529  26.958  1.00  0.00    -0.200 F 
ATOM     72  C   UNL A   1      43.719  22.025  25.450  1.00  0.00     0.200 A 
ATOM     73  F   UNL A   1      44.680  23.580  23.969  1.00  0.00    -0.200 F 
ATOM     74  F   UNL A   1      44.072  21.012  24.649  1.00  0.00    -0.200 F 
ENDBRANCH  50  64
BRANCH  51  75
ATOM     75  C   UNL A   1      40.544  31.886  32.597  1.00  0.00     0.064 A 
ATOM     76  C   UNL A   1      40.161  33.236  32.449  1.00  0.00     0.173 A 
ATOM     77  C   UNL A   1      39.529  30.950  32.829  1.00  0.00     0.173 A 
ATOM     78  F   UNL A   1      41.099  34.178  32.256  1.00  0.00    -0.203 F 
ATOM     79  C   UNL A   1      38.821  33.597  32.321  1.00  0.00     0.198 A 
ATOM     80  C   UNL A   1      38.185  31.328  32.744  1.00  0.00     0.198 A 
ATOM     81  F   UNL A   1      39.824  29.653  32.995  1.00  0.00    -0.203 F 
ATOM     82  F   UNL A   1      38.498  34.858  31.997  1.00  0.00    -0.200 F 
ATOM     83  C   UNL A   1      37.835  32.633  32.425  1.00  0.00     0.200 A 
ATOM     84  F   UNL A   1      37.222  30.400  32.859  1.00  0.00    -0.200 F 
ATOM     85  F   UNL A   1      36.557  32.948  32.175  1.00  0.00    -0.200 F 
ENDBRANCH  51  75
BRANCH  63  86
ATOM     86  C   UNL A   1      45.426  26.487  32.859  1.00  0.00     0.064 A 
ATOM     87  C   UNL A   1      44.914  25.308  33.422  1.00  0.00     0.173 A 
ATOM     88  C   UNL A   1      46.841  26.616  32.933  1.00  0.00     0.173 A 
ATOM     89  F   UNL A   1      43.622  24.980  33.313  1.00  0.00    -0.203 F 
ATOM     90  C   UNL A   1      45.733  24.375  34.067  1.00  0.00     0.198 A 
ATOM     91  C   UNL A   1      47.660  25.645  33.503  1.00  0.00     0.198 A 
ATOM     92  F   UNL A   1      47.490  27.673  32.423  1.00  0.00    -0.203 F 
ATOM     93  F   UNL A   1      45.179  23.296  34.637  1.00  0.00    -0.200 F 
ATOM     94  C   UNL A   1      47.104  24.535  34.093  1.00  0.00     0.200 A 
ATOM     95  F   UNL A   1      48.993  25.786  33.451  1.00  0.00    -0.200 F 
ATOM     96  F   UNL A   1      47.887  23.610  34.663  1.00  0.00    -0.200 F 
ENDBRANCH  63  86
ENDBRANCH  37  38
ENDBRANCH  29  32
ENDBRANCH  27  28
ENDBRANCH  26  27
ENDBRANCH  25  26
ENDBRANCH   3  25
TORSDOF 17
ENDMDL
MODEL 3
REMARK VINA RESULT:     -12.3      1.461      1.851
REMARK SMILES Cc1cc(S(=O)(=O)N[C@@H](CO)C(=O)NCCCNC(=O)c2ccc(-c3c4nc(c(-c5c(F)c(F)c(F)c(F)c5F)c5ccc([nH]5)c(-c5c(F)c(F)c(F)c(F)c5F)c5nc(c(-c6c(F)c(F)c(F)c(F)c6F)c6ccc3[nH]6)C=C5)C=C4)cc2)ccc1OC(C)C
REMARK SMILES IDX 12 1 13 2 14 3 9 5 8 6 5 8 6 9 7 10 4 11 1 12 2 13 3 14
REMARK SMILES IDX 86 15 85 16 84 17 87 18 88 19 89 20 90 21 10 22 11 23 15 25
REMARK SMILES IDX 16 26 17 27 18 28 19 29 20 31 21 32 22 33 83 34 23 35 82 36
REMARK SMILES IDX 24 37 25 38 26 39 76 40 27 41 81 42 75 43 77 44 28 45 80 46
REMARK SMILES IDX 74 47 73 48 29 50 61 51 41 52 60 53 42 54 45 55 59 56 78 57
REMARK SMILES IDX 43 58 44 59 58 61 79 62 46 63 30 64 31 65 39 66 32 67 33 68
REMARK SMILES IDX 37 69 40 70 34 71 35 72 38 73 36 74 62 75 63 76 71 77 64 78
REMARK SMILES IDX 65 79 69 80 72 81 66 82 67 83 70 84 68 85 47 86 48 87 56 88
REMARK SMILES IDX 49 89 50 90 54 91 57 92 51 93 52 94 55 95 53 96
REMARK H PARENT 14 4 8 7 11 24 18 30 77 49 45 60
REMARK Flexibility Score: inf
ROOT
ATOM      1  C   UNL A   1      33.165  21.193  25.292  1.00  0.00     0.240 C 
ATOM      2  O   UNL A   1      32.358  20.390  24.814  1.00  0.00    -0.273 OA
ATOM      3  N   UNL A   1      34.419  20.744  25.595  1.00  0.00    -0.355 N 
ATOM      4  H   UNL A   1      34.571  19.779  25.476  1.00  0.00     0.163 HD
ENDROOT
BRANCH   1   5
ATOM      5  C   UNL A   1      32.737  22.633  25.623  1.00  0.00     0.184 C 
BRANCH   5   6
ATOM      6  N   UNL A   1      32.676  23.357  24.337  1.00  0.00    -0.196 NA
ATOM      7  H   UNL A   1      32.824  22.646  23.621  1.00  0.00     0.142 HD
BRANCH   6   8
ATOM      8  S   UNL A   1      33.640  24.624  23.897  1.00  0.00     0.241 S 
ATOM      9  O   UNL A   1      34.296  24.229  22.660  1.00  0.00    -0.207 OA
ATOM     10  O   UNL A   1      34.384  24.984  25.070  1.00  0.00    -0.207 OA
BRANCH   8  11
ATOM     11  C   UNL A   1      32.546  25.957  23.527  1.00  0.00     0.083 A 
ATOM     12  C   UNL A   1      31.594  29.059  25.409  1.00  0.00     0.048 C 
ATOM     13  C   UNL A   1      31.617  28.121  24.234  1.00  0.00    -0.008 A 
ATOM     14  C   UNL A   1      32.428  26.984  24.464  1.00  0.00     0.029 A 
ATOM     15  C   UNL A   1      30.967  28.230  22.995  1.00  0.00     0.122 A 
ATOM     16  C   UNL A   1      31.083  27.164  22.075  1.00  0.00     0.048 A 
ATOM     17  C   UNL A   1      31.835  26.022  22.341  1.00  0.00     0.025 A 
BRANCH  15  18
ATOM     18  O   UNL A   1      30.204  29.207  22.436  1.00  0.00    -0.491 OA
BRANCH  18  19
ATOM     19  C   UNL A   1      28.824  29.455  22.651  1.00  0.00     0.167 C 
ATOM     20  C   UNL A   1      28.192  30.272  21.527  1.00  0.00     0.052 C 
ATOM     21  C   UNL A   1      28.075  28.230  23.172  1.00  0.00     0.052 C 
ENDBRANCH  18  19
ENDBRANCH  15  18
ENDBRANCH   8  11
ENDBRANCH   6   8
ENDBRANCH   5   6
BRANCH   5  22
ATOM     22  C   UNL A   1      31.514  22.699  26.553  1.00  0.00     0.186 C 
BRANCH  22  23
ATOM     23  O   UNL A   1      30.437  21.825  26.243  1.00  0.00    -0.394 OA
ATOM     24  H   UNL A   1      30.589  20.962  26.659  1.00  0.00     0.210 HD
ENDBRANCH  22  23
ENDBRANCH   5  22
ENDBRANCH   1   5
BRANCH   3  25
ATOM     25  C   UNL A   1      35.555  21.514  26.071  1.00  0.00     0.117 C 
BRANCH  25  26
ATOM     26  C   UNL A   1      36.864  21.106  25.433  1.00  0.00     0.042 C 
BRANCH  26  27
ATOM     27  C   UNL A   1      37.874  22.225  25.425  1.00  0.00     0.118 C 
BRANCH  27  28
ATOM     28  N   UNL A   1      38.957  22.054  26.382  1.00  0.00    -0.352 N 
ATOM     29  C   UNL A   1      39.791  22.984  26.976  1.00  0.00     0.251 C 
ATOM     30  H   UNL A   1      39.125  21.122  26.652  1.00  0.00     0.163 HD
ATOM     31  O   UNL A   1      40.730  22.587  27.660  1.00  0.00    -0.269 OA
BRANCH  29  32
ATOM     32  C   UNL A   1      39.444  24.431  26.976  1.00  0.00     0.039 A 
ATOM     33  C   UNL A   1      40.243  25.270  26.183  1.00  0.00     0.014 A 
ATOM     34  C   UNL A   1      38.740  24.969  28.035  1.00  0.00     0.014 A 
ATOM     35  C   UNL A   1      40.584  26.526  26.659  1.00  0.00     0.010 A 
ATOM     36  C   UNL A   1      39.282  26.056  28.647  1.00  0.00     0.010 A 
ATOM     37  C   UNL A   1      40.221  26.826  27.960  1.00  0.00    -0.014 A 
BRANCH  37  38
ATOM     38  C   UNL A   1      40.595  28.001  28.706  1.00  0.00     0.031 A 
ATOM     39  C   UNL A   1      39.608  29.098  28.691  1.00  0.00     0.074 A 
ATOM     40  C   UNL A   1      41.549  27.834  29.648  1.00  0.00     0.049 A 
ATOM     41  N   UNL A   1      39.755  30.210  29.304  1.00  0.00    -0.248 NA
ATOM     42  C   UNL A   1      38.333  29.013  27.973  1.00  0.00     0.031 C 
ATOM     43  C   UNL A   1      41.741  28.581  30.886  1.00  0.00     0.029 A 
ATOM     44  N   UNL A   1      42.686  27.010  29.570  1.00  0.00    -0.354 N 
ATOM     45  C   UNL A   1      38.529  30.843  29.331  1.00  0.00     0.074 A 
ATOM     46  C   UNL A   1      37.694  30.091  28.432  1.00  0.00     0.031 C 
ATOM     47  C   UNL A   1      43.020  28.450  31.280  1.00  0.00     0.029 A 
ATOM     48  C   UNL A   1      43.712  27.751  30.210  1.00  0.00     0.049 A 
ATOM     49  H   UNL A   1      42.754  26.118  29.161  1.00  0.00     0.167 HD
ATOM     50  C   UNL A   1      38.371  31.853  30.231  1.00  0.00     0.037 A 
ATOM     51  C   UNL A   1      44.730  28.291  29.472  1.00  0.00     0.037 A 
ATOM     52  C   UNL A   1      39.655  32.119  30.874  1.00  0.00     0.049 A 
ATOM     53  C   UNL A   1      44.744  29.800  29.537  1.00  0.00     0.074 A 
ATOM     54  C   UNL A   1      40.213  31.687  32.065  1.00  0.00     0.029 A 
ATOM     55  N   UNL A   1      40.701  32.586  30.088  1.00  0.00    -0.354 N 
ATOM     56  N   UNL A   1      43.675  30.535  29.703  1.00  0.00    -0.248 NA
ATOM     57  C   UNL A   1      45.969  30.590  29.499  1.00  0.00     0.031 C 
ATOM     58  C   UNL A   1      41.620  31.852  31.968  1.00  0.00     0.029 A 
ATOM     59  C   UNL A   1      41.908  32.398  30.727  1.00  0.00     0.049 A 
ATOM     60  H   UNL A   1      40.595  32.993  29.198  1.00  0.00     0.167 HD
ATOM     61  C   UNL A   1      44.046  31.849  29.846  1.00  0.00     0.074 A 
ATOM     62  C   UNL A   1      45.490  31.831  29.696  1.00  0.00     0.031 C 
ATOM     63  C   UNL A   1      43.145  32.844  30.109  1.00  0.00     0.037 A 
BRANCH  50  64
ATOM     64  C   UNL A   1      37.073  32.455  30.714  1.00  0.00     0.064 A 
ATOM     65  C   UNL A   1      36.353  33.330  29.866  1.00  0.00     0.173 A 
ATOM     66  C   UNL A   1      36.492  32.262  31.980  1.00  0.00     0.173 A 
ATOM     67  F   UNL A   1      36.751  33.579  28.612  1.00  0.00    -0.203 F 
ATOM     68  C   UNL A   1      35.195  33.996  30.272  1.00  0.00     0.198 A 
ATOM     69  C   UNL A   1      35.344  32.947  32.396  1.00  0.00     0.198 A 
ATOM     70  F   UNL A   1      36.976  31.376  32.855  1.00  0.00    -0.203 F 
ATOM     71  F   UNL A   1      34.571  34.822  29.420  1.00  0.00    -0.200 F 
ATOM     72  C   UNL A   1      34.698  33.817  31.544  1.00  0.00     0.200 A 
ATOM     73  F   UNL A   1      34.866  32.750  33.634  1.00  0.00    -0.200 F 
ATOM     74  F   UNL A   1      33.594  34.464  31.940  1.00  0.00    -0.200 F 
ENDBRANCH  50  64
BRANCH  51  75
ATOM     75  C   UNL A   1      45.050  27.447  28.280  1.00  0.00     0.064 A 
ATOM     76  C   UNL A   1      45.616  26.180  28.539  1.00  0.00     0.173 A 
ATOM     77  C   UNL A   1      44.368  27.613  27.068  1.00  0.00     0.173 A 
ATOM     78  F   UNL A   1      46.306  25.976  29.673  1.00  0.00    -0.203 F 
ATOM     79  C   UNL A   1      45.327  25.081  27.731  1.00  0.00     0.198 A 
ATOM     80  C   UNL A   1      44.121  26.514  26.238  1.00  0.00     0.198 A 
ATOM     81  F   UNL A   1      43.820  28.795  26.752  1.00  0.00    -0.203 F 
ATOM     82  F   UNL A   1      45.727  23.856  28.102  1.00  0.00    -0.200 F 
ATOM     83  C   UNL A   1      44.542  25.243  26.603  1.00  0.00     0.200 A 
ATOM     84  F   UNL A   1      43.372  26.667  25.135  1.00  0.00    -0.200 F 
ATOM     85  F   UNL A   1      44.154  24.173  25.895  1.00  0.00    -0.200 F 
ENDBRANCH  51  75
BRANCH  63  86
ATOM     86  C   UNL A   1      43.347  34.335  29.921  1.00  0.00     0.064 A 
ATOM     87  C   UNL A   1      43.554  35.242  30.972  1.00  0.00     0.173 A 
ATOM     88  C   UNL A   1      43.509  34.887  28.620  1.00  0.00     0.173 A 
ATOM     89  F   UNL A   1      43.570  34.845  32.250  1.00  0.00    -0.203 F 
ATOM     90  C   UNL A   1      43.826  36.595  30.745  1.00  0.00     0.198 A 
ATOM     91  C   UNL A   1      43.861  36.216  28.399  1.00  0.00     0.198 A 
ATOM     92  F   UNL A   1      43.368  34.149  27.508  1.00  0.00    -0.203 F 
ATOM     93  F   UNL A   1      43.956  37.425  31.789  1.00  0.00    -0.200 F 
ATOM     94  C   UNL A   1      43.994  37.078  29.462  1.00  0.00     0.200 A 
ATOM     95  F   UNL A   1      44.092  36.644  27.150  1.00  0.00    -0.200 F 
ATOM     96  F   UNL A   1      44.309  38.362  29.254  1.00  0.00    -0.200 F 
ENDBRANCH  63  86
ENDBRANCH  37  38
ENDBRANCH  29  32
ENDBRANCH  27  28
ENDBRANCH  26  27
ENDBRANCH  25  26
ENDBRANCH   3  25
TORSDOF 17
ENDMDL
