MODEL 1
REMARK VINA RESULT:     -13.4      0.000      0.000
REMARK SMILES O=C(NCCCNC(=O)c1cc(-c2ccccc2)nc(Nc2nc3ccccc3s2)n1)c1ccc(-c2c3nc(c(-c4c(F)c(F)c(F)c(F)c4F)c4ccc([nH]4)c(-c4c(F)c(F)c(F)c(F)c4F)c4nc(c(-c5c(F)c(F)c(F)c(F)c5F)c5ccc2[nH]5)C=C4)C=C3)cc1
REMARK SMILES IDX 5 1 4 2 3 3 1 4 2 5 32 7 33 8 94 9 34 10 93 11 35 12 36 13
REMARK SMILES IDX 37 14 87 15 38 16 92 17 86 18 88 19 39 20 91 21 85 22 84 23
REMARK SMILES IDX 40 25 72 26 52 27 71 28 53 29 56 30 70 31 89 32 54 33 55 34
REMARK SMILES IDX 69 36 90 37 57 38 41 39 42 40 50 41 43 42 44 43 48 44 51 45
REMARK SMILES IDX 45 46 46 47 49 48 47 49 73 50 74 51 82 52 75 53 76 54 80 55
REMARK SMILES IDX 83 56 77 57 78 58 81 59 79 60 58 61 59 62 67 63 60 64 61 65
REMARK SMILES IDX 65 66 68 67 62 68 63 69 66 70 64 71 6 72 7 73 8 74 9 76
REMARK SMILES IDX 10 77 11 78 31 79 12 80 20 81 19 82 13 83 14 84 18 85 15 86
REMARK SMILES IDX 17 87 16 88 21 89 22 91 23 92 30 93 24 94 29 95 25 96 28 97
REMARK SMILES IDX 26 98 27 99
REMARK H PARENT 3 6 88 24 56 35 7 75 21 90
REMARK Flexibility Score: inf
ROOT
ATOM      1  C   UNL A   1      33.047  27.717  25.666  1.00  0.00     0.042 C 
ENDROOT
BRANCH   1   2
ATOM      2  C   UNL A   1      33.677  29.007  25.161  1.00  0.00     0.118 C 
BRANCH   2   3
ATOM      3  N   UNL A   1      33.022  30.196  25.687  1.00  0.00    -0.352 N 
ATOM      4  O   UNL A   1      32.508  31.797  27.182  1.00  0.00    -0.269 OA
ATOM      5  C   UNL A   1      33.304  30.945  26.802  1.00  0.00     0.251 C 
ATOM      6  H   UNL A   1      32.254  30.514  25.160  1.00  0.00     0.163 HD
BRANCH   5   7
ATOM      7  C   UNL A   1      34.551  30.714  27.561  1.00  0.00     0.039 A 
ATOM      8  C   UNL A   1      35.535  31.702  27.651  1.00  0.00     0.014 A 
ATOM      9  C   UNL A   1      34.720  29.498  28.228  1.00  0.00     0.014 A 
ATOM     10  C   UNL A   1      36.745  31.425  28.278  1.00  0.00     0.010 A 
ATOM     11  C   UNL A   1      35.896  29.255  28.939  1.00  0.00     0.010 A 
ATOM     12  C   UNL A   1      36.929  30.206  28.945  1.00  0.00    -0.014 A 
BRANCH  12  13
ATOM     13  C   UNL A   1      38.177  29.953  29.702  1.00  0.00     0.031 A 
ATOM     14  C   UNL A   1      39.222  29.021  29.167  1.00  0.00     0.074 A 
ATOM     15  C   UNL A   1      38.342  30.539  30.904  1.00  0.00     0.049 A 
ATOM     16  N   UNL A   1      40.323  28.594  29.736  1.00  0.00    -0.248 NA
ATOM     17  C   UNL A   1      38.997  28.485  27.816  1.00  0.00     0.031 C 
ATOM     18  C   UNL A   1      37.392  31.462  31.525  1.00  0.00     0.029 A 
ATOM     19  N   UNL A   1      39.355  30.431  31.822  1.00  0.00    -0.354 N 
ATOM     20  C   UNL A   1      40.905  27.722  28.827  1.00  0.00     0.074 A 
ATOM     21  C   UNL A   1      40.024  27.659  27.680  1.00  0.00     0.031 C 
ATOM     22  C   UNL A   1      37.864  31.838  32.721  1.00  0.00     0.029 A 
ATOM     23  C   UNL A   1      39.113  31.130  32.979  1.00  0.00     0.049 A 
ATOM     24  H   UNL A   1      40.172  29.906  31.668  1.00  0.00     0.167 HD
ATOM     25  C   UNL A   1      42.071  27.039  28.944  1.00  0.00     0.037 A 
ATOM     26  C   UNL A   1      39.796  31.164  34.138  1.00  0.00     0.037 A 
ATOM     27  C   UNL A   1      42.936  27.115  30.093  1.00  0.00     0.049 A 
ATOM     28  C   UNL A   1      41.060  30.365  34.266  1.00  0.00     0.074 A 
ATOM     29  C   UNL A   1      44.162  26.503  30.293  1.00  0.00     0.029 A 
ATOM     30  N   UNL A   1      42.659  27.836  31.247  1.00  0.00    -0.354 N 
ATOM     31  N   UNL A   1      41.626  29.574  33.388  1.00  0.00    -0.248 NA
ATOM     32  C   UNL A   1      41.780  30.461  35.542  1.00  0.00     0.031 C 
ATOM     33  C   UNL A   1      44.590  26.796  31.591  1.00  0.00     0.029 A 
ATOM     34  C   UNL A   1      43.671  27.653  32.176  1.00  0.00     0.049 A 
ATOM     35  H   UNL A   1      41.860  28.395  31.385  1.00  0.00     0.167 HD
ATOM     36  C   UNL A   1      42.783  29.100  33.990  1.00  0.00     0.074 A 
ATOM     37  C   UNL A   1      42.837  29.692  35.311  1.00  0.00     0.031 C 
ATOM     38  C   UNL A   1      43.718  28.256  33.486  1.00  0.00     0.037 A 
BRANCH  25  39
ATOM     39  C   UNL A   1      42.450  26.118  27.819  1.00  0.00     0.064 A 
ATOM     40  C   UNL A   1      41.999  24.790  27.757  1.00  0.00     0.173 A 
ATOM     41  C   UNL A   1      43.276  26.574  26.779  1.00  0.00     0.173 A 
ATOM     42  F   UNL A   1      41.212  24.298  28.725  1.00  0.00    -0.203 F 
ATOM     43  C   UNL A   1      42.399  23.942  26.726  1.00  0.00     0.198 A 
ATOM     44  C   UNL A   1      43.645  25.734  25.731  1.00  0.00     0.198 A 
ATOM     45  F   UNL A   1      43.729  27.837  26.778  1.00  0.00    -0.203 F 
ATOM     46  F   UNL A   1      42.012  22.659  26.728  1.00  0.00    -0.200 F 
ATOM     47  C   UNL A   1      43.218  24.416  25.712  1.00  0.00     0.200 A 
ATOM     48  F   UNL A   1      44.423  26.200  24.743  1.00  0.00    -0.200 F 
ATOM     49  F   UNL A   1      43.606  23.597  24.724  1.00  0.00    -0.200 F 
ENDBRANCH  25  39
BRANCH  26  50
ATOM     50  C   UNL A   1      39.266  31.978  35.261  1.00  0.00     0.064 A 
ATOM     51  C   UNL A   1      38.495  31.397  36.274  1.00  0.00     0.173 A 
ATOM     52  C   UNL A   1      39.578  33.342  35.375  1.00  0.00     0.173 A 
ATOM     53  F   UNL A   1      38.160  30.100  36.201  1.00  0.00    -0.203 F 
ATOM     54  C   UNL A   1      38.053  32.149  37.361  1.00  0.00     0.198 A 
ATOM     55  C   UNL A   1      39.162  34.086  36.476  1.00  0.00     0.198 A 
ATOM     56  F   UNL A   1      40.325  33.941  34.435  1.00  0.00    -0.203 F 
ATOM     57  F   UNL A   1      37.297  31.575  38.307  1.00  0.00    -0.200 F 
ATOM     58  C   UNL A   1      38.397  33.489  37.467  1.00  0.00     0.200 A 
ATOM     59  F   UNL A   1      39.515  35.374  36.585  1.00  0.00    -0.200 F 
ATOM     60  F   UNL A   1      37.991  34.206  38.523  1.00  0.00    -0.200 F 
ENDBRANCH  26  50
BRANCH  38  61
ATOM     61  C   UNL A   1      44.914  27.953  34.341  1.00  0.00     0.064 A 
ATOM     62  C   UNL A   1      44.922  26.891  35.256  1.00  0.00     0.173 A 
ATOM     63  C   UNL A   1      46.099  28.689  34.176  1.00  0.00     0.173 A 
ATOM     64  F   UNL A   1      43.810  26.170  35.462  1.00  0.00    -0.203 F 
ATOM     65  C   UNL A   1      46.072  26.580  35.977  1.00  0.00     0.198 A 
ATOM     66  C   UNL A   1      47.253  28.355  34.876  1.00  0.00     0.198 A 
ATOM     67  F   UNL A   1      46.143  29.713  33.310  1.00  0.00    -0.203 F 
ATOM     68  F   UNL A   1      46.050  25.579  36.868  1.00  0.00    -0.200 F 
ATOM     69  C   UNL A   1      47.238  27.303  35.778  1.00  0.00     0.200 A 
ATOM     70  F   UNL A   1      48.383  29.046  34.670  1.00  0.00    -0.200 F 
ATOM     71  F   UNL A   1      48.349  26.985  36.457  1.00  0.00    -0.200 F 
ENDBRANCH  38  61
ENDBRANCH  12  13
ENDBRANCH   5   7
ENDBRANCH   2   3
ENDBRANCH   1   2
BRANCH   1  72
ATOM     72  C   UNL A   1      32.017  27.117  24.723  1.00  0.00     0.118 C 
BRANCH  72  73
ATOM     73  N   UNL A   1      32.495  27.040  23.351  1.00  0.00    -0.351 N 
ATOM     74  C   UNL A   1      33.283  26.089  22.746  1.00  0.00     0.270 C 
ATOM     75  H   UNL A   1      32.208  27.779  22.767  1.00  0.00     0.163 HD
ATOM     76  O   UNL A   1      33.666  26.279  21.594  1.00  0.00    -0.268 OA
BRANCH  74  77
ATOM     77  C   UNL A   1      33.637  24.843  23.471  1.00  0.00     0.134 A 
ATOM     78  C   UNL A   1      34.876  24.688  24.024  1.00  0.00     0.063 A 
ATOM     79  N   UNL A   1      32.679  23.916  23.539  1.00  0.00    -0.207 NA
ATOM     80  C   UNL A   1      35.122  23.459  24.591  1.00  0.00     0.077 A 
ATOM     81  C   UNL A   1      32.961  22.765  24.154  1.00  0.00     0.230 A 
ATOM     82  N   UNL A   1      34.171  22.497  24.677  1.00  0.00    -0.213 NA
BRANCH  80  83
ATOM     83  C   UNL A   1      36.480  23.132  25.050  1.00  0.00     0.000 A 
ATOM     84  C   UNL A   1      37.219  24.038  25.828  1.00  0.00     0.010 A 
ATOM     85  C   UNL A   1      37.032  21.857  24.821  1.00  0.00     0.010 A 
ATOM     86  C   UNL A   1      38.449  23.670  26.384  1.00  0.00     0.001 A 
ATOM     87  C   UNL A   1      38.260  21.490  25.374  1.00  0.00     0.001 A 
ATOM     88  C   UNL A   1      38.964  22.396  26.162  1.00  0.00     0.000 A 
ENDBRANCH  80  83
BRANCH  81  89
ATOM     89  N   UNL A   1      31.944  21.832  24.344  1.00  0.00    -0.300 N 
ATOM     90  H   UNL A   1      31.034  22.154  24.534  1.00  0.00     0.172 HD
BRANCH  89  91
ATOM     91  C   UNL A   1      32.161  20.501  24.277  1.00  0.00     0.190 A 
ATOM     92  N   UNL A   1      32.151  19.687  25.309  1.00  0.00    -0.220 NA
ATOM     93  S   UNL A   1      32.498  19.722  22.773  1.00  0.00    -0.097 S 
ATOM     94  C   UNL A   1      32.644  18.450  24.969  1.00  0.00     0.084 A 
ATOM     95  C   UNL A   1      32.916  18.272  23.613  1.00  0.00     0.056 A 
ATOM     96  C   UNL A   1      32.901  17.397  25.868  1.00  0.00     0.030 A 
ATOM     97  C   UNL A   1      33.450  17.067  23.125  1.00  0.00     0.021 A 
ATOM     98  C   UNL A   1      33.443  16.201  25.397  1.00  0.00     0.002 A 
ATOM     99  C   UNL A   1      33.715  16.040  24.041  1.00  0.00     0.002 A 
ENDBRANCH  89  91
ENDBRANCH  81  89
ENDBRANCH  74  77
ENDBRANCH  72  73
ENDBRANCH   1  72
TORSDOF 13
ENDMDL
MODEL 2
REMARK VINA RESULT:     -13.3      2.312      7.383
REMARK SMILES O=C(NCCCNC(=O)c1cc(-c2ccccc2)nc(Nc2nc3ccccc3s2)n1)c1ccc(-c2c3nc(c(-c4c(F)c(F)c(F)c(F)c4F)c4ccc([nH]4)c(-c4c(F)c(F)c(F)c(F)c4F)c4nc(c(-c5c(F)c(F)c(F)c(F)c5F)c5ccc2[nH]5)C=C4)C=C3)cc1
REMARK SMILES IDX 5 1 4 2 3 3 1 4 2 5 32 7 33 8 94 9 34 10 93 11 35 12 36 13
REMARK SMILES IDX 37 14 87 15 38 16 92 17 86 18 88 19 39 20 91 21 85 22 84 23
REMARK SMILES IDX 40 25 72 26 52 27 71 28 53 29 56 30 70 31 89 32 54 33 55 34
REMARK SMILES IDX 69 36 90 37 57 38 41 39 42 40 50 41 43 42 44 43 48 44 51 45
REMARK SMILES IDX 45 46 46 47 49 48 47 49 73 50 74 51 82 52 75 53 76 54 80 55
REMARK SMILES IDX 83 56 77 57 78 58 81 59 79 60 58 61 59 62 67 63 60 64 61 65
REMARK SMILES IDX 65 66 68 67 62 68 63 69 66 70 64 71 6 72 7 73 8 74 9 76
REMARK SMILES IDX 10 77 11 78 31 79 12 80 20 81 19 82 13 83 14 84 18 85 15 86
REMARK SMILES IDX 17 87 16 88 21 89 22 91 23 92 30 93 24 94 29 95 25 96 28 97
REMARK SMILES IDX 26 98 27 99
REMARK H PARENT 3 6 88 24 56 35 7 75 21 90
REMARK Flexibility Score: inf
ROOT
ATOM      1  C   UNL A   1      33.958  27.725  25.458  1.00  0.00     0.042 C 
ENDROOT
BRANCH   1   2
ATOM      2  C   UNL A   1      33.707  28.189  26.885  1.00  0.00     0.118 C 
BRANCH   2   3
ATOM      3  N   UNL A   1      33.621  29.638  26.998  1.00  0.00    -0.352 N 
ATOM      4  O   UNL A   1      34.105  31.695  27.770  1.00  0.00    -0.269 OA
ATOM      5  C   UNL A   1      34.459  30.531  27.617  1.00  0.00     0.251 C 
ATOM      6  H   UNL A   1      32.836  30.042  26.562  1.00  0.00     0.163 HD
BRANCH   5   7
ATOM      7  C   UNL A   1      35.778  30.092  28.120  1.00  0.00     0.039 A 
ATOM      8  C   UNL A   1      35.935  29.632  29.430  1.00  0.00     0.014 A 
ATOM      9  C   UNL A   1      36.870  30.105  27.248  1.00  0.00     0.014 A 
ATOM     10  C   UNL A   1      37.202  29.326  29.913  1.00  0.00     0.010 A 
ATOM     11  C   UNL A   1      38.127  29.707  27.707  1.00  0.00     0.010 A 
ATOM     12  C   UNL A   1      38.308  29.342  29.051  1.00  0.00    -0.014 A 
BRANCH  12  13
ATOM     13  C   UNL A   1      39.640  28.915  29.539  1.00  0.00     0.031 A 
ATOM     14  C   UNL A   1      40.445  29.802  30.441  1.00  0.00     0.074 A 
ATOM     15  C   UNL A   1      40.139  27.735  29.126  1.00  0.00     0.049 A 
ATOM     16  N   UNL A   1      41.670  29.645  30.879  1.00  0.00    -0.248 NA
ATOM     17  C   UNL A   1      39.794  31.036  30.903  1.00  0.00     0.031 C 
ATOM     18  C   UNL A   1      39.446  26.791  28.248  1.00  0.00     0.029 A 
ATOM     19  N   UNL A   1      41.348  27.137  29.373  1.00  0.00    -0.354 N 
ATOM     20  C   UNL A   1      41.945  30.771  31.644  1.00  0.00     0.074 A 
ATOM     21  C   UNL A   1      40.770  31.614  31.589  1.00  0.00     0.031 C 
ATOM     22  C   UNL A   1      40.238  25.733  28.029  1.00  0.00     0.029 A 
ATOM     23  C   UNL A   1      41.517  25.956  28.694  1.00  0.00     0.049 A 
ATOM     24  H   UNL A   1      42.026  27.516  29.977  1.00  0.00     0.167 HD
ATOM     25  C   UNL A   1      43.077  31.066  32.329  1.00  0.00     0.037 A 
ATOM     26  C   UNL A   1      42.597  25.161  28.578  1.00  0.00     0.037 A 
ATOM     27  C   UNL A   1      44.237  30.213  32.373  1.00  0.00     0.049 A 
ATOM     28  C   UNL A   1      43.858  25.529  29.306  1.00  0.00     0.074 A 
ATOM     29  C   UNL A   1      45.417  30.396  33.075  1.00  0.00     0.029 A 
ATOM     30  N   UNL A   1      44.372  29.022  31.671  1.00  0.00    -0.354 N 
ATOM     31  N   UNL A   1      44.097  26.574  30.060  1.00  0.00    -0.248 NA
ATOM     32  C   UNL A   1      44.996  24.612  29.169  1.00  0.00     0.031 C 
ATOM     33  C   UNL A   1      46.288  29.354  32.743  1.00  0.00     0.029 A 
ATOM     34  C   UNL A   1      45.627  28.480  31.894  1.00  0.00     0.049 A 
ATOM     35  H   UNL A   1      43.677  28.622  31.100  1.00  0.00     0.167 HD
ATOM     36  C   UNL A   1      45.401  26.428  30.512  1.00  0.00     0.074 A 
ATOM     37  C   UNL A   1      45.901  25.192  29.945  1.00  0.00     0.031 C 
ATOM     38  C   UNL A   1      46.112  27.242  31.330  1.00  0.00     0.037 A 
BRANCH  25  39
ATOM     39  C   UNL A   1      43.129  32.386  33.046  1.00  0.00     0.064 A 
ATOM     40  C   UNL A   1      43.549  33.565  32.409  1.00  0.00     0.173 A 
ATOM     41  C   UNL A   1      42.744  32.475  34.393  1.00  0.00     0.173 A 
ATOM     42  F   UNL A   1      43.933  33.539  31.125  1.00  0.00    -0.203 F 
ATOM     43  C   UNL A   1      43.629  34.768  33.107  1.00  0.00     0.198 A 
ATOM     44  C   UNL A   1      42.790  33.687  35.077  1.00  0.00     0.198 A 
ATOM     45  F   UNL A   1      42.322  31.384  35.050  1.00  0.00    -0.203 F 
ATOM     46  F   UNL A   1      44.100  35.865  32.496  1.00  0.00    -0.200 F 
ATOM     47  C   UNL A   1      43.246  34.830  34.438  1.00  0.00     0.200 A 
ATOM     48  F   UNL A   1      42.403  33.747  36.359  1.00  0.00    -0.200 F 
ATOM     49  F   UNL A   1      43.329  35.987  35.109  1.00  0.00    -0.200 F 
ENDBRANCH  25  39
BRANCH  26  50
ATOM     50  C   UNL A   1      42.513  23.953  27.718  1.00  0.00     0.064 A 
ATOM     51  C   UNL A   1      42.816  24.015  26.353  1.00  0.00     0.173 A 
ATOM     52  C   UNL A   1      42.190  22.700  28.262  1.00  0.00     0.173 A 
ATOM     53  F   UNL A   1      43.117  25.192  25.786  1.00  0.00    -0.203 F 
ATOM     54  C   UNL A   1      42.799  22.868  25.562  1.00  0.00     0.198 A 
ATOM     55  C   UNL A   1      42.202  21.550  27.478  1.00  0.00     0.198 A 
ATOM     56  F   UNL A   1      41.903  22.589  29.569  1.00  0.00    -0.203 F 
ATOM     57  F   UNL A   1      43.071  22.956  24.253  1.00  0.00    -0.200 F 
ATOM     58  C   UNL A   1      42.504  21.636  26.127  1.00  0.00     0.200 A 
ATOM     59  F   UNL A   1      41.938  20.360  28.033  1.00  0.00    -0.200 F 
ATOM     60  F   UNL A   1      42.509  20.530  25.370  1.00  0.00    -0.200 F 
ENDBRANCH  26  50
BRANCH  38  61
ATOM     61  C   UNL A   1      47.498  26.809  31.711  1.00  0.00     0.064 A 
ATOM     62  C   UNL A   1      47.738  25.988  32.822  1.00  0.00     0.173 A 
ATOM     63  C   UNL A   1      48.589  27.154  30.898  1.00  0.00     0.173 A 
ATOM     64  F   UNL A   1      46.731  25.646  33.639  1.00  0.00    -0.203 F 
ATOM     65  C   UNL A   1      49.023  25.533  33.108  1.00  0.00     0.198 A 
ATOM     66  C   UNL A   1      49.865  26.672  31.170  1.00  0.00     0.198 A 
ATOM     67  F   UNL A   1      48.410  27.934  29.822  1.00  0.00    -0.203 F 
ATOM     68  F   UNL A   1      49.237  24.773  34.191  1.00  0.00    -0.200 F 
ATOM     69  C   UNL A   1      50.082  25.864  32.276  1.00  0.00     0.200 A 
ATOM     70  F   UNL A   1      50.884  26.980  30.355  1.00  0.00    -0.200 F 
ATOM     71  F   UNL A   1      51.313  25.404  32.540  1.00  0.00    -0.200 F 
ENDBRANCH  38  61
ENDBRANCH  12  13
ENDBRANCH   5   7
ENDBRANCH   2   3
ENDBRANCH   1   2
BRANCH   1  72
ATOM     72  C   UNL A   1      32.728  27.170  24.759  1.00  0.00     0.118 C 
BRANCH  72  73
ATOM     73  N   UNL A   1      32.933  26.984  23.331  1.00  0.00    -0.351 N 
ATOM     74  C   UNL A   1      33.464  25.914  22.649  1.00  0.00     0.270 C 
ATOM     75  H   UNL A   1      32.647  27.739  22.766  1.00  0.00     0.163 HD
ATOM     76  O   UNL A   1      33.653  26.013  21.440  1.00  0.00    -0.268 OA
BRANCH  74  77
ATOM     77  C   UNL A   1      33.773  24.653  23.369  1.00  0.00     0.134 A 
ATOM     78  C   UNL A   1      34.998  24.461  23.940  1.00  0.00     0.063 A 
ATOM     79  N   UNL A   1      32.790  23.751  23.413  1.00  0.00    -0.207 NA
ATOM     80  C   UNL A   1      35.203  23.221  24.499  1.00  0.00     0.077 A 
ATOM     81  C   UNL A   1      33.032  22.587  24.022  1.00  0.00     0.230 A 
ATOM     82  N   UNL A   1      34.226  22.283  24.561  1.00  0.00    -0.213 NA
BRANCH  80  83
ATOM     83  C   UNL A   1      36.545  22.854  24.977  1.00  0.00     0.000 A 
ATOM     84  C   UNL A   1      37.313  23.751  25.737  1.00  0.00     0.010 A 
ATOM     85  C   UNL A   1      37.049  21.553  24.785  1.00  0.00     0.010 A 
ATOM     86  C   UNL A   1      38.524  23.351  26.311  1.00  0.00     0.001 A 
ATOM     87  C   UNL A   1      38.259  21.155  25.357  1.00  0.00     0.001 A 
ATOM     88  C   UNL A   1      38.991  22.052  26.126  1.00  0.00     0.000 A 
ENDBRANCH  80  83
BRANCH  81  89
ATOM     89  N   UNL A   1      31.989  21.679  24.187  1.00  0.00    -0.300 N 
ATOM     90  H   UNL A   1      31.073  22.023  24.296  1.00  0.00     0.172 HD
BRANCH  89  91
ATOM     91  C   UNL A   1      32.186  20.343  24.202  1.00  0.00     0.190 A 
ATOM     92  N   UNL A   1      32.153  19.594  25.280  1.00  0.00    -0.220 NA
ATOM     93  S   UNL A   1      32.528  19.471  22.752  1.00  0.00    -0.097 S 
ATOM     94  C   UNL A   1      32.631  18.332  25.021  1.00  0.00     0.084 A 
ATOM     95  C   UNL A   1      32.915  18.068  23.682  1.00  0.00     0.056 A 
ATOM     96  C   UNL A   1      32.862  17.331  25.985  1.00  0.00     0.030 A 
ATOM     97  C   UNL A   1      33.436  16.829  23.273  1.00  0.00     0.021 A 
ATOM     98  C   UNL A   1      33.391  16.101  25.593  1.00  0.00     0.002 A 
ATOM     99  C   UNL A   1      33.675  15.855  24.252  1.00  0.00     0.002 A 
ENDBRANCH  89  91
ENDBRANCH  81  89
ENDBRANCH  74  77
ENDBRANCH  72  73
ENDBRANCH   1  72
TORSDOF 13
ENDMDL
MODEL 3
REMARK VINA RESULT:     -13.0      4.513      9.921
REMARK SMILES O=C(NCCCNC(=O)c1cc(-c2ccccc2)nc(Nc2nc3ccccc3s2)n1)c1ccc(-c2c3nc(c(-c4c(F)c(F)c(F)c(F)c4F)c4ccc([nH]4)c(-c4c(F)c(F)c(F)c(F)c4F)c4nc(c(-c5c(F)c(F)c(F)c(F)c5F)c5ccc2[nH]5)C=C4)C=C3)cc1
REMARK SMILES IDX 5 1 4 2 3 3 1 4 2 5 32 7 33 8 94 9 34 10 93 11 35 12 36 13
REMARK SMILES IDX 37 14 87 15 38 16 92 17 86 18 88 19 39 20 91 21 85 22 84 23
REMARK SMILES IDX 40 25 72 26 52 27 71 28 53 29 56 30 70 31 89 32 54 33 55 34
REMARK SMILES IDX 69 36 90 37 57 38 41 39 42 40 50 41 43 42 44 43 48 44 51 45
REMARK SMILES IDX 45 46 46 47 49 48 47 49 73 50 74 51 82 52 75 53 76 54 80 55
REMARK SMILES IDX 83 56 77 57 78 58 81 59 79 60 58 61 59 62 67 63 60 64 61 65
REMARK SMILES IDX 65 66 68 67 62 68 63 69 66 70 64 71 6 72 7 73 8 74 9 76
REMARK SMILES IDX 10 77 11 78 31 79 12 80 20 81 19 82 13 83 14 84 18 85 15 86
REMARK SMILES IDX 17 87 16 88 21 89 22 91 23 92 30 93 24 94 29 95 25 96 28 97
REMARK SMILES IDX 26 98 27 99
REMARK H PARENT 3 6 88 24 56 35 7 75 21 90
REMARK Flexibility Score: inf
ROOT
ATOM      1  C   UNL A   1      38.033  20.004  24.991  1.00  0.00     0.042 C 
ENDROOT
BRANCH   1   2
ATOM      2  C   UNL A   1      39.027  20.182  26.130  1.00  0.00     0.118 C 
BRANCH   2   3
ATOM      3  N   UNL A   1      40.169  19.285  26.025  1.00  0.00    -0.352 N 
ATOM      4  O   UNL A   1      42.318  18.680  25.752  1.00  0.00    -0.269 OA
ATOM      5  C   UNL A   1      41.514  19.554  26.057  1.00  0.00     0.251 C 
ATOM      6  H   UNL A   1      39.940  18.334  25.912  1.00  0.00     0.163 HD
BRANCH   5   7
ATOM      7  C   UNL A   1      41.998  20.898  26.436  1.00  0.00     0.039 A 
ATOM      8  C   UNL A   1      42.284  21.215  27.766  1.00  0.00     0.014 A 
ATOM      9  C   UNL A   1      42.208  21.847  25.431  1.00  0.00     0.014 A 
ATOM     10  C   UNL A   1      42.635  22.514  28.113  1.00  0.00     0.010 A 
ATOM     11  C   UNL A   1      42.651  23.126  25.769  1.00  0.00     0.010 A 
ATOM     12  C   UNL A   1      42.841  23.478  27.115  1.00  0.00    -0.014 A 
BRANCH  12  13
ATOM     13  C   UNL A   1      43.317  24.834  27.476  1.00  0.00     0.031 A 
ATOM     14  C   UNL A   1      42.375  25.848  28.053  1.00  0.00     0.074 A 
ATOM     15  C   UNL A   1      44.602  25.160  27.239  1.00  0.00     0.049 A 
ATOM     16  N   UNL A   1      42.584  27.112  28.327  1.00  0.00    -0.248 NA
ATOM     17  C   UNL A   1      41.011  25.386  28.350  1.00  0.00     0.031 C 
ATOM     18  C   UNL A   1      45.608  24.255  26.680  1.00  0.00     0.029 A 
ATOM     19  N   UNL A   1      45.275  26.340  27.419  1.00  0.00    -0.354 N 
ATOM     20  C   UNL A   1      41.375  27.601  28.802  1.00  0.00     0.074 A 
ATOM     21  C   UNL A   1      40.429  26.505  28.754  1.00  0.00     0.031 C 
ATOM     22  C   UNL A   1      46.770  24.911  26.563  1.00  0.00     0.029 A 
ATOM     23  C   UNL A   1      46.573  26.297  26.972  1.00  0.00     0.049 A 
ATOM     24  H   UNL A   1      44.870  27.139  27.827  1.00  0.00     0.167 HD
ATOM     25  C   UNL A   1      41.086  28.852  29.238  1.00  0.00     0.037 A 
ATOM     26  C   UNL A   1      47.491  27.275  26.860  1.00  0.00     0.037 A 
ATOM     27  C   UNL A   1      42.041  29.930  29.280  1.00  0.00     0.049 A 
ATOM     28  C   UNL A   1      47.139  28.665  27.304  1.00  0.00     0.074 A 
ATOM     29  C   UNL A   1      41.865  31.221  29.748  1.00  0.00     0.029 A 
ATOM     30  N   UNL A   1      43.348  29.849  28.819  1.00  0.00    -0.354 N 
ATOM     31  N   UNL A   1      46.006  29.111  27.790  1.00  0.00    -0.248 NA
ATOM     32  C   UNL A   1      48.187  29.686  27.186  1.00  0.00     0.031 C 
ATOM     33  C   UNL A   1      43.041  31.937  29.506  1.00  0.00     0.029 A 
ATOM     34  C   UNL A   1      43.977  31.076  28.957  1.00  0.00     0.049 A 
ATOM     35  H   UNL A   1      43.767  29.038  28.449  1.00  0.00     0.167 HD
ATOM     36  C   UNL A   1      46.211  30.456  28.064  1.00  0.00     0.074 A 
ATOM     37  C   UNL A   1      47.578  30.752  27.688  1.00  0.00     0.031 C 
ATOM     38  C   UNL A   1      45.344  31.357  28.587  1.00  0.00     0.037 A 
BRANCH  25  39
ATOM     39  C   UNL A   1      39.671  29.129  29.660  1.00  0.00     0.064 A 
ATOM     40  C   UNL A   1      38.688  29.542  28.747  1.00  0.00     0.173 A 
ATOM     41  C   UNL A   1      39.289  28.973  31.002  1.00  0.00     0.173 A 
ATOM     42  F   UNL A   1      38.996  29.715  27.453  1.00  0.00    -0.203 F 
ATOM     43  C   UNL A   1      37.392  29.835  29.170  1.00  0.00     0.198 A 
ATOM     44  C   UNL A   1      37.984  29.230  31.414  1.00  0.00     0.198 A 
ATOM     45  F   UNL A   1      40.183  28.568  31.917  1.00  0.00    -0.203 F 
ATOM     46  F   UNL A   1      36.491  30.295  28.292  1.00  0.00    -0.200 F 
ATOM     47  C   UNL A   1      37.041  29.675  30.502  1.00  0.00     0.200 A 
ATOM     48  F   UNL A   1      37.643  29.059  32.700  1.00  0.00    -0.200 F 
ATOM     49  F   UNL A   1      35.796  29.962  30.907  1.00  0.00    -0.200 F 
ENDBRANCH  25  39
BRANCH  26  50
ATOM     50  C   UNL A   1      48.820  26.950  26.281  1.00  0.00     0.064 A 
ATOM     51  C   UNL A   1      49.848  26.432  27.077  1.00  0.00     0.173 A 
ATOM     52  C   UNL A   1      49.063  27.091  24.906  1.00  0.00     0.173 A 
ATOM     53  F   UNL A   1      49.666  26.292  28.399  1.00  0.00    -0.203 F 
ATOM     54  C   UNL A   1      51.072  26.067  26.520  1.00  0.00     0.198 A 
ATOM     55  C   UNL A   1      50.275  26.698  24.346  1.00  0.00     0.198 A 
ATOM     56  F   UNL A   1      48.104  27.572  24.100  1.00  0.00    -0.203 F 
ATOM     57  F   UNL A   1      52.048  25.594  27.307  1.00  0.00    -0.200 F 
ATOM     58  C   UNL A   1      51.281  26.190  25.154  1.00  0.00     0.200 A 
ATOM     59  F   UNL A   1      50.464  26.798  23.022  1.00  0.00    -0.200 F 
ATOM     60  F   UNL A   1      52.450  25.817  24.616  1.00  0.00    -0.200 F 
ENDBRANCH  26  50
BRANCH  38  61
ATOM     61  C   UNL A   1      45.852  32.747  28.838  1.00  0.00     0.064 A 
ATOM     62  C   UNL A   1      46.533  33.087  30.015  1.00  0.00     0.173 A 
ATOM     63  C   UNL A   1      45.728  33.730  27.843  1.00  0.00     0.173 A 
ATOM     64  F   UNL A   1      46.662  32.188  31.003  1.00  0.00    -0.203 F 
ATOM     65  C   UNL A   1      47.065  34.361  30.189  1.00  0.00     0.198 A 
ATOM     66  C   UNL A   1      46.288  34.992  28.008  1.00  0.00     0.198 A 
ATOM     67  F   UNL A   1      45.088  33.453  26.696  1.00  0.00    -0.203 F 
ATOM     68  F   UNL A   1      47.687  34.675  31.335  1.00  0.00    -0.200 F 
ATOM     69  C   UNL A   1      46.954  35.308  29.182  1.00  0.00     0.200 A 
ATOM     70  F   UNL A   1      46.193  35.899  27.026  1.00  0.00    -0.200 F 
ATOM     71  F   UNL A   1      47.489  36.526  29.343  1.00  0.00    -0.200 F 
ENDBRANCH  38  61
ENDBRANCH  12  13
ENDBRANCH   5   7
ENDBRANCH   2   3
ENDBRANCH   1   2
BRANCH   1  72
ATOM     72  C   UNL A   1      37.529  21.309  24.397  1.00  0.00     0.118 C 
BRANCH  72  73
ATOM     73  N   UNL A   1      36.954  22.194  25.398  1.00  0.00    -0.351 N 
ATOM     74  C   UNL A   1      35.636  22.468  25.679  1.00  0.00     0.270 C 
ATOM     75  H   UNL A   1      37.608  22.667  25.963  1.00  0.00     0.163 HD
ATOM     76  O   UNL A   1      35.371  23.342  26.499  1.00  0.00    -0.268 OA
BRANCH  74  77
ATOM     77  C   UNL A   1      34.558  21.692  25.016  1.00  0.00     0.134 A 
ATOM     78  C   UNL A   1      34.403  20.359  25.270  1.00  0.00     0.063 A 
ATOM     79  N   UNL A   1      33.775  22.378  24.180  1.00  0.00    -0.207 NA
ATOM     80  C   UNL A   1      33.431  19.725  24.532  1.00  0.00     0.077 A 
ATOM     81  C   UNL A   1      32.811  21.716  23.535  1.00  0.00     0.230 A 
ATOM     82  N   UNL A   1      32.620  20.392  23.675  1.00  0.00    -0.213 NA
BRANCH  80  83
ATOM     83  C   UNL A   1      33.309  18.260  24.600  1.00  0.00     0.000 A 
ATOM     84  C   UNL A   1      34.058  17.431  23.749  1.00  0.00     0.010 A 
ATOM     85  C   UNL A   1      32.527  17.646  25.597  1.00  0.00     0.010 A 
ATOM     86  C   UNL A   1      34.051  16.043  23.911  1.00  0.00     0.001 A 
ATOM     87  C   UNL A   1      32.518  16.260  25.758  1.00  0.00     0.001 A 
ATOM     88  C   UNL A   1      33.286  15.459  24.918  1.00  0.00     0.000 A 
ENDBRANCH  80  83
BRANCH  81  89
ATOM     89  N   UNL A   1      31.907  22.429  22.751  1.00  0.00    -0.300 N 
ATOM     90  H   UNL A   1      31.441  21.962  22.021  1.00  0.00     0.172 HD
BRANCH  89  91
ATOM     91  C   UNL A   1      31.647  23.738  22.956  1.00  0.00     0.190 A 
ATOM     92  N   UNL A   1      30.649  24.199  23.676  1.00  0.00    -0.220 NA
ATOM     93  S   UNL A   1      32.630  24.969  22.251  1.00  0.00    -0.097 S 
ATOM     94  C   UNL A   1      30.494  25.553  23.499  1.00  0.00     0.084 A 
ATOM     95  C   UNL A   1      31.479  26.166  22.725  1.00  0.00     0.056 A 
ATOM     96  C   UNL A   1      29.436  26.329  24.010  1.00  0.00     0.030 A 
ATOM     97  C   UNL A   1      31.435  27.541  22.438  1.00  0.00     0.021 A 
ATOM     98  C   UNL A   1      29.375  27.693  23.721  1.00  0.00     0.002 A 
ATOM     99  C   UNL A   1      30.363  28.290  22.943  1.00  0.00     0.002 A 
ENDBRANCH  89  91
ENDBRANCH  81  89
ENDBRANCH  74  77
ENDBRANCH  72  73
ENDBRANCH   1  72
TORSDOF 13
ENDMDL
