MODEL 1
REMARK VINA RESULT:     -12.8      0.000      0.000
REMARK SMILES CC1(C)C(n2c(SCC(=O)NCCCNC(=O)c3ccc(-c4c5nc(c(-c6c(F)c(F)c(F)c(F)c6F)c6ccc([nH]6)c(-c6c(F)c(F)c(F)c(F)c6F)c6nc(c(-c7c(F)c(F)c(F)c(F)c7F)c7ccc4[nH]7)C=C6)C=C5)cc3)nc3cnccc32)C1(C)C
REMARK SMILES IDX 12 1 11 2 9 3 10 4 8 6 7 7 6 8 5 9 87 10 81 11 82 12 86 13
REMARK SMILES IDX 83 14 85 15 84 16 4 17 1 18 2 19 3 20 88 21 89 22 90 23
REMARK SMILES IDX 13 24 14 25 15 26 16 27 17 29 18 30 19 31 80 32 20 33 79 34
REMARK SMILES IDX 21 35 22 36 23 37 73 38 24 39 78 40 72 41 74 42 25 43 77 44
REMARK SMILES IDX 71 45 70 46 26 48 58 49 38 50 57 51 39 52 42 53 56 54 75 55
REMARK SMILES IDX 40 56 41 57 55 59 76 60 43 61 27 62 28 63 36 64 29 65 30 66
REMARK SMILES IDX 34 67 37 68 31 69 32 70 35 71 33 72 59 73 60 74 68 75 61 76
REMARK SMILES IDX 62 77 66 78 69 79 63 80 64 81 67 82 65 83 44 84 45 85 53 86
REMARK SMILES IDX 46 87 47 88 51 89 54 90 48 91 49 92 52 93 50 94
REMARK H PARENT 11 5 15 28 74 47 42 58
REMARK Flexibility Score: inf
ROOT
ATOM      1  C   UNL A   1      37.503  23.087  25.756  1.00  0.00     0.117 C 
ENDROOT
BRANCH   1   2
ATOM      2  N   UNL A   1      36.230  22.584  26.211  1.00  0.00    -0.355 N 
ATOM      3  C   UNL A   1      35.073  23.272  26.383  1.00  0.00     0.230 C 
ATOM      4  O   UNL A   1      34.294  22.822  27.226  1.00  0.00    -0.274 OA
ATOM      5  H   UNL A   1      36.197  21.622  26.422  1.00  0.00     0.163 HD
BRANCH   3   6
ATOM      6  C   UNL A   1      34.751  24.456  25.504  1.00  0.00     0.178 C 
BRANCH   6   7
ATOM      7  S   UNL A   1      33.136  25.156  25.691  1.00  0.00    -0.078 SA
BRANCH   7   8
ATOM      8  C   UNL A   1      33.140  26.874  25.884  1.00  0.00     0.169 A 
ATOM      9  N   UNL A   1      32.272  27.882  25.493  1.00  0.00    -0.315 N 
ATOM     10  C   UNL A   1      32.685  29.037  26.151  1.00  0.00     0.072 A 
ATOM     11  N   UNL A   1      34.191  27.382  26.501  1.00  0.00    -0.221 NA
ATOM     12  C   UNL A   1      33.917  28.703  26.704  1.00  0.00     0.108 A 
ATOM     13  C   UNL A   1      32.134  30.307  26.342  1.00  0.00     0.049 A 
ATOM     14  C   UNL A   1      34.648  29.671  27.399  1.00  0.00     0.141 A 
ATOM     15  C   UNL A   1      32.925  31.198  27.057  1.00  0.00     0.113 A 
ATOM     16  N   UNL A   1      34.145  30.920  27.568  1.00  0.00    -0.262 NA
BRANCH   9  17
ATOM     17  C   UNL A   1      30.966  27.805  24.864  1.00  0.00     0.102 C 
ATOM     18  C   UNL A   1      29.298  29.256  23.500  1.00  0.00     0.014 C 
ATOM     19  C   UNL A   1      30.582  28.443  23.531  1.00  0.00    -0.007 C 
ATOM     20  C   UNL A   1      31.608  28.954  22.545  1.00  0.00     0.014 C 
ATOM     21  C   UNL A   1      30.479  26.909  23.729  1.00  0.00    -0.007 C 
ATOM     22  C   UNL A   1      29.075  26.327  23.798  1.00  0.00     0.014 C 
ATOM     23  C   UNL A   1      31.454  26.005  22.994  1.00  0.00     0.014 C 
ENDBRANCH   9  17
ENDBRANCH   7   8
ENDBRANCH   6   7
ENDBRANCH   3   6
ENDBRANCH   1   2
BRANCH   1  24
ATOM     24  C   UNL A   1      38.489  21.941  25.557  1.00  0.00     0.042 C 
BRANCH  24  25
ATOM     25  C   UNL A   1      39.649  21.909  26.565  1.00  0.00     0.118 C 
BRANCH  25  26
ATOM     26  N   UNL A   1      40.980  22.152  26.028  1.00  0.00    -0.352 N 
ATOM     27  C   UNL A   1      41.875  23.184  26.088  1.00  0.00     0.251 C 
ATOM     28  H   UNL A   1      41.314  21.396  25.493  1.00  0.00     0.163 HD
ATOM     29  O   UNL A   1      42.975  23.000  25.552  1.00  0.00    -0.269 OA
BRANCH  27  30
ATOM     30  C   UNL A   1      41.594  24.509  26.694  1.00  0.00     0.039 A 
ATOM     31  C   UNL A   1      40.775  25.469  26.117  1.00  0.00     0.014 A 
ATOM     32  C   UNL A   1      42.215  24.811  27.921  1.00  0.00     0.014 A 
ATOM     33  C   UNL A   1      40.704  26.744  26.653  1.00  0.00     0.010 A 
ATOM     34  C   UNL A   1      42.080  26.069  28.510  1.00  0.00     0.010 A 
ATOM     35  C   UNL A   1      41.362  27.059  27.848  1.00  0.00    -0.014 A 
BRANCH  35  36
ATOM     36  C   UNL A   1      41.154  28.419  28.348  1.00  0.00     0.031 A 
ATOM     37  C   UNL A   1      42.237  29.386  28.016  1.00  0.00     0.074 A 
ATOM     38  C   UNL A   1      40.093  28.857  29.054  1.00  0.00     0.049 A 
ATOM     39  N   UNL A   1      43.036  29.992  28.833  1.00  0.00    -0.248 NA
ATOM     40  C   UNL A   1      42.515  29.646  26.596  1.00  0.00     0.031 C 
ATOM     41  C   UNL A   1      38.798  28.204  29.232  1.00  0.00     0.029 A 
ATOM     42  N   UNL A   1      39.944  30.049  29.717  1.00  0.00    -0.354 N 
ATOM     43  C   UNL A   1      43.814  30.839  28.050  1.00  0.00     0.074 A 
ATOM     44  C   UNL A   1      43.527  30.513  26.677  1.00  0.00     0.031 C 
ATOM     45  C   UNL A   1      37.927  29.089  29.767  1.00  0.00     0.029 A 
ATOM     46  C   UNL A   1      38.647  30.303  30.123  1.00  0.00     0.049 A 
ATOM     47  H   UNL A   1      40.691  30.666  29.888  1.00  0.00     0.167 HD
ATOM     48  C   UNL A   1      44.471  31.898  28.596  1.00  0.00     0.037 A 
ATOM     49  C   UNL A   1      38.172  31.437  30.685  1.00  0.00     0.037 A 
ATOM     50  C   UNL A   1      44.589  31.794  30.024  1.00  0.00     0.049 A 
ATOM     51  C   UNL A   1      39.275  32.150  31.371  1.00  0.00     0.074 A 
ATOM     52  C   UNL A   1      45.474  31.269  30.939  1.00  0.00     0.029 A 
ATOM     53  N   UNL A   1      43.457  32.129  30.705  1.00  0.00    -0.354 N 
ATOM     54  N   UNL A   1      39.898  31.692  32.422  1.00  0.00    -0.248 NA
ATOM     55  C   UNL A   1      39.869  33.336  30.759  1.00  0.00     0.031 C 
ATOM     56  C   UNL A   1      44.786  31.212  32.190  1.00  0.00     0.029 A 
ATOM     57  C   UNL A   1      43.498  31.698  32.004  1.00  0.00     0.049 A 
ATOM     58  H   UNL A   1      42.700  32.621  30.310  1.00  0.00     0.167 HD
ATOM     59  C   UNL A   1      41.145  32.275  32.357  1.00  0.00     0.074 A 
ATOM     60  C   UNL A   1      41.013  33.399  31.445  1.00  0.00     0.031 C 
ATOM     61  C   UNL A   1      42.261  31.592  32.736  1.00  0.00     0.037 A 
BRANCH  48  62
ATOM     62  C   UNL A   1      44.618  33.241  27.919  1.00  0.00     0.064 A 
ATOM     63  C   UNL A   1      45.878  33.635  27.423  1.00  0.00     0.173 A 
ATOM     64  C   UNL A   1      43.662  34.272  28.040  1.00  0.00     0.173 A 
ATOM     65  F   UNL A   1      46.872  32.743  27.293  1.00  0.00    -0.203 F 
ATOM     66  C   UNL A   1      46.171  34.970  27.125  1.00  0.00     0.198 A 
ATOM     67  C   UNL A   1      43.943  35.593  27.694  1.00  0.00     0.198 A 
ATOM     68  F   UNL A   1      42.467  34.064  28.607  1.00  0.00    -0.203 F 
ATOM     69  F   UNL A   1      47.415  35.315  26.764  1.00  0.00    -0.200 F 
ATOM     70  C   UNL A   1      45.204  35.948  27.263  1.00  0.00     0.200 A 
ATOM     71  F   UNL A   1      42.999  36.532  27.859  1.00  0.00    -0.200 F 
ATOM     72  F   UNL A   1      45.497  37.233  27.029  1.00  0.00    -0.200 F 
ENDBRANCH  48  62
BRANCH  49  73
ATOM     73  C   UNL A   1      36.844  32.056  30.485  1.00  0.00     0.064 A 
ATOM     74  C   UNL A   1      35.893  32.076  31.517  1.00  0.00     0.173 A 
ATOM     75  C   UNL A   1      36.593  32.889  29.377  1.00  0.00     0.173 A 
ATOM     76  F   UNL A   1      36.080  31.340  32.622  1.00  0.00    -0.203 F 
ATOM     77  C   UNL A   1      34.776  32.912  31.463  1.00  0.00     0.198 A 
ATOM     78  C   UNL A   1      35.471  33.714  29.320  1.00  0.00     0.198 A 
ATOM     79  F   UNL A   1      37.480  32.992  28.378  1.00  0.00    -0.203 F 
ATOM     80  F   UNL A   1      33.930  32.962  32.500  1.00  0.00    -0.200 F 
ATOM     81  C   UNL A   1      34.572  33.739  30.370  1.00  0.00     0.200 A 
ATOM     82  F   UNL A   1      35.302  34.533  28.272  1.00  0.00    -0.200 F 
ATOM     83  F   UNL A   1      33.537  34.590  30.349  1.00  0.00    -0.200 F 
ENDBRANCH  49  73
BRANCH  61  84
ATOM     84  C   UNL A   1      42.113  30.535  33.776  1.00  0.00     0.064 A 
ATOM     85  C   UNL A   1      41.728  29.213  33.505  1.00  0.00     0.173 A 
ATOM     86  C   UNL A   1      42.416  30.869  35.103  1.00  0.00     0.173 A 
ATOM     87  F   UNL A   1      41.497  28.808  32.249  1.00  0.00    -0.203 F 
ATOM     88  C   UNL A   1      41.609  28.279  34.533  1.00  0.00     0.198 A 
ATOM     89  C   UNL A   1      42.326  29.925  36.122  1.00  0.00     0.198 A 
ATOM     90  F   UNL A   1      42.826  32.110  35.409  1.00  0.00    -0.203 F 
ATOM     91  F   UNL A   1      41.217  27.025  34.259  1.00  0.00    -0.200 F 
ATOM     92  C   UNL A   1      41.911  28.635  35.838  1.00  0.00     0.200 A 
ATOM     93  F   UNL A   1      42.655  30.265  37.376  1.00  0.00    -0.200 F 
ATOM     94  F   UNL A   1      41.820  27.728  36.821  1.00  0.00    -0.200 F 
ENDBRANCH  61  84
ENDBRANCH  35  36
ENDBRANCH  27  30
ENDBRANCH  25  26
ENDBRANCH  24  25
ENDBRANCH   1  24
TORSDOF 13
ENDMDL
MODEL 2
REMARK VINA RESULT:     -12.7      3.134      4.962
REMARK SMILES CC1(C)C(n2c(SCC(=O)NCCCNC(=O)c3ccc(-c4c5nc(c(-c6c(F)c(F)c(F)c(F)c6F)c6ccc([nH]6)c(-c6c(F)c(F)c(F)c(F)c6F)c6nc(c(-c7c(F)c(F)c(F)c(F)c7F)c7ccc4[nH]7)C=C6)C=C5)cc3)nc3cnccc32)C1(C)C
REMARK SMILES IDX 12 1 11 2 9 3 10 4 8 6 7 7 6 8 5 9 87 10 81 11 82 12 86 13
REMARK SMILES IDX 83 14 85 15 84 16 4 17 1 18 2 19 3 20 88 21 89 22 90 23
REMARK SMILES IDX 13 24 14 25 15 26 16 27 17 29 18 30 19 31 80 32 20 33 79 34
REMARK SMILES IDX 21 35 22 36 23 37 73 38 24 39 78 40 72 41 74 42 25 43 77 44
REMARK SMILES IDX 71 45 70 46 26 48 58 49 38 50 57 51 39 52 42 53 56 54 75 55
REMARK SMILES IDX 40 56 41 57 55 59 76 60 43 61 27 62 28 63 36 64 29 65 30 66
REMARK SMILES IDX 34 67 37 68 31 69 32 70 35 71 33 72 59 73 60 74 68 75 61 76
REMARK SMILES IDX 62 77 66 78 69 79 63 80 64 81 67 82 65 83 44 84 45 85 53 86
REMARK SMILES IDX 46 87 47 88 51 89 54 90 48 91 49 92 52 93 50 94
REMARK H PARENT 11 5 15 28 74 47 42 58
REMARK Flexibility Score: inf
ROOT
ATOM      1  C   UNL A   1      40.575  20.382  26.477  1.00  0.00     0.117 C 
ENDROOT
BRANCH   1   2
ATOM      2  N   UNL A   1      40.023  21.672  26.811  1.00  0.00    -0.355 N 
ATOM      3  C   UNL A   1      39.046  22.355  26.163  1.00  0.00     0.230 C 
ATOM      4  O   UNL A   1      39.079  23.584  26.271  1.00  0.00    -0.274 OA
ATOM      5  H   UNL A   1      40.402  22.110  27.608  1.00  0.00     0.163 HD
BRANCH   3   6
ATOM      6  C   UNL A   1      37.943  21.615  25.445  1.00  0.00     0.178 C 
BRANCH   6   7
ATOM      7  S   UNL A   1      36.334  22.349  25.509  1.00  0.00    -0.078 SA
BRANCH   7   8
ATOM      8  C   UNL A   1      35.066  21.289  25.005  1.00  0.00     0.169 A 
ATOM      9  N   UNL A   1      33.791  21.496  24.499  1.00  0.00    -0.315 N 
ATOM     10  C   UNL A   1      33.339  20.260  24.049  1.00  0.00     0.072 A 
ATOM     11  N   UNL A   1      35.304  19.998  25.143  1.00  0.00    -0.221 NA
ATOM     12  C   UNL A   1      34.272  19.349  24.533  1.00  0.00     0.108 A 
ATOM     13  C   UNL A   1      32.255  19.834  23.276  1.00  0.00     0.049 A 
ATOM     14  C   UNL A   1      34.085  17.982  24.305  1.00  0.00     0.141 A 
ATOM     15  C   UNL A   1      32.158  18.460  23.090  1.00  0.00     0.113 A 
ATOM     16  N   UNL A   1      33.021  17.545  23.585  1.00  0.00    -0.262 NA
BRANCH   9  17
ATOM     17  C   UNL A   1      33.124  22.725  24.109  1.00  0.00     0.102 C 
ATOM     18  C   UNL A   1      30.774  23.624  23.461  1.00  0.00     0.014 C 
ATOM     19  C   UNL A   1      31.727  23.157  24.550  1.00  0.00    -0.007 C 
ATOM     20  C   UNL A   1      31.002  22.513  25.709  1.00  0.00     0.014 C 
ATOM     21  C   UNL A   1      32.963  24.035  24.875  1.00  0.00    -0.007 C 
ATOM     22  C   UNL A   1      33.076  25.351  24.120  1.00  0.00     0.014 C 
ATOM     23  C   UNL A   1      33.430  24.143  26.316  1.00  0.00     0.014 C 
ENDBRANCH   9  17
ENDBRANCH   7   8
ENDBRANCH   6   7
ENDBRANCH   3   6
ENDBRANCH   1   2
BRANCH   1  24
ATOM     24  C   UNL A   1      41.912  20.175  27.184  1.00  0.00     0.042 C 
BRANCH  24  25
ATOM     25  C   UNL A   1      42.721  18.967  26.686  1.00  0.00     0.118 C 
BRANCH  25  26
ATOM     26  N   UNL A   1      43.682  19.225  25.624  1.00  0.00    -0.352 N 
ATOM     27  C   UNL A   1      44.355  20.326  25.174  1.00  0.00     0.251 C 
ATOM     28  H   UNL A   1      43.896  18.416  25.106  1.00  0.00     0.163 HD
ATOM     29  O   UNL A   1      45.174  20.146  24.264  1.00  0.00    -0.269 OA
BRANCH  27  30
ATOM     30  C   UNL A   1      44.127  21.710  25.659  1.00  0.00     0.039 A 
ATOM     31  C   UNL A   1      44.784  22.271  26.745  1.00  0.00     0.014 A 
ATOM     32  C   UNL A   1      43.169  22.488  24.982  1.00  0.00     0.014 A 
ATOM     33  C   UNL A   1      44.388  23.502  27.244  1.00  0.00     0.010 A 
ATOM     34  C   UNL A   1      42.825  23.765  25.431  1.00  0.00     0.010 A 
ATOM     35  C   UNL A   1      43.400  24.255  26.599  1.00  0.00    -0.014 A 
BRANCH  35  36
ATOM     36  C   UNL A   1      43.120  25.567  27.183  1.00  0.00     0.031 A 
ATOM     37  C   UNL A   1      44.120  26.626  26.868  1.00  0.00     0.074 A 
ATOM     38  C   UNL A   1      42.061  25.890  27.952  1.00  0.00     0.049 A 
ATOM     39  N   UNL A   1      44.908  27.241  27.689  1.00  0.00    -0.248 NA
ATOM     40  C   UNL A   1      44.322  26.981  25.456  1.00  0.00     0.031 C 
ATOM     41  C   UNL A   1      40.823  25.139  28.139  1.00  0.00     0.029 A 
ATOM     42  N   UNL A   1      41.858  27.030  28.686  1.00  0.00    -0.354 N 
ATOM     43  C   UNL A   1      45.595  28.182  26.928  1.00  0.00     0.074 A 
ATOM     44  C   UNL A   1      45.275  27.912  25.549  1.00  0.00     0.031 C 
ATOM     45  C   UNL A   1      39.915  25.929  28.756  1.00  0.00     0.029 A 
ATOM     46  C   UNL A   1      40.564  27.170  29.154  1.00  0.00     0.049 A 
ATOM     47  H   UNL A   1      42.568  27.689  28.866  1.00  0.00     0.167 HD
ATOM     48  C   UNL A   1      46.199  29.253  27.509  1.00  0.00     0.037 A 
ATOM     49  C   UNL A   1      40.036  28.235  29.796  1.00  0.00     0.037 A 
ATOM     50  C   UNL A   1      46.382  29.080  28.924  1.00  0.00     0.049 A 
ATOM     51  C   UNL A   1      41.114  28.986  30.482  1.00  0.00     0.074 A 
ATOM     52  C   UNL A   1      47.336  28.570  29.774  1.00  0.00     0.029 A 
ATOM     53  N   UNL A   1      45.257  29.297  29.663  1.00  0.00    -0.354 N 
ATOM     54  N   UNL A   1      41.809  28.516  31.482  1.00  0.00    -0.248 NA
ATOM     55  C   UNL A   1      41.600  30.242  29.917  1.00  0.00     0.031 C 
ATOM     56  C   UNL A   1      46.705  28.396  31.045  1.00  0.00     0.029 A 
ATOM     57  C   UNL A   1      45.380  28.799  30.933  1.00  0.00     0.049 A 
ATOM     58  H   UNL A   1      44.453  29.755  29.326  1.00  0.00     0.167 HD
ATOM     59  C   UNL A   1      43.009  29.188  31.404  1.00  0.00     0.074 A 
ATOM     60  C   UNL A   1      42.764  30.348  30.563  1.00  0.00     0.031 C 
ATOM     61  C   UNL A   1      44.183  28.566  31.703  1.00  0.00     0.037 A 
BRANCH  48  62
ATOM     62  C   UNL A   1      46.226  30.639  26.906  1.00  0.00     0.064 A 
ATOM     63  C   UNL A   1      47.444  31.348  26.849  1.00  0.00     0.173 A 
ATOM     64  C   UNL A   1      45.062  31.409  26.695  1.00  0.00     0.173 A 
ATOM     65  F   UNL A   1      48.611  30.722  27.063  1.00  0.00    -0.203 F 
ATOM     66  C   UNL A   1      47.485  32.732  26.652  1.00  0.00     0.198 A 
ATOM     67  C   UNL A   1      45.111  32.780  26.448  1.00  0.00     0.198 A 
ATOM     68  F   UNL A   1      43.836  30.890  26.838  1.00  0.00    -0.203 F 
ATOM     69  F   UNL A   1      48.656  33.380  26.717  1.00  0.00    -0.200 F 
ATOM     70  C   UNL A   1      46.318  33.447  26.453  1.00  0.00     0.200 A 
ATOM     71  F   UNL A   1      43.967  33.461  26.283  1.00  0.00    -0.200 F 
ATOM     72  F   UNL A   1      46.350  34.778  26.316  1.00  0.00    -0.200 F 
ENDBRANCH  48  62
BRANCH  49  73
ATOM     73  C   UNL A   1      38.662  28.769  29.681  1.00  0.00     0.064 A 
ATOM     74  C   UNL A   1      37.884  29.015  30.823  1.00  0.00     0.173 A 
ATOM     75  C   UNL A   1      38.196  29.314  28.469  1.00  0.00     0.173 A 
ATOM     76  F   UNL A   1      38.280  28.562  32.021  1.00  0.00    -0.203 F 
ATOM     77  C   UNL A   1      36.729  29.798  30.763  1.00  0.00     0.198 A 
ATOM     78  C   UNL A   1      37.036  30.084  28.409  1.00  0.00     0.198 A 
ATOM     79  F   UNL A   1      38.909  29.193  27.340  1.00  0.00    -0.203 F 
ATOM     80  F   UNL A   1      36.053  30.076  31.886  1.00  0.00    -0.200 F 
ATOM     81  C   UNL A   1      36.312  30.341  29.558  1.00  0.00     0.200 A 
ATOM     82  F   UNL A   1      36.662  30.631  27.243  1.00  0.00    -0.200 F 
ATOM     83  F   UNL A   1      35.242  31.146  29.513  1.00  0.00    -0.200 F 
ENDBRANCH  49  73
BRANCH  61  84
ATOM     84  C   UNL A   1      44.150  27.447  32.686  1.00  0.00     0.064 A 
ATOM     85  C   UNL A   1      44.152  26.089  32.331  1.00  0.00     0.173 A 
ATOM     86  C   UNL A   1      44.160  27.766  34.050  1.00  0.00     0.173 A 
ATOM     87  F   UNL A   1      44.219  25.714  31.046  1.00  0.00    -0.203 F 
ATOM     88  C   UNL A   1      44.118  25.095  33.308  1.00  0.00     0.198 A 
ATOM     89  C   UNL A   1      44.157  26.771  35.023  1.00  0.00     0.198 A 
ATOM     90  F   UNL A   1      44.197  29.050  34.441  1.00  0.00    -0.203 F 
ATOM     91  F   UNL A   1      44.097  23.802  32.951  1.00  0.00    -0.200 F 
ATOM     92  C   UNL A   1      44.124  25.437  34.652  1.00  0.00     0.200 A 
ATOM     93  F   UNL A   1      44.201  27.107  36.320  1.00  0.00    -0.200 F 
ATOM     94  F   UNL A   1      44.116  24.480  35.590  1.00  0.00    -0.200 F 
ENDBRANCH  61  84
ENDBRANCH  35  36
ENDBRANCH  27  30
ENDBRANCH  25  26
ENDBRANCH  24  25
ENDBRANCH   1  24
TORSDOF 13
ENDMDL
MODEL 3
REMARK VINA RESULT:     -12.6      3.540      9.289
REMARK SMILES CC1(C)C(n2c(SCC(=O)NCCCNC(=O)c3ccc(-c4c5nc(c(-c6c(F)c(F)c(F)c(F)c6F)c6ccc([nH]6)c(-c6c(F)c(F)c(F)c(F)c6F)c6nc(c(-c7c(F)c(F)c(F)c(F)c7F)c7ccc4[nH]7)C=C6)C=C5)cc3)nc3cnccc32)C1(C)C
REMARK SMILES IDX 12 1 11 2 9 3 10 4 8 6 7 7 6 8 5 9 87 10 81 11 82 12 86 13
REMARK SMILES IDX 83 14 85 15 84 16 4 17 1 18 2 19 3 20 88 21 89 22 90 23
REMARK SMILES IDX 13 24 14 25 15 26 16 27 17 29 18 30 19 31 80 32 20 33 79 34
REMARK SMILES IDX 21 35 22 36 23 37 73 38 24 39 78 40 72 41 74 42 25 43 77 44
REMARK SMILES IDX 71 45 70 46 26 48 58 49 38 50 57 51 39 52 42 53 56 54 75 55
REMARK SMILES IDX 40 56 41 57 55 59 76 60 43 61 27 62 28 63 36 64 29 65 30 66
REMARK SMILES IDX 34 67 37 68 31 69 32 70 35 71 33 72 59 73 60 74 68 75 61 76
REMARK SMILES IDX 62 77 66 78 69 79 63 80 64 81 67 82 65 83 44 84 45 85 53 86
REMARK SMILES IDX 46 87 47 88 51 89 54 90 48 91 49 92 52 93 50 94
REMARK H PARENT 11 5 15 28 74 47 42 58
REMARK Flexibility Score: inf
ROOT
ATOM      1  C   UNL A   1      34.395  29.258  26.717  1.00  0.00     0.117 C 
ENDROOT
BRANCH   1   2
ATOM      2  N   UNL A   1      33.956  29.142  25.348  1.00  0.00    -0.355 N 
ATOM      3  C   UNL A   1      33.875  28.020  24.589  1.00  0.00     0.230 C 
ATOM      4  O   UNL A   1      33.982  28.179  23.371  1.00  0.00    -0.274 OA
ATOM      5  H   UNL A   1      33.681  29.981  24.911  1.00  0.00     0.163 HD
BRANCH   3   6
ATOM      6  C   UNL A   1      33.570  26.686  25.228  1.00  0.00     0.178 C 
BRANCH   6   7
ATOM      7  S   UNL A   1      33.709  25.265  24.181  1.00  0.00    -0.078 SA
BRANCH   7   8
ATOM      8  C   UNL A   1      34.867  24.107  24.732  1.00  0.00     0.169 A 
ATOM      9  N   UNL A   1      34.942  22.724  24.665  1.00  0.00    -0.315 N 
ATOM     10  C   UNL A   1      36.229  22.377  25.064  1.00  0.00     0.072 A 
ATOM     11  N   UNL A   1      35.902  24.594  25.391  1.00  0.00    -0.221 NA
ATOM     12  C   UNL A   1      36.765  23.554  25.575  1.00  0.00     0.108 A 
ATOM     13  C   UNL A   1      36.985  21.202  25.026  1.00  0.00     0.049 A 
ATOM     14  C   UNL A   1      38.051  23.547  26.124  1.00  0.00     0.141 A 
ATOM     15  C   UNL A   1      38.256  21.293  25.581  1.00  0.00     0.113 A 
ATOM     16  N   UNL A   1      38.789  22.408  26.127  1.00  0.00    -0.262 NA
BRANCH   9  17
ATOM     17  C   UNL A   1      34.087  21.769  23.982  1.00  0.00     0.102 C 
ATOM     18  C   UNL A   1      33.556  19.226  23.917  1.00  0.00     0.014 C 
ATOM     19  C   UNL A   1      33.408  20.563  24.627  1.00  0.00    -0.007 C 
ATOM     20  C   UNL A   1      33.278  20.404  26.126  1.00  0.00     0.014 C 
ATOM     21  C   UNL A   1      32.565  21.671  23.947  1.00  0.00    -0.007 C 
ATOM     22  C   UNL A   1      31.879  21.294  22.642  1.00  0.00     0.014 C 
ATOM     23  C   UNL A   1      31.717  22.586  24.813  1.00  0.00     0.014 C 
ENDBRANCH   9  17
ENDBRANCH   7   8
ENDBRANCH   6   7
ENDBRANCH   3   6
ENDBRANCH   1   2
BRANCH   1  24
ATOM     24  C   UNL A   1      33.567  30.304  27.456  1.00  0.00     0.042 C 
BRANCH  24  25
ATOM     25  C   UNL A   1      34.257  31.667  27.626  1.00  0.00     0.118 C 
BRANCH  25  26
ATOM     26  N   UNL A   1      34.405  32.151  28.991  1.00  0.00    -0.352 N 
ATOM     27  C   UNL A   1      35.341  32.000  29.976  1.00  0.00     0.251 C 
ATOM     28  H   UNL A   1      33.654  32.722  29.271  1.00  0.00     0.163 HD
ATOM     29  O   UNL A   1      35.162  32.643  31.018  1.00  0.00    -0.269 OA
BRANCH  27  30
ATOM     30  C   UNL A   1      36.504  31.082  29.898  1.00  0.00     0.039 A 
ATOM     31  C   UNL A   1      36.416  29.703  30.028  1.00  0.00     0.014 A 
ATOM     32  C   UNL A   1      37.775  31.655  29.701  1.00  0.00     0.014 A 
ATOM     33  C   UNL A   1      37.564  28.933  30.122  1.00  0.00     0.010 A 
ATOM     34  C   UNL A   1      38.931  30.872  29.711  1.00  0.00     0.010 A 
ATOM     35  C   UNL A   1      38.831  29.510  29.974  1.00  0.00    -0.014 A 
BRANCH  35  36
ATOM     36  C   UNL A   1      39.962  28.582  30.025  1.00  0.00     0.031 A 
ATOM     37  C   UNL A   1      40.552  28.379  31.378  1.00  0.00     0.074 A 
ATOM     38  C   UNL A   1      40.491  27.910  28.984  1.00  0.00     0.049 A 
ATOM     39  N   UNL A   1      41.739  28.699  31.780  1.00  0.00    -0.248 NA
ATOM     40  C   UNL A   1      39.685  27.829  32.430  1.00  0.00     0.031 C 
ATOM     41  C   UNL A   1      39.914  27.703  27.659  1.00  0.00     0.029 A 
ATOM     42  N   UNL A   1      41.662  27.197  28.937  1.00  0.00    -0.354 N 
ATOM     43  C   UNL A   1      41.834  28.243  33.092  1.00  0.00     0.074 A 
ATOM     44  C   UNL A   1      40.515  27.811  33.476  1.00  0.00     0.031 C 
ATOM     45  C   UNL A   1      40.623  26.752  27.011  1.00  0.00     0.029 A 
ATOM     46  C   UNL A   1      41.793  26.413  27.807  1.00  0.00     0.049 A 
ATOM     47  H   UNL A   1      42.348  27.242  29.643  1.00  0.00     0.167 HD
ATOM     48  C   UNL A   1      43.043  28.051  33.684  1.00  0.00     0.037 A 
ATOM     49  C   UNL A   1      42.770  25.518  27.539  1.00  0.00     0.037 A 
ATOM     50  C   UNL A   1      44.109  28.719  32.990  1.00  0.00     0.049 A 
ATOM     51  C   UNL A   1      43.998  25.886  28.284  1.00  0.00     0.074 A 
ATOM     52  C   UNL A   1      44.728  29.948  33.012  1.00  0.00     0.029 A 
ATOM     53  N   UNL A   1      44.540  28.071  31.870  1.00  0.00    -0.354 N 
ATOM     54  N   UNL A   1      44.694  26.966  28.055  1.00  0.00    -0.248 NA
ATOM     55  C   UNL A   1      44.376  25.139  29.481  1.00  0.00     0.031 C 
ATOM     56  C   UNL A   1      45.479  30.053  31.800  1.00  0.00     0.029 A 
ATOM     57  C   UNL A   1      45.294  28.886  31.070  1.00  0.00     0.049 A 
ATOM     58  H   UNL A   1      44.334  27.130  31.663  1.00  0.00     0.167 HD
ATOM     59  C   UNL A   1      45.304  27.236  29.260  1.00  0.00     0.074 A 
ATOM     60  C   UNL A   1      45.231  26.006  30.030  1.00  0.00     0.031 C 
ATOM     61  C   UNL A   1      45.478  28.518  29.687  1.00  0.00     0.037 A 
BRANCH  48  62
ATOM     62  C   UNL A   1      43.351  26.907  34.623  1.00  0.00     0.064 A 
ATOM     63  C   UNL A   1      43.543  27.168  35.996  1.00  0.00     0.173 A 
ATOM     64  C   UNL A   1      43.789  25.642  34.177  1.00  0.00     0.173 A 
ATOM     65  F   UNL A   1      43.190  28.350  36.524  1.00  0.00    -0.203 F 
ATOM     66  C   UNL A   1      44.175  26.251  36.842  1.00  0.00     0.198 A 
ATOM     67  C   UNL A   1      44.373  24.710  35.034  1.00  0.00     0.198 A 
ATOM     68  F   UNL A   1      43.778  25.308  32.880  1.00  0.00    -0.203 F 
ATOM     69  F   UNL A   1      44.437  26.586  38.113  1.00  0.00    -0.200 F 
ATOM     70  C   UNL A   1      44.591  25.024  36.360  1.00  0.00     0.200 A 
ATOM     71  F   UNL A   1      44.794  23.535  34.543  1.00  0.00    -0.200 F 
ATOM     72  F   UNL A   1      45.244  24.165  37.154  1.00  0.00    -0.200 F 
ENDBRANCH  48  62
BRANCH  49  73
ATOM     73  C   UNL A   1      42.643  24.226  26.830  1.00  0.00     0.064 A 
ATOM     74  C   UNL A   1      43.279  24.013  25.598  1.00  0.00     0.173 A 
ATOM     75  C   UNL A   1      42.134  23.088  27.486  1.00  0.00     0.173 A 
ATOM     76  F   UNL A   1      43.822  25.041  24.931  1.00  0.00    -0.203 F 
ATOM     77  C   UNL A   1      43.433  22.729  25.070  1.00  0.00     0.198 A 
ATOM     78  C   UNL A   1      42.279  21.809  26.951  1.00  0.00     0.198 A 
ATOM     79  F   UNL A   1      41.576  23.184  28.701  1.00  0.00    -0.203 F 
ATOM     80  F   UNL A   1      44.113  22.554  23.929  1.00  0.00    -0.200 F 
ATOM     81  C   UNL A   1      42.944  21.627  25.753  1.00  0.00     0.200 A 
ATOM     82  F   UNL A   1      41.830  20.748  27.638  1.00  0.00    -0.200 F 
ATOM     83  F   UNL A   1      43.152  20.390  25.280  1.00  0.00    -0.200 F 
ENDBRANCH  49  73
BRANCH  61  84
ATOM     84  C   UNL A   1      45.617  29.585  28.657  1.00  0.00     0.064 A 
ATOM     85  C   UNL A   1      46.838  29.965  28.079  1.00  0.00     0.173 A 
ATOM     86  C   UNL A   1      44.454  30.221  28.204  1.00  0.00     0.173 A 
ATOM     87  F   UNL A   1      47.979  29.345  28.412  1.00  0.00    -0.203 F 
ATOM     88  C   UNL A   1      46.892  30.976  27.120  1.00  0.00     0.198 A 
ATOM     89  C   UNL A   1      44.507  31.207  27.224  1.00  0.00     0.198 A 
ATOM     90  F   UNL A   1      43.257  29.867  28.697  1.00  0.00    -0.203 F 
ATOM     91  F   UNL A   1      48.070  31.343  26.596  1.00  0.00    -0.200 F 
ATOM     92  C   UNL A   1      45.726  31.592  26.692  1.00  0.00     0.200 A 
ATOM     93  F   UNL A   1      43.374  31.774  26.786  1.00  0.00    -0.200 F 
ATOM     94  F   UNL A   1      45.777  32.547  25.751  1.00  0.00    -0.200 F 
ENDBRANCH  61  84
ENDBRANCH  35  36
ENDBRANCH  27  30
ENDBRANCH  25  26
ENDBRANCH  24  25
ENDBRANCH   1  24
TORSDOF 13
ENDMDL
