MODEL 1
REMARK VINA RESULT:     -10.5      0.000      0.000
REMARK SMILES C[NH2+]C[C@H](C)C(=O)NC[C@](C)(O)C(=O)NCCCNC(=O)c1ccc(-c2c3nc(c(-c4c(F)c(F)c(F)c(F)c4F)c4ccc([nH]4)c(-c4c(F)c(F)c(F)c(F)c4F)c4nc(c(-c5c(F)c(F)c(F)c(F)c5F)c5ccc2[nH]5)C=C4)C=C3)cc1
REMARK SMILES IDX 13 1 14 2 15 3 10 5 11 6 9 7 8 8 6 9 7 10 4 12 5 13 3 14
REMARK SMILES IDX 2 15 1 16 12 19 16 21 17 22 18 23 19 24 20 25 21 27 22 28
REMARK SMILES IDX 23 29 84 30 24 31 83 32 25 33 26 34 27 35 77 36 28 37 82 38
REMARK SMILES IDX 76 39 78 40 29 41 81 42 75 43 74 44 30 46 62 47 42 48 61 49
REMARK SMILES IDX 43 50 46 51 60 52 79 53 44 54 45 55 59 57 80 58 47 59 31 60
REMARK SMILES IDX 32 61 40 62 33 63 34 64 38 65 41 66 35 67 36 68 39 69 37 70
REMARK SMILES IDX 63 71 64 72 72 73 65 74 66 75 70 76 73 77 67 78 68 79 71 80
REMARK SMILES IDX 69 81 48 82 49 83 57 84 50 85 51 86 55 87 58 88 52 89 53 90
REMARK SMILES IDX 56 91 54 92
REMARK H PARENT 15 4 8 11 2 17 2 18 12 20 19 26 78 45 46 56
REMARK Flexibility Score: inf
ROOT
ATOM      1  C   UNL A   1      36.604  32.454  33.024  1.00  0.00     0.253 C 
ATOM      2  O   UNL A   1      36.962  31.438  33.631  1.00  0.00    -0.272 OA
ATOM      3  N   UNL A   1      36.403  32.304  31.684  1.00  0.00    -0.353 N 
ATOM      4  H   UNL A   1      36.682  31.433  31.319  1.00  0.00     0.163 HD
ENDROOT
BRANCH   1   5
ATOM      5  C   UNL A   1      36.369  33.806  33.768  1.00  0.00     0.157 C 
ATOM      6  C   UNL A   1      36.934  33.651  35.194  1.00  0.00     0.055 C 
BRANCH   5   7
ATOM      7  C   UNL A   1      34.854  34.112  33.888  1.00  0.00     0.160 C 
BRANCH   7   8
ATOM      8  N   UNL A   1      34.581  35.528  34.078  1.00  0.00    -0.352 N 
ATOM      9  C   UNL A   1      33.853  36.420  33.365  1.00  0.00     0.228 C 
ATOM     10  O   UNL A   1      33.939  37.608  33.694  1.00  0.00    -0.275 OA
ATOM     11  H   UNL A   1      35.005  35.911  34.880  1.00  0.00     0.163 HD
BRANCH   9  12
ATOM     12  C   UNL A   1      32.921  36.005  32.238  1.00  0.00     0.130 C 
ATOM     13  C   UNL A   1      31.451  35.906  32.641  1.00  0.00     0.024 C 
BRANCH  12  14
ATOM     14  C   UNL A   1      33.137  36.898  31.005  1.00  0.00     0.273 C 
BRANCH  14  15
ATOM     15  N   UNL A   1      33.746  36.244  29.840  1.00  0.00    -0.348 N 
ATOM     16  C   UNL A   1      33.597  37.019  28.614  1.00  0.00     0.330 C 
ATOM     17  H   UNL A   1      34.741  36.111  30.023  1.00  0.00     0.346 HD
ATOM     18  H   UNL A   1      33.265  35.355  29.700  1.00  0.00     0.346 HD
ENDBRANCH  14  15
ENDBRANCH  12  14
ENDBRANCH   9  12
ENDBRANCH   7   8
ENDBRANCH   5   7
BRANCH   5  19
ATOM     19  O   UNL A   1      37.015  34.944  33.191  1.00  0.00    -0.378 OA
ATOM     20  H   UNL A   1      37.110  34.811  32.234  1.00  0.00     0.212 HD
ENDBRANCH   5  19
ENDBRANCH   1   5
BRANCH   3  21
ATOM     21  C   UNL A   1      35.843  33.220  30.707  1.00  0.00     0.117 C 
BRANCH  21  22
ATOM     22  C   UNL A   1      34.542  32.728  30.100  1.00  0.00     0.042 C 
BRANCH  22  23
ATOM     23  C   UNL A   1      34.601  32.526  28.592  1.00  0.00     0.118 C 
BRANCH  23  24
ATOM     24  N   UNL A   1      34.065  31.244  28.145  1.00  0.00    -0.352 N 
ATOM     25  C   UNL A   1      34.675  30.018  28.013  1.00  0.00     0.251 C 
ATOM     26  H   UNL A   1      33.112  31.259  27.898  1.00  0.00     0.163 HD
ATOM     27  O   UNL A   1      34.061  29.069  27.533  1.00  0.00    -0.269 OA
BRANCH  25  28
ATOM     28  C   UNL A   1      36.089  29.846  28.408  1.00  0.00     0.039 A 
ATOM     29  C   UNL A   1      36.383  29.357  29.685  1.00  0.00     0.014 A 
ATOM     30  C   UNL A   1      37.122  30.132  27.516  1.00  0.00     0.014 A 
ATOM     31  C   UNL A   1      37.704  29.058  30.025  1.00  0.00     0.010 A 
ATOM     32  C   UNL A   1      38.418  29.729  27.813  1.00  0.00     0.010 A 
ATOM     33  C   UNL A   1      38.725  29.187  29.070  1.00  0.00    -0.014 A 
BRANCH  33  34
ATOM     34  C   UNL A   1      40.126  28.781  29.357  1.00  0.00     0.031 A 
ATOM     35  C   UNL A   1      41.030  29.712  30.119  1.00  0.00     0.074 A 
ATOM     36  C   UNL A   1      40.611  27.625  28.859  1.00  0.00     0.049 A 
ATOM     37  N   UNL A   1      42.317  29.622  30.342  1.00  0.00    -0.248 NA
ATOM     38  C   UNL A   1      40.411  30.927  30.672  1.00  0.00     0.031 C 
ATOM     39  C   UNL A   1      39.854  26.659  28.059  1.00  0.00     0.029 A 
ATOM     40  N   UNL A   1      41.866  27.074  28.939  1.00  0.00    -0.354 N 
ATOM     41  C   UNL A   1      42.660  30.776  31.035  1.00  0.00     0.074 A 
ATOM     42  C   UNL A   1      41.462  31.580  31.143  1.00  0.00     0.031 C 
ATOM     43  C   UNL A   1      40.652  25.627  27.742  1.00  0.00     0.029 A 
ATOM     44  C   UNL A   1      41.986  25.875  28.275  1.00  0.00     0.049 A 
ATOM     45  H   UNL A   1      42.610  27.496  29.425  1.00  0.00     0.167 HD
ATOM     46  C   UNL A   1      43.858  31.121  31.563  1.00  0.00     0.037 A 
ATOM     47  C   UNL A   1      43.057  25.075  28.109  1.00  0.00     0.037 A 
ATOM     48  C   UNL A   1      45.036  30.301  31.496  1.00  0.00     0.049 A 
ATOM     49  C   UNL A   1      44.372  25.476  28.722  1.00  0.00     0.074 A 
ATOM     50  C   UNL A   1      46.288  30.542  32.033  1.00  0.00     0.029 A 
ATOM     51  N   UNL A   1      45.101  29.068  30.864  1.00  0.00    -0.354 N 
ATOM     52  N   UNL A   1      44.672  26.549  29.413  1.00  0.00    -0.248 NA
ATOM     53  C   UNL A   1      45.500  24.550  28.539  1.00  0.00     0.031 C 
ATOM     54  C   UNL A   1      47.119  29.465  31.704  1.00  0.00     0.029 A 
ATOM     55  C   UNL A   1      46.373  28.537  30.997  1.00  0.00     0.049 A 
ATOM     56  H   UNL A   1      44.354  28.635  30.390  1.00  0.00     0.167 HD
ATOM     57  C   UNL A   1      46.005  26.411  29.774  1.00  0.00     0.074 A 
ATOM     58  C   UNL A   1      46.455  25.144  29.239  1.00  0.00     0.031 C 
ATOM     59  C   UNL A   1      46.790  27.259  30.482  1.00  0.00     0.037 A 
BRANCH  46  60
ATOM     60  C   UNL A   1      43.947  32.432  32.286  1.00  0.00     0.064 A 
ATOM     61  C   UNL A   1      44.287  33.616  31.612  1.00  0.00     0.173 A 
ATOM     62  C   UNL A   1      43.643  32.519  33.654  1.00  0.00     0.173 A 
ATOM     63  F   UNL A   1      44.600  33.582  30.308  1.00  0.00    -0.203 F 
ATOM     64  C   UNL A   1      44.341  34.833  32.285  1.00  0.00     0.198 A 
ATOM     65  C   UNL A   1      43.671  33.743  34.316  1.00  0.00     0.198 A 
ATOM     66  F   UNL A   1      43.308  31.419  34.343  1.00  0.00    -0.203 F 
ATOM     67  F   UNL A   1      44.711  35.942  31.629  1.00  0.00    -0.200 F 
ATOM     68  C   UNL A   1      44.025  34.897  33.633  1.00  0.00     0.200 A 
ATOM     69  F   UNL A   1      43.353  33.807  35.616  1.00  0.00    -0.200 F 
ATOM     70  F   UNL A   1      44.066  36.073  34.276  1.00  0.00    -0.200 F 
ENDBRANCH  46  60
BRANCH  47  71
ATOM     71  C   UNL A   1      42.937  23.804  27.345  1.00  0.00     0.064 A 
ATOM     72  C   UNL A   1      42.470  22.636  27.964  1.00  0.00     0.173 A 
ATOM     73  C   UNL A   1      43.320  23.721  25.999  1.00  0.00     0.173 A 
ATOM     74  F   UNL A   1      42.112  22.661  29.257  1.00  0.00    -0.203 F 
ATOM     75  C   UNL A   1      42.423  21.425  27.276  1.00  0.00     0.198 A 
ATOM     76  C   UNL A   1      43.243  22.515  25.303  1.00  0.00     0.198 A 
ATOM     77  F   UNL A   1      43.768  24.809  25.358  1.00  0.00    -0.203 F 
ATOM     78  F   UNL A   1      42.032  20.312  27.910  1.00  0.00    -0.200 F 
ATOM     79  C   UNL A   1      42.808  21.365  25.945  1.00  0.00     0.200 A 
ATOM     80  F   UNL A   1      43.605  22.465  24.013  1.00  0.00    -0.200 F 
ATOM     81  F   UNL A   1      42.771  20.200  25.286  1.00  0.00    -0.200 F 
ENDBRANCH  47  71
BRANCH  59  82
ATOM     82  C   UNL A   1      48.196  26.822  30.767  1.00  0.00     0.064 A 
ATOM     83  C   UNL A   1      48.504  26.004  31.862  1.00  0.00     0.173 A 
ATOM     84  C   UNL A   1      49.237  27.191  29.903  1.00  0.00     0.173 A 
ATOM     85  F   UNL A   1      47.543  25.637  32.723  1.00  0.00    -0.203 F 
ATOM     86  C   UNL A   1      49.812  25.588  32.096  1.00  0.00     0.198 A 
ATOM     87  C   UNL A   1      50.539  26.751  30.123  1.00  0.00     0.198 A 
ATOM     88  F   UNL A   1      48.990  27.967  28.837  1.00  0.00    -0.203 F 
ATOM     89  F   UNL A   1      50.093  24.842  33.172  1.00  0.00    -0.200 F 
ATOM     90  C   UNL A   1      50.825  25.956  31.223  1.00  0.00     0.200 A 
ATOM     91  F   UNL A   1      51.514  27.095  29.273  1.00  0.00    -0.200 F 
ATOM     92  F   UNL A   1      52.083  25.547  31.445  1.00  0.00    -0.200 F 
ENDBRANCH  59  82
ENDBRANCH  33  34
ENDBRANCH  25  28
ENDBRANCH  23  24
ENDBRANCH  22  23
ENDBRANCH  21  22
ENDBRANCH   3  21
TORSDOF 16
ENDMDL
MODEL 2
REMARK VINA RESULT:     -10.5      4.292     10.575
REMARK SMILES C[NH2+]C[C@H](C)C(=O)NC[C@](C)(O)C(=O)NCCCNC(=O)c1ccc(-c2c3nc(c(-c4c(F)c(F)c(F)c(F)c4F)c4ccc([nH]4)c(-c4c(F)c(F)c(F)c(F)c4F)c4nc(c(-c5c(F)c(F)c(F)c(F)c5F)c5ccc2[nH]5)C=C4)C=C3)cc1
REMARK SMILES IDX 13 1 14 2 15 3 10 5 11 6 9 7 8 8 6 9 7 10 4 12 5 13 3 14
REMARK SMILES IDX 2 15 1 16 12 19 16 21 17 22 18 23 19 24 20 25 21 27 22 28
REMARK SMILES IDX 23 29 84 30 24 31 83 32 25 33 26 34 27 35 77 36 28 37 82 38
REMARK SMILES IDX 76 39 78 40 29 41 81 42 75 43 74 44 30 46 62 47 42 48 61 49
REMARK SMILES IDX 43 50 46 51 60 52 79 53 44 54 45 55 59 57 80 58 47 59 31 60
REMARK SMILES IDX 32 61 40 62 33 63 34 64 38 65 41 66 35 67 36 68 39 69 37 70
REMARK SMILES IDX 63 71 64 72 72 73 65 74 66 75 70 76 73 77 67 78 68 79 71 80
REMARK SMILES IDX 69 81 48 82 49 83 57 84 50 85 51 86 55 87 58 88 52 89 53 90
REMARK SMILES IDX 56 91 54 92
REMARK H PARENT 15 4 8 11 2 17 2 18 12 20 19 26 78 45 46 56
REMARK Flexibility Score: inf
ROOT
ATOM      1  C   UNL A   1      31.344  28.674  25.022  1.00  0.00     0.253 C 
ATOM      2  O   UNL A   1      30.869  28.526  23.890  1.00  0.00    -0.272 OA
ATOM      3  N   UNL A   1      31.599  29.960  25.395  1.00  0.00    -0.353 N 
ATOM      4  H   UNL A   1      31.495  30.626  24.678  1.00  0.00     0.163 HD
ENDROOT
BRANCH   1   5
ATOM      5  C   UNL A   1      31.593  27.455  25.964  1.00  0.00     0.157 C 
ATOM      6  C   UNL A   1      33.114  27.211  26.010  1.00  0.00     0.055 C 
BRANCH   5   7
ATOM      7  C   UNL A   1      30.924  26.176  25.399  1.00  0.00     0.160 C 
BRANCH   7   8
ATOM      8  N   UNL A   1      30.697  25.163  26.419  1.00  0.00    -0.352 N 
ATOM      9  C   UNL A   1      31.241  23.940  26.626  1.00  0.00     0.228 C 
ATOM     10  O   UNL A   1      30.724  23.235  27.499  1.00  0.00    -0.275 OA
ATOM     11  H   UNL A   1      30.020  25.416  27.087  1.00  0.00     0.163 HD
BRANCH   9  12
ATOM     12  C   UNL A   1      32.467  23.449  25.873  1.00  0.00     0.130 C 
ATOM     13  C   UNL A   1      33.718  23.295  26.737  1.00  0.00     0.024 C 
BRANCH  12  14
ATOM     14  C   UNL A   1      32.135  22.174  25.081  1.00  0.00     0.273 C 
BRANCH  14  15
ATOM     15  N   UNL A   1      32.156  20.920  25.846  1.00  0.00    -0.348 N 
ATOM     16  C   UNL A   1      33.002  19.900  25.239  1.00  0.00     0.330 C 
ATOM     17  H   UNL A   1      32.504  21.117  26.785  1.00  0.00     0.346 HD
ATOM     18  H   UNL A   1      31.202  20.557  25.864  1.00  0.00     0.346 HD
ENDBRANCH  14  15
ENDBRANCH  12  14
ENDBRANCH   9  12
ENDBRANCH   7   8
ENDBRANCH   5   7
BRANCH   5  19
ATOM     19  O   UNL A   1      31.163  27.628  27.318  1.00  0.00    -0.378 OA
ATOM     20  H   UNL A   1      31.879  28.031  27.835  1.00  0.00     0.212 HD
ENDBRANCH   5  19
ENDBRANCH   1   5
BRANCH   3  21
ATOM     21  C   UNL A   1      32.000  30.506  26.679  1.00  0.00     0.117 C 
BRANCH  21  22
ATOM     22  C   UNL A   1      31.664  31.978  26.835  1.00  0.00     0.042 C 
BRANCH  22  23
ATOM     23  C   UNL A   1      32.837  32.835  27.291  1.00  0.00     0.118 C 
BRANCH  23  24
ATOM     24  N   UNL A   1      32.463  34.192  27.680  1.00  0.00    -0.352 N 
ATOM     25  C   UNL A   1      33.000  35.028  28.632  1.00  0.00     0.251 C 
ATOM     26  H   UNL A   1      31.705  34.571  27.179  1.00  0.00     0.163 HD
ATOM     27  O   UNL A   1      32.479  36.115  28.865  1.00  0.00    -0.269 OA
BRANCH  25  28
ATOM     28  C   UNL A   1      34.182  34.604  29.412  1.00  0.00     0.039 A 
ATOM     29  C   UNL A   1      33.994  34.058  30.686  1.00  0.00     0.014 A 
ATOM     30  C   UNL A   1      35.467  34.712  28.882  1.00  0.00     0.014 A 
ATOM     31  C   UNL A   1      35.084  33.527  31.380  1.00  0.00     0.010 A 
ATOM     32  C   UNL A   1      36.529  34.083  29.520  1.00  0.00     0.010 A 
ATOM     33  C   UNL A   1      36.351  33.482  30.776  1.00  0.00    -0.014 A 
BRANCH  33  34
ATOM     34  C   UNL A   1      37.514  32.832  31.435  1.00  0.00     0.031 A 
ATOM     35  C   UNL A   1      38.213  31.688  30.752  1.00  0.00     0.074 A 
ATOM     36  C   UNL A   1      37.882  33.205  32.678  1.00  0.00     0.049 A 
ATOM     37  N   UNL A   1      39.140  30.887  31.213  1.00  0.00    -0.248 NA
ATOM     38  C   UNL A   1      37.784  31.377  29.379  1.00  0.00     0.031 C 
ATOM     39  C   UNL A   1      37.253  34.264  33.470  1.00  0.00     0.029 A 
ATOM     40  N   UNL A   1      38.870  32.721  33.500  1.00  0.00    -0.354 N 
ATOM     41  C   UNL A   1      39.383  29.970  30.199  1.00  0.00     0.074 A 
ATOM     42  C   UNL A   1      38.466  30.272  29.123  1.00  0.00     0.031 C 
ATOM     43  C   UNL A   1      37.882  34.364  34.652  1.00  0.00     0.029 A 
ATOM     44  C   UNL A   1      38.929  33.350  34.722  1.00  0.00     0.049 A 
ATOM     45  H   UNL A   1      39.478  31.993  33.241  1.00  0.00     0.167 HD
ATOM     46  C   UNL A   1      40.310  28.984  30.155  1.00  0.00     0.037 A 
ATOM     47  C   UNL A   1      39.731  33.124  35.781  1.00  0.00     0.037 A 
ATOM     48  C   UNL A   1      41.253  28.714  31.205  1.00  0.00     0.049 A 
ATOM     49  C   UNL A   1      40.764  32.032  35.695  1.00  0.00     0.074 A 
ATOM     50  C   UNL A   1      42.258  27.764  31.241  1.00  0.00     0.029 A 
ATOM     51  N   UNL A   1      41.316  29.411  32.403  1.00  0.00    -0.354 N 
ATOM     52  N   UNL A   1      41.012  31.201  34.713  1.00  0.00    -0.248 NA
ATOM     53  C   UNL A   1      41.635  31.852  36.866  1.00  0.00     0.031 C 
ATOM     54  C   UNL A   1      42.915  27.869  32.472  1.00  0.00     0.029 A 
ATOM     55  C   UNL A   1      42.344  28.911  33.185  1.00  0.00     0.049 A 
ATOM     56  H   UNL A   1      40.719  30.151  32.659  1.00  0.00     0.167 HD
ATOM     57  C   UNL A   1      42.084  30.425  35.131  1.00  0.00     0.074 A 
ATOM     58  C   UNL A   1      42.451  30.893  36.451  1.00  0.00     0.031 C 
ATOM     59  C   UNL A   1      42.710  29.413  34.483  1.00  0.00     0.037 A 
BRANCH  46  60
ATOM     60  C   UNL A   1      40.369  28.141  28.915  1.00  0.00     0.064 A 
ATOM     61  C   UNL A   1      41.155  28.516  27.815  1.00  0.00     0.173 A 
ATOM     62  C   UNL A   1      39.673  26.924  28.843  1.00  0.00     0.173 A 
ATOM     63  F   UNL A   1      41.826  29.677  27.830  1.00  0.00    -0.203 F 
ATOM     64  C   UNL A   1      41.225  27.714  26.679  1.00  0.00     0.198 A 
ATOM     65  C   UNL A   1      39.770  26.112  27.716  1.00  0.00     0.198 A 
ATOM     66  F   UNL A   1      38.911  26.517  29.868  1.00  0.00    -0.203 F 
ATOM     67  F   UNL A   1      41.948  28.114  25.624  1.00  0.00    -0.200 F 
ATOM     68  C   UNL A   1      40.540  26.510  26.633  1.00  0.00     0.200 A 
ATOM     69  F   UNL A   1      39.118  24.941  27.678  1.00  0.00    -0.200 F 
ATOM     70  F   UNL A   1      40.620  25.733  25.544  1.00  0.00    -0.200 F 
ENDBRANCH  46  60
BRANCH  47  71
ATOM     71  C   UNL A   1      39.609  33.954  37.009  1.00  0.00     0.064 A 
ATOM     72  C   UNL A   1      38.844  33.515  38.099  1.00  0.00     0.173 A 
ATOM     73  C   UNL A   1      40.217  35.214  37.104  1.00  0.00     0.173 A 
ATOM     74  F   UNL A   1      38.224  32.326  38.047  1.00  0.00    -0.203 F 
ATOM     75  C   UNL A   1      38.665  34.318  39.224  1.00  0.00     0.198 A 
ATOM     76  C   UNL A   1      40.062  36.003  38.242  1.00  0.00     0.198 A 
ATOM     77  F   UNL A   1      40.964  35.679  36.092  1.00  0.00    -0.203 F 
ATOM     78  F   UNL A   1      37.878  33.900  40.224  1.00  0.00    -0.200 F 
ATOM     79  C   UNL A   1      39.275  35.561  39.296  1.00  0.00     0.200 A 
ATOM     80  F   UNL A   1      40.664  37.199  38.313  1.00  0.00    -0.200 F 
ATOM     81  F   UNL A   1      39.096  36.337  40.373  1.00  0.00    -0.200 F 
ENDBRANCH  47  71
BRANCH  59  82
ATOM     82  C   UNL A   1      43.886  28.780  35.165  1.00  0.00     0.064 A 
ATOM     83  C   UNL A   1      43.736  27.678  36.019  1.00  0.00     0.173 A 
ATOM     84  C   UNL A   1      45.182  29.256  34.923  1.00  0.00     0.173 A 
ATOM     85  F   UNL A   1      42.513  27.196  36.291  1.00  0.00    -0.203 F 
ATOM     86  C   UNL A   1      44.842  27.089  36.624  1.00  0.00     0.198 A 
ATOM     87  C   UNL A   1      46.289  28.648  35.507  1.00  0.00     0.198 A 
ATOM     88  F   UNL A   1      45.377  30.304  34.108  1.00  0.00    -0.203 F 
ATOM     89  F   UNL A   1      44.673  26.064  37.470  1.00  0.00    -0.200 F 
ATOM     90  C   UNL A   1      46.117  27.569  36.362  1.00  0.00     0.200 A 
ATOM     91  F   UNL A   1      47.520  29.104  35.243  1.00  0.00    -0.200 F 
ATOM     92  F   UNL A   1      47.181  26.995  36.939  1.00  0.00    -0.200 F 
ENDBRANCH  59  82
ENDBRANCH  33  34
ENDBRANCH  25  28
ENDBRANCH  23  24
ENDBRANCH  22  23
ENDBRANCH  21  22
ENDBRANCH   3  21
TORSDOF 16
ENDMDL
MODEL 3
REMARK VINA RESULT:     -10.3      0.336      2.035
REMARK SMILES C[NH2+]C[C@H](C)C(=O)NC[C@](C)(O)C(=O)NCCCNC(=O)c1ccc(-c2c3nc(c(-c4c(F)c(F)c(F)c(F)c4F)c4ccc([nH]4)c(-c4c(F)c(F)c(F)c(F)c4F)c4nc(c(-c5c(F)c(F)c(F)c(F)c5F)c5ccc2[nH]5)C=C4)C=C3)cc1
REMARK SMILES IDX 13 1 14 2 15 3 10 5 11 6 9 7 8 8 6 9 7 10 4 12 5 13 3 14
REMARK SMILES IDX 2 15 1 16 12 19 16 21 17 22 18 23 19 24 20 25 21 27 22 28
REMARK SMILES IDX 23 29 84 30 24 31 83 32 25 33 26 34 27 35 77 36 28 37 82 38
REMARK SMILES IDX 76 39 78 40 29 41 81 42 75 43 74 44 30 46 62 47 42 48 61 49
REMARK SMILES IDX 43 50 46 51 60 52 79 53 44 54 45 55 59 57 80 58 47 59 31 60
REMARK SMILES IDX 32 61 40 62 33 63 34 64 38 65 41 66 35 67 36 68 39 69 37 70
REMARK SMILES IDX 63 71 64 72 72 73 65 74 66 75 70 76 73 77 67 78 68 79 71 80
REMARK SMILES IDX 69 81 48 82 49 83 57 84 50 85 51 86 55 87 58 88 52 89 53 90
REMARK SMILES IDX 56 91 54 92
REMARK H PARENT 15 4 8 11 2 17 2 18 12 20 19 26 78 45 46 56
REMARK Flexibility Score: inf
ROOT
ATOM      1  C   UNL A   1      36.729  32.539  32.751  1.00  0.00     0.253 C 
ATOM      2  O   UNL A   1      37.095  31.553  33.403  1.00  0.00    -0.272 OA
ATOM      3  N   UNL A   1      36.569  32.339  31.413  1.00  0.00    -0.353 N 
ATOM      4  H   UNL A   1      36.879  31.463  31.086  1.00  0.00     0.163 HD
ENDROOT
BRANCH   1   5
ATOM      5  C   UNL A   1      36.440  33.908  33.443  1.00  0.00     0.157 C 
ATOM      6  C   UNL A   1      37.206  33.921  34.780  1.00  0.00     0.055 C 
BRANCH   5   7
ATOM      7  C   UNL A   1      34.930  34.058  33.759  1.00  0.00     0.160 C 
BRANCH   7   8
ATOM      8  N   UNL A   1      34.560  35.424  34.097  1.00  0.00    -0.352 N 
ATOM      9  C   UNL A   1      33.771  36.334  33.478  1.00  0.00     0.228 C 
ATOM     10  O   UNL A   1      33.775  37.483  33.933  1.00  0.00    -0.275 OA
ATOM     11  H   UNL A   1      34.958  35.747  34.938  1.00  0.00     0.163 HD
BRANCH   9  12
ATOM     12  C   UNL A   1      32.868  35.978  32.308  1.00  0.00     0.130 C 
ATOM     13  C   UNL A   1      31.375  36.025  32.628  1.00  0.00     0.024 C 
BRANCH  12  14
ATOM     14  C   UNL A   1      33.235  36.816  31.073  1.00  0.00     0.273 C 
BRANCH  14  15
ATOM     15  N   UNL A   1      32.535  36.466  29.830  1.00  0.00    -0.348 N 
ATOM     16  C   UNL A   1      33.446  36.117  28.746  1.00  0.00     0.330 C 
ATOM     17  H   UNL A   1      31.925  35.668  30.013  1.00  0.00     0.346 HD
ATOM     18  H   UNL A   1      32.006  37.286  29.534  1.00  0.00     0.346 HD
ENDBRANCH  14  15
ENDBRANCH  12  14
ENDBRANCH   9  12
ENDBRANCH   7   8
ENDBRANCH   5   7
BRANCH   5  19
ATOM     19  O   UNL A   1      36.865  35.064  32.715  1.00  0.00    -0.378 OA
ATOM     20  H   UNL A   1      36.182  35.751  32.771  1.00  0.00     0.212 HD
ENDBRANCH   5  19
ENDBRANCH   1   5
BRANCH   3  21
ATOM     21  C   UNL A   1      36.014  33.207  30.390  1.00  0.00     0.117 C 
BRANCH  21  22
ATOM     22  C   UNL A   1      34.649  32.760  29.900  1.00  0.00     0.042 C 
BRANCH  22  23
ATOM     23  C   UNL A   1      34.586  32.499  28.401  1.00  0.00     0.118 C 
BRANCH  23  24
ATOM     24  N   UNL A   1      34.034  31.194  28.049  1.00  0.00    -0.352 N 
ATOM     25  C   UNL A   1      34.635  29.959  27.982  1.00  0.00     0.251 C 
ATOM     26  H   UNL A   1      33.075  31.199  27.825  1.00  0.00     0.163 HD
ATOM     27  O   UNL A   1      34.005  28.984  27.578  1.00  0.00    -0.269 OA
BRANCH  25  28
ATOM     28  C   UNL A   1      36.058  29.803  28.353  1.00  0.00     0.039 A 
ATOM     29  C   UNL A   1      36.379  29.346  29.635  1.00  0.00     0.014 A 
ATOM     30  C   UNL A   1      37.072  30.073  27.435  1.00  0.00     0.014 A 
ATOM     31  C   UNL A   1      37.708  29.063  29.957  1.00  0.00     0.010 A 
ATOM     32  C   UNL A   1      38.375  29.684  27.716  1.00  0.00     0.010 A 
ATOM     33  C   UNL A   1      38.710  29.174  28.979  1.00  0.00    -0.014 A 
BRANCH  33  34
ATOM     34  C   UNL A   1      40.118  28.782  29.248  1.00  0.00     0.031 A 
ATOM     35  C   UNL A   1      41.040  29.748  29.942  1.00  0.00     0.074 A 
ATOM     36  C   UNL A   1      40.592  27.605  28.792  1.00  0.00     0.049 A 
ATOM     37  N   UNL A   1      42.333  29.670  30.136  1.00  0.00    -0.248 NA
ATOM     38  C   UNL A   1      40.433  30.988  30.453  1.00  0.00     0.031 C 
ATOM     39  C   UNL A   1      39.815  26.602  28.059  1.00  0.00     0.029 A 
ATOM     40  N   UNL A   1      41.849  27.058  28.866  1.00  0.00    -0.354 N 
ATOM     41  C   UNL A   1      42.691  30.855  30.764  1.00  0.00     0.074 A 
ATOM     42  C   UNL A   1      41.496  31.663  30.866  1.00  0.00     0.031 C 
ATOM     43  C   UNL A   1      40.606  25.556  27.770  1.00  0.00     0.029 A 
ATOM     44  C   UNL A   1      41.954  25.830  28.256  1.00  0.00     0.049 A 
ATOM     45  H   UNL A   1      42.605  27.503  29.312  1.00  0.00     0.167 HD
ATOM     46  C   UNL A   1      43.902  31.225  31.244  1.00  0.00     0.037 A 
ATOM     47  C   UNL A   1      43.022  25.023  28.099  1.00  0.00     0.037 A 
ATOM     48  C   UNL A   1      45.079  30.403  31.185  1.00  0.00     0.049 A 
ATOM     49  C   UNL A   1      44.351  25.453  28.659  1.00  0.00     0.074 A 
ATOM     50  C   UNL A   1      46.345  30.669  31.677  1.00  0.00     0.029 A 
ATOM     51  N   UNL A   1      45.130  29.142  30.610  1.00  0.00    -0.354 N 
ATOM     52  N   UNL A   1      44.667  26.557  29.290  1.00  0.00    -0.248 NA
ATOM     53  C   UNL A   1      45.475  24.519  28.491  1.00  0.00     0.031 C 
ATOM     54  C   UNL A   1      47.169  29.578  31.378  1.00  0.00     0.029 A 
ATOM     55  C   UNL A   1      46.406  28.618  30.735  1.00  0.00     0.049 A 
ATOM     56  H   UNL A   1      44.372  28.687  30.176  1.00  0.00     0.167 HD
ATOM     57  C   UNL A   1      46.009  26.437  29.622  1.00  0.00     0.074 A 
ATOM     58  C   UNL A   1      46.448  25.146  29.136  1.00  0.00     0.031 C 
ATOM     59  C   UNL A   1      46.811  27.318  30.270  1.00  0.00     0.037 A 
BRANCH  46  60
ATOM     60  C   UNL A   1      44.008  32.569  31.902  1.00  0.00     0.064 A 
ATOM     61  C   UNL A   1      43.803  32.723  33.283  1.00  0.00     0.173 A 
ATOM     62  C   UNL A   1      44.364  33.705  31.160  1.00  0.00     0.173 A 
ATOM     63  F   UNL A   1      43.446  31.670  34.033  1.00  0.00    -0.203 F 
ATOM     64  C   UNL A   1      43.929  33.969  33.890  1.00  0.00     0.198 A 
ATOM     65  C   UNL A   1      44.518  34.943  31.777  1.00  0.00     0.198 A 
ATOM     66  F   UNL A   1      44.576  33.611  29.839  1.00  0.00    -0.203 F 
ATOM     67  F   UNL A   1      43.686  34.099  35.202  1.00  0.00    -0.200 F 
ATOM     68  C   UNL A   1      44.295  35.076  33.139  1.00  0.00     0.200 A 
ATOM     69  F   UNL A   1      44.884  36.010  31.053  1.00  0.00    -0.200 F 
ATOM     70  F   UNL A   1      44.428  36.272  33.729  1.00  0.00    -0.200 F 
ENDBRANCH  46  60
BRANCH  47  71
ATOM     71  C   UNL A   1      42.883  23.718  27.400  1.00  0.00     0.064 A 
ATOM     72  C   UNL A   1      43.251  23.583  26.053  1.00  0.00     0.173 A 
ATOM     73  C   UNL A   1      42.348  22.594  28.045  1.00  0.00     0.173 A 
ATOM     74  F   UNL A   1      43.747  24.636  25.386  1.00  0.00    -0.203 F 
ATOM     75  C   UNL A   1      43.056  22.384  25.369  1.00  0.00     0.198 A 
ATOM     76  C   UNL A   1      42.183  21.387  27.368  1.00  0.00     0.198 A 
ATOM     77  F   UNL A   1      41.986  22.667  29.334  1.00  0.00    -0.203 F 
ATOM     78  F   UNL A   1      43.357  22.302  24.066  1.00  0.00    -0.200 F 
ATOM     79  C   UNL A   1      42.524  21.286  26.028  1.00  0.00     0.200 A 
ATOM     80  F   UNL A   1      41.679  20.324  28.013  1.00  0.00    -0.200 F 
ATOM     81  F   UNL A   1      42.329  20.136  25.370  1.00  0.00    -0.200 F 
ENDBRANCH  47  71
BRANCH  59  82
ATOM     82  C   UNL A   1      48.224  26.895  30.538  1.00  0.00     0.064 A 
ATOM     83  C   UNL A   1      49.275  27.257  29.684  1.00  0.00     0.173 A 
ATOM     84  C   UNL A   1      48.534  26.156  31.689  1.00  0.00     0.173 A 
ATOM     85  F   UNL A   1      49.026  27.952  28.563  1.00  0.00    -0.203 F 
ATOM     86  C   UNL A   1      50.584  26.875  29.962  1.00  0.00     0.198 A 
ATOM     87  C   UNL A   1      49.847  25.799  31.979  1.00  0.00     0.198 A 
ATOM     88  F   UNL A   1      47.563  25.791  32.540  1.00  0.00    -0.203 F 
ATOM     89  F   UNL A   1      51.569  27.195  29.111  1.00  0.00    -0.200 F 
ATOM     90  C   UNL A   1      50.870  26.154  31.112  1.00  0.00     0.200 A 
ATOM     91  F   UNL A   1      50.123  25.115  33.097  1.00  0.00    -0.200 F 
ATOM     92  F   UNL A   1      52.132  25.795  31.382  1.00  0.00    -0.200 F 
ENDBRANCH  59  82
ENDBRANCH  33  34
ENDBRANCH  25  28
ENDBRANCH  23  24
ENDBRANCH  22  23
ENDBRANCH  21  22
ENDBRANCH   3  21
TORSDOF 16
ENDMDL
