MODEL 1
REMARK VINA RESULT:     -13.5      0.000      0.000
REMARK SMILES Cc1ccc(C(=O)N[C@@H]2C=C[C@H](C(=O)NCCCNC(=O)c3ccc(-c4c5nc(c(-c6c(F)c(F)c(F)c(F)c6F)c6ccc([nH]6)c(-c6c(F)c(F)c(F)c(F)c6F)c6nc(c(-c7c(F)c(F)c(F)c(F)c7F)c7ccc4[nH]7)C=C6)C=C5)cc3)C2)c(F)c1
REMARK SMILES IDX 17 1 16 2 15 3 13 4 14 5 12 7 9 8 10 9 85 10 11 11 8 12 6 13
REMARK SMILES IDX 7 14 5 16 1 17 2 18 3 19 88 20 4 21 86 22 87 23 18 24 19 25
REMARK SMILES IDX 20 26 21 28 22 29 23 30 84 31 24 32 83 33 25 34 26 35 27 36
REMARK SMILES IDX 77 37 28 38 82 39 76 40 78 41 29 42 81 43 75 44 74 45 30 47
REMARK SMILES IDX 62 48 42 49 61 50 43 51 46 52 60 53 79 54 44 55 45 56 59 58
REMARK SMILES IDX 80 59 47 60 31 61 32 62 40 63 33 64 34 65 38 66 41 67 35 68
REMARK SMILES IDX 36 69 39 70 37 71 63 72 64 73 72 74 65 75 66 76 70 77 73 78
REMARK SMILES IDX 67 79 68 80 71 81 69 82 48 83 49 84 57 85 50 86 51 87 55 88
REMARK SMILES IDX 58 89 52 90 53 91 56 92 54 93
REMARK H PARENT 15 6 8 15 19 27 78 46 46 57
REMARK Flexibility Score: inf
ROOT
ATOM      1  C   UNL A   1      33.204  28.666  27.603  1.00  0.00     0.042 C 
ENDROOT
BRANCH   1   2
ATOM      2  C   UNL A   1      31.836  29.002  27.036  1.00  0.00     0.117 C 
BRANCH   2   3
ATOM      3  N   UNL A   1      31.717  28.679  25.624  1.00  0.00    -0.356 N 
ATOM      4  C   UNL A   1      31.395  27.474  25.063  1.00  0.00     0.227 C 
ATOM      5  O   UNL A   1      31.305  27.397  23.840  1.00  0.00    -0.274 OA
ATOM      6  H   UNL A   1      31.891  29.416  24.995  1.00  0.00     0.163 HD
BRANCH   4   7
ATOM      7  C   UNL A   1      31.249  26.291  26.010  1.00  0.00     0.103 C 
ATOM      8  C   UNL A   1      32.479  24.241  25.415  1.00  0.00     0.106 C 
ATOM      9  C   UNL A   1      30.993  24.097  25.254  1.00  0.00    -0.006 C 
ATOM     10  C   UNL A   1      32.606  25.596  26.122  1.00  0.00     0.047 C 
ATOM     11  C   UNL A   1      30.332  25.221  25.541  1.00  0.00    -0.016 C 
BRANCH   8  12
ATOM     12  N   UNL A   1      33.063  24.092  24.093  1.00  0.00    -0.346 N 
ATOM     13  C   UNL A   1      34.159  23.422  23.608  1.00  0.00     0.254 C 
ATOM     14  O   UNL A   1      34.222  23.191  22.403  1.00  0.00    -0.269 OA
ATOM     15  H   UNL A   1      32.564  24.574  23.395  1.00  0.00     0.164 HD
BRANCH  13  16
ATOM     16  C   UNL A   1      35.300  23.076  24.475  1.00  0.00     0.075 A 
ATOM     17  C   UNL A   1      39.077  21.805  26.080  1.00  0.00     0.044 C 
ATOM     18  C   UNL A   1      37.722  22.252  25.622  1.00  0.00    -0.048 A 
ATOM     19  C   UNL A   1      37.405  23.615  25.536  1.00  0.00     0.004 A 
ATOM     20  C   UNL A   1      36.752  21.308  25.275  1.00  0.00     0.043 A 
ATOM     21  C   UNL A   1      36.182  24.028  24.990  1.00  0.00     0.017 A 
ATOM     22  C   UNL A   1      35.556  21.720  24.694  1.00  0.00     0.136 A 
ATOM     23  F   UNL A   1      34.699  20.771  24.290  1.00  0.00    -0.206 F 
ENDBRANCH  13  16
ENDBRANCH   8  12
ENDBRANCH   4   7
ENDBRANCH   2   3
ENDBRANCH   1   2
BRANCH   1  24
ATOM     24  C   UNL A   1      34.295  29.272  26.763  1.00  0.00     0.118 C 
BRANCH  24  25
ATOM     25  N   UNL A   1      34.555  30.666  27.136  1.00  0.00    -0.352 N 
ATOM     26  C   UNL A   1      35.433  31.143  28.085  1.00  0.00     0.251 C 
ATOM     27  H   UNL A   1      34.039  31.346  26.647  1.00  0.00     0.163 HD
ATOM     28  O   UNL A   1      35.297  32.243  28.581  1.00  0.00    -0.269 OA
BRANCH  26  29
ATOM     29  C   UNL A   1      36.580  30.288  28.417  1.00  0.00     0.039 A 
ATOM     30  C   UNL A   1      36.644  29.526  29.586  1.00  0.00     0.014 A 
ATOM     31  C   UNL A   1      37.643  30.322  27.522  1.00  0.00     0.014 A 
ATOM     32  C   UNL A   1      37.811  28.818  29.846  1.00  0.00     0.010 A 
ATOM     33  C   UNL A   1      38.627  29.408  27.619  1.00  0.00     0.010 A 
ATOM     34  C   UNL A   1      38.792  28.800  28.856  1.00  0.00    -0.014 A 
BRANCH  34  35
ATOM     35  C   UNL A   1      40.139  28.303  28.989  1.00  0.00     0.031 A 
ATOM     36  C   UNL A   1      40.397  26.908  28.671  1.00  0.00     0.074 A 
ATOM     37  C   UNL A   1      41.068  29.282  29.098  1.00  0.00     0.049 A 
ATOM     38  N   UNL A   1      41.397  26.245  29.117  1.00  0.00    -0.248 NA
ATOM     39  C   UNL A   1      39.508  26.127  27.815  1.00  0.00     0.031 C 
ATOM     40  C   UNL A   1      42.497  29.293  28.856  1.00  0.00     0.029 A 
ATOM     41  N   UNL A   1      40.810  30.590  29.555  1.00  0.00    -0.354 N 
ATOM     42  C   UNL A   1      41.508  25.142  28.302  1.00  0.00     0.074 A 
ATOM     43  C   UNL A   1      40.225  25.011  27.654  1.00  0.00     0.031 C 
ATOM     44  C   UNL A   1      43.024  30.360  29.494  1.00  0.00     0.029 A 
ATOM     45  C   UNL A   1      41.954  30.982  30.266  1.00  0.00     0.049 A 
ATOM     46  H   UNL A   1      39.993  31.120  29.406  1.00  0.00     0.167 HD
ATOM     47  C   UNL A   1      42.754  24.627  28.091  1.00  0.00     0.037 A 
ATOM     48  C   UNL A   1      41.834  31.015  31.628  1.00  0.00     0.037 A 
ATOM     49  C   UNL A   1      43.755  25.438  28.797  1.00  0.00     0.049 A 
ATOM     50  C   UNL A   1      42.581  29.873  32.288  1.00  0.00     0.074 A 
ATOM     51  C   UNL A   1      44.615  26.452  28.404  1.00  0.00     0.029 A 
ATOM     52  N   UNL A   1      43.675  25.534  30.174  1.00  0.00    -0.354 N 
ATOM     53  N   UNL A   1      43.090  28.862  31.638  1.00  0.00    -0.248 NA
ATOM     54  C   UNL A   1      42.761  29.751  33.730  1.00  0.00     0.031 C 
ATOM     55  C   UNL A   1      45.018  27.172  29.572  1.00  0.00     0.029 A 
ATOM     56  C   UNL A   1      44.402  26.597  30.670  1.00  0.00     0.049 A 
ATOM     57  H   UNL A   1      43.156  24.915  30.737  1.00  0.00     0.167 HD
ATOM     58  C   UNL A   1      43.675  27.993  32.510  1.00  0.00     0.074 A 
ATOM     59  C   UNL A   1      43.401  28.571  33.817  1.00  0.00     0.031 C 
ATOM     60  C   UNL A   1      44.341  26.871  32.098  1.00  0.00     0.037 A 
BRANCH  47  61
ATOM     61  C   UNL A   1      43.099  23.617  27.024  1.00  0.00     0.064 A 
ATOM     62  C   UNL A   1      42.735  22.262  27.184  1.00  0.00     0.173 A 
ATOM     63  C   UNL A   1      43.776  23.907  25.823  1.00  0.00     0.173 A 
ATOM     64  F   UNL A   1      42.000  21.852  28.225  1.00  0.00    -0.203 F 
ATOM     65  C   UNL A   1      43.102  21.271  26.272  1.00  0.00     0.198 A 
ATOM     66  C   UNL A   1      44.180  22.907  24.930  1.00  0.00     0.198 A 
ATOM     67  F   UNL A   1      44.016  25.166  25.440  1.00  0.00    -0.203 F 
ATOM     68  F   UNL A   1      42.723  20.003  26.487  1.00  0.00    -0.200 F 
ATOM     69  C   UNL A   1      43.848  21.588  25.159  1.00  0.00     0.200 A 
ATOM     70  F   UNL A   1      44.886  23.237  23.837  1.00  0.00    -0.200 F 
ATOM     71  F   UNL A   1      44.219  20.634  24.294  1.00  0.00    -0.200 F 
ENDBRANCH  47  61
BRANCH  48  72
ATOM     72  C   UNL A   1      40.474  31.521  32.038  1.00  0.00     0.064 A 
ATOM     73  C   UNL A   1      39.565  30.588  32.593  1.00  0.00     0.173 A 
ATOM     74  C   UNL A   1      40.239  32.875  32.315  1.00  0.00     0.173 A 
ATOM     75  F   UNL A   1      39.729  29.275  32.367  1.00  0.00    -0.203 F 
ATOM     76  C   UNL A   1      38.591  30.977  33.513  1.00  0.00     0.198 A 
ATOM     77  C   UNL A   1      39.230  33.263  33.203  1.00  0.00     0.198 A 
ATOM     78  F   UNL A   1      41.050  33.821  31.819  1.00  0.00    -0.203 F 
ATOM     79  F   UNL A   1      37.865  30.047  34.154  1.00  0.00    -0.200 F 
ATOM     80  C   UNL A   1      38.441  32.312  33.834  1.00  0.00     0.200 A 
ATOM     81  F   UNL A   1      39.084  34.558  33.518  1.00  0.00    -0.200 F 
ATOM     82  F   UNL A   1      37.561  32.680  34.776  1.00  0.00    -0.200 F 
ENDBRANCH  48  72
BRANCH  60  83
ATOM     83  C   UNL A   1      45.014  25.924  33.048  1.00  0.00     0.064 A 
ATOM     84  C   UNL A   1      46.398  25.705  33.023  1.00  0.00     0.173 A 
ATOM     85  C   UNL A   1      44.276  25.119  33.945  1.00  0.00     0.173 A 
ATOM     86  F   UNL A   1      47.179  26.330  32.131  1.00  0.00    -0.203 F 
ATOM     87  C   UNL A   1      47.012  24.817  33.905  1.00  0.00     0.198 A 
ATOM     88  C   UNL A   1      44.883  24.177  34.766  1.00  0.00     0.198 A 
ATOM     89  F   UNL A   1      42.948  25.235  34.082  1.00  0.00    -0.203 F 
ATOM     90  F   UNL A   1      48.347  24.706  33.910  1.00  0.00    -0.200 F 
ATOM     91  C   UNL A   1      46.254  24.046  34.769  1.00  0.00     0.200 A 
ATOM     92  F   UNL A   1      44.126  23.409  35.563  1.00  0.00    -0.200 F 
ATOM     93  F   UNL A   1      46.844  23.182  35.603  1.00  0.00    -0.200 F 
ENDBRANCH  60  83
ENDBRANCH  34  35
ENDBRANCH  26  29
ENDBRANCH  24  25
ENDBRANCH   1  24
TORSDOF 12
ENDMDL
MODEL 2
REMARK VINA RESULT:     -13.5      0.178      1.147
REMARK SMILES Cc1ccc(C(=O)N[C@@H]2C=C[C@H](C(=O)NCCCNC(=O)c3ccc(-c4c5nc(c(-c6c(F)c(F)c(F)c(F)c6F)c6ccc([nH]6)c(-c6c(F)c(F)c(F)c(F)c6F)c6nc(c(-c7c(F)c(F)c(F)c(F)c7F)c7ccc4[nH]7)C=C6)C=C5)cc3)C2)c(F)c1
REMARK SMILES IDX 17 1 16 2 15 3 13 4 14 5 12 7 9 8 10 9 85 10 11 11 8 12 6 13
REMARK SMILES IDX 7 14 5 16 1 17 2 18 3 19 88 20 4 21 86 22 87 23 18 24 19 25
REMARK SMILES IDX 20 26 21 28 22 29 23 30 84 31 24 32 83 33 25 34 26 35 27 36
REMARK SMILES IDX 77 37 28 38 82 39 76 40 78 41 29 42 81 43 75 44 74 45 30 47
REMARK SMILES IDX 62 48 42 49 61 50 43 51 46 52 60 53 79 54 44 55 45 56 59 58
REMARK SMILES IDX 80 59 47 60 31 61 32 62 40 63 33 64 34 65 38 66 41 67 35 68
REMARK SMILES IDX 36 69 39 70 37 71 63 72 64 73 72 74 65 75 66 76 70 77 73 78
REMARK SMILES IDX 67 79 68 80 71 81 69 82 48 83 49 84 57 85 50 86 51 87 55 88
REMARK SMILES IDX 58 89 52 90 53 91 56 92 54 93
REMARK H PARENT 15 6 8 15 19 27 78 46 46 57
REMARK Flexibility Score: inf
ROOT
ATOM      1  C   UNL A   1      33.331  28.583  27.624  1.00  0.00     0.042 C 
ENDROOT
BRANCH   1   2
ATOM      2  C   UNL A   1      31.924  28.854  27.119  1.00  0.00     0.117 C 
BRANCH   2   3
ATOM      3  N   UNL A   1      31.774  28.580  25.700  1.00  0.00    -0.356 N 
ATOM      4  C   UNL A   1      31.404  27.405  25.107  1.00  0.00     0.227 C 
ATOM      5  O   UNL A   1      31.292  27.369  23.884  1.00  0.00    -0.274 OA
ATOM      6  H   UNL A   1      31.961  29.331  25.092  1.00  0.00     0.163 HD
BRANCH   4   7
ATOM      7  C   UNL A   1      31.234  26.197  26.019  1.00  0.00     0.103 C 
ATOM      8  C   UNL A   1      32.448  24.150  25.378  1.00  0.00     0.106 C 
ATOM      9  C   UNL A   1      30.962  24.029  25.199  1.00  0.00    -0.006 C 
ATOM     10  C   UNL A   1      32.582  25.484  26.124  1.00  0.00     0.047 C 
ATOM     11  C   UNL A   1      30.311  25.152  25.510  1.00  0.00    -0.016 C 
BRANCH   8  12
ATOM     12  N   UNL A   1      33.043  24.032  24.058  1.00  0.00    -0.346 N 
ATOM     13  C   UNL A   1      34.153  23.387  23.570  1.00  0.00     0.254 C 
ATOM     14  O   UNL A   1      34.228  23.176  22.363  1.00  0.00    -0.269 OA
ATOM     15  H   UNL A   1      32.542  24.519  23.365  1.00  0.00     0.164 HD
BRANCH  13  16
ATOM     16  C   UNL A   1      35.293  23.043  24.441  1.00  0.00     0.075 A 
ATOM     17  C   UNL A   1      39.061  21.762  26.057  1.00  0.00     0.044 C 
ATOM     18  C   UNL A   1      37.709  22.215  25.595  1.00  0.00    -0.048 A 
ATOM     19  C   UNL A   1      37.403  23.579  25.490  1.00  0.00     0.004 A 
ATOM     20  C   UNL A   1      36.731  21.274  25.263  1.00  0.00     0.043 A 
ATOM     21  C   UNL A   1      36.184  23.994  24.941  1.00  0.00     0.017 A 
ATOM     22  C   UNL A   1      35.537  21.688  24.679  1.00  0.00     0.136 A 
ATOM     23  F   UNL A   1      34.671  20.741  24.289  1.00  0.00    -0.206 F 
ENDBRANCH  13  16
ENDBRANCH   8  12
ENDBRANCH   4   7
ENDBRANCH   2   3
ENDBRANCH   1   2
BRANCH   1  24
ATOM     24  C   UNL A   1      34.357  29.165  26.690  1.00  0.00     0.118 C 
BRANCH  24  25
ATOM     25  N   UNL A   1      34.651  30.565  27.013  1.00  0.00    -0.352 N 
ATOM     26  C   UNL A   1      35.553  31.054  27.932  1.00  0.00     0.251 C 
ATOM     27  H   UNL A   1      34.141  31.239  26.509  1.00  0.00     0.163 HD
ATOM     28  O   UNL A   1      35.448  32.173  28.392  1.00  0.00    -0.269 OA
BRANCH  26  29
ATOM     29  C   UNL A   1      36.687  30.187  28.274  1.00  0.00     0.039 A 
ATOM     30  C   UNL A   1      36.722  29.408  29.433  1.00  0.00     0.014 A 
ATOM     31  C   UNL A   1      37.769  30.227  27.402  1.00  0.00     0.014 A 
ATOM     32  C   UNL A   1      37.880  28.688  29.707  1.00  0.00     0.010 A 
ATOM     33  C   UNL A   1      38.745  29.305  27.506  1.00  0.00     0.010 A 
ATOM     34  C   UNL A   1      38.880  28.678  28.737  1.00  0.00    -0.014 A 
BRANCH  34  35
ATOM     35  C   UNL A   1      40.221  28.170  28.891  1.00  0.00     0.031 A 
ATOM     36  C   UNL A   1      40.476  26.778  28.559  1.00  0.00     0.074 A 
ATOM     37  C   UNL A   1      41.154  29.142  29.032  1.00  0.00     0.049 A 
ATOM     38  N   UNL A   1      41.463  26.102  29.015  1.00  0.00    -0.248 NA
ATOM     39  C   UNL A   1      39.600  26.015  27.674  1.00  0.00     0.031 C 
ATOM     40  C   UNL A   1      42.588  29.146  28.818  1.00  0.00     0.029 A 
ATOM     41  N   UNL A   1      40.895  30.445  29.501  1.00  0.00    -0.354 N 
ATOM     42  C   UNL A   1      41.584  25.010  28.188  1.00  0.00     0.074 A 
ATOM     43  C   UNL A   1      40.313  24.896  27.512  1.00  0.00     0.031 C 
ATOM     44  C   UNL A   1      43.109  30.200  29.482  1.00  0.00     0.029 A 
ATOM     45  C   UNL A   1      42.027  30.819  30.240  1.00  0.00     0.049 A 
ATOM     46  H   UNL A   1      40.085  30.982  29.343  1.00  0.00     0.167 HD
ATOM     47  C   UNL A   1      42.830  24.489  27.995  1.00  0.00     0.037 A 
ATOM     48  C   UNL A   1      41.879  30.834  31.600  1.00  0.00     0.037 A 
ATOM     49  C   UNL A   1      43.822  25.283  28.732  1.00  0.00     0.049 A 
ATOM     50  C   UNL A   1      42.605  29.678  32.259  1.00  0.00     0.074 A 
ATOM     51  C   UNL A   1      44.696  26.297  28.371  1.00  0.00     0.029 A 
ATOM     52  N   UNL A   1      43.715  25.362  30.108  1.00  0.00    -0.354 N 
ATOM     53  N   UNL A   1      43.122  28.673  31.606  1.00  0.00    -0.248 NA
ATOM     54  C   UNL A   1      42.756  29.536  33.703  1.00  0.00     0.031 C 
ATOM     55  C   UNL A   1      45.080  26.999  29.556  1.00  0.00     0.029 A 
ATOM     56  C   UNL A   1      44.438  26.413  30.633  1.00  0.00     0.049 A 
ATOM     57  H   UNL A   1      43.180  24.738  30.652  1.00  0.00     0.167 HD
ATOM     58  C   UNL A   1      43.683  27.788  32.478  1.00  0.00     0.074 A 
ATOM     59  C   UNL A   1      43.386  28.351  33.786  1.00  0.00     0.031 C 
ATOM     60  C   UNL A   1      44.350  26.668  32.064  1.00  0.00     0.037 A 
BRANCH  47  61
ATOM     61  C   UNL A   1      43.190  23.491  26.921  1.00  0.00     0.064 A 
ATOM     62  C   UNL A   1      42.851  22.130  27.075  1.00  0.00     0.173 A 
ATOM     63  C   UNL A   1      43.859  23.800  25.720  1.00  0.00     0.173 A 
ATOM     64  F   UNL A   1      42.125  21.700  28.115  1.00  0.00    -0.203 F 
ATOM     65  C   UNL A   1      43.233  21.150  26.156  1.00  0.00     0.198 A 
ATOM     66  C   UNL A   1      44.278  22.812  24.821  1.00  0.00     0.198 A 
ATOM     67  F   UNL A   1      44.075  25.065  25.344  1.00  0.00    -0.203 F 
ATOM     68  F   UNL A   1      42.877  19.875  26.365  1.00  0.00    -0.200 F 
ATOM     69  C   UNL A   1      43.970  21.487  25.043  1.00  0.00     0.200 A 
ATOM     70  F   UNL A   1      44.975  23.162  23.728  1.00  0.00    -0.200 F 
ATOM     71  F   UNL A   1      44.355  20.544  24.172  1.00  0.00    -0.200 F 
ENDBRANCH  47  61
BRANCH  48  72
ATOM     72  C   UNL A   1      40.515  31.344  31.989  1.00  0.00     0.064 A 
ATOM     73  C   UNL A   1      39.573  30.401  32.468  1.00  0.00     0.173 A 
ATOM     74  C   UNL A   1      40.293  32.687  32.325  1.00  0.00     0.173 A 
ATOM     75  F   UNL A   1      39.723  29.098  32.181  1.00  0.00    -0.203 F 
ATOM     76  C   UNL A   1      38.574  30.762  33.373  1.00  0.00     0.198 A 
ATOM     77  C   UNL A   1      39.261  33.049  33.198  1.00  0.00     0.198 A 
ATOM     78  F   UNL A   1      41.135  33.642  31.904  1.00  0.00    -0.203 F 
ATOM     79  F   UNL A   1      37.812  29.815  33.942  1.00  0.00    -0.200 F 
ATOM     80  C   UNL A   1      38.435  32.082  33.754  1.00  0.00     0.200 A 
ATOM     81  F   UNL A   1      39.125  34.330  33.571  1.00  0.00    -0.200 F 
ATOM     82  F   UNL A   1      37.530  32.419  34.683  1.00  0.00    -0.200 F 
ENDBRANCH  48  72
BRANCH  60  83
ATOM     83  C   UNL A   1      44.998  25.704  33.014  1.00  0.00     0.064 A 
ATOM     84  C   UNL A   1      44.256  24.962  33.943  1.00  0.00     0.173 A 
ATOM     85  C   UNL A   1      46.403  25.573  33.098  1.00  0.00     0.173 A 
ATOM     86  F   UNL A   1      42.925  25.099  34.028  1.00  0.00    -0.203 F 
ATOM     87  C   UNL A   1      44.870  24.076  34.826  1.00  0.00     0.198 A 
ATOM     88  C   UNL A   1      47.016  24.748  34.033  1.00  0.00     0.198 A 
ATOM     89  F   UNL A   1      47.231  26.212  32.261  1.00  0.00    -0.203 F 
ATOM     90  F   UNL A   1      44.116  23.319  35.635  1.00  0.00    -0.200 F 
ATOM     91  C   UNL A   1      46.250  23.976  34.878  1.00  0.00     0.200 A 
ATOM     92  F   UNL A   1      48.354  24.700  34.096  1.00  0.00    -0.200 F 
ATOM     93  F   UNL A   1      46.838  23.136  35.738  1.00  0.00    -0.200 F 
ENDBRANCH  60  83
ENDBRANCH  34  35
ENDBRANCH  26  29
ENDBRANCH  24  25
ENDBRANCH   1  24
TORSDOF 12
ENDMDL
MODEL 3
REMARK VINA RESULT:     -13.4      1.411      1.700
REMARK SMILES Cc1ccc(C(=O)N[C@@H]2C=C[C@H](C(=O)NCCCNC(=O)c3ccc(-c4c5nc(c(-c6c(F)c(F)c(F)c(F)c6F)c6ccc([nH]6)c(-c6c(F)c(F)c(F)c(F)c6F)c6nc(c(-c7c(F)c(F)c(F)c(F)c7F)c7ccc4[nH]7)C=C6)C=C5)cc3)C2)c(F)c1
REMARK SMILES IDX 17 1 16 2 15 3 13 4 14 5 12 7 9 8 10 9 85 10 11 11 8 12 6 13
REMARK SMILES IDX 7 14 5 16 1 17 2 18 3 19 88 20 4 21 86 22 87 23 18 24 19 25
REMARK SMILES IDX 20 26 21 28 22 29 23 30 84 31 24 32 83 33 25 34 26 35 27 36
REMARK SMILES IDX 77 37 28 38 82 39 76 40 78 41 29 42 81 43 75 44 74 45 30 47
REMARK SMILES IDX 62 48 42 49 61 50 43 51 46 52 60 53 79 54 44 55 45 56 59 58
REMARK SMILES IDX 80 59 47 60 31 61 32 62 40 63 33 64 34 65 38 66 41 67 35 68
REMARK SMILES IDX 36 69 39 70 37 71 63 72 64 73 72 74 65 75 66 76 70 77 73 78
REMARK SMILES IDX 67 79 68 80 71 81 69 82 48 83 49 84 57 85 50 86 51 87 55 88
REMARK SMILES IDX 58 89 52 90 53 91 56 92 54 93
REMARK H PARENT 15 6 8 15 19 27 78 46 46 57
REMARK Flexibility Score: inf
ROOT
ATOM      1  C   UNL A   1      33.465  28.966  27.210  1.00  0.00     0.042 C 
ENDROOT
BRANCH   1   2
ATOM      2  C   UNL A   1      32.694  29.902  26.296  1.00  0.00     0.117 C 
BRANCH   2   3
ATOM      3  N   UNL A   1      33.033  29.726  24.894  1.00  0.00    -0.356 N 
ATOM      4  C   UNL A   1      32.438  28.895  23.985  1.00  0.00     0.227 C 
ATOM      5  O   UNL A   1      32.838  28.905  22.824  1.00  0.00    -0.274 OA
ATOM      6  H   UNL A   1      33.781  30.270  24.558  1.00  0.00     0.163 HD
BRANCH   4   7
ATOM      7  C   UNL A   1      31.365  27.953  24.513  1.00  0.00     0.103 C 
ATOM      8  C   UNL A   1      31.342  25.671  23.583  1.00  0.00     0.106 C 
ATOM      9  C   UNL A   1      30.174  26.499  23.129  1.00  0.00    -0.006 C 
ATOM     10  C   UNL A   1      31.979  26.560  24.658  1.00  0.00     0.047 C 
ATOM     11  C   UNL A   1      30.209  27.746  23.605  1.00  0.00    -0.016 C 
BRANCH   8  12
ATOM     12  N   UNL A   1      32.119  25.354  22.397  1.00  0.00    -0.346 N 
ATOM     13  C   UNL A   1      33.004  24.353  22.080  1.00  0.00     0.254 C 
ATOM     14  O   UNL A   1      33.251  24.138  20.897  1.00  0.00    -0.269 OA
ATOM     15  H   UNL A   1      31.980  25.994  21.662  1.00  0.00     0.164 HD
BRANCH  13  16
ATOM     16  C   UNL A   1      33.740  23.613  23.123  1.00  0.00     0.075 A 
ATOM     17  C   UNL A   1      36.238  20.902  25.329  1.00  0.00     0.044 C 
ATOM     18  C   UNL A   1      35.326  21.881  24.654  1.00  0.00    -0.048 A 
ATOM     19  C   UNL A   1      35.723  23.210  24.445  1.00  0.00     0.004 A 
ATOM     20  C   UNL A   1      34.059  21.479  24.225  1.00  0.00     0.043 A 
ATOM     21  C   UNL A   1      34.918  24.085  23.705  1.00  0.00     0.017 A 
ATOM     22  C   UNL A   1      33.279  22.336  23.454  1.00  0.00     0.136 A 
ATOM     23  F   UNL A   1      32.113  21.869  22.986  1.00  0.00    -0.206 F 
ENDBRANCH  13  16
ENDBRANCH   8  12
ENDBRANCH   4   7
ENDBRANCH   2   3
ENDBRANCH   1   2
BRANCH   1  24
ATOM     24  C   UNL A   1      34.942  29.049  26.937  1.00  0.00     0.118 C 
BRANCH  24  25
ATOM     25  N   UNL A   1      35.458  30.405  27.151  1.00  0.00    -0.352 N 
ATOM     26  C   UNL A   1      36.482  30.804  27.982  1.00  0.00     0.251 C 
ATOM     27  H   UNL A   1      35.018  31.119  26.637  1.00  0.00     0.163 HD
ATOM     28  O   UNL A   1      36.572  31.949  28.375  1.00  0.00    -0.269 OA
BRANCH  26  29
ATOM     29  C   UNL A   1      37.500  29.797  28.310  1.00  0.00     0.039 A 
ATOM     30  C   UNL A   1      37.423  28.985  29.444  1.00  0.00     0.014 A 
ATOM     31  C   UNL A   1      38.593  29.734  27.454  1.00  0.00     0.014 A 
ATOM     32  C   UNL A   1      38.481  28.124  29.710  1.00  0.00     0.010 A 
ATOM     33  C   UNL A   1      39.450  28.699  27.541  1.00  0.00     0.010 A 
ATOM     34  C   UNL A   1      39.489  28.024  28.752  1.00  0.00    -0.014 A 
BRANCH  34  35
ATOM     35  C   UNL A   1      40.758  27.355  28.907  1.00  0.00     0.031 A 
ATOM     36  C   UNL A   1      40.827  25.930  28.630  1.00  0.00     0.074 A 
ATOM     37  C   UNL A   1      41.810  28.204  28.992  1.00  0.00     0.049 A 
ATOM     38  N   UNL A   1      41.728  25.151  29.099  1.00  0.00    -0.248 NA
ATOM     39  C   UNL A   1      39.842  25.250  27.791  1.00  0.00     0.031 C 
ATOM     40  C   UNL A   1      43.228  28.015  28.757  1.00  0.00     0.029 A 
ATOM     41  N   UNL A   1      41.728  29.547  29.410  1.00  0.00    -0.354 N 
ATOM     42  C   UNL A   1      41.692  24.020  28.316  1.00  0.00     0.074 A 
ATOM     43  C   UNL A   1      40.403  24.043  27.666  1.00  0.00     0.031 C 
ATOM     44  C   UNL A   1      43.892  29.020  29.367  1.00  0.00     0.029 A 
ATOM     45  C   UNL A   1      42.914  29.802  30.115  1.00  0.00     0.049 A 
ATOM     46  H   UNL A   1      40.990  30.177  29.242  1.00  0.00     0.167 HD
ATOM     47  C   UNL A   1      42.858  23.338  28.127  1.00  0.00     0.037 A 
ATOM     48  C   UNL A   1      42.797  29.890  31.476  1.00  0.00     0.037 A 
ATOM     49  C   UNL A   1      43.958  24.027  28.815  1.00  0.00     0.049 A 
ATOM     50  C   UNL A   1      43.384  28.678  32.172  1.00  0.00     0.074 A 
ATOM     51  C   UNL A   1      44.946  24.905  28.397  1.00  0.00     0.029 A 
ATOM     52  N   UNL A   1      43.890  24.173  30.187  1.00  0.00    -0.354 N 
ATOM     53  N   UNL A   1      43.754  27.590  31.554  1.00  0.00    -0.248 NA
ATOM     54  C   UNL A   1      43.544  28.575  33.618  1.00  0.00     0.031 C 
ATOM     55  C   UNL A   1      45.440  25.598  29.546  1.00  0.00     0.029 A 
ATOM     56  C   UNL A   1      44.752  25.143  30.657  1.00  0.00     0.049 A 
ATOM     57  H   UNL A   1      43.291  23.645  30.766  1.00  0.00     0.167 HD
ATOM     58  C   UNL A   1      44.216  26.676  32.453  1.00  0.00     0.074 A 
ATOM     59  C   UNL A   1      44.020  27.323  33.741  1.00  0.00     0.031 C 
ATOM     60  C   UNL A   1      44.726  25.464  32.076  1.00  0.00     0.037 A 
BRANCH  47  61
ATOM     61  C   UNL A   1      43.065  22.259  27.091  1.00  0.00     0.064 A 
ATOM     62  C   UNL A   1      42.328  21.058  27.158  1.00  0.00     0.173 A 
ATOM     63  C   UNL A   1      43.962  22.340  26.007  1.00  0.00     0.173 A 
ATOM     64  F   UNL A   1      41.366  20.875  28.072  1.00  0.00    -0.203 F 
ATOM     65  C   UNL A   1      42.539  19.994  26.279  1.00  0.00     0.198 A 
ATOM     66  C   UNL A   1      44.204  21.258  25.152  1.00  0.00     0.198 A 
ATOM     67  F   UNL A   1      44.588  23.482  25.699  1.00  0.00    -0.203 F 
ATOM     68  F   UNL A   1      41.803  18.880  26.401  1.00  0.00    -0.200 F 
ATOM     69  C   UNL A   1      43.497  20.083  25.293  1.00  0.00     0.200 A 
ATOM     70  F   UNL A   1      45.123  21.371  24.181  1.00  0.00    -0.200 F 
ATOM     71  F   UNL A   1      43.714  19.054  24.463  1.00  0.00    -0.200 F 
ENDBRANCH  47  61
BRANCH  48  72
ATOM     72  C   UNL A   1      41.517  30.586  31.864  1.00  0.00     0.064 A 
ATOM     73  C   UNL A   1      40.479  29.794  32.412  1.00  0.00     0.173 A 
ATOM     74  C   UNL A   1      41.472  31.961  32.130  1.00  0.00     0.173 A 
ATOM     75  F   UNL A   1      40.460  28.469  32.194  1.00  0.00    -0.203 F 
ATOM     76  C   UNL A   1      39.557  30.323  33.316  1.00  0.00     0.198 A 
ATOM     77  C   UNL A   1      40.516  32.494  33.003  1.00  0.00     0.198 A 
ATOM     78  F   UNL A   1      42.414  32.781  31.641  1.00  0.00    -0.203 F 
ATOM     79  F   UNL A   1      38.700  29.509  33.951  1.00  0.00    -0.200 F 
ATOM     80  C   UNL A   1      39.593  31.668  33.628  1.00  0.00     0.200 A 
ATOM     81  F   UNL A   1      40.549  33.799  33.308  1.00  0.00    -0.200 F 
ATOM     82  F   UNL A   1      38.761  32.162  34.555  1.00  0.00    -0.200 F 
ENDBRANCH  48  72
BRANCH  60  83
ATOM     83  C   UNL A   1      45.265  24.463  33.056  1.00  0.00     0.064 A 
ATOM     84  C   UNL A   1      46.588  24.510  33.515  1.00  0.00     0.173 A 
ATOM     85  C   UNL A   1      44.501  23.353  33.483  1.00  0.00     0.173 A 
ATOM     86  F   UNL A   1      47.435  25.455  33.081  1.00  0.00    -0.203 F 
ATOM     87  C   UNL A   1      47.081  23.570  34.419  1.00  0.00     0.198 A 
ATOM     88  C   UNL A   1      45.021  22.374  34.322  1.00  0.00     0.198 A 
ATOM     89  F   UNL A   1      43.218  23.192  33.133  1.00  0.00    -0.203 F 
ATOM     90  F   UNL A   1      48.323  23.706  34.904  1.00  0.00    -0.200 F 
ATOM     91  C   UNL A   1      46.301  22.498  34.814  1.00  0.00     0.200 A 
ATOM     92  F   UNL A   1      44.263  21.320  34.656  1.00  0.00    -0.200 F 
ATOM     93  F   UNL A   1      46.781  21.587  35.670  1.00  0.00    -0.200 F 
ENDBRANCH  60  83
ENDBRANCH  34  35
ENDBRANCH  26  29
ENDBRANCH  24  25
ENDBRANCH   1  24
TORSDOF 12
ENDMDL
