MODEL 1
REMARK VINA RESULT:     -12.4      0.000      0.000
REMARK SMILES CCC[C@]1(C(=O)NCCCNC(=O)c2ccc(-c3c4nc(c(-c5c(F)c(F)c(F)c(F)c5F)c5ccc([nH]5)c(-c5c(F)c(F)c(F)c(F)c5F)c5nc(c(-c6c(F)c(F)c(F)c(F)c6F)c6ccc3[nH]6)C=C5)C=C4)cc2)CCCN(C(=O)c2ccc(NS(=O)(=O)CC)cc2)C1
REMARK SMILES IDX 5 1 6 2 7 3 4 5 77 6 95 7 78 8 80 9 79 10 3 11 2 12 1 13
REMARK SMILES IDX 81 14 82 15 83 16 84 17 94 18 85 19 93 20 86 21 87 22 88 24
REMARK SMILES IDX 89 25 90 26 91 27 92 28 8 29 9 30 10 31 11 32 12 33 13 35
REMARK SMILES IDX 14 36 15 37 76 38 16 39 75 40 17 41 18 42 19 43 69 44 20 45
REMARK SMILES IDX 74 46 68 47 70 48 21 49 73 50 67 51 66 52 22 54 54 55 34 56
REMARK SMILES IDX 53 57 35 58 38 59 52 60 71 61 36 62 37 63 51 65 72 66 39 67
REMARK SMILES IDX 23 68 24 69 32 70 25 71 26 72 30 73 33 74 27 75 28 76 31 77
REMARK SMILES IDX 29 78 55 79 56 80 64 81 57 82 58 83 62 84 65 85 59 86 60 87
REMARK SMILES IDX 63 88 61 89 40 90 41 91 49 92 42 93 43 94 47 95 50 96 44 97
REMARK SMILES IDX 45 98 48 99 46 100
REMARK H PARENT 7 4 87 23 11 34 70 53 38 64
REMARK Flexibility Score: inf
ROOT
ATOM      1  C   UNL A   1      36.033  22.755  25.640  1.00  0.00     0.228 C 
ATOM      2  O   UNL A   1      36.491  23.701  26.283  1.00  0.00    -0.274 OA
ATOM      3  N   UNL A   1      36.856  21.673  25.543  1.00  0.00    -0.355 N 
ATOM      4  H   UNL A   1      37.744  21.820  25.940  1.00  0.00     0.163 HD
ENDROOT
BRANCH   1   5
ATOM      5  C   UNL A   1      34.614  22.763  25.041  1.00  0.00     0.067 C 
ATOM      6  C   UNL A   1      34.336  21.483  24.197  1.00  0.00     0.020 C 
ATOM      7  C   UNL A   1      33.671  22.872  26.275  1.00  0.00     0.136 C 
ATOM      8  C   UNL A   1      32.854  21.150  24.021  1.00  0.00     0.023 C 
ATOM      9  N   UNL A   1      32.303  22.475  25.992  1.00  0.00    -0.338 N 
ATOM     10  C   UNL A   1      32.122  21.178  25.350  1.00  0.00     0.120 C 
BRANCH   5  11
ATOM     11  C   UNL A   1      34.335  24.029  24.148  1.00  0.00     0.018 C 
BRANCH  11  12
ATOM     12  C   UNL A   1      34.125  25.420  24.772  1.00  0.00    -0.002 C 
ATOM     13  C   UNL A   1      33.695  26.545  23.852  1.00  0.00     0.004 C 
ENDBRANCH  11  12
ENDBRANCH   5  11
BRANCH   9  14
ATOM     14  C   UNL A   1      31.287  23.308  26.423  1.00  0.00     0.253 C 
ATOM     15  O   UNL A   1      30.696  23.198  27.493  1.00  0.00    -0.269 OA
BRANCH  14  16
ATOM     16  C   UNL A   1      30.932  24.448  25.580  1.00  0.00     0.040 A 
ATOM     17  C   UNL A   1      30.796  25.688  26.196  1.00  0.00     0.016 A 
ATOM     18  C   UNL A   1      30.658  24.272  24.226  1.00  0.00     0.016 A 
ATOM     19  C   UNL A   1      30.322  26.764  25.454  1.00  0.00     0.027 A 
ATOM     20  C   UNL A   1      30.153  25.351  23.501  1.00  0.00     0.027 A 
ATOM     21  C   UNL A   1      29.940  26.593  24.120  1.00  0.00     0.049 A 
BRANCH  21  22
ATOM     22  N   UNL A   1      29.059  27.489  23.451  1.00  0.00    -0.284 N 
ATOM     23  H   UNL A   1      28.148  27.163  23.264  1.00  0.00     0.180 HD
BRANCH  22  24
ATOM     24  S   UNL A   1      29.423  29.030  22.953  1.00  0.00     0.232 S 
ATOM     25  O   UNL A   1      30.178  29.676  24.010  1.00  0.00    -0.207 OA
ATOM     26  O   UNL A   1      29.998  28.863  21.639  1.00  0.00    -0.207 OA
BRANCH  24  27
ATOM     27  C   UNL A   1      27.863  29.901  22.755  1.00  0.00     0.156 C 
ATOM     28  C   UNL A   1      27.734  31.214  23.498  1.00  0.00     0.023 C 
ENDBRANCH  24  27
ENDBRANCH  22  24
ENDBRANCH  21  22
ENDBRANCH  14  16
ENDBRANCH   9  14
ENDBRANCH   1   5
BRANCH   3  29
ATOM     29  C   UNL A   1      36.687  20.346  24.973  1.00  0.00     0.117 C 
BRANCH  29  30
ATOM     30  C   UNL A   1      37.975  19.542  24.993  1.00  0.00     0.042 C 
BRANCH  30  31
ATOM     31  C   UNL A   1      39.045  20.145  25.884  1.00  0.00     0.118 C 
BRANCH  31  32
ATOM     32  N   UNL A   1      40.226  19.301  25.977  1.00  0.00    -0.352 N 
ATOM     33  C   UNL A   1      41.544  19.646  26.124  1.00  0.00     0.251 C 
ATOM     34  H   UNL A   1      40.051  18.333  25.927  1.00  0.00     0.163 HD
ATOM     35  O   UNL A   1      42.416  18.800  25.954  1.00  0.00    -0.269 OA
BRANCH  33  36
ATOM     36  C   UNL A   1      41.916  21.032  26.476  1.00  0.00     0.039 A 
ATOM     37  C   UNL A   1      41.968  21.993  25.464  1.00  0.00     0.014 A 
ATOM     38  C   UNL A   1      42.251  21.379  27.787  1.00  0.00     0.014 A 
ATOM     39  C   UNL A   1      42.328  23.303  25.778  1.00  0.00     0.010 A 
ATOM     40  C   UNL A   1      42.490  22.706  28.117  1.00  0.00     0.010 A 
ATOM     41  C   UNL A   1      42.575  23.675  27.110  1.00  0.00    -0.014 A 
BRANCH  41  42
ATOM     42  C   UNL A   1      42.995  25.054  27.453  1.00  0.00     0.031 A 
ATOM     43  C   UNL A   1      44.403  25.502  27.159  1.00  0.00     0.074 A 
ATOM     44  C   UNL A   1      42.125  25.891  28.049  1.00  0.00     0.049 A 
ATOM     45  N   UNL A   1      44.969  26.661  27.387  1.00  0.00    -0.248 NA
ATOM     46  C   UNL A   1      45.307  24.507  26.557  1.00  0.00     0.031 C 
ATOM     47  C   UNL A   1      40.754  25.553  28.435  1.00  0.00     0.029 A 
ATOM     48  N   UNL A   1      42.265  27.201  28.429  1.00  0.00    -0.354 N 
ATOM     49  C   UNL A   1      46.287  26.525  26.967  1.00  0.00     0.074 A 
ATOM     50  C   UNL A   1      46.461  25.154  26.548  1.00  0.00     0.031 C 
ATOM     51  C   UNL A   1      40.165  26.640  28.959  1.00  0.00     0.029 A 
ATOM     52  C   UNL A   1      41.125  27.739  28.976  1.00  0.00     0.049 A 
ATOM     53  H   UNL A   1      43.101  27.708  28.320  1.00  0.00     0.167 HD
ATOM     54  C   UNL A   1      47.256  27.468  26.900  1.00  0.00     0.037 A 
ATOM     55  C   UNL A   1      40.886  28.982  29.433  1.00  0.00     0.037 A 
ATOM     56  C   UNL A   1      47.070  28.840  27.294  1.00  0.00     0.049 A 
ATOM     57  C   UNL A   1      41.981  30.012  29.346  1.00  0.00     0.074 A 
ATOM     58  C   UNL A   1      47.968  29.889  27.223  1.00  0.00     0.029 A 
ATOM     59  N   UNL A   1      45.898  29.351  27.832  1.00  0.00    -0.354 N 
ATOM     60  N   UNL A   1      43.201  29.893  28.878  1.00  0.00    -0.248 NA
ATOM     61  C   UNL A   1      41.657  31.357  29.838  1.00  0.00     0.031 C 
ATOM     62  C   UNL A   1      47.356  31.025  27.765  1.00  0.00     0.029 A 
ATOM     63  C   UNL A   1      46.056  30.698  28.118  1.00  0.00     0.049 A 
ATOM     64  H   UNL A   1      45.075  28.833  27.989  1.00  0.00     0.167 HD
ATOM     65  C   UNL A   1      43.777  31.150  28.991  1.00  0.00     0.074 A 
ATOM     66  C   UNL A   1      42.764  32.023  29.546  1.00  0.00     0.031 C 
ATOM     67  C   UNL A   1      45.033  31.550  28.667  1.00  0.00     0.037 A 
BRANCH  54  68
ATOM     68  C   UNL A   1      48.598  27.047  26.372  1.00  0.00     0.064 A 
ATOM     69  C   UNL A   1      48.906  27.113  25.003  1.00  0.00     0.173 A 
ATOM     70  C   UNL A   1      49.597  26.589  27.245  1.00  0.00     0.173 A 
ATOM     71  F   UNL A   1      47.983  27.529  24.122  1.00  0.00    -0.203 F 
ATOM     72  C   UNL A   1      50.149  26.706  24.525  1.00  0.00     0.198 A 
ATOM     73  C   UNL A   1      50.851  26.216  26.767  1.00  0.00     0.198 A 
ATOM     74  F   UNL A   1      49.360  26.508  28.562  1.00  0.00    -0.203 F 
ATOM     75  F   UNL A   1      50.397  26.722  23.208  1.00  0.00    -0.200 F 
ATOM     76  C   UNL A   1      51.123  26.266  25.408  1.00  0.00     0.200 A 
ATOM     77  F   UNL A   1      51.796  25.804  27.623  1.00  0.00    -0.200 F 
ATOM     78  F   UNL A   1      52.321  25.880  24.948  1.00  0.00    -0.200 F 
ENDBRANCH  54  68
BRANCH  55  79
ATOM     79  C   UNL A   1      39.547  29.336  29.973  1.00  0.00     0.064 A 
ATOM     80  C   UNL A   1      38.535  29.821  29.133  1.00  0.00     0.173 A 
ATOM     81  C   UNL A   1      39.257  29.219  31.341  1.00  0.00     0.173 A 
ATOM     82  F   UNL A   1      38.769  29.967  27.819  1.00  0.00    -0.203 F 
ATOM     83  C   UNL A   1      37.297  30.206  29.642  1.00  0.00     0.198 A 
ATOM     84  C   UNL A   1      38.007  29.573  31.844  1.00  0.00     0.198 A 
ATOM     85  F   UNL A   1      40.186  28.752  32.188  1.00  0.00    -0.203 F 
ATOM     86  F   UNL A   1      36.370  30.721  28.823  1.00  0.00    -0.200 F 
ATOM     87  C   UNL A   1      37.033  30.078  30.996  1.00  0.00     0.200 A 
ATOM     88  F   UNL A   1      37.749  29.432  33.151  1.00  0.00    -0.200 F 
ATOM     89  F   UNL A   1      35.842  30.450  31.486  1.00  0.00    -0.200 F 
ENDBRANCH  55  79
BRANCH  67  90
ATOM     90  C   UNL A   1      45.361  33.002  28.872  1.00  0.00     0.064 A 
ATOM     91  C   UNL A   1      45.075  33.970  27.898  1.00  0.00     0.173 A 
ATOM     92  C   UNL A   1      45.965  33.430  30.065  1.00  0.00     0.173 A 
ATOM     93  F   UNL A   1      44.509  33.611  26.735  1.00  0.00    -0.203 F 
ATOM     94  C   UNL A   1      45.423  35.304  28.090  1.00  0.00     0.198 A 
ATOM     95  C   UNL A   1      46.276  34.771  30.269  1.00  0.00     0.198 A 
ATOM     96  F   UNL A   1      46.250  32.547  31.034  1.00  0.00    -0.203 F 
ATOM     97  F   UNL A   1      45.205  36.198  27.115  1.00  0.00    -0.200 F 
ATOM     98  C   UNL A   1      46.018  35.704  29.277  1.00  0.00     0.200 A 
ATOM     99  F   UNL A   1      46.835  35.158  31.424  1.00  0.00    -0.200 F 
ATOM    100  F   UNL A   1      46.355  36.989  29.460  1.00  0.00    -0.200 F 
ENDBRANCH  67  90
ENDBRANCH  41  42
ENDBRANCH  33  36
ENDBRANCH  31  32
ENDBRANCH  30  31
ENDBRANCH  29  30
ENDBRANCH   3  29
TORSDOF 17
ENDMDL
MODEL 2
REMARK VINA RESULT:     -12.3      0.651      7.278
REMARK SMILES CCC[C@]1(C(=O)NCCCNC(=O)c2ccc(-c3c4nc(c(-c5c(F)c(F)c(F)c(F)c5F)c5ccc([nH]5)c(-c5c(F)c(F)c(F)c(F)c5F)c5nc(c(-c6c(F)c(F)c(F)c(F)c6F)c6ccc3[nH]6)C=C5)C=C4)cc2)CCCN(C(=O)c2ccc(NS(=O)(=O)CC)cc2)C1
REMARK SMILES IDX 5 1 6 2 7 3 4 5 77 6 95 7 78 8 80 9 79 10 3 11 2 12 1 13
REMARK SMILES IDX 81 14 82 15 83 16 84 17 94 18 85 19 93 20 86 21 87 22 88 24
REMARK SMILES IDX 89 25 90 26 91 27 92 28 8 29 9 30 10 31 11 32 12 33 13 35
REMARK SMILES IDX 14 36 15 37 76 38 16 39 75 40 17 41 18 42 19 43 69 44 20 45
REMARK SMILES IDX 74 46 68 47 70 48 21 49 73 50 67 51 66 52 22 54 54 55 34 56
REMARK SMILES IDX 53 57 35 58 38 59 52 60 71 61 36 62 37 63 51 65 72 66 39 67
REMARK SMILES IDX 23 68 24 69 32 70 25 71 26 72 30 73 33 74 27 75 28 76 31 77
REMARK SMILES IDX 29 78 55 79 56 80 64 81 57 82 58 83 62 84 65 85 59 86 60 87
REMARK SMILES IDX 63 88 61 89 40 90 41 91 49 92 42 93 43 94 47 95 50 96 44 97
REMARK SMILES IDX 45 98 48 99 46 100
REMARK H PARENT 7 4 87 23 11 34 70 53 38 64
REMARK Flexibility Score: inf
ROOT
ATOM      1  C   UNL A   1      36.198  22.706  25.650  1.00  0.00     0.228 C 
ATOM      2  O   UNL A   1      36.679  23.604  26.342  1.00  0.00    -0.274 OA
ATOM      3  N   UNL A   1      36.987  21.605  25.504  1.00  0.00    -0.355 N 
ATOM      4  H   UNL A   1      37.877  21.704  25.913  1.00  0.00     0.163 HD
ENDROOT
BRANCH   1   5
ATOM      5  C   UNL A   1      34.783  22.787  25.045  1.00  0.00     0.067 C 
ATOM      6  C   UNL A   1      34.476  21.565  24.129  1.00  0.00     0.020 C 
ATOM      7  C   UNL A   1      33.835  22.855  26.278  1.00  0.00     0.136 C 
ATOM      8  C   UNL A   1      32.986  21.284  23.927  1.00  0.00     0.023 C 
ATOM      9  N   UNL A   1      32.459  22.514  25.965  1.00  0.00    -0.338 N 
ATOM     10  C   UNL A   1      32.245  21.260  25.251  1.00  0.00     0.120 C 
BRANCH   5  11
ATOM     11  C   UNL A   1      34.547  24.109  24.222  1.00  0.00     0.018 C 
BRANCH  11  12
ATOM     12  C   UNL A   1      34.384  25.470  24.921  1.00  0.00    -0.002 C 
ATOM     13  C   UNL A   1      33.804  26.611  24.109  1.00  0.00     0.004 C 
ENDBRANCH  11  12
ENDBRANCH   5  11
BRANCH   9  14
ATOM     14  C   UNL A   1      31.463  23.350  26.437  1.00  0.00     0.253 C 
ATOM     15  O   UNL A   1      30.925  23.251  27.535  1.00  0.00    -0.269 OA
BRANCH  14  16
ATOM     16  C   UNL A   1      31.067  24.482  25.600  1.00  0.00     0.040 A 
ATOM     17  C   UNL A   1      30.929  25.722  26.215  1.00  0.00     0.016 A 
ATOM     18  C   UNL A   1      30.758  24.297  24.255  1.00  0.00     0.016 A 
ATOM     19  C   UNL A   1      30.417  26.787  25.483  1.00  0.00     0.027 A 
ATOM     20  C   UNL A   1      30.216  25.365  23.541  1.00  0.00     0.027 A 
ATOM     21  C   UNL A   1      30.001  26.606  24.162  1.00  0.00     0.049 A 
BRANCH  21  22
ATOM     22  N   UNL A   1      29.088  27.485  23.515  1.00  0.00    -0.284 N 
ATOM     23  H   UNL A   1      28.171  27.152  23.372  1.00  0.00     0.180 HD
BRANCH  22  24
ATOM     24  S   UNL A   1      29.421  29.020  22.976  1.00  0.00     0.232 S 
ATOM     25  O   UNL A   1      30.194  29.697  24.000  1.00  0.00    -0.207 OA
ATOM     26  O   UNL A   1      29.968  28.830  21.652  1.00  0.00    -0.207 OA
BRANCH  24  27
ATOM     27  C   UNL A   1      27.847  29.868  22.796  1.00  0.00     0.156 C 
ATOM     28  C   UNL A   1      27.746  31.229  23.451  1.00  0.00     0.023 C 
ENDBRANCH  24  27
ENDBRANCH  22  24
ENDBRANCH  21  22
ENDBRANCH  14  16
ENDBRANCH   9  14
ENDBRANCH   1   5
BRANCH   3  29
ATOM     29  C   UNL A   1      36.781  20.313  24.867  1.00  0.00     0.117 C 
BRANCH  29  30
ATOM     30  C   UNL A   1      38.014  19.430  24.945  1.00  0.00     0.042 C 
BRANCH  30  31
ATOM     31  C   UNL A   1      39.092  19.982  25.858  1.00  0.00     0.118 C 
BRANCH  31  32
ATOM     32  N   UNL A   1      40.226  19.079  25.982  1.00  0.00    -0.352 N 
ATOM     33  C   UNL A   1      41.562  19.358  26.107  1.00  0.00     0.251 C 
ATOM     34  H   UNL A   1      39.998  18.122  25.976  1.00  0.00     0.163 HD
ATOM     35  O   UNL A   1      42.385  18.459  25.971  1.00  0.00    -0.269 OA
BRANCH  33  36
ATOM     36  C   UNL A   1      42.011  20.736  26.397  1.00  0.00     0.039 A 
ATOM     37  C   UNL A   1      42.268  21.598  25.329  1.00  0.00     0.014 A 
ATOM     38  C   UNL A   1      42.217  21.167  27.709  1.00  0.00     0.014 A 
ATOM     39  C   UNL A   1      42.704  22.898  25.583  1.00  0.00     0.010 A 
ATOM     40  C   UNL A   1      42.533  22.495  27.963  1.00  0.00     0.010 A 
ATOM     41  C   UNL A   1      42.822  23.363  26.904  1.00  0.00    -0.014 A 
BRANCH  41  42
ATOM     42  C   UNL A   1      43.320  24.730  27.190  1.00  0.00     0.031 A 
ATOM     43  C   UNL A   1      42.392  25.754  27.788  1.00  0.00     0.074 A 
ATOM     44  C   UNL A   1      44.592  25.056  26.891  1.00  0.00     0.049 A 
ATOM     45  N   UNL A   1      42.629  27.002  28.107  1.00  0.00    -0.248 NA
ATOM     46  C   UNL A   1      41.003  25.332  28.033  1.00  0.00     0.031 C 
ATOM     47  C   UNL A   1      45.567  24.167  26.257  1.00  0.00     0.029 A 
ATOM     48  N   UNL A   1      45.283  26.224  27.086  1.00  0.00    -0.354 N 
ATOM     49  C   UNL A   1      41.422  27.507  28.575  1.00  0.00     0.074 A 
ATOM     50  C   UNL A   1      40.437  26.462  28.425  1.00  0.00     0.031 C 
ATOM     51  C   UNL A   1      46.743  24.808  26.154  1.00  0.00     0.029 A 
ATOM     52  C   UNL A   1      46.595  26.160  26.683  1.00  0.00     0.049 A 
ATOM     53  H   UNL A   1      44.878  27.031  27.478  1.00  0.00     0.167 HD
ATOM     54  C   UNL A   1      41.165  28.721  29.118  1.00  0.00     0.037 A 
ATOM     55  C   UNL A   1      47.565  27.090  26.740  1.00  0.00     0.037 A 
ATOM     56  C   UNL A   1      42.156  29.749  29.291  1.00  0.00     0.049 A 
ATOM     57  C   UNL A   1      47.253  28.431  27.350  1.00  0.00     0.074 A 
ATOM     58  C   UNL A   1      42.016  30.996  29.872  1.00  0.00     0.029 A 
ATOM     59  N   UNL A   1      43.477  29.644  28.880  1.00  0.00    -0.354 N 
ATOM     60  N   UNL A   1      46.127  28.872  27.858  1.00  0.00    -0.248 NA
ATOM     61  C   UNL A   1      48.356  29.399  27.407  1.00  0.00     0.031 C 
ATOM     62  C   UNL A   1      43.240  31.665  29.770  1.00  0.00     0.029 A 
ATOM     63  C   UNL A   1      44.160  30.813  29.178  1.00  0.00     0.049 A 
ATOM     64  H   UNL A   1      43.873  28.856  28.442  1.00  0.00     0.167 HD
ATOM     65  C   UNL A   1      46.394  30.153  28.322  1.00  0.00     0.074 A 
ATOM     66  C   UNL A   1      47.795  30.407  28.059  1.00  0.00     0.031 C 
ATOM     67  C   UNL A   1      45.557  31.044  28.911  1.00  0.00     0.037 A 
BRANCH  54  68
ATOM     68  C   UNL A   1      39.759  28.993  29.573  1.00  0.00     0.064 A 
ATOM     69  C   UNL A   1      39.354  28.759  30.898  1.00  0.00     0.173 A 
ATOM     70  C   UNL A   1      38.807  29.511  28.681  1.00  0.00     0.173 A 
ATOM     71  F   UNL A   1      40.218  28.250  31.789  1.00  0.00    -0.203 F 
ATOM     72  C   UNL A   1      38.043  29.002  31.303  1.00  0.00     0.198 A 
ATOM     73  C   UNL A   1      37.507  29.786  29.099  1.00  0.00     0.198 A 
ATOM     74  F   UNL A   1      39.138  29.756  27.405  1.00  0.00    -0.203 F 
ATOM     75  F   UNL A   1      37.668  28.714  32.556  1.00  0.00    -0.200 F 
ATOM     76  C   UNL A   1      37.124  29.522  30.406  1.00  0.00     0.200 A 
ATOM     77  F   UNL A   1      36.623  30.301  28.234  1.00  0.00    -0.200 F 
ATOM     78  F   UNL A   1      35.866  29.762  30.798  1.00  0.00    -0.200 F 
ENDBRANCH  54  68
BRANCH  55  79
ATOM     79  C   UNL A   1      48.933  26.777  26.247  1.00  0.00     0.064 A 
ATOM     80  C   UNL A   1      49.913  26.271  27.113  1.00  0.00     0.173 A 
ATOM     81  C   UNL A   1      49.295  26.995  24.910  1.00  0.00     0.173 A 
ATOM     82  F   UNL A   1      49.620  26.059  28.405  1.00  0.00    -0.203 F 
ATOM     83  C   UNL A   1      51.211  26.027  26.669  1.00  0.00     0.198 A 
ATOM     84  C   UNL A   1      50.585  26.720  24.460  1.00  0.00     0.198 A 
ATOM     85  F   UNL A   1      48.394  27.470  24.038  1.00  0.00    -0.203 F 
ATOM     86  F   UNL A   1      52.142  25.599  27.533  1.00  0.00    -0.200 F 
ATOM     87  C   UNL A   1      51.544  26.248  25.342  1.00  0.00     0.200 A 
ATOM     88  F   UNL A   1      50.899  26.918  23.173  1.00  0.00    -0.200 F 
ATOM     89  F   UNL A   1      52.793  26.015  24.916  1.00  0.00    -0.200 F 
ENDBRANCH  55  79
BRANCH  67  90
ATOM     90  C   UNL A   1      46.148  32.355  29.343  1.00  0.00     0.064 A 
ATOM     91  C   UNL A   1      46.717  32.528  30.613  1.00  0.00     0.173 A 
ATOM     92  C   UNL A   1      46.152  33.453  28.467  1.00  0.00     0.173 A 
ATOM     93  F   UNL A   1      46.728  31.513  31.492  1.00  0.00    -0.203 F 
ATOM     94  C   UNL A   1      47.225  33.763  31.009  1.00  0.00     0.198 A 
ATOM     95  C   UNL A   1      46.696  34.675  28.853  1.00  0.00     0.198 A 
ATOM     96  F   UNL A   1      45.631  33.339  27.236  1.00  0.00    -0.203 F 
ATOM     97  F   UNL A   1      47.697  33.922  32.253  1.00  0.00    -0.200 F 
ATOM     98  C   UNL A   1      47.218  34.833  30.127  1.00  0.00     0.200 A 
ATOM     99  F   UNL A   1      46.704  35.702  27.993  1.00  0.00    -0.200 F 
ATOM    100  F   UNL A   1      47.705  36.021  30.510  1.00  0.00    -0.200 F 
ENDBRANCH  67  90
ENDBRANCH  41  42
ENDBRANCH  33  36
ENDBRANCH  31  32
ENDBRANCH  30  31
ENDBRANCH  29  30
ENDBRANCH   3  29
TORSDOF 17
ENDMDL
MODEL 3
REMARK VINA RESULT:     -12.3      1.049      2.326
REMARK SMILES CCC[C@]1(C(=O)NCCCNC(=O)c2ccc(-c3c4nc(c(-c5c(F)c(F)c(F)c(F)c5F)c5ccc([nH]5)c(-c5c(F)c(F)c(F)c(F)c5F)c5nc(c(-c6c(F)c(F)c(F)c(F)c6F)c6ccc3[nH]6)C=C5)C=C4)cc2)CCCN(C(=O)c2ccc(NS(=O)(=O)CC)cc2)C1
REMARK SMILES IDX 5 1 6 2 7 3 4 5 77 6 95 7 78 8 80 9 79 10 3 11 2 12 1 13
REMARK SMILES IDX 81 14 82 15 83 16 84 17 94 18 85 19 93 20 86 21 87 22 88 24
REMARK SMILES IDX 89 25 90 26 91 27 92 28 8 29 9 30 10 31 11 32 12 33 13 35
REMARK SMILES IDX 14 36 15 37 76 38 16 39 75 40 17 41 18 42 19 43 69 44 20 45
REMARK SMILES IDX 74 46 68 47 70 48 21 49 73 50 67 51 66 52 22 54 54 55 34 56
REMARK SMILES IDX 53 57 35 58 38 59 52 60 71 61 36 62 37 63 51 65 72 66 39 67
REMARK SMILES IDX 23 68 24 69 32 70 25 71 26 72 30 73 33 74 27 75 28 76 31 77
REMARK SMILES IDX 29 78 55 79 56 80 64 81 57 82 58 83 62 84 65 85 59 86 60 87
REMARK SMILES IDX 63 88 61 89 40 90 41 91 49 92 42 93 43 94 47 95 50 96 44 97
REMARK SMILES IDX 45 98 48 99 46 100
REMARK H PARENT 7 4 87 23 11 34 70 53 38 64
REMARK Flexibility Score: inf
ROOT
ATOM      1  C   UNL A   1      34.064  20.155  25.210  1.00  0.00     0.228 C 
ATOM      2  O   UNL A   1      33.202  19.277  25.252  1.00  0.00    -0.274 OA
ATOM      3  N   UNL A   1      35.336  19.706  25.015  1.00  0.00    -0.355 N 
ATOM      4  H   UNL A   1      35.407  18.724  25.009  1.00  0.00     0.163 HD
ENDROOT
BRANCH   1   5
ATOM      5  C   UNL A   1      33.731  21.657  25.304  1.00  0.00     0.067 C 
ATOM      6  C   UNL A   1      34.605  22.376  26.374  1.00  0.00     0.020 C 
ATOM      7  C   UNL A   1      33.984  22.203  23.869  1.00  0.00     0.136 C 
ATOM      8  C   UNL A   1      34.733  23.887  26.175  1.00  0.00     0.023 C 
ATOM      9  N   UNL A   1      34.143  23.646  23.822  1.00  0.00    -0.338 N 
ATOM     10  C   UNL A   1      35.113  24.224  24.746  1.00  0.00     0.120 C 
BRANCH   5  11
ATOM     11  C   UNL A   1      32.213  21.925  25.627  1.00  0.00     0.018 C 
BRANCH  11  12
ATOM     12  C   UNL A   1      31.789  22.768  26.842  1.00  0.00    -0.002 C 
ATOM     13  C   UNL A   1      30.866  23.944  26.592  1.00  0.00     0.004 C 
ENDBRANCH  11  12
ENDBRANCH   5  11
BRANCH   9  14
ATOM     14  C   UNL A   1      33.435  24.342  22.860  1.00  0.00     0.253 C 
ATOM     15  O   UNL A   1      33.642  24.278  21.652  1.00  0.00    -0.269 OA
BRANCH  14  16
ATOM     16  C   UNL A   1      32.308  25.163  23.301  1.00  0.00     0.040 A 
ATOM     17  C   UNL A   1      31.026  24.665  23.092  1.00  0.00     0.016 A 
ATOM     18  C   UNL A   1      32.519  26.434  23.829  1.00  0.00     0.016 A 
ATOM     19  C   UNL A   1      29.931  25.477  23.366  1.00  0.00     0.027 A 
ATOM     20  C   UNL A   1      31.414  27.249  24.071  1.00  0.00     0.027 A 
ATOM     21  C   UNL A   1      30.114  26.793  23.799  1.00  0.00     0.049 A 
BRANCH  21  22
ATOM     22  N   UNL A   1      29.108  27.791  23.673  1.00  0.00    -0.284 N 
ATOM     23  H   UNL A   1      28.204  27.558  23.988  1.00  0.00     0.180 HD
BRANCH  22  24
ATOM     24  S   UNL A   1      29.312  29.313  23.041  1.00  0.00     0.232 S 
ATOM     25  O   UNL A   1      30.094  30.089  23.985  1.00  0.00    -0.207 OA
ATOM     26  O   UNL A   1      29.797  29.089  21.699  1.00  0.00    -0.207 OA
BRANCH  24  27
ATOM     27  C   UNL A   1      27.680  30.053  22.912  1.00  0.00     0.156 C 
ATOM     28  C   UNL A   1      27.561  31.490  23.373  1.00  0.00     0.023 C 
ENDBRANCH  24  27
ENDBRANCH  22  24
ENDBRANCH  21  22
ENDBRANCH  14  16
ENDBRANCH   9  14
ENDBRANCH   1   5
BRANCH   3  29
ATOM     29  C   UNL A   1      36.608  20.382  24.815  1.00  0.00     0.117 C 
BRANCH  29  30
ATOM     30  C   UNL A   1      37.791  19.449  25.006  1.00  0.00     0.042 C 
BRANCH  30  31
ATOM     31  C   UNL A   1      39.017  20.142  25.570  1.00  0.00     0.118 C 
BRANCH  31  32
ATOM     32  N   UNL A   1      40.104  19.212  25.835  1.00  0.00    -0.352 N 
ATOM     33  C   UNL A   1      41.424  19.457  26.109  1.00  0.00     0.251 C 
ATOM     34  H   UNL A   1      39.852  18.260  25.813  1.00  0.00     0.163 HD
ATOM     35  O   UNL A   1      42.233  18.535  26.079  1.00  0.00    -0.269 OA
BRANCH  33  36
ATOM     36  C   UNL A   1      41.875  20.827  26.433  1.00  0.00     0.039 A 
ATOM     37  C   UNL A   1      42.038  21.183  27.773  1.00  0.00     0.014 A 
ATOM     38  C   UNL A   1      42.099  21.770  25.427  1.00  0.00     0.014 A 
ATOM     39  C   UNL A   1      42.452  22.475  28.096  1.00  0.00     0.010 A 
ATOM     40  C   UNL A   1      42.627  23.014  25.744  1.00  0.00     0.010 A 
ATOM     41  C   UNL A   1      42.767  23.396  27.084  1.00  0.00    -0.014 A 
BRANCH  41  42
ATOM     42  C   UNL A   1      43.172  24.784  27.412  1.00  0.00     0.031 A 
ATOM     43  C   UNL A   1      44.577  25.242  27.121  1.00  0.00     0.074 A 
ATOM     44  C   UNL A   1      42.290  25.619  27.993  1.00  0.00     0.049 A 
ATOM     45  N   UNL A   1      45.130  26.409  27.337  1.00  0.00    -0.248 NA
ATOM     46  C   UNL A   1      45.494  24.249  26.536  1.00  0.00     0.031 C 
ATOM     47  C   UNL A   1      40.920  25.271  28.376  1.00  0.00     0.029 A 
ATOM     48  N   UNL A   1      42.415  26.935  28.357  1.00  0.00    -0.354 N 
ATOM     49  C   UNL A   1      46.451  26.282  26.926  1.00  0.00     0.074 A 
ATOM     50  C   UNL A   1      46.642  24.907  26.525  1.00  0.00     0.031 C 
ATOM     51  C   UNL A   1      40.317  26.359  28.882  1.00  0.00     0.029 A 
ATOM     52  C   UNL A   1      41.267  27.468  28.891  1.00  0.00     0.049 A 
ATOM     53  H   UNL A   1      43.247  27.449  28.248  1.00  0.00     0.167 HD
ATOM     54  C   UNL A   1      47.412  27.234  26.854  1.00  0.00     0.037 A 
ATOM     55  C   UNL A   1      41.013  28.714  29.332  1.00  0.00     0.037 A 
ATOM     56  C   UNL A   1      47.210  28.608  27.229  1.00  0.00     0.049 A 
ATOM     57  C   UNL A   1      42.097  29.754  29.238  1.00  0.00     0.074 A 
ATOM     58  C   UNL A   1      48.097  29.665  27.151  1.00  0.00     0.029 A 
ATOM     59  N   UNL A   1      46.029  29.114  27.755  1.00  0.00    -0.354 N 
ATOM     60  N   UNL A   1      43.321  29.641  28.779  1.00  0.00    -0.248 NA
ATOM     61  C   UNL A   1      41.757  31.101  29.712  1.00  0.00     0.031 C 
ATOM     62  C   UNL A   1      47.471  30.801  27.675  1.00  0.00     0.029 A 
ATOM     63  C   UNL A   1      46.172  30.465  28.025  1.00  0.00     0.049 A 
ATOM     64  H   UNL A   1      45.210  28.590  27.914  1.00  0.00     0.167 HD
ATOM     65  C   UNL A   1      43.884  30.905  28.879  1.00  0.00     0.074 A 
ATOM     66  C   UNL A   1      42.859  31.775  29.418  1.00  0.00     0.031 C 
ATOM     67  C   UNL A   1      45.137  31.314  28.558  1.00  0.00     0.037 A 
BRANCH  54  68
ATOM     68  C   UNL A   1      48.761  26.820  26.339  1.00  0.00     0.064 A 
ATOM     69  C   UNL A   1      49.133  27.023  25.000  1.00  0.00     0.173 A 
ATOM     70  C   UNL A   1      49.702  26.230  27.196  1.00  0.00     0.173 A 
ATOM     71  F   UNL A   1      48.267  27.569  24.132  1.00  0.00    -0.203 F 
ATOM     72  C   UNL A   1      50.382  26.621  24.531  1.00  0.00     0.198 A 
ATOM     73  C   UNL A   1      50.963  25.862  26.733  1.00  0.00     0.198 A 
ATOM     74  F   UNL A   1      49.403  26.014  28.485  1.00  0.00    -0.203 F 
ATOM     75  F   UNL A   1      50.690  26.771  23.236  1.00  0.00    -0.200 F 
ATOM     76  C   UNL A   1      51.298  26.049  25.399  1.00  0.00     0.200 A 
ATOM     77  F   UNL A   1      51.853  25.321  27.575  1.00  0.00    -0.200 F 
ATOM     78  F   UNL A   1      52.501  25.668  24.950  1.00  0.00    -0.200 F 
ENDBRANCH  54  68
BRANCH  55  79
ATOM     79  C   UNL A   1      39.667  29.061  29.860  1.00  0.00     0.064 A 
ATOM     80  C   UNL A   1      39.366  28.911  31.222  1.00  0.00     0.173 A 
ATOM     81  C   UNL A   1      38.648  29.527  29.016  1.00  0.00     0.173 A 
ATOM     82  F   UNL A   1      40.302  28.453  32.067  1.00  0.00    -0.203 F 
ATOM     83  C   UNL A   1      38.091  29.182  31.713  1.00  0.00     0.198 A 
ATOM     84  C   UNL A   1      37.383  29.830  29.515  1.00  0.00     0.198 A 
ATOM     85  F   UNL A   1      38.885  29.697  27.707  1.00  0.00    -0.203 F 
ATOM     86  F   UNL A   1      37.817  28.974  33.008  1.00  0.00    -0.200 F 
ATOM     87  C   UNL A   1      37.102  29.645  30.860  1.00  0.00     0.200 A 
ATOM     88  F   UNL A   1      36.434  30.294  28.690  1.00  0.00    -0.200 F 
ATOM     89  F   UNL A   1      35.875  29.905  31.333  1.00  0.00    -0.200 F 
ENDBRANCH  55  79
BRANCH  67  90
ATOM     90  C   UNL A   1      45.450  32.771  28.747  1.00  0.00     0.064 A 
ATOM     91  C   UNL A   1      45.996  33.262  29.942  1.00  0.00     0.173 A 
ATOM     92  C   UNL A   1      45.205  33.688  27.711  1.00  0.00     0.173 A 
ATOM     93  F   UNL A   1      46.236  32.430  30.967  1.00  0.00    -0.203 F 
ATOM     94  C   UNL A   1      46.241  34.623  30.112  1.00  0.00     0.198 A 
ATOM     95  C   UNL A   1      45.489  35.041  27.871  1.00  0.00     0.198 A 
ATOM     96  F   UNL A   1      44.695  33.270  26.543  1.00  0.00    -0.203 F 
ATOM     97  F   UNL A   1      46.695  35.077  31.288  1.00  0.00    -0.200 F 
ATOM     98  C   UNL A   1      45.993  35.509  29.075  1.00  0.00     0.200 A 
ATOM     99  F   UNL A   1      45.265  35.894  26.862  1.00  0.00    -0.200 F 
ATOM    100  F   UNL A   1      46.228  36.819  29.241  1.00  0.00    -0.200 F 
ENDBRANCH  67  90
ENDBRANCH  41  42
ENDBRANCH  33  36
ENDBRANCH  31  32
ENDBRANCH  30  31
ENDBRANCH  29  30
ENDBRANCH   3  29
TORSDOF 17
ENDMDL
