MODEL 1
REMARK VINA RESULT:     -12.3      0.000      0.000
REMARK SMILES O=C(NCCCNC(=O)c1ncc2ccccc2n1)c1ccc(-c2c3nc(c(-c4c(F)c(F)c(F)c(F)c4F)c4ccc([nH]4)c(-c4c(F)c(F)c(F)c(F)c4F)c4nc(c(-c5c(F)c(F)c(F)c(F)c5F)c5ccc2[nH]5)C=C4)C=C3)cc1
REMARK SMILES IDX 4 1 3 2 1 3 2 4 20 6 21 7 82 8 22 9 81 10 23 11 24 12 25 13
REMARK SMILES IDX 75 14 26 15 80 16 74 17 76 18 27 19 79 20 73 21 72 22 28 24
REMARK SMILES IDX 60 25 40 26 59 27 41 28 44 29 58 30 77 31 42 32 43 33 57 35
REMARK SMILES IDX 78 36 45 37 29 38 30 39 38 40 31 41 32 42 36 43 39 44 33 45
REMARK SMILES IDX 34 46 37 47 35 48 61 49 62 50 70 51 63 52 64 53 68 54 71 55
REMARK SMILES IDX 65 56 66 57 69 58 67 59 46 60 47 61 55 62 48 63 49 64 53 65
REMARK SMILES IDX 56 66 50 67 51 68 54 69 52 70 5 71 6 72 7 73 8 74 9 76 10 77
REMARK SMILES IDX 11 78 19 79 12 80 18 81 13 82 17 83 14 84 16 85 15 86
REMARK H PARENT 3 5 76 23 44 34 7 75
REMARK Flexibility Score: inf
ROOT
ATOM      1  C   UNL A   1      33.649  28.995  24.944  1.00  0.00     0.118 C 
ENDROOT
BRANCH   1   2
ATOM      2  N   UNL A   1      33.000  30.158  25.539  1.00  0.00    -0.352 N 
ATOM      3  O   UNL A   1      32.486  31.681  27.115  1.00  0.00    -0.269 OA
ATOM      4  C   UNL A   1      33.276  30.835  26.699  1.00  0.00     0.251 C 
ATOM      5  H   UNL A   1      32.241  30.515  25.024  1.00  0.00     0.163 HD
BRANCH   4   6
ATOM      6  C   UNL A   1      34.506  30.546  27.466  1.00  0.00     0.039 A 
ATOM      7  C   UNL A   1      34.738  29.276  27.995  1.00  0.00     0.014 A 
ATOM      8  C   UNL A   1      35.463  31.552  27.627  1.00  0.00     0.014 A 
ATOM      9  C   UNL A   1      35.839  29.057  28.814  1.00  0.00     0.010 A 
ATOM     10  C   UNL A   1      36.623  31.301  28.365  1.00  0.00     0.010 A 
ATOM     11  C   UNL A   1      36.806  30.058  28.990  1.00  0.00    -0.014 A 
BRANCH  11  12
ATOM     12  C   UNL A   1      38.031  29.753  29.770  1.00  0.00     0.031 A 
ATOM     13  C   UNL A   1      38.236  30.307  31.151  1.00  0.00     0.074 A 
ATOM     14  C   UNL A   1      38.953  28.935  29.225  1.00  0.00     0.049 A 
ATOM     15  N   UNL A   1      39.240  30.126  31.973  1.00  0.00    -0.248 NA
ATOM     16  C   UNL A   1      37.182  31.187  31.680  1.00  0.00     0.031 C 
ATOM     17  C   UNL A   1      38.865  28.345  27.887  1.00  0.00     0.029 A 
ATOM     18  N   UNL A   1      40.132  28.447  29.726  1.00  0.00    -0.354 N 
ATOM     19  C   UNL A   1      38.949  30.874  33.105  1.00  0.00     0.074 A 
ATOM     20  C   UNL A   1      37.687  31.540  32.855  1.00  0.00     0.031 C 
ATOM     21  C   UNL A   1      39.916  27.536  27.693  1.00  0.00     0.029 A 
ATOM     22  C   UNL A   1      40.786  27.605  28.861  1.00  0.00     0.049 A 
ATOM     23  H   UNL A   1      40.476  28.677  30.620  1.00  0.00     0.167 HD
ATOM     24  C   UNL A   1      39.665  30.986  34.249  1.00  0.00     0.037 A 
ATOM     25  C   UNL A   1      41.967  26.972  28.984  1.00  0.00     0.037 A 
ATOM     26  C   UNL A   1      40.917  30.312  34.493  1.00  0.00     0.049 A 
ATOM     27  C   UNL A   1      42.758  27.148  30.248  1.00  0.00     0.074 A 
ATOM     28  C   UNL A   1      41.704  30.337  35.631  1.00  0.00     0.029 A 
ATOM     29  N   UNL A   1      41.567  29.497  33.577  1.00  0.00    -0.354 N 
ATOM     30  N   UNL A   1      42.455  27.831  31.325  1.00  0.00    -0.248 NA
ATOM     31  C   UNL A   1      44.057  26.469  30.312  1.00  0.00     0.031 C 
ATOM     32  C   UNL A   1      42.856  29.581  35.386  1.00  0.00     0.029 A 
ATOM     33  C   UNL A   1      42.759  29.035  34.116  1.00  0.00     0.049 A 
ATOM     34  H   UNL A   1      41.233  29.278  32.677  1.00  0.00     0.167 HD
ATOM     35  C   UNL A   1      43.512  27.647  32.203  1.00  0.00     0.074 A 
ATOM     36  C   UNL A   1      44.456  26.770  31.540  1.00  0.00     0.031 C 
ATOM     37  C   UNL A   1      43.687  28.160  33.445  1.00  0.00     0.037 A 
BRANCH  24  38
ATOM     38  C   UNL A   1      39.127  31.882  35.329  1.00  0.00     0.064 A 
ATOM     39  C   UNL A   1      38.366  31.380  36.395  1.00  0.00     0.173 A 
ATOM     40  C   UNL A   1      39.422  33.254  35.325  1.00  0.00     0.173 A 
ATOM     41  F   UNL A   1      38.047  30.078  36.442  1.00  0.00    -0.203 F 
ATOM     42  C   UNL A   1      37.902  32.221  37.403  1.00  0.00     0.198 A 
ATOM     43  C   UNL A   1      38.981  34.087  36.351  1.00  0.00     0.198 A 
ATOM     44  F   UNL A   1      40.153  33.787  34.334  1.00  0.00    -0.203 F 
ATOM     45  F   UNL A   1      37.141  31.725  38.390  1.00  0.00    -0.200 F 
ATOM     46  C   UNL A   1      38.217  33.571  37.386  1.00  0.00     0.200 A 
ATOM     47  F   UNL A   1      39.299  35.389  36.339  1.00  0.00    -0.200 F 
ATOM     48  F   UNL A   1      37.778  34.377  38.363  1.00  0.00    -0.200 F 
ENDBRANCH  24  38
BRANCH  25  49
ATOM     49  C   UNL A   1      42.468  26.120  27.875  1.00  0.00     0.064 A 
ATOM     50  C   UNL A   1      43.374  26.621  26.931  1.00  0.00     0.173 A 
ATOM     51  C   UNL A   1      42.056  24.785  27.739  1.00  0.00     0.173 A 
ATOM     52  F   UNL A   1      43.782  27.897  27.007  1.00  0.00    -0.203 F 
ATOM     53  C   UNL A   1      43.837  25.827  25.885  1.00  0.00     0.198 A 
ATOM     54  C   UNL A   1      42.545  23.982  26.713  1.00  0.00     0.198 A 
ATOM     55  F   UNL A   1      41.195  24.256  28.620  1.00  0.00    -0.203 F 
ATOM     56  F   UNL A   1      44.668  26.345  24.970  1.00  0.00    -0.200 F 
ATOM     57  C   UNL A   1      43.428  24.505  25.782  1.00  0.00     0.200 A 
ATOM     58  F   UNL A   1      42.161  22.700  26.627  1.00  0.00    -0.200 F 
ATOM     59  F   UNL A   1      43.880  23.739  24.779  1.00  0.00    -0.200 F 
ENDBRANCH  25  49
BRANCH  37  60
ATOM     60  C   UNL A   1      44.932  27.757  34.180  1.00  0.00     0.064 A 
ATOM     61  C   UNL A   1      46.111  28.513  34.106  1.00  0.00     0.173 A 
ATOM     62  C   UNL A   1      44.936  26.611  34.990  1.00  0.00     0.173 A 
ATOM     63  F   UNL A   1      46.163  29.608  33.331  1.00  0.00    -0.203 F 
ATOM     64  C   UNL A   1      47.257  28.121  34.792  1.00  0.00     0.198 A 
ATOM     65  C   UNL A   1      46.075  26.239  35.700  1.00  0.00     0.198 A 
ATOM     66  F   UNL A   1      43.833  25.855  35.101  1.00  0.00    -0.203 F 
ATOM     67  F   UNL A   1      48.388  28.828  34.663  1.00  0.00    -0.200 F 
ATOM     68  C   UNL A   1      47.236  26.989  35.594  1.00  0.00     0.200 A 
ATOM     69  F   UNL A   1      46.048  25.153  36.486  1.00  0.00    -0.200 F 
ATOM     70  F   UNL A   1      48.339  26.616  36.258  1.00  0.00    -0.200 F 
ENDBRANCH  37  60
ENDBRANCH  11  12
ENDBRANCH   4   6
ENDBRANCH   1   2
BRANCH   1  71
ATOM     71  C   UNL A   1      33.186  28.729  23.519  1.00  0.00     0.042 C 
BRANCH  71  72
ATOM     72  C   UNL A   1      32.381  27.445  23.371  1.00  0.00     0.118 C 
BRANCH  72  73
ATOM     73  N   UNL A   1      32.395  26.952  22.001  1.00  0.00    -0.349 N 
ATOM     74  C   UNL A   1      32.803  25.720  21.516  1.00  0.00     0.289 C 
ATOM     75  H   UNL A   1      32.067  27.584  21.323  1.00  0.00     0.163 HD
ATOM     76  O   UNL A   1      32.918  25.587  20.297  1.00  0.00    -0.266 OA
BRANCH  74  77
ATOM     77  C   UNL A   1      33.105  24.589  22.462  1.00  0.00     0.218 A 
ATOM     78  N   UNL A   1      32.063  23.855  22.895  1.00  0.00    -0.232 NA
ATOM     79  N   UNL A   1      34.403  24.368  22.752  1.00  0.00    -0.224 NA
ATOM     80  C   UNL A   1      32.386  22.792  23.653  1.00  0.00     0.124 A 
ATOM     81  C   UNL A   1      34.685  23.287  23.480  1.00  0.00     0.074 A 
ATOM     82  C   UNL A   1      33.691  22.432  23.968  1.00  0.00     0.019 A 
ATOM     83  C   UNL A   1      36.012  22.975  23.741  1.00  0.00     0.029 A 
ATOM     84  C   UNL A   1      34.032  21.285  24.710  1.00  0.00     0.012 A 
ATOM     85  C   UNL A   1      36.364  21.833  24.464  1.00  0.00     0.002 A 
ATOM     86  C   UNL A   1      35.372  20.987  24.949  1.00  0.00     0.001 A 
ENDBRANCH  74  77
ENDBRANCH  72  73
ENDBRANCH  71  72
ENDBRANCH   1  71
TORSDOF 10
ENDMDL
MODEL 2
REMARK VINA RESULT:     -12.3      0.044      1.175
REMARK SMILES O=C(NCCCNC(=O)c1ncc2ccccc2n1)c1ccc(-c2c3nc(c(-c4c(F)c(F)c(F)c(F)c4F)c4ccc([nH]4)c(-c4c(F)c(F)c(F)c(F)c4F)c4nc(c(-c5c(F)c(F)c(F)c(F)c5F)c5ccc2[nH]5)C=C4)C=C3)cc1
REMARK SMILES IDX 4 1 3 2 1 3 2 4 20 6 21 7 82 8 22 9 81 10 23 11 24 12 25 13
REMARK SMILES IDX 75 14 26 15 80 16 74 17 76 18 27 19 79 20 73 21 72 22 28 24
REMARK SMILES IDX 60 25 40 26 59 27 41 28 44 29 58 30 77 31 42 32 43 33 57 35
REMARK SMILES IDX 78 36 45 37 29 38 30 39 38 40 31 41 32 42 36 43 39 44 33 45
REMARK SMILES IDX 34 46 37 47 35 48 61 49 62 50 70 51 63 52 64 53 68 54 71 55
REMARK SMILES IDX 65 56 66 57 69 58 67 59 46 60 47 61 55 62 48 63 49 64 53 65
REMARK SMILES IDX 56 66 50 67 51 68 54 69 52 70 5 71 6 72 7 73 8 74 9 76 10 77
REMARK SMILES IDX 11 78 19 79 12 80 18 81 13 82 17 83 14 84 16 85 15 86
REMARK H PARENT 3 5 76 23 44 34 7 75
REMARK Flexibility Score: inf
ROOT
ATOM      1  C   UNL A   1      33.578  28.982  25.014  1.00  0.00     0.118 C 
ENDROOT
BRANCH   1   2
ATOM      2  N   UNL A   1      32.971  30.186  25.569  1.00  0.00    -0.352 N 
ATOM      3  O   UNL A   1      32.518  31.783  27.090  1.00  0.00    -0.269 OA
ATOM      4  C   UNL A   1      33.278  30.897  26.701  1.00  0.00     0.251 C 
ATOM      5  H   UNL A   1      32.219  30.547  25.047  1.00  0.00     0.163 HD
BRANCH   4   6
ATOM      6  C   UNL A   1      34.505  30.598  27.468  1.00  0.00     0.039 A 
ATOM      7  C   UNL A   1      34.725  29.328  28.001  1.00  0.00     0.014 A 
ATOM      8  C   UNL A   1      35.472  31.596  27.626  1.00  0.00     0.014 A 
ATOM      9  C   UNL A   1      35.825  29.101  28.820  1.00  0.00     0.010 A 
ATOM     10  C   UNL A   1      36.630  31.336  28.365  1.00  0.00     0.010 A 
ATOM     11  C   UNL A   1      36.801  30.093  28.994  1.00  0.00    -0.014 A 
BRANCH  11  12
ATOM     12  C   UNL A   1      38.023  29.779  29.775  1.00  0.00     0.031 A 
ATOM     13  C   UNL A   1      38.229  30.327  31.158  1.00  0.00     0.074 A 
ATOM     14  C   UNL A   1      38.942  28.959  29.227  1.00  0.00     0.049 A 
ATOM     15  N   UNL A   1      39.230  30.136  31.981  1.00  0.00    -0.248 NA
ATOM     16  C   UNL A   1      37.178  31.209  31.689  1.00  0.00     0.031 C 
ATOM     17  C   UNL A   1      38.854  28.374  27.887  1.00  0.00     0.029 A 
ATOM     18  N   UNL A   1      40.118  28.463  29.728  1.00  0.00    -0.354 N 
ATOM     19  C   UNL A   1      38.941  30.881  33.115  1.00  0.00     0.074 A 
ATOM     20  C   UNL A   1      37.683  31.555  32.866  1.00  0.00     0.031 C 
ATOM     21  C   UNL A   1      39.901  27.561  27.691  1.00  0.00     0.029 A 
ATOM     22  C   UNL A   1      40.769  27.621  28.861  1.00  0.00     0.049 A 
ATOM     23  H   UNL A   1      40.461  28.687  30.623  1.00  0.00     0.167 HD
ATOM     24  C   UNL A   1      39.656  30.985  34.261  1.00  0.00     0.037 A 
ATOM     25  C   UNL A   1      41.947  26.982  28.983  1.00  0.00     0.037 A 
ATOM     26  C   UNL A   1      40.904  30.304  34.504  1.00  0.00     0.049 A 
ATOM     27  C   UNL A   1      42.736  27.149  30.249  1.00  0.00     0.074 A 
ATOM     28  C   UNL A   1      41.689  30.320  35.644  1.00  0.00     0.029 A 
ATOM     29  N   UNL A   1      41.552  29.489  33.586  1.00  0.00    -0.354 N 
ATOM     30  N   UNL A   1      42.435  27.829  31.328  1.00  0.00    -0.248 NA
ATOM     31  C   UNL A   1      44.032  26.463  30.313  1.00  0.00     0.031 C 
ATOM     32  C   UNL A   1      42.837  29.560  35.397  1.00  0.00     0.029 A 
ATOM     33  C   UNL A   1      42.740  29.020  34.125  1.00  0.00     0.049 A 
ATOM     34  H   UNL A   1      41.218  29.276  32.685  1.00  0.00     0.167 HD
ATOM     35  C   UNL A   1      43.490  27.636  32.208  1.00  0.00     0.074 A 
ATOM     36  C   UNL A   1      44.430  26.757  31.543  1.00  0.00     0.031 C 
ATOM     37  C   UNL A   1      43.665  28.143  33.452  1.00  0.00     0.037 A 
BRANCH  24  38
ATOM     38  C   UNL A   1      39.120  31.879  35.344  1.00  0.00     0.064 A 
ATOM     39  C   UNL A   1      38.349  31.377  36.403  1.00  0.00     0.173 A 
ATOM     40  C   UNL A   1      39.427  33.249  35.350  1.00  0.00     0.173 A 
ATOM     41  F   UNL A   1      38.019  30.078  36.441  1.00  0.00    -0.203 F 
ATOM     42  C   UNL A   1      37.888  32.217  37.415  1.00  0.00     0.198 A 
ATOM     43  C   UNL A   1      38.988  34.079  36.379  1.00  0.00     0.198 A 
ATOM     44  F   UNL A   1      40.167  33.781  34.365  1.00  0.00    -0.203 F 
ATOM     45  F   UNL A   1      37.118  31.721  38.395  1.00  0.00    -0.200 F 
ATOM     46  C   UNL A   1      38.214  33.563  37.407  1.00  0.00     0.200 A 
ATOM     47  F   UNL A   1      39.317  35.378  36.376  1.00  0.00    -0.200 F 
ATOM     48  F   UNL A   1      37.778  34.367  38.387  1.00  0.00    -0.200 F 
ENDBRANCH  24  38
BRANCH  25  49
ATOM     49  C   UNL A   1      42.445  26.133  27.871  1.00  0.00     0.064 A 
ATOM     50  C   UNL A   1      43.357  26.633  26.933  1.00  0.00     0.173 A 
ATOM     51  C   UNL A   1      42.026  24.800  27.728  1.00  0.00     0.173 A 
ATOM     52  F   UNL A   1      43.773  27.905  27.016  1.00  0.00    -0.203 F 
ATOM     53  C   UNL A   1      43.818  25.840  25.884  1.00  0.00     0.198 A 
ATOM     54  C   UNL A   1      42.513  23.999  26.700  1.00  0.00     0.198 A 
ATOM     55  F   UNL A   1      41.158  24.273  28.604  1.00  0.00    -0.203 F 
ATOM     56  F   UNL A   1      44.655  26.357  24.974  1.00  0.00    -0.200 F 
ATOM     57  C   UNL A   1      43.401  24.522  25.773  1.00  0.00     0.200 A 
ATOM     58  F   UNL A   1      42.121  22.721  26.606  1.00  0.00    -0.200 F 
ATOM     59  F   UNL A   1      43.851  23.757  24.768  1.00  0.00    -0.200 F 
ENDBRANCH  25  49
BRANCH  37  60
ATOM     60  C   UNL A   1      44.907  27.731  34.188  1.00  0.00     0.064 A 
ATOM     61  C   UNL A   1      44.946  26.572  34.978  1.00  0.00     0.173 A 
ATOM     62  C   UNL A   1      46.080  28.493  34.080  1.00  0.00     0.173 A 
ATOM     63  F   UNL A   1      43.845  25.820  35.128  1.00  0.00    -0.203 F 
ATOM     64  C   UNL A   1      46.106  26.209  35.657  1.00  0.00     0.198 A 
ATOM     65  C   UNL A   1      47.247  28.108  34.734  1.00  0.00     0.198 A 
ATOM     66  F   UNL A   1      46.098  29.606  33.332  1.00  0.00    -0.203 F 
ATOM     67  F   UNL A   1      46.104  25.128  36.450  1.00  0.00    -0.200 F 
ATOM     68  C   UNL A   1      47.257  26.972  35.528  1.00  0.00     0.200 A 
ATOM     69  F   UNL A   1      48.363  28.839  34.598  1.00  0.00    -0.200 F 
ATOM     70  F   UNL A   1      48.374  26.617  36.178  1.00  0.00    -0.200 F 
ENDBRANCH  37  60
ENDBRANCH  11  12
ENDBRANCH   4   6
ENDBRANCH   1   2
BRANCH   1  71
ATOM     71  C   UNL A   1      33.177  28.736  23.566  1.00  0.00     0.042 C 
BRANCH  71  72
ATOM     72  C   UNL A   1      32.350  27.472  23.370  1.00  0.00     0.118 C 
BRANCH  72  73
ATOM     73  N   UNL A   1      32.405  26.996  21.996  1.00  0.00    -0.349 N 
ATOM     74  C   UNL A   1      32.831  25.773  21.507  1.00  0.00     0.289 C 
ATOM     75  H   UNL A   1      32.095  27.636  21.316  1.00  0.00     0.163 HD
ATOM     76  O   UNL A   1      32.981  25.655  20.290  1.00  0.00    -0.266 OA
BRANCH  74  77
ATOM     77  C   UNL A   1      33.111  24.631  22.446  1.00  0.00     0.218 A 
ATOM     78  N   UNL A   1      32.057  23.903  22.860  1.00  0.00    -0.232 NA
ATOM     79  N   UNL A   1      34.403  24.394  22.751  1.00  0.00    -0.224 NA
ATOM     80  C   UNL A   1      32.360  22.831  23.613  1.00  0.00     0.124 A 
ATOM     81  C   UNL A   1      34.666  23.305  23.474  1.00  0.00     0.074 A 
ATOM     82  C   UNL A   1      33.658  22.456  23.942  1.00  0.00     0.019 A 
ATOM     83  C   UNL A   1      35.986  22.979  23.748  1.00  0.00     0.029 A 
ATOM     84  C   UNL A   1      33.979  21.299  24.677  1.00  0.00     0.012 A 
ATOM     85  C   UNL A   1      36.318  21.827  24.466  1.00  0.00     0.002 A 
ATOM     86  C   UNL A   1      35.312  20.986  24.931  1.00  0.00     0.001 A 
ENDBRANCH  74  77
ENDBRANCH  72  73
ENDBRANCH  71  72
ENDBRANCH   1  71
TORSDOF 10
ENDMDL
MODEL 3
REMARK VINA RESULT:     -12.3      4.478      9.606
REMARK SMILES O=C(NCCCNC(=O)c1ncc2ccccc2n1)c1ccc(-c2c3nc(c(-c4c(F)c(F)c(F)c(F)c4F)c4ccc([nH]4)c(-c4c(F)c(F)c(F)c(F)c4F)c4nc(c(-c5c(F)c(F)c(F)c(F)c5F)c5ccc2[nH]5)C=C4)C=C3)cc1
REMARK SMILES IDX 4 1 3 2 1 3 2 4 20 6 21 7 82 8 22 9 81 10 23 11 24 12 25 13
REMARK SMILES IDX 75 14 26 15 80 16 74 17 76 18 27 19 79 20 73 21 72 22 28 24
REMARK SMILES IDX 60 25 40 26 59 27 41 28 44 29 58 30 77 31 42 32 43 33 57 35
REMARK SMILES IDX 78 36 45 37 29 38 30 39 38 40 31 41 32 42 36 43 39 44 33 45
REMARK SMILES IDX 34 46 37 47 35 48 61 49 62 50 70 51 63 52 64 53 68 54 71 55
REMARK SMILES IDX 65 56 66 57 69 58 67 59 46 60 47 61 55 62 48 63 49 64 53 65
REMARK SMILES IDX 56 66 50 67 51 68 54 69 52 70 5 71 6 72 7 73 8 74 9 76 10 77
REMARK SMILES IDX 11 78 19 79 12 80 18 81 13 82 17 83 14 84 16 85 15 86
REMARK H PARENT 3 5 76 23 44 34 7 75
REMARK Flexibility Score: inf
ROOT
ATOM      1  C   UNL A   1      40.410  21.803  27.178  1.00  0.00     0.118 C 
ENDROOT
BRANCH   1   2
ATOM      2  N   UNL A   1      39.391  22.257  26.239  1.00  0.00    -0.352 N 
ATOM      3  O   UNL A   1      37.790  23.586  25.379  1.00  0.00    -0.269 OA
ATOM      4  C   UNL A   1      38.760  23.469  26.126  1.00  0.00     0.251 C 
ATOM      5  H   UNL A   1      39.109  21.582  25.579  1.00  0.00     0.163 HD
BRANCH   4   6
ATOM      6  C   UNL A   1      39.224  24.635  26.908  1.00  0.00     0.039 A 
ATOM      7  C   UNL A   1      38.903  24.765  28.259  1.00  0.00     0.014 A 
ATOM      8  C   UNL A   1      40.028  25.597  26.288  1.00  0.00     0.014 A 
ATOM      9  C   UNL A   1      39.245  25.925  28.944  1.00  0.00     0.010 A 
ATOM     10  C   UNL A   1      40.460  26.715  27.007  1.00  0.00     0.010 A 
ATOM     11  C   UNL A   1      40.046  26.902  28.335  1.00  0.00    -0.014 A 
BRANCH  11  12
ATOM     12  C   UNL A   1      40.496  28.070  29.132  1.00  0.00     0.031 A 
ATOM     13  C   UNL A   1      41.906  28.173  29.641  1.00  0.00     0.074 A 
ATOM     14  C   UNL A   1      39.616  29.063  29.370  1.00  0.00     0.049 A 
ATOM     15  N   UNL A   1      42.464  29.132  30.337  1.00  0.00    -0.248 NA
ATOM     16  C   UNL A   1      42.808  27.052  29.336  1.00  0.00     0.031 C 
ATOM     17  C   UNL A   1      38.218  29.068  28.933  1.00  0.00     0.029 A 
ATOM     18  N   UNL A   1      39.765  30.262  30.018  1.00  0.00    -0.354 N 
ATOM     19  C   UNL A   1      43.772  28.728  30.565  1.00  0.00     0.074 A 
ATOM     20  C   UNL A   1      43.919  27.420  29.960  1.00  0.00     0.031 C 
ATOM     21  C   UNL A   1      37.652  30.232  29.280  1.00  0.00     0.029 A 
ATOM     22  C   UNL A   1      38.624  31.025  30.023  1.00  0.00     0.049 A 
ATOM     23  H   UNL A   1      40.609  30.548  30.436  1.00  0.00     0.167 HD
ATOM     24  C   UNL A   1      44.759  29.393  31.211  1.00  0.00     0.037 A 
ATOM     25  C   UNL A   1      38.378  32.223  30.583  1.00  0.00     0.037 A 
ATOM     26  C   UNL A   1      44.606  30.699  31.804  1.00  0.00     0.049 A 
ATOM     27  C   UNL A   1      39.481  32.917  31.329  1.00  0.00     0.074 A 
ATOM     28  C   UNL A   1      45.555  31.469  32.454  1.00  0.00     0.029 A 
ATOM     29  N   UNL A   1      43.423  31.425  31.823  1.00  0.00    -0.354 N 
ATOM     30  N   UNL A   1      40.723  32.541  31.507  1.00  0.00    -0.248 NA
ATOM     31  C   UNL A   1      39.146  34.203  31.954  1.00  0.00     0.031 C 
ATOM     32  C   UNL A   1      44.934  32.636  32.913  1.00  0.00     0.029 A 
ATOM     33  C   UNL A   1      43.612  32.622  32.498  1.00  0.00     0.049 A 
ATOM     34  H   UNL A   1      42.574  31.133  31.418  1.00  0.00     0.167 HD
ATOM     35  C   UNL A   1      41.325  33.549  32.245  1.00  0.00     0.074 A 
ATOM     36  C   UNL A   1      40.315  34.565  32.462  1.00  0.00     0.031 C 
ATOM     37  C   UNL A   1      42.598  33.625  32.704  1.00  0.00     0.037 A 
BRANCH  24  38
ATOM     38  C   UNL A   1      46.097  28.719  31.332  1.00  0.00     0.064 A 
ATOM     39  C   UNL A   1      46.431  27.934  32.446  1.00  0.00     0.173 A 
ATOM     40  C   UNL A   1      47.037  28.816  30.295  1.00  0.00     0.173 A 
ATOM     41  F   UNL A   1      45.573  27.815  33.470  1.00  0.00    -0.203 F 
ATOM     42  C   UNL A   1      47.664  27.291  32.526  1.00  0.00     0.198 A 
ATOM     43  C   UNL A   1      48.257  28.148  30.366  1.00  0.00     0.198 A 
ATOM     44  F   UNL A   1      46.768  29.547  29.203  1.00  0.00    -0.203 F 
ATOM     45  F   UNL A   1      47.977  26.579  33.619  1.00  0.00    -0.200 F 
ATOM     46  C   UNL A   1      48.572  27.390  31.484  1.00  0.00     0.200 A 
ATOM     47  F   UNL A   1      49.127  28.234  29.350  1.00  0.00    -0.200 F 
ATOM     48  F   UNL A   1      49.754  26.762  31.558  1.00  0.00    -0.200 F 
ENDBRANCH  24  38
BRANCH  25  49
ATOM     49  C   UNL A   1      37.029  32.834  30.460  1.00  0.00     0.064 A 
ATOM     50  C   UNL A   1      36.684  33.605  29.343  1.00  0.00     0.173 A 
ATOM     51  C   UNL A   1      36.054  32.651  31.453  1.00  0.00     0.173 A 
ATOM     52  F   UNL A   1      37.588  33.824  28.376  1.00  0.00    -0.203 F 
ATOM     53  C   UNL A   1      35.423  34.186  29.231  1.00  0.00     0.198 A 
ATOM     54  C   UNL A   1      34.783  33.204  31.324  1.00  0.00     0.198 A 
ATOM     55  F   UNL A   1      36.332  31.915  32.539  1.00  0.00    -0.203 F 
ATOM     56  F   UNL A   1      35.135  34.958  28.174  1.00  0.00    -0.200 F 
ATOM     57  C   UNL A   1      34.471  33.978  30.218  1.00  0.00     0.200 A 
ATOM     58  F   UNL A   1      33.860  32.985  32.272  1.00  0.00    -0.200 F 
ATOM     59  F   UNL A   1      33.255  34.531  30.106  1.00  0.00    -0.200 F 
ENDBRANCH  25  49
BRANCH  37  60
ATOM     60  C   UNL A   1      42.978  34.866  33.457  1.00  0.00     0.064 A 
ATOM     61  C   UNL A   1      43.396  36.032  32.797  1.00  0.00     0.173 A 
ATOM     62  C   UNL A   1      42.900  34.897  34.858  1.00  0.00     0.173 A 
ATOM     63  F   UNL A   1      43.505  36.048  31.460  1.00  0.00    -0.203 F 
ATOM     64  C   UNL A   1      43.749  37.172  33.514  1.00  0.00     0.198 A 
ATOM     65  C   UNL A   1      43.223  36.049  35.569  1.00  0.00     0.198 A 
ATOM     66  F   UNL A   1      42.501  33.811  35.538  1.00  0.00    -0.203 F 
ATOM     67  F   UNL A   1      44.198  38.256  32.865  1.00  0.00    -0.200 F 
ATOM     68  C   UNL A   1      43.655  37.182  34.898  1.00  0.00     0.200 A 
ATOM     69  F   UNL A   1      43.118  36.061  36.906  1.00  0.00    -0.200 F 
ATOM     70  F   UNL A   1      43.991  38.283  35.585  1.00  0.00    -0.200 F 
ENDBRANCH  37  60
ENDBRANCH  11  12
ENDBRANCH   4   6
ENDBRANCH   1   2
BRANCH   1  71
ATOM     71  C   UNL A   1      40.838  20.364  26.930  1.00  0.00     0.042 C 
BRANCH  71  72
ATOM     72  C   UNL A   1      42.265  20.069  27.375  1.00  0.00     0.118 C 
BRANCH  72  73
ATOM     73  N   UNL A   1      43.075  19.543  26.286  1.00  0.00    -0.349 N 
ATOM     74  C   UNL A   1      43.776  20.225  25.306  1.00  0.00     0.289 C 
ATOM     75  H   UNL A   1      43.132  18.562  26.239  1.00  0.00     0.163 HD
ATOM     76  O   UNL A   1      44.231  19.578  24.362  1.00  0.00    -0.266 OA
BRANCH  74  77
ATOM     77  C   UNL A   1      43.961  21.716  25.397  1.00  0.00     0.218 A 
ATOM     78  N   UNL A   1      43.028  22.488  24.808  1.00  0.00    -0.232 NA
ATOM     79  N   UNL A   1      45.016  22.157  26.111  1.00  0.00    -0.224 NA
ATOM     80  C   UNL A   1      43.174  23.811  25.002  1.00  0.00     0.124 A 
ATOM     81  C   UNL A   1      45.108  23.472  26.307  1.00  0.00     0.074 A 
ATOM     82  C   UNL A   1      44.187  24.376  25.767  1.00  0.00     0.019 A 
ATOM     83  C   UNL A   1      46.134  23.968  27.099  1.00  0.00     0.029 A 
ATOM     84  C   UNL A   1      44.303  25.756  26.021  1.00  0.00     0.012 A 
ATOM     85  C   UNL A   1      46.253  25.333  27.369  1.00  0.00     0.002 A 
ATOM     86  C   UNL A   1      45.335  26.228  26.828  1.00  0.00     0.001 A 
ENDBRANCH  74  77
ENDBRANCH  72  73
ENDBRANCH  71  72
ENDBRANCH   1  71
TORSDOF 10
ENDMDL
