MODEL 1
REMARK VINA RESULT:     -12.6      0.000      0.000
REMARK SMILES Cc1ccc(CSCC(=O)N[C@H]2C=C[C@@H](C(=O)NCCCNC(=O)c3ccc(-c4c5nc(c(-c6c(F)c(F)c(F)c(F)c6F)c6ccc([nH]6)c(-c6c(F)c(F)c(F)c(F)c6F)c6nc(c(-c7c(F)c(F)c(F)c(F)c7F)c7ccc4[nH]7)C=C6)C=C5)cc3)C2)cc1
REMARK SMILES IDX 16 1 17 2 18 3 15 5 12 6 13 7 88 8 14 9 11 10 9 11 10 12
REMARK SMILES IDX 8 14 7 15 6 16 5 17 1 18 2 19 3 20 90 21 4 22 89 23 19 24
REMARK SMILES IDX 20 25 21 26 22 27 23 28 24 30 25 31 26 32 87 33 27 34 86 35
REMARK SMILES IDX 28 36 29 37 30 38 80 39 31 40 85 41 79 42 81 43 32 44 84 45
REMARK SMILES IDX 78 46 77 47 33 49 65 50 45 51 64 52 46 53 49 54 63 55 82 56
REMARK SMILES IDX 47 57 48 58 62 60 83 61 50 62 34 63 35 64 43 65 36 66 37 67
REMARK SMILES IDX 41 68 44 69 38 70 39 71 42 72 40 73 66 74 67 75 75 76 68 77
REMARK SMILES IDX 69 78 73 79 76 80 70 81 71 82 74 83 72 84 51 85 52 86 60 87
REMARK SMILES IDX 53 88 54 89 58 90 61 91 55 92 56 93 59 94 57 95
REMARK H PARENT 18 4 11 13 22 29 81 48 49 59
REMARK Flexibility Score: inf
ROOT
ATOM      1  C   UNL A   1      33.308  29.237  27.042  1.00  0.00     0.227 C 
ATOM      2  O   UNL A   1      34.057  28.264  27.173  1.00  0.00    -0.274 OA
ATOM      3  N   UNL A   1      33.709  30.401  27.620  1.00  0.00    -0.356 N 
ATOM      4  H   UNL A   1      34.553  30.338  28.124  1.00  0.00     0.163 HD
ENDROOT
BRANCH   1   5
ATOM      5  C   UNL A   1      31.992  29.091  26.265  1.00  0.00     0.103 C 
ATOM      6  C   UNL A   1      31.284  28.305  24.022  1.00  0.00     0.106 C 
ATOM      7  C   UNL A   1      31.010  27.310  25.092  1.00  0.00    -0.006 C 
ATOM      8  C   UNL A   1      32.072  29.408  24.768  1.00  0.00     0.047 C 
ATOM      9  C   UNL A   1      31.390  27.725  26.305  1.00  0.00    -0.016 C 
BRANCH   6  10
ATOM     10  N   UNL A   1      32.092  27.818  22.912  1.00  0.00    -0.349 N 
ATOM     11  C   UNL A   1      33.095  26.918  22.769  1.00  0.00     0.230 C 
ATOM     12  O   UNL A   1      33.320  26.537  21.614  1.00  0.00    -0.274 OA
ATOM     13  H   UNL A   1      31.852  28.247  22.059  1.00  0.00     0.164 HD
BRANCH  11  14
ATOM     14  C   UNL A   1      33.961  26.437  23.911  1.00  0.00     0.169 C 
BRANCH  14  15
ATOM     15  S   UNL A   1      33.512  24.807  24.593  1.00  0.00    -0.147 SA
BRANCH  15  16
ATOM     16  C   UNL A   1      34.606  23.686  23.694  1.00  0.00     0.105 C 
BRANCH  16  17
ATOM     17  C   UNL A   1      35.752  23.114  24.479  1.00  0.00    -0.038 A 
ATOM     18  C   UNL A   1      39.451  21.740  26.223  1.00  0.00     0.044 C 
ATOM     19  C   UNL A   1      38.135  22.180  25.657  1.00  0.00    -0.051 A 
ATOM     20  C   UNL A   1      37.661  23.467  25.937  1.00  0.00     0.004 A 
ATOM     21  C   UNL A   1      37.398  21.354  24.802  1.00  0.00     0.004 A 
ATOM     22  C   UNL A   1      36.479  23.929  25.355  1.00  0.00     0.005 A 
ATOM     23  C   UNL A   1      36.213  21.814  24.221  1.00  0.00     0.005 A 
ENDBRANCH  16  17
ENDBRANCH  15  16
ENDBRANCH  14  15
ENDBRANCH  11  14
ENDBRANCH   6  10
ENDBRANCH   1   5
BRANCH   3  24
ATOM     24  C   UNL A   1      33.107  31.717  27.619  1.00  0.00     0.117 C 
BRANCH  24  25
ATOM     25  C   UNL A   1      34.079  32.786  28.103  1.00  0.00     0.042 C 
BRANCH  25  26
ATOM     26  C   UNL A   1      34.430  32.676  29.584  1.00  0.00     0.118 C 
BRANCH  26  27
ATOM     27  N   UNL A   1      35.866  32.603  29.842  1.00  0.00    -0.352 N 
ATOM     28  C   UNL A   1      36.868  31.684  29.573  1.00  0.00     0.251 C 
ATOM     29  H   UNL A   1      36.203  33.395  30.322  1.00  0.00     0.163 HD
ATOM     30  O   UNL A   1      38.013  32.091  29.631  1.00  0.00    -0.269 OA
BRANCH  28  31
ATOM     31  C   UNL A   1      36.619  30.321  28.996  1.00  0.00     0.039 A 
ATOM     32  C   UNL A   1      36.748  29.354  30.004  1.00  0.00     0.014 A 
ATOM     33  C   UNL A   1      37.145  30.055  27.749  1.00  0.00     0.014 A 
ATOM     34  C   UNL A   1      37.895  28.581  30.003  1.00  0.00     0.010 A 
ATOM     35  C   UNL A   1      38.335  29.360  27.751  1.00  0.00     0.010 A 
ATOM     36  C   UNL A   1      38.764  28.737  28.933  1.00  0.00    -0.014 A 
BRANCH  36  37
ATOM     37  C   UNL A   1      40.166  28.364  28.983  1.00  0.00     0.031 A 
ATOM     38  C   UNL A   1      40.529  26.991  28.601  1.00  0.00     0.074 A 
ATOM     39  C   UNL A   1      41.110  29.288  29.277  1.00  0.00     0.049 A 
ATOM     40  N   UNL A   1      41.654  26.433  28.874  1.00  0.00    -0.248 NA
ATOM     41  C   UNL A   1      39.588  26.091  27.943  1.00  0.00     0.031 C 
ATOM     42  C   UNL A   1      42.550  29.172  29.058  1.00  0.00     0.029 A 
ATOM     43  N   UNL A   1      40.966  30.477  30.015  1.00  0.00    -0.354 N 
ATOM     44  C   UNL A   1      41.703  25.234  28.204  1.00  0.00     0.074 A 
ATOM     45  C   UNL A   1      40.356  25.020  27.743  1.00  0.00     0.031 C 
ATOM     46  C   UNL A   1      43.185  30.050  29.849  1.00  0.00     0.029 A 
ATOM     47  C   UNL A   1      42.186  30.653  30.711  1.00  0.00     0.049 A 
ATOM     48  H   UNL A   1      40.178  31.066  30.042  1.00  0.00     0.167 HD
ATOM     49  C   UNL A   1      42.922  24.653  28.022  1.00  0.00     0.037 A 
ATOM     50  C   UNL A   1      42.236  30.628  32.075  1.00  0.00     0.037 A 
ATOM     51  C   UNL A   1      43.922  25.313  28.869  1.00  0.00     0.049 A 
ATOM     52  C   UNL A   1      43.074  29.503  32.641  1.00  0.00     0.074 A 
ATOM     53  C   UNL A   1      44.914  26.247  28.618  1.00  0.00     0.029 A 
ATOM     54  N   UNL A   1      43.763  25.273  30.253  1.00  0.00    -0.354 N 
ATOM     55  N   UNL A   1      43.430  28.449  31.958  1.00  0.00    -0.248 NA
ATOM     56  C   UNL A   1      43.556  29.459  34.019  1.00  0.00     0.031 C 
ATOM     57  C   UNL A   1      45.297  26.822  29.860  1.00  0.00     0.029 A 
ATOM     58  C   UNL A   1      44.565  26.216  30.867  1.00  0.00     0.049 A 
ATOM     59  H   UNL A   1      43.160  24.657  30.729  1.00  0.00     0.167 HD
ATOM     60  C   UNL A   1      44.126  27.588  32.766  1.00  0.00     0.074 A 
ATOM     61  C   UNL A   1      44.199  28.277  34.041  1.00  0.00     0.031 C 
ATOM     62  C   UNL A   1      44.559  26.372  32.316  1.00  0.00     0.037 A 
BRANCH  49  63
ATOM     63  C   UNL A   1      43.276  23.674  26.912  1.00  0.00     0.064 A 
ATOM     64  C   UNL A   1      42.923  22.309  27.040  1.00  0.00     0.173 A 
ATOM     65  C   UNL A   1      44.047  23.958  25.765  1.00  0.00     0.173 A 
ATOM     66  F   UNL A   1      42.144  21.880  28.041  1.00  0.00    -0.203 F 
ATOM     67  C   UNL A   1      43.367  21.323  26.149  1.00  0.00     0.198 A 
ATOM     68  C   UNL A   1      44.492  22.973  24.877  1.00  0.00     0.198 A 
ATOM     69  F   UNL A   1      44.408  25.193  25.426  1.00  0.00    -0.203 F 
ATOM     70  F   UNL A   1      43.027  20.044  26.351  1.00  0.00    -0.200 F 
ATOM     71  C   UNL A   1      44.166  21.654  25.075  1.00  0.00     0.200 A 
ATOM     72  F   UNL A   1      45.254  23.328  23.830  1.00  0.00    -0.200 F 
ATOM     73  F   UNL A   1      44.610  20.713  24.234  1.00  0.00    -0.200 F 
ENDBRANCH  49  63
BRANCH  50  74
ATOM     74  C   UNL A   1      41.031  31.218  32.711  1.00  0.00     0.064 A 
ATOM     75  C   UNL A   1      40.937  32.619  32.781  1.00  0.00     0.173 A 
ATOM     76  C   UNL A   1      39.851  30.482  32.870  1.00  0.00     0.173 A 
ATOM     77  F   UNL A   1      42.040  33.371  32.631  1.00  0.00    -0.203 F 
ATOM     78  C   UNL A   1      39.706  33.260  32.903  1.00  0.00     0.198 A 
ATOM     79  C   UNL A   1      38.617  31.127  32.991  1.00  0.00     0.198 A 
ATOM     80  F   UNL A   1      39.874  29.143  32.796  1.00  0.00    -0.203 F 
ATOM     81  F   UNL A   1      39.645  34.600  32.882  1.00  0.00    -0.200 F 
ATOM     82  C   UNL A   1      38.542  32.513  32.982  1.00  0.00     0.200 A 
ATOM     83  F   UNL A   1      37.490  30.402  33.046  1.00  0.00    -0.200 F 
ATOM     84  F   UNL A   1      37.351  33.126  33.036  1.00  0.00    -0.200 F 
ENDBRANCH  50  74
BRANCH  62  85
ATOM     85  C   UNL A   1      45.079  25.235  33.171  1.00  0.00     0.064 A 
ATOM     86  C   UNL A   1      46.437  24.901  33.299  1.00  0.00     0.173 A 
ATOM     87  C   UNL A   1      44.201  24.535  34.037  1.00  0.00     0.173 A 
ATOM     88  F   UNL A   1      47.387  25.562  32.625  1.00  0.00    -0.203 F 
ATOM     89  C   UNL A   1      46.877  23.910  34.183  1.00  0.00     0.198 A 
ATOM     90  C   UNL A   1      44.650  23.595  34.963  1.00  0.00     0.198 A 
ATOM     91  F   UNL A   1      42.879  24.767  34.033  1.00  0.00    -0.203 F 
ATOM     92  F   UNL A   1      48.181  23.603  34.238  1.00  0.00    -0.200 F 
ATOM     93  C   UNL A   1      45.988  23.270  35.025  1.00  0.00     0.200 A 
ATOM     94  F   UNL A   1      43.780  23.026  35.810  1.00  0.00    -0.200 F 
ATOM     95  F   UNL A   1      46.422  22.362  35.910  1.00  0.00    -0.200 F 
ENDBRANCH  62  85
ENDBRANCH  36  37
ENDBRANCH  28  31
ENDBRANCH  26  27
ENDBRANCH  25  26
ENDBRANCH  24  25
ENDBRANCH   3  24
TORSDOF 15
ENDMDL
MODEL 2
REMARK VINA RESULT:     -12.5      3.534     10.096
REMARK SMILES Cc1ccc(CSCC(=O)N[C@H]2C=C[C@@H](C(=O)NCCCNC(=O)c3ccc(-c4c5nc(c(-c6c(F)c(F)c(F)c(F)c6F)c6ccc([nH]6)c(-c6c(F)c(F)c(F)c(F)c6F)c6nc(c(-c7c(F)c(F)c(F)c(F)c7F)c7ccc4[nH]7)C=C6)C=C5)cc3)C2)cc1
REMARK SMILES IDX 16 1 17 2 18 3 15 5 12 6 13 7 88 8 14 9 11 10 9 11 10 12
REMARK SMILES IDX 8 14 7 15 6 16 5 17 1 18 2 19 3 20 90 21 4 22 89 23 19 24
REMARK SMILES IDX 20 25 21 26 22 27 23 28 24 30 25 31 26 32 87 33 27 34 86 35
REMARK SMILES IDX 28 36 29 37 30 38 80 39 31 40 85 41 79 42 81 43 32 44 84 45
REMARK SMILES IDX 78 46 77 47 33 49 65 50 45 51 64 52 46 53 49 54 63 55 82 56
REMARK SMILES IDX 47 57 48 58 62 60 83 61 50 62 34 63 35 64 43 65 36 66 37 67
REMARK SMILES IDX 41 68 44 69 38 70 39 71 42 72 40 73 66 74 67 75 75 76 68 77
REMARK SMILES IDX 69 78 73 79 76 80 70 81 71 82 74 83 72 84 51 85 52 86 60 87
REMARK SMILES IDX 53 88 54 89 58 90 61 91 55 92 56 93 59 94 57 95
REMARK H PARENT 18 4 11 13 22 29 81 48 49 59
REMARK Flexibility Score: inf
ROOT
ATOM      1  C   UNL A   1      36.686  22.989  25.654  1.00  0.00     0.227 C 
ATOM      2  O   UNL A   1      36.197  24.124  25.646  1.00  0.00    -0.274 OA
ATOM      3  N   UNL A   1      38.041  22.907  25.743  1.00  0.00    -0.356 N 
ATOM      4  H   UNL A   1      38.504  23.776  25.755  1.00  0.00     0.163 HD
ENDROOT
BRANCH   1   5
ATOM      5  C   UNL A   1      35.771  21.761  25.554  1.00  0.00     0.103 C 
ATOM      6  C   UNL A   1      33.465  21.153  26.234  1.00  0.00     0.106 C 
ATOM      7  C   UNL A   1      33.575  21.453  24.782  1.00  0.00    -0.006 C 
ATOM      8  C   UNL A   1      34.873  21.508  26.769  1.00  0.00     0.047 C 
ATOM      9  C   UNL A   1      34.816  21.784  24.406  1.00  0.00    -0.016 C 
BRANCH   6  10
ATOM     10  N   UNL A   1      32.474  21.938  26.958  1.00  0.00    -0.349 N 
ATOM     11  C   UNL A   1      31.880  23.143  26.781  1.00  0.00     0.230 C 
ATOM     12  O   UNL A   1      30.849  23.339  27.437  1.00  0.00    -0.274 OA
ATOM     13  H   UNL A   1      32.161  21.483  27.773  1.00  0.00     0.164 HD
BRANCH  11  14
ATOM     14  C   UNL A   1      32.445  24.238  25.907  1.00  0.00     0.169 C 
BRANCH  14  15
ATOM     15  S   UNL A   1      31.734  25.894  26.180  1.00  0.00    -0.147 SA
BRANCH  15  16
ATOM     16  C   UNL A   1      33.064  26.991  25.641  1.00  0.00     0.105 C 
BRANCH  16  17
ATOM     17  C   UNL A   1      33.188  28.291  26.383  1.00  0.00    -0.038 A 
ATOM     18  C   UNL A   1      33.656  32.311  27.879  1.00  0.00     0.044 C 
ATOM     19  C   UNL A   1      33.497  30.893  27.418  1.00  0.00    -0.051 A 
ATOM     20  C   UNL A   1      32.245  30.448  26.979  1.00  0.00     0.004 A 
ATOM     21  C   UNL A   1      34.590  30.022  27.358  1.00  0.00     0.004 A 
ATOM     22  C   UNL A   1      32.091  29.158  26.469  1.00  0.00     0.005 A 
ATOM     23  C   UNL A   1      34.436  28.729  26.849  1.00  0.00     0.005 A 
ENDBRANCH  16  17
ENDBRANCH  15  16
ENDBRANCH  14  15
ENDBRANCH  11  14
ENDBRANCH   6  10
ENDBRANCH   1   5
BRANCH   3  24
ATOM     24  C   UNL A   1      38.918  21.758  25.824  1.00  0.00     0.117 C 
BRANCH  24  25
ATOM     25  C   UNL A   1      40.047  21.976  26.824  1.00  0.00     0.042 C 
BRANCH  25  26
ATOM     26  C   UNL A   1      41.368  22.390  26.182  1.00  0.00     0.118 C 
BRANCH  26  27
ATOM     27  N   UNL A   1      42.062  23.455  26.904  1.00  0.00    -0.352 N 
ATOM     28  C   UNL A   1      41.728  24.729  27.334  1.00  0.00     0.251 C 
ATOM     29  H   UNL A   1      42.986  23.209  27.141  1.00  0.00     0.163 HD
ATOM     30  O   UNL A   1      42.432  25.215  28.200  1.00  0.00    -0.269 OA
BRANCH  28  31
ATOM     31  C   UNL A   1      40.447  25.424  26.977  1.00  0.00     0.039 A 
ATOM     32  C   UNL A   1      40.725  26.538  26.173  1.00  0.00     0.014 A 
ATOM     33  C   UNL A   1      39.492  25.540  27.966  1.00  0.00     0.014 A 
ATOM     34  C   UNL A   1      40.638  27.787  26.763  1.00  0.00     0.010 A 
ATOM     35  C   UNL A   1      39.464  26.756  28.614  1.00  0.00     0.010 A 
ATOM     36  C   UNL A   1      40.159  27.843  28.063  1.00  0.00    -0.014 A 
BRANCH  36  37
ATOM     37  C   UNL A   1      40.412  28.957  28.958  1.00  0.00     0.031 A 
ATOM     38  C   UNL A   1      39.388  30.008  29.059  1.00  0.00     0.074 A 
ATOM     39  C   UNL A   1      41.512  28.966  29.746  1.00  0.00     0.049 A 
ATOM     40  N   UNL A   1      39.589  31.175  29.560  1.00  0.00    -0.248 NA
ATOM     41  C   UNL A   1      38.049  29.847  28.502  1.00  0.00     0.031 C 
ATOM     42  C   UNL A   1      41.753  29.818  30.908  1.00  0.00     0.029 A 
ATOM     43  N   UNL A   1      42.739  28.310  29.537  1.00  0.00    -0.354 N 
ATOM     44  C   UNL A   1      38.373  31.807  29.655  1.00  0.00     0.074 A 
ATOM     45  C   UNL A   1      37.477  30.990  28.878  1.00  0.00     0.031 C 
ATOM     46  C   UNL A   1      43.071  29.864  31.152  1.00  0.00     0.029 A 
ATOM     47  C   UNL A   1      43.734  29.168  30.066  1.00  0.00     0.049 A 
ATOM     48  H   UNL A   1      42.878  27.434  29.111  1.00  0.00     0.167 HD
ATOM     49  C   UNL A   1      38.271  32.874  30.496  1.00  0.00     0.037 A 
ATOM     50  C   UNL A   1      44.688  29.726  29.266  1.00  0.00     0.037 A 
ATOM     51  C   UNL A   1      39.608  33.313  30.911  1.00  0.00     0.049 A 
ATOM     52  C   UNL A   1      44.639  31.238  29.212  1.00  0.00     0.074 A 
ATOM     53  C   UNL A   1      40.350  33.139  32.069  1.00  0.00     0.029 A 
ATOM     54  N   UNL A   1      40.499  33.767  29.941  1.00  0.00    -0.354 N 
ATOM     55  N   UNL A   1      43.606  31.944  29.583  1.00  0.00    -0.248 NA
ATOM     56  C   UNL A   1      45.731  32.072  28.717  1.00  0.00     0.031 C 
ATOM     57  C   UNL A   1      41.708  33.421  31.763  1.00  0.00     0.029 A 
ATOM     58  C   UNL A   1      41.789  33.799  30.434  1.00  0.00     0.049 A 
ATOM     59  H   UNL A   1      40.243  34.029  29.026  1.00  0.00     0.167 HD
ATOM     60  C   UNL A   1      43.848  33.273  29.354  1.00  0.00     0.074 A 
ATOM     61  C   UNL A   1      45.202  33.304  28.834  1.00  0.00     0.031 C 
ATOM     62  C   UNL A   1      42.900  34.228  29.593  1.00  0.00     0.037 A 
BRANCH  49  63
ATOM     63  C   UNL A   1      36.987  33.366  31.147  1.00  0.00     0.064 A 
ATOM     64  C   UNL A   1      36.755  33.117  32.521  1.00  0.00     0.173 A 
ATOM     65  C   UNL A   1      35.898  33.976  30.488  1.00  0.00     0.173 A 
ATOM     66  F   UNL A   1      37.707  32.596  33.307  1.00  0.00    -0.203 F 
ATOM     67  C   UNL A   1      35.529  33.380  33.145  1.00  0.00     0.198 A 
ATOM     68  C   UNL A   1      34.673  34.236  31.110  1.00  0.00     0.198 A 
ATOM     69  F   UNL A   1      35.951  34.364  29.216  1.00  0.00    -0.203 F 
ATOM     70  F   UNL A   1      35.365  33.084  34.441  1.00  0.00    -0.200 F 
ATOM     71  C   UNL A   1      34.481  33.926  32.434  1.00  0.00     0.200 A 
ATOM     72  F   UNL A   1      33.677  34.785  30.396  1.00  0.00    -0.200 F 
ATOM     73  F   UNL A   1      33.301  34.160  33.020  1.00  0.00    -0.200 F 
ENDBRANCH  49  63
BRANCH  50  74
ATOM     74  C   UNL A   1      45.117  28.833  28.161  1.00  0.00     0.064 A 
ATOM     75  C   UNL A   1      46.008  27.787  28.463  1.00  0.00     0.173 A 
ATOM     76  C   UNL A   1      44.390  28.737  26.969  1.00  0.00     0.173 A 
ATOM     77  F   UNL A   1      46.727  27.829  29.597  1.00  0.00    -0.203 F 
ATOM     78  C   UNL A   1      46.095  26.651  27.661  1.00  0.00     0.198 A 
ATOM     79  C   UNL A   1      44.477  27.596  26.167  1.00  0.00     0.198 A 
ATOM     80  F   UNL A   1      43.512  29.695  26.635  1.00  0.00    -0.203 F 
ATOM     81  F   UNL A   1      46.894  25.636  28.024  1.00  0.00    -0.200 F 
ATOM     82  C   UNL A   1      45.309  26.545  26.525  1.00  0.00     0.200 A 
ATOM     83  F   UNL A   1      43.699  27.486  25.080  1.00  0.00    -0.200 F 
ATOM     84  F   UNL A   1      45.342  25.426  25.786  1.00  0.00    -0.200 F 
ENDBRANCH  50  74
BRANCH  62  85
ATOM     85  C   UNL A   1      42.942  35.668  29.126  1.00  0.00     0.064 A 
ATOM     86  C   UNL A   1      42.250  36.154  28.004  1.00  0.00     0.173 A 
ATOM     87  C   UNL A   1      43.572  36.658  29.921  1.00  0.00     0.173 A 
ATOM     88  F   UNL A   1      41.517  35.345  27.229  1.00  0.00    -0.203 F 
ATOM     89  C   UNL A   1      42.234  37.514  27.674  1.00  0.00     0.198 A 
ATOM     90  C   UNL A   1      43.499  38.018  29.626  1.00  0.00     0.198 A 
ATOM     91  F   UNL A   1      44.253  36.336  31.032  1.00  0.00    -0.203 F 
ATOM     92  F   UNL A   1      41.591  37.919  26.570  1.00  0.00    -0.200 F 
ATOM     93  C   UNL A   1      42.843  38.445  28.492  1.00  0.00     0.200 A 
ATOM     94  F   UNL A   1      44.048  38.911  30.461  1.00  0.00    -0.200 F 
ATOM     95  F   UNL A   1      42.777  39.752  28.202  1.00  0.00    -0.200 F 
ENDBRANCH  62  85
ENDBRANCH  36  37
ENDBRANCH  28  31
ENDBRANCH  26  27
ENDBRANCH  25  26
ENDBRANCH  24  25
ENDBRANCH   3  24
TORSDOF 15
ENDMDL
MODEL 3
REMARK VINA RESULT:     -12.4      1.332      2.186
REMARK SMILES Cc1ccc(CSCC(=O)N[C@H]2C=C[C@@H](C(=O)NCCCNC(=O)c3ccc(-c4c5nc(c(-c6c(F)c(F)c(F)c(F)c6F)c6ccc([nH]6)c(-c6c(F)c(F)c(F)c(F)c6F)c6nc(c(-c7c(F)c(F)c(F)c(F)c7F)c7ccc4[nH]7)C=C6)C=C5)cc3)C2)cc1
REMARK SMILES IDX 16 1 17 2 18 3 15 5 12 6 13 7 88 8 14 9 11 10 9 11 10 12
REMARK SMILES IDX 8 14 7 15 6 16 5 17 1 18 2 19 3 20 90 21 4 22 89 23 19 24
REMARK SMILES IDX 20 25 21 26 22 27 23 28 24 30 25 31 26 32 87 33 27 34 86 35
REMARK SMILES IDX 28 36 29 37 30 38 80 39 31 40 85 41 79 42 81 43 32 44 84 45
REMARK SMILES IDX 78 46 77 47 33 49 65 50 45 51 64 52 46 53 49 54 63 55 82 56
REMARK SMILES IDX 47 57 48 58 62 60 83 61 50 62 34 63 35 64 43 65 36 66 37 67
REMARK SMILES IDX 41 68 44 69 38 70 39 71 42 72 40 73 66 74 67 75 75 76 68 77
REMARK SMILES IDX 69 78 73 79 76 80 70 81 71 82 74 83 72 84 51 85 52 86 60 87
REMARK SMILES IDX 53 88 54 89 58 90 61 91 55 92 56 93 59 94 57 95
REMARK H PARENT 18 4 11 13 22 29 81 48 49 59
REMARK Flexibility Score: inf
ROOT
ATOM      1  C   UNL A   1      32.420  30.210  26.577  1.00  0.00     0.227 C 
ATOM      2  O   UNL A   1      31.541  30.426  25.736  1.00  0.00    -0.274 OA
ATOM      3  N   UNL A   1      33.032  31.299  27.116  1.00  0.00    -0.356 N 
ATOM      4  H   UNL A   1      32.731  32.162  26.747  1.00  0.00     0.163 HD
ENDROOT
BRANCH   1   5
ATOM      5  C   UNL A   1      32.780  28.767  26.956  1.00  0.00     0.103 C 
ATOM      6  C   UNL A   1      32.275  26.488  26.117  1.00  0.00     0.106 C 
ATOM      7  C   UNL A   1      33.635  26.952  25.736  1.00  0.00    -0.006 C 
ATOM      8  C   UNL A   1      31.655  27.741  26.783  1.00  0.00     0.047 C 
ATOM      9  C   UNL A   1      33.916  28.182  26.184  1.00  0.00    -0.016 C 
BRANCH   6  10
ATOM     10  N   UNL A   1      31.425  26.075  25.009  1.00  0.00    -0.349 N 
ATOM     11  C   UNL A   1      31.006  24.889  24.503  1.00  0.00     0.230 C 
ATOM     12  O   UNL A   1      30.030  24.940  23.745  1.00  0.00    -0.274 OA
ATOM     13  H   UNL A   1      31.070  26.843  24.505  1.00  0.00     0.164 HD
BRANCH  11  14
ATOM     14  C   UNL A   1      31.700  23.573  24.762  1.00  0.00     0.169 C 
BRANCH  14  15
ATOM     15  S   UNL A   1      32.747  22.967  23.399  1.00  0.00    -0.147 SA
BRANCH  15  16
ATOM     16  C   UNL A   1      34.109  24.154  23.387  1.00  0.00     0.105 C 
BRANCH  16  17
ATOM     17  C   UNL A   1      35.400  23.682  23.994  1.00  0.00    -0.038 A 
ATOM     18  C   UNL A   1      38.723  21.790  25.992  1.00  0.00     0.044 C 
ATOM     19  C   UNL A   1      37.604  22.498  25.289  1.00  0.00    -0.051 A 
ATOM     20  C   UNL A   1      37.251  22.111  23.991  1.00  0.00     0.004 A 
ATOM     21  C   UNL A   1      36.862  23.497  25.928  1.00  0.00     0.004 A 
ATOM     22  C   UNL A   1      36.161  22.699  23.349  1.00  0.00     0.005 A 
ATOM     23  C   UNL A   1      35.771  24.089  25.284  1.00  0.00     0.005 A 
ENDBRANCH  16  17
ENDBRANCH  15  16
ENDBRANCH  14  15
ENDBRANCH  11  14
ENDBRANCH   6  10
ENDBRANCH   1   5
BRANCH   3  24
ATOM     24  C   UNL A   1      34.048  31.406  28.141  1.00  0.00     0.117 C 
BRANCH  24  25
ATOM     25  C   UNL A   1      34.483  32.849  28.360  1.00  0.00     0.042 C 
BRANCH  25  26
ATOM     26  C   UNL A   1      35.930  33.125  27.958  1.00  0.00     0.118 C 
BRANCH  26  27
ATOM     27  N   UNL A   1      36.903  32.759  28.985  1.00  0.00    -0.352 N 
ATOM     28  C   UNL A   1      37.492  31.576  29.402  1.00  0.00     0.251 C 
ATOM     29  H   UNL A   1      37.214  33.537  29.503  1.00  0.00     0.163 HD
ATOM     30  O   UNL A   1      38.512  31.677  30.060  1.00  0.00    -0.269 OA
BRANCH  28  31
ATOM     31  C   UNL A   1      37.093  30.220  28.900  1.00  0.00     0.039 A 
ATOM     32  C   UNL A   1      37.168  29.291  29.948  1.00  0.00     0.014 A 
ATOM     33  C   UNL A   1      37.544  29.849  27.650  1.00  0.00     0.014 A 
ATOM     34  C   UNL A   1      38.236  28.411  29.945  1.00  0.00     0.010 A 
ATOM     35  C   UNL A   1      38.661  29.043  27.645  1.00  0.00     0.010 A 
ATOM     36  C   UNL A   1      39.074  28.435  28.840  1.00  0.00    -0.014 A 
BRANCH  36  37
ATOM     37  C   UNL A   1      40.434  27.930  28.860  1.00  0.00     0.031 A 
ATOM     38  C   UNL A   1      40.644  26.498  28.600  1.00  0.00     0.074 A 
ATOM     39  C   UNL A   1      41.477  28.779  29.015  1.00  0.00     0.049 A 
ATOM     40  N   UNL A   1      41.725  25.858  28.875  1.00  0.00    -0.248 NA
ATOM     41  C   UNL A   1      39.586  25.638  28.081  1.00  0.00     0.031 C 
ATOM     42  C   UNL A   1      42.885  28.500  28.741  1.00  0.00     0.029 A 
ATOM     43  N   UNL A   1      41.489  30.041  29.637  1.00  0.00    -0.354 N 
ATOM     44  C   UNL A   1      41.622  24.603  28.326  1.00  0.00     0.074 A 
ATOM     45  C   UNL A   1      40.237  24.481  27.953  1.00  0.00     0.031 C 
ATOM     46  C   UNL A   1      43.644  29.381  29.409  1.00  0.00     0.029 A 
ATOM     47  C   UNL A   1      42.758  30.159  30.254  1.00  0.00     0.049 A 
ATOM     48  H   UNL A   1      40.763  30.706  29.643  1.00  0.00     0.167 HD
ATOM     49  C   UNL A   1      42.768  23.888  28.145  1.00  0.00     0.037 A 
ATOM     50  C   UNL A   1      42.882  30.260  31.608  1.00  0.00     0.037 A 
ATOM     51  C   UNL A   1      43.873  24.522  28.873  1.00  0.00     0.049 A 
ATOM     52  C   UNL A   1      43.642  29.115  32.244  1.00  0.00     0.074 A 
ATOM     53  C   UNL A   1      44.933  25.325  28.484  1.00  0.00     0.029 A 
ATOM     54  N   UNL A   1      43.790  24.631  30.260  1.00  0.00    -0.354 N 
ATOM     55  N   UNL A   1      43.857  27.971  31.654  1.00  0.00    -0.248 NA
ATOM     56  C   UNL A   1      44.195  29.154  33.595  1.00  0.00     0.031 C 
ATOM     57  C   UNL A   1      45.438  25.974  29.642  1.00  0.00     0.029 A 
ATOM     58  C   UNL A   1      44.711  25.542  30.738  1.00  0.00     0.049 A 
ATOM     59  H   UNL A   1      43.160  24.125  30.824  1.00  0.00     0.167 HD
ATOM     60  C   UNL A   1      44.513  27.125  32.510  1.00  0.00     0.074 A 
ATOM     61  C   UNL A   1      44.724  27.921  33.704  1.00  0.00     0.031 C 
ATOM     62  C   UNL A   1      44.802  25.835  32.164  1.00  0.00     0.037 A 
BRANCH  49  63
ATOM     63  C   UNL A   1      42.965  22.778  27.123  1.00  0.00     0.064 A 
ATOM     64  C   UNL A   1      42.295  21.542  27.291  1.00  0.00     0.173 A 
ATOM     65  C   UNL A   1      43.861  22.797  26.034  1.00  0.00     0.173 A 
ATOM     66  F   UNL A   1      41.367  21.374  28.242  1.00  0.00    -0.203 F 
ATOM     67  C   UNL A   1      42.561  20.421  26.495  1.00  0.00     0.198 A 
ATOM     68  C   UNL A   1      44.128  21.676  25.241  1.00  0.00     0.198 A 
ATOM     69  F   UNL A   1      44.523  23.890  25.663  1.00  0.00    -0.203 F 
ATOM     70  F   UNL A   1      41.919  19.270  26.733  1.00  0.00    -0.200 F 
ATOM     71  C   UNL A   1      43.491  20.483  25.479  1.00  0.00     0.200 A 
ATOM     72  F   UNL A   1      45.026  21.773  24.247  1.00  0.00    -0.200 F 
ATOM     73  F   UNL A   1      43.763  19.408  24.730  1.00  0.00    -0.200 F 
ENDBRANCH  49  63
BRANCH  50  74
ATOM     74  C   UNL A   1      41.777  31.024  32.240  1.00  0.00     0.064 A 
ATOM     75  C   UNL A   1      40.708  30.302  32.800  1.00  0.00     0.173 A 
ATOM     76  C   UNL A   1      41.942  32.353  32.646  1.00  0.00     0.173 A 
ATOM     77  F   UNL A   1      40.508  29.022  32.446  1.00  0.00    -0.203 F 
ATOM     78  C   UNL A   1      39.902  30.851  33.795  1.00  0.00     0.198 A 
ATOM     79  C   UNL A   1      41.134  32.901  33.646  1.00  0.00     0.198 A 
ATOM     80  F   UNL A   1      42.954  33.087  32.160  1.00  0.00    -0.203 F 
ATOM     81  F   UNL A   1      38.944  30.105  34.366  1.00  0.00    -0.200 F 
ATOM     82  C   UNL A   1      40.132  32.144  34.236  1.00  0.00     0.200 A 
ATOM     83  F   UNL A   1      41.372  34.145  34.087  1.00  0.00    -0.200 F 
ATOM     84  F   UNL A   1      39.400  32.653  35.238  1.00  0.00    -0.200 F 
ENDBRANCH  50  74
BRANCH  62  85
ATOM     85  C   UNL A   1      45.260  24.738  33.102  1.00  0.00     0.064 A 
ATOM     86  C   UNL A   1      44.485  23.617  33.444  1.00  0.00     0.173 A 
ATOM     87  C   UNL A   1      46.600  24.709  33.565  1.00  0.00     0.173 A 
ATOM     88  F   UNL A   1      43.239  23.460  32.978  1.00  0.00    -0.203 F 
ATOM     89  C   UNL A   1      44.992  22.576  34.230  1.00  0.00     0.198 A 
ATOM     90  C   UNL A   1      47.121  23.640  34.293  1.00  0.00     0.198 A 
ATOM     91  F   UNL A   1      47.456  25.706  33.297  1.00  0.00    -0.203 F 
ATOM     92  F   UNL A   1      44.197  21.549  34.559  1.00  0.00    -0.200 F 
ATOM     93  C   UNL A   1      46.311  22.580  34.639  1.00  0.00     0.200 A 
ATOM     94  F   UNL A   1      48.417  23.635  34.633  1.00  0.00    -0.200 F 
ATOM     95  F   UNL A   1      46.807  21.554  35.344  1.00  0.00    -0.200 F 
ENDBRANCH  62  85
ENDBRANCH  36  37
ENDBRANCH  28  31
ENDBRANCH  26  27
ENDBRANCH  25  26
ENDBRANCH  24  25
ENDBRANCH   3  24
TORSDOF 15
ENDMDL
