MODEL 1
REMARK VINA RESULT:     -11.6      0.000      0.000
REMARK SMILES C=CCN(CC(=O)NCCCNC(=O)c1ccc(-c2c3nc(c(-c4c(F)c(F)c(F)c(F)c4F)c4ccc([nH]4)c(-c4c(F)c(F)c(F)c(F)c4F)c4nc(c(-c5c(F)c(F)c(F)c(F)c5F)c5ccc2[nH]5)C=C4)C=C3)cc1)C(=O)[C@@H]1Oc2ccccc2O[C@H]1C
REMARK SMILES IDX 9 1 8 2 6 3 7 4 5 6 4 7 3 8 2 9 1 10 78 11 79 12 80 13 81 14
REMARK SMILES IDX 89 15 82 16 88 17 90 18 83 19 87 20 84 21 86 22 85 23 10 24
REMARK SMILES IDX 11 25 12 26 13 27 14 29 15 30 16 31 77 32 17 33 76 34 18 35
REMARK SMILES IDX 19 36 20 37 70 38 21 39 75 40 69 41 71 42 22 43 74 44 68 45
REMARK SMILES IDX 67 46 23 48 55 49 35 50 54 51 36 52 39 53 53 54 72 55 37 56
REMARK SMILES IDX 38 57 52 59 73 60 40 61 24 62 25 63 33 64 26 65 27 66 31 67
REMARK SMILES IDX 34 68 28 69 29 70 32 71 30 72 56 73 57 74 65 75 58 76 59 77
REMARK SMILES IDX 63 78 66 79 60 80 61 81 64 82 62 83 41 84 42 85 50 86 43 87
REMARK SMILES IDX 44 88 48 89 51 90 45 91 46 92 49 93 47 94
REMARK H PARENT 8 5 12 28 71 47 39 58
REMARK Flexibility Score: inf
ROOT
ATOM      1  C   UNL A   1      31.722  30.596  26.865  1.00  0.00     0.117 C 
ENDROOT
BRANCH   1   2
ATOM      2  N   UNL A   1      33.146  30.326  26.797  1.00  0.00    -0.354 N 
ATOM      3  C   UNL A   1      33.841  29.150  26.780  1.00  0.00     0.239 C 
ATOM      4  O   UNL A   1      35.072  29.235  26.754  1.00  0.00    -0.273 OA
ATOM      5  H   UNL A   1      33.711  31.132  26.758  1.00  0.00     0.163 HD
BRANCH   3   6
ATOM      6  C   UNL A   1      33.138  27.787  26.903  1.00  0.00     0.219 C 
BRANCH   6   7
ATOM      7  N   UNL A   1      32.885  27.229  25.571  1.00  0.00    -0.326 N 
BRANCH   7   8
ATOM      8  C   UNL A   1      33.885  26.328  25.015  1.00  0.00     0.147 C 
BRANCH   8   9
ATOM      9  C   UNL A   1      33.960  25.068  25.822  1.00  0.00    -0.014 C 
ATOM     10  C   UNL A   1      32.930  24.225  25.980  1.00  0.00     0.006 C 
ENDBRANCH   8   9
ENDBRANCH   7   8
BRANCH   7  11
ATOM     11  C   UNL A   1      31.616  27.411  25.018  1.00  0.00     0.268 C 
ATOM     12  O   UNL A   1      30.608  27.016  25.611  1.00  0.00    -0.270 OA
BRANCH  11  13
ATOM     13  C   UNL A   1      31.476  28.345  23.791  1.00  0.00     0.302 C 
ATOM     14  O   UNL A   1      30.988  29.631  24.169  1.00  0.00    -0.473 OA
ATOM     15  C   UNL A   1      30.623  27.574  22.757  1.00  0.00     0.221 C 
ATOM     16  C   UNL A   1      29.894  30.068  23.484  1.00  0.00     0.162 A 
ATOM     17  O   UNL A   1      30.066  28.419  21.740  1.00  0.00    -0.482 OA
ATOM     18  C   UNL A   1      31.428  26.488  22.040  1.00  0.00     0.057 C 
ATOM     19  C   UNL A   1      29.213  31.152  24.035  1.00  0.00     0.050 A 
ATOM     20  C   UNL A   1      29.417  29.464  22.328  1.00  0.00     0.161 A 
ATOM     21  C   UNL A   1      28.020  31.591  23.464  1.00  0.00     0.004 A 
ATOM     22  C   UNL A   1      28.247  29.923  21.727  1.00  0.00     0.050 A 
ATOM     23  C   UNL A   1      27.537  30.973  22.311  1.00  0.00     0.004 A 
ENDBRANCH  11  13
ENDBRANCH   7  11
ENDBRANCH   6   7
ENDBRANCH   3   6
ENDBRANCH   1   2
BRANCH   1  24
ATOM     24  C   UNL A   1      31.391  32.092  26.854  1.00  0.00     0.042 C 
BRANCH  24  25
ATOM     25  C   UNL A   1      32.590  33.045  26.798  1.00  0.00     0.118 C 
BRANCH  25  26
ATOM     26  N   UNL A   1      32.436  34.216  27.644  1.00  0.00    -0.352 N 
ATOM     27  C   UNL A   1      33.135  34.649  28.746  1.00  0.00     0.251 C 
ATOM     28  H   UNL A   1      31.695  34.808  27.380  1.00  0.00     0.163 HD
ATOM     29  O   UNL A   1      32.701  35.624  29.356  1.00  0.00    -0.269 OA
BRANCH  27  30
ATOM     30  C   UNL A   1      34.375  33.990  29.246  1.00  0.00     0.039 A 
ATOM     31  C   UNL A   1      34.227  32.837  30.029  1.00  0.00     0.014 A 
ATOM     32  C   UNL A   1      35.657  34.519  29.073  1.00  0.00     0.014 A 
ATOM     33  C   UNL A   1      35.341  32.203  30.597  1.00  0.00     0.010 A 
ATOM     34  C   UNL A   1      36.779  33.851  29.593  1.00  0.00     0.010 A 
ATOM     35  C   UNL A   1      36.637  32.687  30.368  1.00  0.00    -0.014 A 
BRANCH  35  36
ATOM     36  C   UNL A   1      37.822  31.988  30.955  1.00  0.00     0.031 A 
ATOM     37  C   UNL A   1      38.285  32.285  32.360  1.00  0.00     0.074 A 
ATOM     38  C   UNL A   1      38.498  31.072  30.231  1.00  0.00     0.049 A 
ATOM     39  N   UNL A   1      39.273  31.750  33.039  1.00  0.00    -0.248 NA
ATOM     40  C   UNL A   1      37.555  33.328  33.093  1.00  0.00     0.031 C 
ATOM     41  C   UNL A   1      38.198  30.698  28.849  1.00  0.00     0.029 A 
ATOM     42  N   UNL A   1      39.576  30.282  30.561  1.00  0.00    -0.354 N 
ATOM     43  C   UNL A   1      39.287  32.396  34.269  1.00  0.00     0.074 A 
ATOM     44  C   UNL A   1      38.242  33.397  34.226  1.00  0.00     0.031 C 
ATOM     45  C   UNL A   1      39.044  29.731  28.461  1.00  0.00     0.029 A 
ATOM     46  C   UNL A   1      39.969  29.434  29.553  1.00  0.00     0.049 A 
ATOM     47  H   UNL A   1      40.023  30.321  31.437  1.00  0.00     0.167 HD
ATOM     48  C   UNL A   1      40.076  32.166  35.347  1.00  0.00     0.037 A 
ATOM     49  C   UNL A   1      40.955  28.516  29.509  1.00  0.00     0.037 A 
ATOM     50  C   UNL A   1      41.101  31.156  35.420  1.00  0.00     0.049 A 
ATOM     51  C   UNL A   1      41.823  28.282  30.717  1.00  0.00     0.074 A 
ATOM     52  C   UNL A   1      41.906  30.820  36.496  1.00  0.00     0.029 A 
ATOM     53  N   UNL A   1      41.467  30.322  34.376  1.00  0.00    -0.354 N 
ATOM     54  N   UNL A   1      41.773  28.852  31.895  1.00  0.00    -0.248 NA
ATOM     55  C   UNL A   1      42.880  27.267  30.588  1.00  0.00     0.031 C 
ATOM     56  C   UNL A   1      42.786  29.810  36.091  1.00  0.00     0.029 A 
ATOM     57  C   UNL A   1      42.498  29.486  34.776  1.00  0.00     0.049 A 
ATOM     58  H   UNL A   1      41.055  30.322  33.481  1.00  0.00     0.167 HD
ATOM     59  C   UNL A   1      42.765  28.246  32.654  1.00  0.00     0.074 A 
ATOM     60  C   UNL A   1      43.397  27.255  31.809  1.00  0.00     0.031 C 
ATOM     61  C   UNL A   1      43.118  28.490  33.940  1.00  0.00     0.037 A 
BRANCH  48  62
ATOM     62  C   UNL A   1      39.858  33.023  36.560  1.00  0.00     0.064 A 
ATOM     63  C   UNL A   1      38.944  32.659  37.562  1.00  0.00     0.173 A 
ATOM     64  C   UNL A   1      40.604  34.197  36.749  1.00  0.00     0.173 A 
ATOM     65  F   UNL A   1      38.202  31.550  37.426  1.00  0.00    -0.203 F 
ATOM     66  C   UNL A   1      38.766  33.452  38.692  1.00  0.00     0.198 A 
ATOM     67  C   UNL A   1      40.444  34.972  37.894  1.00  0.00     0.198 A 
ATOM     68  F   UNL A   1      41.499  34.584  35.828  1.00  0.00    -0.203 F 
ATOM     69  F   UNL A   1      37.855  33.107  39.613  1.00  0.00    -0.200 F 
ATOM     70  C   UNL A   1      39.519  34.604  38.860  1.00  0.00     0.200 A 
ATOM     71  F   UNL A   1      41.183  36.077  38.063  1.00  0.00    -0.200 F 
ATOM     72  F   UNL A   1      39.351  35.363  39.952  1.00  0.00    -0.200 F 
ENDBRANCH  48  62
BRANCH  49  73
ATOM     73  C   UNL A   1      41.160  27.709  28.276  1.00  0.00     0.064 A 
ATOM     74  C   UNL A   1      40.531  26.465  28.119  1.00  0.00     0.173 A 
ATOM     75  C   UNL A   1      41.994  28.155  27.243  1.00  0.00     0.173 A 
ATOM     76  F   UNL A   1      39.744  25.985  29.093  1.00  0.00    -0.203 F 
ATOM     77  C   UNL A   1      40.744  25.691  26.980  1.00  0.00     0.198 A 
ATOM     78  C   UNL A   1      42.186  27.392  26.093  1.00  0.00     0.198 A 
ATOM     79  F   UNL A   1      42.617  29.338  27.347  1.00  0.00    -0.203 F 
ATOM     80  F   UNL A   1      40.165  24.487  26.873  1.00  0.00    -0.200 F 
ATOM     81  C   UNL A   1      41.566  26.158  25.966  1.00  0.00     0.200 A 
ATOM     82  F   UNL A   1      42.971  27.852  25.109  1.00  0.00    -0.200 F 
ATOM     83  F   UNL A   1      41.767  25.416  24.868  1.00  0.00    -0.200 F 
ENDBRANCH  49  73
BRANCH  61  84
ATOM     84  C   UNL A   1      44.209  27.649  34.535  1.00  0.00     0.064 A 
ATOM     85  C   UNL A   1      43.940  26.418  35.151  1.00  0.00     0.173 A 
ATOM     86  C   UNL A   1      45.549  28.062  34.454  1.00  0.00     0.173 A 
ATOM     87  F   UNL A   1      42.677  25.985  35.269  1.00  0.00    -0.203 F 
ATOM     88  C   UNL A   1      44.969  25.643  35.683  1.00  0.00     0.198 A 
ATOM     89  C   UNL A   1      46.576  27.272  34.962  1.00  0.00     0.198 A 
ATOM     90  F   UNL A   1      45.861  29.229  33.869  1.00  0.00    -0.203 F 
ATOM     91  F   UNL A   1      44.684  24.490  36.305  1.00  0.00    -0.200 F 
ATOM     92  C   UNL A   1      46.286  26.067  35.582  1.00  0.00     0.200 A 
ATOM     93  F   UNL A   1      47.848  27.679  34.854  1.00  0.00    -0.200 F 
ATOM     94  F   UNL A   1      47.274  25.318  36.088  1.00  0.00    -0.200 F 
ENDBRANCH  61  84
ENDBRANCH  35  36
ENDBRANCH  27  30
ENDBRANCH  25  26
ENDBRANCH  24  25
ENDBRANCH   1  24
TORSDOF 15
ENDMDL
MODEL 2
REMARK VINA RESULT:     -11.6      0.353      2.038
REMARK SMILES C=CCN(CC(=O)NCCCNC(=O)c1ccc(-c2c3nc(c(-c4c(F)c(F)c(F)c(F)c4F)c4ccc([nH]4)c(-c4c(F)c(F)c(F)c(F)c4F)c4nc(c(-c5c(F)c(F)c(F)c(F)c5F)c5ccc2[nH]5)C=C4)C=C3)cc1)C(=O)[C@@H]1Oc2ccccc2O[C@H]1C
REMARK SMILES IDX 9 1 8 2 6 3 7 4 5 6 4 7 3 8 2 9 1 10 78 11 79 12 80 13 81 14
REMARK SMILES IDX 89 15 82 16 88 17 90 18 83 19 87 20 84 21 86 22 85 23 10 24
REMARK SMILES IDX 11 25 12 26 13 27 14 29 15 30 16 31 77 32 17 33 76 34 18 35
REMARK SMILES IDX 19 36 20 37 70 38 21 39 75 40 69 41 71 42 22 43 74 44 68 45
REMARK SMILES IDX 67 46 23 48 55 49 35 50 54 51 36 52 39 53 53 54 72 55 37 56
REMARK SMILES IDX 38 57 52 59 73 60 40 61 24 62 25 63 33 64 26 65 27 66 31 67
REMARK SMILES IDX 34 68 28 69 29 70 32 71 30 72 56 73 57 74 65 75 58 76 59 77
REMARK SMILES IDX 63 78 66 79 60 80 61 81 64 82 62 83 41 84 42 85 50 86 43 87
REMARK SMILES IDX 44 88 48 89 51 90 45 91 46 92 49 93 47 94
REMARK H PARENT 8 5 12 28 71 47 39 58
REMARK Flexibility Score: inf
ROOT
ATOM      1  C   UNL A   1      31.712  30.660  26.931  1.00  0.00     0.117 C 
ENDROOT
BRANCH   1   2
ATOM      2  N   UNL A   1      33.121  30.330  27.044  1.00  0.00    -0.354 N 
ATOM      3  C   UNL A   1      33.766  29.126  27.059  1.00  0.00     0.239 C 
ATOM      4  O   UNL A   1      34.992  29.157  27.206  1.00  0.00    -0.273 OA
ATOM      5  H   UNL A   1      33.716  31.110  27.124  1.00  0.00     0.163 HD
BRANCH   3   6
ATOM      6  C   UNL A   1      33.001  27.791  27.014  1.00  0.00     0.219 C 
BRANCH   6   7
ATOM      7  N   UNL A   1      32.873  27.332  25.628  1.00  0.00    -0.326 N 
BRANCH   7   8
ATOM      8  C   UNL A   1      33.988  26.590  25.056  1.00  0.00     0.147 C 
BRANCH   8   9
ATOM      9  C   UNL A   1      33.606  25.157  24.842  1.00  0.00    -0.014 C 
ATOM     10  C   UNL A   1      34.274  24.323  24.033  1.00  0.00     0.006 C 
ENDBRANCH   8   9
ENDBRANCH   7   8
BRANCH   7  11
ATOM     11  C   UNL A   1      31.619  27.433  25.021  1.00  0.00     0.268 C 
ATOM     12  O   UNL A   1      30.614  26.973  25.570  1.00  0.00    -0.270 OA
BRANCH  11  13
ATOM     13  C   UNL A   1      31.472  28.361  23.790  1.00  0.00     0.302 C 
ATOM     14  O   UNL A   1      30.977  29.646  24.162  1.00  0.00    -0.473 OA
ATOM     15  C   UNL A   1      30.621  27.580  22.760  1.00  0.00     0.221 C 
ATOM     16  C   UNL A   1      29.879  30.073  23.477  1.00  0.00     0.162 A 
ATOM     17  O   UNL A   1      30.058  28.417  21.741  1.00  0.00    -0.482 OA
ATOM     18  C   UNL A   1      31.432  26.495  22.048  1.00  0.00     0.057 C 
ATOM     19  C   UNL A   1      29.193  31.156  24.023  1.00  0.00     0.050 A 
ATOM     20  C   UNL A   1      29.404  29.461  22.324  1.00  0.00     0.161 A 
ATOM     21  C   UNL A   1      27.997  31.585  23.452  1.00  0.00     0.004 A 
ATOM     22  C   UNL A   1      28.230  29.910  21.723  1.00  0.00     0.050 A 
ATOM     23  C   UNL A   1      27.515  30.959  22.303  1.00  0.00     0.004 A 
ENDBRANCH  11  13
ENDBRANCH   7  11
ENDBRANCH   6   7
ENDBRANCH   3   6
ENDBRANCH   1   2
BRANCH   1  24
ATOM     24  C   UNL A   1      31.447  32.169  26.909  1.00  0.00     0.042 C 
BRANCH  24  25
ATOM     25  C   UNL A   1      32.687  33.069  26.910  1.00  0.00     0.118 C 
BRANCH  25  26
ATOM     26  N   UNL A   1      32.508  34.296  27.666  1.00  0.00    -0.352 N 
ATOM     27  C   UNL A   1      33.115  34.765  28.808  1.00  0.00     0.251 C 
ATOM     28  H   UNL A   1      31.829  34.903  27.294  1.00  0.00     0.163 HD
ATOM     29  O   UNL A   1      32.673  35.794  29.314  1.00  0.00    -0.269 OA
BRANCH  27  30
ATOM     30  C   UNL A   1      34.264  34.084  29.470  1.00  0.00     0.039 A 
ATOM     31  C   UNL A   1      35.554  34.409  29.028  1.00  0.00     0.014 A 
ATOM     32  C   UNL A   1      34.120  33.065  30.416  1.00  0.00     0.014 A 
ATOM     33  C   UNL A   1      36.681  33.757  29.550  1.00  0.00     0.010 A 
ATOM     34  C   UNL A   1      35.252  32.453  30.981  1.00  0.00     0.010 A 
ATOM     35  C   UNL A   1      36.548  32.785  30.552  1.00  0.00    -0.014 A 
BRANCH  35  36
ATOM     36  C   UNL A   1      37.757  32.115  31.122  1.00  0.00     0.031 A 
ATOM     37  C   UNL A   1      38.255  32.448  32.506  1.00  0.00     0.074 A 
ATOM     38  C   UNL A   1      38.425  31.191  30.400  1.00  0.00     0.049 A 
ATOM     39  N   UNL A   1      39.267  31.942  33.170  1.00  0.00    -0.248 NA
ATOM     40  C   UNL A   1      37.531  33.498  33.236  1.00  0.00     0.031 C 
ATOM     41  C   UNL A   1      38.093  30.782  29.035  1.00  0.00     0.029 A 
ATOM     42  N   UNL A   1      39.522  30.422  30.717  1.00  0.00    -0.354 N 
ATOM     43  C   UNL A   1      39.306  32.615  34.384  1.00  0.00     0.074 A 
ATOM     44  C   UNL A   1      38.247  33.602  34.347  1.00  0.00     0.031 C 
ATOM     45  C   UNL A   1      38.941  29.817  28.646  1.00  0.00     0.029 A 
ATOM     46  C   UNL A   1      39.898  29.556  29.719  1.00  0.00     0.049 A 
ATOM     47  H   UNL A   1      39.992  30.486  31.580  1.00  0.00     0.167 HD
ATOM     48  C   UNL A   1      40.127  32.419  35.446  1.00  0.00     0.037 A 
ATOM     49  C   UNL A   1      40.895  28.649  29.668  1.00  0.00     0.037 A 
ATOM     50  C   UNL A   1      41.166  31.425  35.512  1.00  0.00     0.049 A 
ATOM     51  C   UNL A   1      41.799  28.454  30.857  1.00  0.00     0.074 A 
ATOM     52  C   UNL A   1      42.005  31.123  36.574  1.00  0.00     0.029 A 
ATOM     53  N   UNL A   1      41.515  30.572  34.477  1.00  0.00    -0.354 N 
ATOM     54  N   UNL A   1      41.774  29.050  32.022  1.00  0.00    -0.248 NA
ATOM     55  C   UNL A   1      42.865  27.450  30.722  1.00  0.00     0.031 C 
ATOM     56  C   UNL A   1      42.887  30.115  36.167  1.00  0.00     0.029 A 
ATOM     57  C   UNL A   1      42.568  29.758  34.868  1.00  0.00     0.049 A 
ATOM     58  H   UNL A   1      41.079  30.546  33.594  1.00  0.00     0.167 HD
ATOM     59  C   UNL A   1      42.794  28.473  32.767  1.00  0.00     0.074 A 
ATOM     60  C   UNL A   1      43.415  27.472  31.927  1.00  0.00     0.031 C 
ATOM     61  C   UNL A   1      43.177  28.751  34.038  1.00  0.00     0.037 A 
BRANCH  48  62
ATOM     62  C   UNL A   1      39.931  33.301  36.645  1.00  0.00     0.064 A 
ATOM     63  C   UNL A   1      40.640  34.503  36.796  1.00  0.00     0.173 A 
ATOM     64  C   UNL A   1      38.988  32.969  37.629  1.00  0.00     0.173 A 
ATOM     65  F   UNL A   1      41.557  34.863  35.885  1.00  0.00    -0.203 F 
ATOM     66  C   UNL A   1      40.434  35.323  37.902  1.00  0.00     0.198 A 
ATOM     67  C   UNL A   1      38.763  33.805  38.719  1.00  0.00     0.198 A 
ATOM     68  F   UNL A   1      38.274  31.838  37.527  1.00  0.00    -0.203 F 
ATOM     69  F   UNL A   1      41.156  36.443  38.047  1.00  0.00    -0.200 F 
ATOM     70  C   UNL A   1      39.492  34.976  38.859  1.00  0.00     0.200 A 
ATOM     71  F   UNL A   1      37.843  33.477  39.636  1.00  0.00    -0.200 F 
ATOM     72  F   UNL A   1      39.290  35.771  39.920  1.00  0.00    -0.200 F 
ENDBRANCH  48  62
BRANCH  49  73
ATOM     73  C   UNL A   1      41.077  27.818  28.449  1.00  0.00     0.064 A 
ATOM     74  C   UNL A   1      41.935  28.231  27.418  1.00  0.00     0.173 A 
ATOM     75  C   UNL A   1      40.390  26.608  28.281  1.00  0.00     0.173 A 
ATOM     76  F   UNL A   1      42.593  29.395  27.522  1.00  0.00    -0.203 F 
ATOM     77  C   UNL A   1      42.085  27.472  26.260  1.00  0.00     0.198 A 
ATOM     78  C   UNL A   1      40.561  25.837  27.134  1.00  0.00     0.198 A 
ATOM     79  F   UNL A   1      39.559  26.171  29.238  1.00  0.00    -0.203 F 
ATOM     80  F   UNL A   1      42.878  27.910  25.273  1.00  0.00    -0.200 F 
ATOM     81  C   UNL A   1      41.402  26.273  26.122  1.00  0.00     0.200 A 
ATOM     82  F   UNL A   1      39.909  24.672  27.008  1.00  0.00    -0.200 F 
ATOM     83  F   UNL A   1      41.551  25.540  25.009  1.00  0.00    -0.200 F 
ENDBRANCH  49  73
BRANCH  61  84
ATOM     84  C   UNL A   1      44.296  27.937  34.621  1.00  0.00     0.064 A 
ATOM     85  C   UNL A   1      45.631  28.362  34.555  1.00  0.00     0.173 A 
ATOM     86  C   UNL A   1      44.024  26.733  35.289  1.00  0.00     0.173 A 
ATOM     87  F   UNL A   1      45.946  29.497  33.915  1.00  0.00    -0.203 F 
ATOM     88  C   UNL A   1      46.653  27.601  35.117  1.00  0.00     0.198 A 
ATOM     89  C   UNL A   1      45.045  25.988  35.873  1.00  0.00     0.198 A 
ATOM     90  F   UNL A   1      42.763  26.283  35.385  1.00  0.00    -0.203 F 
ATOM     91  F   UNL A   1      47.926  28.006  35.005  1.00  0.00    -0.200 F 
ATOM     92  C   UNL A   1      46.360  26.419  35.781  1.00  0.00     0.200 A 
ATOM     93  F   UNL A   1      44.758  24.852  36.523  1.00  0.00    -0.200 F 
ATOM     94  F   UNL A   1      47.344  25.692  36.326  1.00  0.00    -0.200 F 
ENDBRANCH  61  84
ENDBRANCH  35  36
ENDBRANCH  27  30
ENDBRANCH  25  26
ENDBRANCH  24  25
ENDBRANCH   1  24
TORSDOF 15
ENDMDL
MODEL 3
REMARK VINA RESULT:     -11.4      5.692     10.913
REMARK SMILES C=CCN(CC(=O)NCCCNC(=O)c1ccc(-c2c3nc(c(-c4c(F)c(F)c(F)c(F)c4F)c4ccc([nH]4)c(-c4c(F)c(F)c(F)c(F)c4F)c4nc(c(-c5c(F)c(F)c(F)c(F)c5F)c5ccc2[nH]5)C=C4)C=C3)cc1)C(=O)[C@@H]1Oc2ccccc2O[C@H]1C
REMARK SMILES IDX 9 1 8 2 6 3 7 4 5 6 4 7 3 8 2 9 1 10 78 11 79 12 80 13 81 14
REMARK SMILES IDX 89 15 82 16 88 17 90 18 83 19 87 20 84 21 86 22 85 23 10 24
REMARK SMILES IDX 11 25 12 26 13 27 14 29 15 30 16 31 77 32 17 33 76 34 18 35
REMARK SMILES IDX 19 36 20 37 70 38 21 39 75 40 69 41 71 42 22 43 74 44 68 45
REMARK SMILES IDX 67 46 23 48 55 49 35 50 54 51 36 52 39 53 53 54 72 55 37 56
REMARK SMILES IDX 38 57 52 59 73 60 40 61 24 62 25 63 33 64 26 65 27 66 31 67
REMARK SMILES IDX 34 68 28 69 29 70 32 71 30 72 56 73 57 74 65 75 58 76 59 77
REMARK SMILES IDX 63 78 66 79 60 80 61 81 64 82 62 83 41 84 42 85 50 86 43 87
REMARK SMILES IDX 44 88 48 89 51 90 45 91 46 92 49 93 47 94
REMARK H PARENT 8 5 12 28 71 47 39 58
REMARK Flexibility Score: inf
ROOT
ATOM      1  C   UNL A   1      37.418  20.704  24.775  1.00  0.00     0.117 C 
ENDROOT
BRANCH   1   2
ATOM      2  N   UNL A   1      37.947  22.023  25.069  1.00  0.00    -0.354 N 
ATOM      3  C   UNL A   1      37.408  23.081  25.744  1.00  0.00     0.239 C 
ATOM      4  O   UNL A   1      38.094  24.106  25.803  1.00  0.00    -0.273 OA
ATOM      5  H   UNL A   1      38.854  22.183  24.719  1.00  0.00     0.163 HD
BRANCH   3   6
ATOM      6  C   UNL A   1      35.975  23.046  26.303  1.00  0.00     0.219 C 
BRANCH   6   7
ATOM      7  N   UNL A   1      35.043  23.631  25.335  1.00  0.00    -0.326 N 
BRANCH   7   8
ATOM      8  C   UNL A   1      34.822  25.069  25.393  1.00  0.00     0.147 C 
BRANCH   8   9
ATOM      9  C   UNL A   1      33.365  25.367  25.574  1.00  0.00    -0.014 C 
ATOM     10  C   UNL A   1      32.901  26.451  26.210  1.00  0.00     0.006 C 
ENDBRANCH   8   9
ENDBRANCH   7   8
BRANCH   7  11
ATOM     11  C   UNL A   1      34.603  22.824  24.284  1.00  0.00     0.268 C 
ATOM     12  O   UNL A   1      35.197  22.818  23.202  1.00  0.00    -0.270 OA
BRANCH  11  13
ATOM     13  C   UNL A   1      33.532  21.746  24.583  1.00  0.00     0.302 C 
ATOM     14  O   UNL A   1      34.127  20.532  25.037  1.00  0.00    -0.473 OA
ATOM     15  C   UNL A   1      32.660  21.639  23.310  1.00  0.00     0.221 C 
ATOM     16  C   UNL A   1      33.759  19.409  24.358  1.00  0.00     0.162 A 
ATOM     17  O   UNL A   1      31.882  20.435  23.257  1.00  0.00    -0.482 OA
ATOM     18  C   UNL A   1      31.681  22.807  23.183  1.00  0.00     0.057 C 
ATOM     19  C   UNL A   1      34.549  18.278  24.560  1.00  0.00     0.050 A 
ATOM     20  C   UNL A   1      32.696  19.361  23.465  1.00  0.00     0.161 A 
ATOM     21  C   UNL A   1      34.314  17.121  23.821  1.00  0.00     0.004 A 
ATOM     22  C   UNL A   1      32.429  18.196  22.752  1.00  0.00     0.050 A 
ATOM     23  C   UNL A   1      33.254  17.082  22.915  1.00  0.00     0.004 A 
ENDBRANCH  11  13
ENDBRANCH   7  11
ENDBRANCH   6   7
ENDBRANCH   3   6
ENDBRANCH   1   2
BRANCH   1  24
ATOM     24  C   UNL A   1      38.474  19.598  24.862  1.00  0.00     0.042 C 
BRANCH  24  25
ATOM     25  C   UNL A   1      39.362  19.613  26.110  1.00  0.00     0.118 C 
BRANCH  25  26
ATOM     26  N   UNL A   1      40.608  18.885  25.941  1.00  0.00    -0.352 N 
ATOM     27  C   UNL A   1      41.920  19.298  25.962  1.00  0.00     0.251 C 
ATOM     28  H   UNL A   1      40.492  17.921  25.784  1.00  0.00     0.163 HD
ATOM     29  O   UNL A   1      42.785  18.480  25.656  1.00  0.00    -0.269 OA
BRANCH  27  30
ATOM     30  C   UNL A   1      42.343  20.682  26.317  1.00  0.00     0.039 A 
ATOM     31  C   UNL A   1      42.319  21.041  27.672  1.00  0.00     0.014 A 
ATOM     32  C   UNL A   1      42.648  21.666  25.372  1.00  0.00     0.014 A 
ATOM     33  C   UNL A   1      42.632  22.346  28.078  1.00  0.00     0.010 A 
ATOM     34  C   UNL A   1      43.018  22.958  25.783  1.00  0.00     0.010 A 
ATOM     35  C   UNL A   1      43.009  23.319  27.141  1.00  0.00    -0.014 A 
BRANCH  35  36
ATOM     36  C   UNL A   1      43.367  24.701  27.586  1.00  0.00     0.031 A 
ATOM     37  C   UNL A   1      44.805  25.156  27.639  1.00  0.00     0.074 A 
ATOM     38  C   UNL A   1      42.400  25.570  27.947  1.00  0.00     0.049 A 
ATOM     39  N   UNL A   1      45.294  26.328  27.970  1.00  0.00    -0.248 NA
ATOM     40  C   UNL A   1      45.828  24.161  27.290  1.00  0.00     0.031 C 
ATOM     41  C   UNL A   1      40.968  25.275  27.984  1.00  0.00     0.029 A 
ATOM     42  N   UNL A   1      42.477  26.885  28.347  1.00  0.00    -0.354 N 
ATOM     43  C   UNL A   1      46.675  26.207  27.878  1.00  0.00     0.074 A 
ATOM     44  C   UNL A   1      46.949  24.834  27.509  1.00  0.00     0.031 C 
ATOM     45  C   UNL A   1      40.300  26.380  28.348  1.00  0.00     0.029 A 
ATOM     46  C   UNL A   1      41.253  27.458  28.602  1.00  0.00     0.049 A 
ATOM     47  H   UNL A   1      43.328  27.371  28.440  1.00  0.00     0.167 HD
ATOM     48  C   UNL A   1      47.630  27.153  28.057  1.00  0.00     0.037 A 
ATOM     49  C   UNL A   1      40.930  28.707  28.991  1.00  0.00     0.037 A 
ATOM     50  C   UNL A   1      47.375  28.529  28.395  1.00  0.00     0.049 A 
ATOM     51  C   UNL A   1      42.008  29.739  29.190  1.00  0.00     0.074 A 
ATOM     52  C   UNL A   1      48.285  29.565  28.539  1.00  0.00     0.029 A 
ATOM     53  N   UNL A   1      46.122  29.065  28.648  1.00  0.00    -0.354 N 
ATOM     54  N   UNL A   1      43.303  29.625  29.028  1.00  0.00    -0.248 NA
ATOM     55  C   UNL A   1      41.575  31.078  29.620  1.00  0.00     0.031 C 
ATOM     56  C   UNL A   1      47.586  30.717  28.917  1.00  0.00     0.029 A 
ATOM     57  C   UNL A   1      46.237  30.410  28.965  1.00  0.00     0.049 A 
ATOM     58  H   UNL A   1      45.275  28.564  28.607  1.00  0.00     0.167 HD
ATOM     59  C   UNL A   1      43.833  30.879  29.302  1.00  0.00     0.074 A 
ATOM     60  C   UNL A   1      42.721  31.744  29.632  1.00  0.00     0.031 C 
ATOM     61  C   UNL A   1      45.130  31.275  29.279  1.00  0.00     0.037 A 
BRANCH  48  62
ATOM     62  C   UNL A   1      49.061  26.733  27.881  1.00  0.00     0.064 A 
ATOM     63  C   UNL A   1      49.877  26.427  28.981  1.00  0.00     0.173 A 
ATOM     64  C   UNL A   1      49.609  26.587  26.597  1.00  0.00     0.173 A 
ATOM     65  F   UNL A   1      49.402  26.557  30.229  1.00  0.00    -0.203 F 
ATOM     66  C   UNL A   1      51.196  26.019  28.804  1.00  0.00     0.198 A 
ATOM     67  C   UNL A   1      50.920  26.151  26.423  1.00  0.00     0.198 A 
ATOM     68  F   UNL A   1      48.869  26.855  25.512  1.00  0.00    -0.203 F 
ATOM     69  F   UNL A   1      51.969  25.776  29.871  1.00  0.00    -0.200 F 
ATOM     70  C   UNL A   1      51.714  25.876  27.526  1.00  0.00     0.200 A 
ATOM     71  F   UNL A   1      51.416  25.998  25.187  1.00  0.00    -0.200 F 
ATOM     72  F   UNL A   1      52.983  25.476  27.356  1.00  0.00    -0.200 F 
ENDBRANCH  48  62
BRANCH  49  73
ATOM     73  C   UNL A   1      39.502  29.074  29.187  1.00  0.00     0.064 A 
ATOM     74  C   UNL A   1      38.720  29.520  28.111  1.00  0.00     0.173 A 
ATOM     75  C   UNL A   1      38.896  29.001  30.449  1.00  0.00     0.173 A 
ATOM     76  F   UNL A   1      39.264  29.632  26.890  1.00  0.00    -0.203 F 
ATOM     77  C   UNL A   1      37.391  29.895  28.294  1.00  0.00     0.198 A 
ATOM     78  C   UNL A   1      37.560  29.351  30.626  1.00  0.00     0.198 A 
ATOM     79  F   UNL A   1      39.602  28.580  31.508  1.00  0.00    -0.203 F 
ATOM     80  F   UNL A   1      36.679  30.358  27.259  1.00  0.00    -0.200 F 
ATOM     81  C   UNL A   1      36.811  29.804  29.551  1.00  0.00     0.200 A 
ATOM     82  F   UNL A   1      36.998  29.250  31.839  1.00  0.00    -0.200 F 
ATOM     83  F   UNL A   1      35.530  30.160  29.726  1.00  0.00    -0.200 F 
ENDBRANCH  49  73
BRANCH  61  84
ATOM     84  C   UNL A   1      45.423  32.717  29.578  1.00  0.00     0.064 A 
ATOM     85  C   UNL A   1      45.414  33.696  28.574  1.00  0.00     0.173 A 
ATOM     86  C   UNL A   1      45.678  33.131  30.895  1.00  0.00     0.173 A 
ATOM     87  F   UNL A   1      45.191  33.351  27.298  1.00  0.00    -0.203 F 
ATOM     88  C   UNL A   1      45.672  35.032  28.874  1.00  0.00     0.198 A 
ATOM     89  C   UNL A   1      45.909  34.471  31.195  1.00  0.00     0.198 A 
ATOM     90  F   UNL A   1      45.693  32.235  31.895  1.00  0.00    -0.203 F 
ATOM     91  F   UNL A   1      45.700  35.944  27.892  1.00  0.00    -0.200 F 
ATOM     92  C   UNL A   1      45.912  35.419  30.185  1.00  0.00     0.200 A 
ATOM     93  F   UNL A   1      46.130  34.844  32.463  1.00  0.00    -0.200 F 
ATOM     94  F   UNL A   1      46.154  36.705  30.471  1.00  0.00    -0.200 F 
ENDBRANCH  61  84
ENDBRANCH  35  36
ENDBRANCH  27  30
ENDBRANCH  25  26
ENDBRANCH  24  25
ENDBRANCH   1  24
TORSDOF 15
ENDMDL
