MODEL 1
REMARK VINA RESULT:     -13.2      0.000      0.000
REMARK SMILES Cc1ccc(C(=O)NCCCNC(=O)c2ccc(-c3c4nc(c(-c5c(F)c(F)c(F)c(F)c5F)c5ccc([nH]5)c(-c5c(F)c(F)c(F)c(F)c5F)c5nc(c(-c6c(F)c(F)c(F)c(F)c6F)c6ccc3[nH]6)C=C5)C=C4)cc2)cc1S(=O)(=O)N(C)[C@H]1CCSC1
REMARK SMILES IDX 9 1 8 2 6 3 7 4 5 6 1 7 2 8 3 9 79 10 4 11 78 12 80 13 81 14
REMARK SMILES IDX 82 15 83 16 84 17 85 18 86 19 89 20 87 21 88 22 10 23 11 24
REMARK SMILES IDX 12 25 13 26 14 28 15 29 16 30 77 31 17 32 76 33 18 34 19 35
REMARK SMILES IDX 20 36 70 37 21 38 75 39 69 40 71 41 22 42 74 43 68 44 67 45
REMARK SMILES IDX 23 47 55 48 35 49 54 50 36 51 39 52 53 53 72 54 37 55 38 56
REMARK SMILES IDX 52 58 73 59 40 60 24 61 25 62 33 63 26 64 27 65 31 66 34 67
REMARK SMILES IDX 28 68 29 69 32 70 30 71 56 72 57 73 65 74 58 75 59 76 63 77
REMARK SMILES IDX 66 78 60 79 61 80 64 81 62 82 41 83 42 84 50 85 43 86 44 87
REMARK SMILES IDX 48 88 51 89 45 90 46 91 49 92 47 93
REMARK H PARENT 8 5 12 27 71 46 39 57
REMARK Flexibility Score: inf
ROOT
ATOM      1  C   UNL A   1      31.807  30.056  25.668  1.00  0.00     0.118 C 
ENDROOT
BRANCH   1   2
ATOM      2  N   UNL A   1      32.864  29.722  24.719  1.00  0.00    -0.352 N 
ATOM      3  C   UNL A   1      33.417  28.550  24.262  1.00  0.00     0.251 C 
ATOM      4  O   UNL A   1      34.241  28.654  23.350  1.00  0.00    -0.269 OA
ATOM      5  H   UNL A   1      33.275  30.520  24.312  1.00  0.00     0.163 HD
BRANCH   3   6
ATOM      6  C   UNL A   1      33.122  27.187  24.802  1.00  0.00     0.041 A 
ATOM      7  C   UNL A   1      31.793  23.395  26.489  1.00  0.00     0.046 C 
ATOM      8  C   UNL A   1      32.332  24.637  25.847  1.00  0.00    -0.031 A 
ATOM      9  C   UNL A   1      31.938  25.845  26.456  1.00  0.00     0.005 A 
ATOM     10  C   UNL A   1      33.123  24.733  24.693  1.00  0.00     0.086 A 
ATOM     11  C   UNL A   1      32.312  27.091  25.938  1.00  0.00     0.014 A 
ATOM     12  C   UNL A   1      33.531  25.997  24.216  1.00  0.00     0.035 A 
BRANCH  10  13
ATOM     13  S   UNL A   1      33.584  23.400  23.587  1.00  0.00     0.243 S 
ATOM     14  O   UNL A   1      32.339  22.810  23.153  1.00  0.00    -0.207 OA
ATOM     15  O   UNL A   1      34.519  23.958  22.627  1.00  0.00    -0.207 OA
BRANCH  13  16
ATOM     16  N   UNL A   1      34.445  22.285  24.503  1.00  0.00    -0.197 NA
ATOM     17  C   UNL A   1      33.858  20.941  24.603  1.00  0.00     0.125 C 
BRANCH  16  18
ATOM     18  C   UNL A   1      35.895  22.506  24.690  1.00  0.00     0.083 C 
ATOM     19  C   UNL A   1      36.202  23.498  25.808  1.00  0.00     0.032 C 
ATOM     20  C   UNL A   1      36.693  21.244  25.016  1.00  0.00     0.089 C 
ATOM     21  C   UNL A   1      37.715  23.595  25.848  1.00  0.00     0.071 C 
ATOM     22  S   UNL A   1      38.275  21.875  25.674  1.00  0.00    -0.160 SA
ENDBRANCH  16  18
ENDBRANCH  13  16
ENDBRANCH  10  13
ENDBRANCH   3   6
ENDBRANCH   1   2
BRANCH   1  23
ATOM     23  C   UNL A   1      32.273  31.013  26.767  1.00  0.00     0.042 C 
BRANCH  23  24
ATOM     24  C   UNL A   1      33.512  30.501  27.487  1.00  0.00     0.118 C 
BRANCH  24  25
ATOM     25  N   UNL A   1      34.130  31.464  28.399  1.00  0.00    -0.352 N 
ATOM     26  C   UNL A   1      35.312  31.347  29.118  1.00  0.00     0.251 C 
ATOM     27  H   UNL A   1      33.643  32.311  28.520  1.00  0.00     0.163 HD
ATOM     28  O   UNL A   1      35.690  32.240  29.866  1.00  0.00    -0.269 OA
BRANCH  26  29
ATOM     29  C   UNL A   1      36.178  30.176  28.854  1.00  0.00     0.039 A 
ATOM     30  C   UNL A   1      36.624  29.443  29.958  1.00  0.00     0.014 A 
ATOM     31  C   UNL A   1      36.805  30.058  27.619  1.00  0.00     0.014 A 
ATOM     32  C   UNL A   1      37.877  28.847  29.905  1.00  0.00     0.010 A 
ATOM     33  C   UNL A   1      38.095  29.575  27.598  1.00  0.00     0.010 A 
ATOM     34  C   UNL A   1      38.655  29.042  28.765  1.00  0.00    -0.014 A 
BRANCH  34  35
ATOM     35  C   UNL A   1      40.072  28.726  28.708  1.00  0.00     0.031 A 
ATOM     36  C   UNL A   1      40.465  27.373  28.277  1.00  0.00     0.074 A 
ATOM     37  C   UNL A   1      41.011  29.650  29.012  1.00  0.00     0.049 A 
ATOM     38  N   UNL A   1      41.525  26.763  28.683  1.00  0.00    -0.248 NA
ATOM     39  C   UNL A   1      39.636  26.566  27.391  1.00  0.00     0.031 C 
ATOM     40  C   UNL A   1      42.451  29.544  28.782  1.00  0.00     0.029 A 
ATOM     41  N   UNL A   1      40.864  30.841  29.742  1.00  0.00    -0.354 N 
ATOM     42  C   UNL A   1      41.659  25.615  27.936  1.00  0.00     0.074 A 
ATOM     43  C   UNL A   1      40.421  25.501  27.201  1.00  0.00     0.031 C 
ATOM     44  C   UNL A   1      43.086  30.429  29.566  1.00  0.00     0.029 A 
ATOM     45  C   UNL A   1      42.091  31.045  30.422  1.00  0.00     0.049 A 
ATOM     46  H   UNL A   1      40.068  31.419  29.775  1.00  0.00     0.167 HD
ATOM     47  C   UNL A   1      42.861  24.970  27.929  1.00  0.00     0.037 A 
ATOM     48  C   UNL A   1      42.163  31.115  31.785  1.00  0.00     0.037 A 
ATOM     49  C   UNL A   1      43.810  25.646  28.815  1.00  0.00     0.049 A 
ATOM     50  C   UNL A   1      42.992  30.018  32.399  1.00  0.00     0.074 A 
ATOM     51  C   UNL A   1      44.781  26.602  28.565  1.00  0.00     0.029 A 
ATOM     52  N   UNL A   1      43.607  25.639  30.193  1.00  0.00    -0.354 N 
ATOM     53  N   UNL A   1      43.333  28.934  31.762  1.00  0.00    -0.248 NA
ATOM     54  C   UNL A   1      43.448  30.025  33.785  1.00  0.00     0.031 C 
ATOM     55  C   UNL A   1      45.122  27.210  29.796  1.00  0.00     0.029 A 
ATOM     56  C   UNL A   1      44.383  26.609  30.801  1.00  0.00     0.049 A 
ATOM     57  H   UNL A   1      42.994  25.030  30.666  1.00  0.00     0.167 HD
ATOM     58  C   UNL A   1      43.973  28.084  32.623  1.00  0.00     0.074 A 
ATOM     59  C   UNL A   1      44.057  28.830  33.866  1.00  0.00     0.031 C 
ATOM     60  C   UNL A   1      44.344  26.827  32.241  1.00  0.00     0.037 A 
BRANCH  47  61
ATOM     61  C   UNL A   1      43.275  23.942  26.895  1.00  0.00     0.064 A 
ATOM     62  C   UNL A   1      42.847  22.599  27.007  1.00  0.00     0.173 A 
ATOM     63  C   UNL A   1      44.134  24.188  25.807  1.00  0.00     0.173 A 
ATOM     64  F   UNL A   1      41.934  22.229  27.914  1.00  0.00    -0.203 F 
ATOM     65  C   UNL A   1      43.339  21.579  26.188  1.00  0.00     0.198 A 
ATOM     66  C   UNL A   1      44.669  23.161  25.021  1.00  0.00     0.198 A 
ATOM     67  F   UNL A   1      44.432  25.434  25.421  1.00  0.00    -0.203 F 
ATOM     68  F   UNL A   1      42.900  20.323  26.353  1.00  0.00    -0.200 F 
ATOM     69  C   UNL A   1      44.282  21.854  25.220  1.00  0.00     0.200 A 
ATOM     70  F   UNL A   1      45.562  23.455  24.064  1.00  0.00    -0.200 F 
ATOM     71  F   UNL A   1      44.788  20.871  24.463  1.00  0.00    -0.200 F 
ENDBRANCH  47  61
BRANCH  48  72
ATOM     72  C   UNL A   1      40.928  31.685  32.385  1.00  0.00     0.064 A 
ATOM     73  C   UNL A   1      40.036  30.767  32.970  1.00  0.00     0.173 A 
ATOM     74  C   UNL A   1      40.918  33.003  32.853  1.00  0.00     0.173 A 
ATOM     75  F   UNL A   1      39.976  29.507  32.512  1.00  0.00    -0.203 F 
ATOM     76  C   UNL A   1      39.360  31.087  34.139  1.00  0.00     0.198 A 
ATOM     77  C   UNL A   1      40.207  33.327  34.007  1.00  0.00     0.198 A 
ATOM     78  F   UNL A   1      41.706  33.931  32.293  1.00  0.00    -0.203 F 
ATOM     79  F   UNL A   1      38.677  30.137  34.794  1.00  0.00    -0.200 F 
ATOM     80  C   UNL A   1      39.494  32.350  34.689  1.00  0.00     0.200 A 
ATOM     81  F   UNL A   1      40.302  34.563  34.519  1.00  0.00    -0.200 F 
ATOM     82  F   UNL A   1      38.982  32.607  35.900  1.00  0.00    -0.200 F 
ENDBRANCH  48  72
BRANCH  60  83
ATOM     83  C   UNL A   1      44.813  25.741  33.178  1.00  0.00     0.064 A 
ATOM     84  C   UNL A   1      46.130  25.253  33.217  1.00  0.00     0.173 A 
ATOM     85  C   UNL A   1      43.945  25.225  34.170  1.00  0.00     0.173 A 
ATOM     86  F   UNL A   1      47.092  25.773  32.443  1.00  0.00    -0.203 F 
ATOM     87  C   UNL A   1      46.520  24.245  34.102  1.00  0.00     0.198 A 
ATOM     88  C   UNL A   1      44.357  24.269  35.097  1.00  0.00     0.198 A 
ATOM     89  F   UNL A   1      42.679  25.651  34.284  1.00  0.00    -0.203 F 
ATOM     90  F   UNL A   1      47.770  23.764  34.048  1.00  0.00    -0.200 F 
ATOM     91  C   UNL A   1      45.636  23.756  35.044  1.00  0.00     0.200 A 
ATOM     92  F   UNL A   1      43.508  23.859  36.050  1.00  0.00    -0.200 F 
ATOM     93  F   UNL A   1      46.023  22.814  35.913  1.00  0.00    -0.200 F 
ENDBRANCH  60  83
ENDBRANCH  34  35
ENDBRANCH  26  29
ENDBRANCH  24  25
ENDBRANCH  23  24
ENDBRANCH   1  23
TORSDOF 13
ENDMDL
MODEL 2
REMARK VINA RESULT:     -12.9      1.137      1.876
REMARK SMILES Cc1ccc(C(=O)NCCCNC(=O)c2ccc(-c3c4nc(c(-c5c(F)c(F)c(F)c(F)c5F)c5ccc([nH]5)c(-c5c(F)c(F)c(F)c(F)c5F)c5nc(c(-c6c(F)c(F)c(F)c(F)c6F)c6ccc3[nH]6)C=C5)C=C4)cc2)cc1S(=O)(=O)N(C)[C@H]1CCSC1
REMARK SMILES IDX 9 1 8 2 6 3 7 4 5 6 1 7 2 8 3 9 79 10 4 11 78 12 80 13 81 14
REMARK SMILES IDX 82 15 83 16 84 17 85 18 86 19 89 20 87 21 88 22 10 23 11 24
REMARK SMILES IDX 12 25 13 26 14 28 15 29 16 30 77 31 17 32 76 33 18 34 19 35
REMARK SMILES IDX 20 36 70 37 21 38 75 39 69 40 71 41 22 42 74 43 68 44 67 45
REMARK SMILES IDX 23 47 55 48 35 49 54 50 36 51 39 52 53 53 72 54 37 55 38 56
REMARK SMILES IDX 52 58 73 59 40 60 24 61 25 62 33 63 26 64 27 65 31 66 34 67
REMARK SMILES IDX 28 68 29 69 32 70 30 71 56 72 57 73 65 74 58 75 59 76 63 77
REMARK SMILES IDX 66 78 60 79 61 80 64 81 62 82 41 83 42 84 50 85 43 86 44 87
REMARK SMILES IDX 48 88 51 89 45 90 46 91 49 92 47 93
REMARK H PARENT 8 5 12 27 71 46 39 57
REMARK Flexibility Score: inf
ROOT
ATOM      1  C   UNL A   1      31.728  30.302  25.805  1.00  0.00     0.118 C 
ENDROOT
BRANCH   1   2
ATOM      2  N   UNL A   1      32.775  29.770  24.940  1.00  0.00    -0.352 N 
ATOM      3  C   UNL A   1      33.172  28.508  24.568  1.00  0.00     0.251 C 
ATOM      4  O   UNL A   1      34.052  28.444  23.707  1.00  0.00    -0.269 OA
ATOM      5  H   UNL A   1      33.323  30.477  24.527  1.00  0.00     0.163 HD
BRANCH   3   6
ATOM      6  C   UNL A   1      32.646  27.232  25.144  1.00  0.00     0.041 A 
ATOM      7  C   UNL A   1      30.714  23.570  26.503  1.00  0.00     0.046 C 
ATOM      8  C   UNL A   1      31.482  24.783  26.076  1.00  0.00    -0.031 A 
ATOM      9  C   UNL A   1      30.697  25.916  25.781  1.00  0.00     0.005 A 
ATOM     10  C   UNL A   1      32.866  24.900  25.882  1.00  0.00     0.086 A 
ATOM     11  C   UNL A   1      31.263  27.107  25.313  1.00  0.00     0.014 A 
ATOM     12  C   UNL A   1      33.422  26.125  25.458  1.00  0.00     0.035 A 
BRANCH  10  13
ATOM     13  S   UNL A   1      34.079  23.582  25.955  1.00  0.00     0.243 S 
ATOM     14  O   UNL A   1      35.358  24.222  25.747  1.00  0.00    -0.207 OA
ATOM     15  O   UNL A   1      33.810  22.833  27.168  1.00  0.00    -0.207 OA
BRANCH  13  16
ATOM     16  N   UNL A   1      33.753  22.549  24.670  1.00  0.00    -0.197 NA
ATOM     17  C   UNL A   1      34.154  23.027  23.339  1.00  0.00     0.125 C 
BRANCH  16  18
ATOM     18  C   UNL A   1      33.602  21.106  24.956  1.00  0.00     0.083 C 
ATOM     19  C   UNL A   1      32.543  20.439  24.083  1.00  0.00     0.032 C 
ATOM     20  C   UNL A   1      34.878  20.286  24.771  1.00  0.00     0.089 C 
ATOM     21  C   UNL A   1      32.531  18.985  24.515  1.00  0.00     0.071 C 
ATOM     22  S   UNL A   1      34.289  18.559  24.689  1.00  0.00    -0.160 SA
ENDBRANCH  16  18
ENDBRANCH  13  16
ENDBRANCH  10  13
ENDBRANCH   3   6
ENDBRANCH   1   2
BRANCH   1  23
ATOM     23  C   UNL A   1      32.273  31.202  26.917  1.00  0.00     0.042 C 
BRANCH  23  24
ATOM     24  C   UNL A   1      33.619  30.722  27.436  1.00  0.00     0.118 C 
BRANCH  24  25
ATOM     25  N   UNL A   1      34.269  31.630  28.382  1.00  0.00    -0.352 N 
ATOM     26  C   UNL A   1      35.404  31.418  29.152  1.00  0.00     0.251 C 
ATOM     27  H   UNL A   1      33.844  32.512  28.486  1.00  0.00     0.163 HD
ATOM     28  O   UNL A   1      35.817  32.276  29.922  1.00  0.00    -0.269 OA
BRANCH  26  29
ATOM     29  C   UNL A   1      36.188  30.184  28.919  1.00  0.00     0.039 A 
ATOM     30  C   UNL A   1      36.635  29.484  30.044  1.00  0.00     0.014 A 
ATOM     31  C   UNL A   1      36.753  29.963  27.669  1.00  0.00     0.014 A 
ATOM     32  C   UNL A   1      37.847  28.810  29.974  1.00  0.00     0.010 A 
ATOM     33  C   UNL A   1      38.010  29.401  27.625  1.00  0.00     0.010 A 
ATOM     34  C   UNL A   1      38.587  28.896  28.797  1.00  0.00    -0.014 A 
BRANCH  34  35
ATOM     35  C   UNL A   1      39.979  28.490  28.701  1.00  0.00     0.031 A 
ATOM     36  C   UNL A   1      40.271  27.078  28.403  1.00  0.00     0.074 A 
ATOM     37  C   UNL A   1      40.982  29.383  28.853  1.00  0.00     0.049 A 
ATOM     38  N   UNL A   1      41.318  26.452  28.818  1.00  0.00    -0.248 NA
ATOM     39  C   UNL A   1      39.350  26.232  27.655  1.00  0.00     0.031 C 
ATOM     40  C   UNL A   1      42.398  29.166  28.563  1.00  0.00     0.029 A 
ATOM     41  N   UNL A   1      40.943  30.652  29.454  1.00  0.00    -0.354 N 
ATOM     42  C   UNL A   1      41.346  25.225  28.196  1.00  0.00     0.074 A 
ATOM     43  C   UNL A   1      40.063  25.108  27.543  1.00  0.00     0.031 C 
ATOM     44  C   UNL A   1      43.125  30.090  29.210  1.00  0.00     0.029 A 
ATOM     45  C   UNL A   1      42.216  30.854  30.043  1.00  0.00     0.049 A 
ATOM     46  H   UNL A   1      40.182  31.277  29.465  1.00  0.00     0.167 HD
ATOM     47  C   UNL A   1      42.509  24.511  28.199  1.00  0.00     0.037 A 
ATOM     48  C   UNL A   1      42.371  31.064  31.385  1.00  0.00     0.037 A 
ATOM     49  C   UNL A   1      43.542  25.219  28.954  1.00  0.00     0.049 A 
ATOM     50  C   UNL A   1      43.173  29.991  32.073  1.00  0.00     0.074 A 
ATOM     51  C   UNL A   1      44.548  26.082  28.551  1.00  0.00     0.029 A 
ATOM     52  N   UNL A   1      43.419  25.372  30.333  1.00  0.00    -0.354 N 
ATOM     53  N   UNL A   1      43.416  28.826  31.542  1.00  0.00    -0.248 NA
ATOM     54  C   UNL A   1      43.708  30.119  33.424  1.00  0.00     0.031 C 
ATOM     55  C   UNL A   1      44.993  26.797  29.689  1.00  0.00     0.029 A 
ATOM     56  C   UNL A   1      44.281  26.352  30.790  1.00  0.00     0.049 A 
ATOM     57  H   UNL A   1      42.803  24.855  30.902  1.00  0.00     0.167 HD
ATOM     58  C   UNL A   1      44.058  28.036  32.458  1.00  0.00     0.074 A 
ATOM     59  C   UNL A   1      44.254  28.905  33.604  1.00  0.00     0.031 C 
ATOM     60  C   UNL A   1      44.337  26.725  32.198  1.00  0.00     0.037 A 
BRANCH  47  61
ATOM     61  C   UNL A   1      42.806  23.355  27.264  1.00  0.00     0.064 A 
ATOM     62  C   UNL A   1      42.226  22.085  27.487  1.00  0.00     0.173 A 
ATOM     63  C   UNL A   1      43.690  23.405  26.170  1.00  0.00     0.173 A 
ATOM     64  F   UNL A   1      41.274  21.902  28.411  1.00  0.00    -0.203 F 
ATOM     65  C   UNL A   1      42.601  20.947  26.767  1.00  0.00     0.198 A 
ATOM     66  C   UNL A   1      44.108  22.258  25.484  1.00  0.00     0.198 A 
ATOM     67  F   UNL A   1      44.131  24.569  25.680  1.00  0.00    -0.203 F 
ATOM     68  F   UNL A   1      42.020  19.769  27.035  1.00  0.00    -0.200 F 
ATOM     69  C   UNL A   1      43.572  21.026  25.792  1.00  0.00     0.200 A 
ATOM     70  F   UNL A   1      45.031  22.362  24.517  1.00  0.00    -0.200 F 
ATOM     71  F   UNL A   1      43.965  19.929  25.131  1.00  0.00    -0.200 F 
ENDBRANCH  47  61
BRANCH  48  72
ATOM     72  C   UNL A   1      41.205  31.768  31.981  1.00  0.00     0.064 A 
ATOM     73  C   UNL A   1      40.287  30.970  32.689  1.00  0.00     0.173 A 
ATOM     74  C   UNL A   1      41.301  33.122  32.323  1.00  0.00     0.173 A 
ATOM     75  F   UNL A   1      40.125  29.680  32.355  1.00  0.00    -0.203 F 
ATOM     76  C   UNL A   1      39.691  31.441  33.851  1.00  0.00     0.198 A 
ATOM     77  C   UNL A   1      40.670  33.598  33.471  1.00  0.00     0.198 A 
ATOM     78  F   UNL A   1      42.118  33.939  31.643  1.00  0.00    -0.203 F 
ATOM     79  F   UNL A   1      38.983  30.603  34.622  1.00  0.00    -0.200 F 
ATOM     80  C   UNL A   1      39.932  32.737  34.272  1.00  0.00     0.200 A 
ATOM     81  F   UNL A   1      40.869  34.865  33.859  1.00  0.00    -0.200 F 
ATOM     82  F   UNL A   1      39.497  33.139  35.475  1.00  0.00    -0.200 F 
ENDBRANCH  48  72
BRANCH  60  83
ATOM     83  C   UNL A   1      44.799  25.720  33.223  1.00  0.00     0.064 A 
ATOM     84  C   UNL A   1      43.949  25.104  34.157  1.00  0.00     0.173 A 
ATOM     85  C   UNL A   1      46.135  25.252  33.219  1.00  0.00     0.173 A 
ATOM     86  F   UNL A   1      42.629  25.334  34.160  1.00  0.00    -0.203 F 
ATOM     87  C   UNL A   1      44.421  24.178  35.090  1.00  0.00     0.198 A 
ATOM     88  C   UNL A   1      46.586  24.277  34.106  1.00  0.00     0.198 A 
ATOM     89  F   UNL A   1      47.036  25.711  32.338  1.00  0.00    -0.203 F 
ATOM     90  F   UNL A   1      43.581  23.675  36.006  1.00  0.00    -0.200 F 
ATOM     91  C   UNL A   1      45.737  23.761  35.063  1.00  0.00     0.200 A 
ATOM     92  F   UNL A   1      47.848  23.831  34.018  1.00  0.00    -0.200 F 
ATOM     93  F   UNL A   1      46.178  22.847  35.937  1.00  0.00    -0.200 F 
ENDBRANCH  60  83
ENDBRANCH  34  35
ENDBRANCH  26  29
ENDBRANCH  24  25
ENDBRANCH  23  24
ENDBRANCH   1  23
TORSDOF 13
ENDMDL
MODEL 3
REMARK VINA RESULT:     -12.8      1.771      2.779
REMARK SMILES Cc1ccc(C(=O)NCCCNC(=O)c2ccc(-c3c4nc(c(-c5c(F)c(F)c(F)c(F)c5F)c5ccc([nH]5)c(-c5c(F)c(F)c(F)c(F)c5F)c5nc(c(-c6c(F)c(F)c(F)c(F)c6F)c6ccc3[nH]6)C=C5)C=C4)cc2)cc1S(=O)(=O)N(C)[C@H]1CCSC1
REMARK SMILES IDX 9 1 8 2 6 3 7 4 5 6 1 7 2 8 3 9 79 10 4 11 78 12 80 13 81 14
REMARK SMILES IDX 82 15 83 16 84 17 85 18 86 19 89 20 87 21 88 22 10 23 11 24
REMARK SMILES IDX 12 25 13 26 14 28 15 29 16 30 77 31 17 32 76 33 18 34 19 35
REMARK SMILES IDX 20 36 70 37 21 38 75 39 69 40 71 41 22 42 74 43 68 44 67 45
REMARK SMILES IDX 23 47 55 48 35 49 54 50 36 51 39 52 53 53 72 54 37 55 38 56
REMARK SMILES IDX 52 58 73 59 40 60 24 61 25 62 33 63 26 64 27 65 31 66 34 67
REMARK SMILES IDX 28 68 29 69 32 70 30 71 56 72 57 73 65 74 58 75 59 76 63 77
REMARK SMILES IDX 66 78 60 79 61 80 64 81 62 82 41 83 42 84 50 85 43 86 44 87
REMARK SMILES IDX 48 88 51 89 45 90 46 91 49 92 47 93
REMARK H PARENT 8 5 12 27 71 46 39 57
REMARK Flexibility Score: inf
ROOT
ATOM      1  C   UNL A   1      33.218  29.869  26.161  1.00  0.00     0.118 C 
ENDROOT
BRANCH   1   2
ATOM      2  N   UNL A   1      33.277  29.641  24.720  1.00  0.00    -0.352 N 
ATOM      3  C   UNL A   1      32.959  28.590  23.895  1.00  0.00     0.251 C 
ATOM      4  O   UNL A   1      33.038  28.803  22.683  1.00  0.00    -0.269 OA
ATOM      5  H   UNL A   1      33.626  30.419  24.227  1.00  0.00     0.163 HD
BRANCH   3   6
ATOM      6  C   UNL A   1      32.559  27.222  24.352  1.00  0.00     0.041 A 
ATOM      7  C   UNL A   1      30.913  23.414  25.685  1.00  0.00     0.046 C 
ATOM      8  C   UNL A   1      31.575  24.662  25.186  1.00  0.00    -0.031 A 
ATOM      9  C   UNL A   1      31.035  25.865  25.683  1.00  0.00     0.005 A 
ATOM     10  C   UNL A   1      32.614  24.769  24.251  1.00  0.00     0.086 A 
ATOM     11  C   UNL A   1      31.505  27.116  25.266  1.00  0.00     0.014 A 
ATOM     12  C   UNL A   1      33.109  26.038  23.882  1.00  0.00     0.035 A 
BRANCH  10  13
ATOM     13  S   UNL A   1      33.337  23.442  23.287  1.00  0.00     0.243 S 
ATOM     14  O   UNL A   1      32.221  22.730  22.710  1.00  0.00    -0.207 OA
ATOM     15  O   UNL A   1      34.353  24.045  22.443  1.00  0.00    -0.207 OA
BRANCH  13  16
ATOM     16  N   UNL A   1      34.145  22.441  24.368  1.00  0.00    -0.197 NA
ATOM     17  C   UNL A   1      33.523  21.134  24.625  1.00  0.00     0.125 C 
BRANCH  16  18
ATOM     18  C   UNL A   1      35.594  22.655  24.570  1.00  0.00     0.083 C 
ATOM     19  C   UNL A   1      35.895  23.604  25.726  1.00  0.00     0.032 C 
ATOM     20  C   UNL A   1      36.391  21.382  24.850  1.00  0.00     0.089 C 
ATOM     21  C   UNL A   1      37.408  23.700  25.777  1.00  0.00     0.071 C 
ATOM     22  S   UNL A   1      37.970  21.989  25.539  1.00  0.00    -0.160 SA
ENDBRANCH  16  18
ENDBRANCH  13  16
ENDBRANCH  10  13
ENDBRANCH   3   6
ENDBRANCH   1   2
BRANCH   1  23
ATOM     23  C   UNL A   1      34.492  29.430  26.887  1.00  0.00     0.042 C 
BRANCH  23  24
ATOM     24  C   UNL A   1      35.004  30.496  27.843  1.00  0.00     0.118 C 
BRANCH  24  25
ATOM     25  N   UNL A   1      34.055  31.576  28.120  1.00  0.00    -0.352 N 
ATOM     26  C   UNL A   1      34.180  32.639  29.003  1.00  0.00     0.251 C 
ATOM     27  H   UNL A   1      33.214  31.544  27.610  1.00  0.00     0.163 HD
ATOM     28  O   UNL A   1      33.280  33.458  29.141  1.00  0.00    -0.269 OA
BRANCH  26  29
ATOM     29  C   UNL A   1      35.485  32.843  29.672  1.00  0.00     0.039 A 
ATOM     30  C   UNL A   1      36.428  33.638  29.015  1.00  0.00     0.014 A 
ATOM     31  C   UNL A   1      35.864  31.985  30.698  1.00  0.00     0.014 A 
ATOM     32  C   UNL A   1      37.777  33.339  29.165  1.00  0.00     0.010 A 
ATOM     33  C   UNL A   1      37.187  31.605  30.759  1.00  0.00     0.010 A 
ATOM     34  C   UNL A   1      38.128  32.231  29.933  1.00  0.00    -0.014 A 
BRANCH  34  35
ATOM     35  C   UNL A   1      39.460  31.649  29.925  1.00  0.00     0.031 A 
ATOM     36  C   UNL A   1      39.634  30.319  29.317  1.00  0.00     0.074 A 
ATOM     37  C   UNL A   1      40.519  32.315  30.436  1.00  0.00     0.049 A 
ATOM     38  N   UNL A   1      40.515  29.460  29.695  1.00  0.00    -0.248 NA
ATOM     39  C   UNL A   1      38.762  29.826  28.259  1.00  0.00     0.031 C 
ATOM     40  C   UNL A   1      41.929  31.958  30.295  1.00  0.00     0.029 A 
ATOM     41  N   UNL A   1      40.525  33.398  31.332  1.00  0.00    -0.354 N 
ATOM     42  C   UNL A   1      40.507  28.424  28.788  1.00  0.00     0.074 A 
ATOM     43  C   UNL A   1      39.348  28.664  27.960  1.00  0.00     0.031 C 
ATOM     44  C   UNL A   1      42.637  32.579  31.250  1.00  0.00     0.029 A 
ATOM     45  C   UNL A   1      41.695  33.256  32.120  1.00  0.00     0.049 A 
ATOM     46  H   UNL A   1      39.851  34.112  31.400  1.00  0.00     0.167 HD
ATOM     47  C   UNL A   1      41.562  27.560  28.765  1.00  0.00     0.037 A 
ATOM     48  C   UNL A   1      41.642  33.117  33.479  1.00  0.00     0.037 A 
ATOM     49  C   UNL A   1      42.527  27.901  29.811  1.00  0.00     0.049 A 
ATOM     50  C   UNL A   1      42.187  31.802  33.970  1.00  0.00     0.074 A 
ATOM     51  C   UNL A   1      43.679  28.670  29.783  1.00  0.00     0.029 A 
ATOM     52  N   UNL A   1      42.190  27.742  31.152  1.00  0.00    -0.354 N 
ATOM     53  N   UNL A   1      42.381  30.772  33.197  1.00  0.00    -0.248 NA
ATOM     54  C   UNL A   1      42.496  31.524  35.369  1.00  0.00     0.031 C 
ATOM     55  C   UNL A   1      44.004  29.019  31.115  1.00  0.00     0.029 A 
ATOM     56  C   UNL A   1      43.069  28.443  31.958  1.00  0.00     0.049 A 
ATOM     57  H   UNL A   1      41.431  27.207  31.480  1.00  0.00     0.167 HD
ATOM     58  C   UNL A   1      42.762  29.700  33.957  1.00  0.00     0.074 A 
ATOM     59  C   UNL A   1      42.860  30.232  35.304  1.00  0.00     0.031 C 
ATOM     60  C   UNL A   1      42.928  28.460  33.409  1.00  0.00     0.037 A 
BRANCH  47  61
ATOM     61  C   UNL A   1      41.878  26.625  27.614  1.00  0.00     0.064 A 
ATOM     62  C   UNL A   1      41.223  25.377  27.503  1.00  0.00     0.173 A 
ATOM     63  C   UNL A   1      42.848  26.861  26.622  1.00  0.00     0.173 A 
ATOM     64  F   UNL A   1      40.193  25.054  28.295  1.00  0.00    -0.203 F 
ATOM     65  C   UNL A   1      41.600  24.408  26.570  1.00  0.00     0.198 A 
ATOM     66  C   UNL A   1      43.264  25.873  25.724  1.00  0.00     0.198 A 
ATOM     67  F   UNL A   1      43.381  28.075  26.441  1.00  0.00    -0.203 F 
ATOM     68  F   UNL A   1      40.944  23.239  26.524  1.00  0.00    -0.200 F 
ATOM     69  C   UNL A   1      42.649  24.640  25.706  1.00  0.00     0.200 A 
ATOM     70  F   UNL A   1      44.266  26.131  24.870  1.00  0.00    -0.200 F 
ATOM     71  F   UNL A   1      43.041  23.695  24.840  1.00  0.00    -0.200 F 
ENDBRANCH  47  61
BRANCH  48  72
ATOM     72  C   UNL A   1      40.482  33.832  34.073  1.00  0.00     0.064 A 
ATOM     73  C   UNL A   1      39.376  33.040  34.431  1.00  0.00     0.173 A 
ATOM     74  C   UNL A   1      40.673  35.041  34.750  1.00  0.00     0.173 A 
ATOM     75  F   UNL A   1      39.126  31.899  33.769  1.00  0.00    -0.203 F 
ATOM     76  C   UNL A   1      38.654  33.315  35.585  1.00  0.00     0.198 A 
ATOM     77  C   UNL A   1      39.919  35.330  35.887  1.00  0.00     0.198 A 
ATOM     78  F   UNL A   1      41.677  35.862  34.410  1.00  0.00    -0.203 F 
ATOM     79  F   UNL A   1      37.739  32.438  36.022  1.00  0.00    -0.200 F 
ATOM     80  C   UNL A   1      38.967  34.429  36.344  1.00  0.00     0.200 A 
ATOM     81  F   UNL A   1      40.193  36.431  36.601  1.00  0.00    -0.200 F 
ATOM     82  F   UNL A   1      38.389  34.604  37.540  1.00  0.00    -0.200 F 
ENDBRANCH  48  72
BRANCH  60  83
ATOM     83  C   UNL A   1      43.090  27.182  34.195  1.00  0.00     0.064 A 
ATOM     84  C   UNL A   1      42.016  26.404  34.658  1.00  0.00     0.173 A 
ATOM     85  C   UNL A   1      44.376  26.632  34.413  1.00  0.00     0.173 A 
ATOM     86  F   UNL A   1      40.746  26.725  34.376  1.00  0.00    -0.203 F 
ATOM     87  C   UNL A   1      42.213  25.226  35.383  1.00  0.00     0.198 A 
ATOM     88  C   UNL A   1      44.566  25.421  35.076  1.00  0.00     0.198 A 
ATOM     89  F   UNL A   1      45.484  27.241  33.967  1.00  0.00    -0.203 F 
ATOM     90  F   UNL A   1      41.154  24.561  35.865  1.00  0.00    -0.200 F 
ATOM     91  C   UNL A   1      43.486  24.733  35.589  1.00  0.00     0.200 A 
ATOM     92  F   UNL A   1      45.803  24.920  35.204  1.00  0.00    -0.200 F 
ATOM     93  F   UNL A   1      43.670  23.586  36.255  1.00  0.00    -0.200 F 
ENDBRANCH  60  83
ENDBRANCH  34  35
ENDBRANCH  26  29
ENDBRANCH  24  25
ENDBRANCH  23  24
ENDBRANCH   1  23
TORSDOF 13
ENDMDL
