MODEL 1
REMARK VINA RESULT:     -10.6      0.000      0.000
REMARK SMILES C[C@H](c1ccc(Br)s1)[NH+]1CCC(CC(=O)NCCCNC(=O)c2ccc(-c3c4nc(c(-c5c(F)c(F)c(F)c(F)c5F)c5ccc([nH]5)c(-c5c(F)c(F)c(F)c(F)c5F)c5nc(c(-c6c(F)c(F)c(F)c(F)c6F)c6ccc3[nH]6)C=C5)C=C4)cc2)CC1
REMARK SMILES IDX 17 1 16 2 14 3 15 4 13 6 12 7 9 8 10 9 87 10 11 12 86 13
REMARK SMILES IDX 2 14 1 15 3 16 4 17 8 18 5 19 6 20 7 21 18 22 19 23 20 24
REMARK SMILES IDX 21 25 22 27 23 28 24 29 85 30 25 31 84 32 26 33 27 34 28 35
REMARK SMILES IDX 78 36 29 37 83 38 77 39 79 40 30 41 82 42 76 43 75 44 31 46
REMARK SMILES IDX 63 47 43 48 62 49 44 50 47 51 61 52 80 53 45 54 46 55 60 57
REMARK SMILES IDX 81 58 48 59 32 60 33 61 41 62 34 63 35 64 39 65 42 66 36 67
REMARK SMILES IDX 37 68 40 69 38 70 64 71 65 72 73 73 66 74 67 75 71 76 74 77
REMARK SMILES IDX 68 78 69 79 72 80 70 81 49 82 50 83 58 84 51 85 52 86 56 87
REMARK SMILES IDX 59 88 53 89 54 90 57 91 55 92
REMARK H PARENT 16 5 9 11 20 26 79 45 47 56
REMARK Flexibility Score: inf
ROOT
ATOM      1  C   UNL A   1      41.573  19.585  26.014  1.00  0.00     0.117 C 
ENDROOT
BRANCH   1   2
ATOM      2  N   UNL A   1      42.766  18.747  26.037  1.00  0.00    -0.356 N 
ATOM      3  C   UNL A   1      43.981  18.889  25.430  1.00  0.00     0.220 C 
ATOM      4  O   UNL A   1      44.842  18.036  25.657  1.00  0.00    -0.275 OA
ATOM      5  H   UNL A   1      42.681  17.935  26.588  1.00  0.00     0.163 HD
BRANCH   3   6
ATOM      6  C   UNL A   1      44.254  20.030  24.461  1.00  0.00     0.104 C 
BRANCH   6   7
ATOM      7  C   UNL A   1      45.237  21.066  25.036  1.00  0.00     0.009 C 
ATOM      8  N   UNL A   1      45.821  23.927  25.438  1.00  0.00    -0.328 N 
ATOM      9  C   UNL A   1      46.566  23.159  24.446  1.00  0.00     0.263 C 
ATOM     10  C   UNL A   1      45.471  23.077  26.589  1.00  0.00     0.263 C 
ATOM     11  H   UNL A   1      44.956  24.225  24.985  1.00  0.00     0.348 HD
ATOM     12  C   UNL A   1      45.720  22.007  23.941  1.00  0.00     0.066 C 
ATOM     13  C   UNL A   1      44.596  21.887  26.165  1.00  0.00     0.066 C 
BRANCH   8  14
ATOM     14  C   UNL A   1      46.463  25.203  25.836  1.00  0.00     0.222 C 
ATOM     15  C   UNL A   1      47.346  25.040  27.087  1.00  0.00     0.082 C 
BRANCH  14  16
ATOM     16  C   UNL A   1      45.491  26.357  26.006  1.00  0.00     0.063 A 
ATOM     17  C   UNL A   1      44.199  26.506  25.525  1.00  0.00     0.023 A 
ATOM     18  S   UNL A   1      45.970  27.746  26.905  1.00  0.00    -0.127 S 
ATOM     19  C   UNL A   1      43.652  27.792  25.810  1.00  0.00     0.028 A 
ATOM     20  C   UNL A   1      44.523  28.546  26.550  1.00  0.00     0.070 A 
ATOM     21  Br  UNL A   1      44.156  30.292  27.115  1.00  0.00    -0.039 Br
ENDBRANCH  14  16
ENDBRANCH   8  14
ENDBRANCH   6   7
ENDBRANCH   3   6
ENDBRANCH   1   2
BRANCH   1  22
ATOM     22  C   UNL A   1      41.331  20.350  27.320  1.00  0.00     0.042 C 
BRANCH  22  23
ATOM     23  C   UNL A   1      41.100  21.847  27.154  1.00  0.00     0.118 C 
BRANCH  23  24
ATOM     24  N   UNL A   1      39.974  22.117  26.279  1.00  0.00    -0.352 N 
ATOM     25  C   UNL A   1      39.094  23.173  26.263  1.00  0.00     0.251 C 
ATOM     26  H   UNL A   1      39.813  21.434  25.588  1.00  0.00     0.163 HD
ATOM     27  O   UNL A   1      38.049  23.063  25.626  1.00  0.00    -0.269 OA
BRANCH  25  28
ATOM     28  C   UNL A   1      39.369  24.441  26.988  1.00  0.00     0.039 A 
ATOM     29  C   UNL A   1      40.132  25.424  26.344  1.00  0.00     0.014 A 
ATOM     30  C   UNL A   1      38.991  24.637  28.318  1.00  0.00     0.014 A 
ATOM     31  C   UNL A   1      40.488  26.600  27.017  1.00  0.00     0.010 A 
ATOM     32  C   UNL A   1      39.287  25.839  28.967  1.00  0.00     0.010 A 
ATOM     33  C   UNL A   1      40.057  26.825  28.333  1.00  0.00    -0.014 A 
BRANCH  33  34
ATOM     34  C   UNL A   1      40.452  28.052  29.079  1.00  0.00     0.031 A 
ATOM     35  C   UNL A   1      41.848  28.183  29.630  1.00  0.00     0.074 A 
ATOM     36  C   UNL A   1      39.555  29.034  29.298  1.00  0.00     0.049 A 
ATOM     37  N   UNL A   1      42.358  29.122  30.389  1.00  0.00    -0.248 NA
ATOM     38  C   UNL A   1      42.792  27.104  29.299  1.00  0.00     0.031 C 
ATOM     39  C   UNL A   1      38.169  29.034  28.831  1.00  0.00     0.029 A 
ATOM     40  N   UNL A   1      39.677  30.221  29.977  1.00  0.00    -0.354 N 
ATOM     41  C   UNL A   1      43.669  28.737  30.641  1.00  0.00     0.074 A 
ATOM     42  C   UNL A   1      43.865  27.459  29.990  1.00  0.00     0.031 C 
ATOM     43  C   UNL A   1      37.573  30.173  29.223  1.00  0.00     0.029 A 
ATOM     44  C   UNL A   1      38.522  30.965  30.001  1.00  0.00     0.049 A 
ATOM     45  H   UNL A   1      40.513  30.513  30.408  1.00  0.00     0.167 HD
ATOM     46  C   UNL A   1      44.631  29.395  31.331  1.00  0.00     0.037 A 
ATOM     47  C   UNL A   1      38.255  32.148  30.589  1.00  0.00     0.037 A 
ATOM     48  C   UNL A   1      44.453  30.682  31.951  1.00  0.00     0.049 A 
ATOM     49  C   UNL A   1      39.337  32.851  31.367  1.00  0.00     0.074 A 
ATOM     50  C   UNL A   1      45.377  31.440  32.650  1.00  0.00     0.029 A 
ATOM     51  N   UNL A   1      43.271  31.406  31.938  1.00  0.00    -0.354 N 
ATOM     52  N   UNL A   1      40.578  32.486  31.574  1.00  0.00    -0.248 NA
ATOM     53  C   UNL A   1      38.978  34.133  31.991  1.00  0.00     0.031 C 
ATOM     54  C   UNL A   1      44.747  32.611  33.083  1.00  0.00     0.029 A 
ATOM     55  C   UNL A   1      43.441  32.600  32.622  1.00  0.00     0.049 A 
ATOM     56  H   UNL A   1      42.435  31.117  31.506  1.00  0.00     0.167 HD
ATOM     57  C   UNL A   1      41.155  33.505  32.320  1.00  0.00     0.074 A 
ATOM     58  C   UNL A   1      40.132  34.508  32.523  1.00  0.00     0.031 C 
ATOM     59  C   UNL A   1      42.421  33.599  32.794  1.00  0.00     0.037 A 
BRANCH  46  60
ATOM     60  C   UNL A   1      45.977  28.741  31.443  1.00  0.00     0.064 A 
ATOM     61  C   UNL A   1      46.263  27.828  32.470  1.00  0.00     0.173 A 
ATOM     62  C   UNL A   1      46.976  28.992  30.491  1.00  0.00     0.173 A 
ATOM     63  F   UNL A   1      45.344  27.562  33.411  1.00  0.00    -0.203 F 
ATOM     64  C   UNL A   1      47.507  27.209  32.553  1.00  0.00     0.198 A 
ATOM     65  C   UNL A   1      48.210  28.352  30.561  1.00  0.00     0.198 A 
ATOM     66  F   UNL A   1      46.751  29.850  29.485  1.00  0.00    -0.203 F 
ATOM     67  F   UNL A   1      47.772  26.373  33.566  1.00  0.00    -0.200 F 
ATOM     68  C   UNL A   1      48.477  27.466  31.594  1.00  0.00     0.200 A 
ATOM     69  F   UNL A   1      49.142  28.590  29.628  1.00  0.00    -0.200 F 
ATOM     70  F   UNL A   1      49.672  26.864  31.671  1.00  0.00    -0.200 F 
ENDBRANCH  46  60
BRANCH  47  71
ATOM     71  C   UNL A   1      36.908  32.760  30.456  1.00  0.00     0.064 A 
ATOM     72  C   UNL A   1      36.573  33.514  29.321  1.00  0.00     0.173 A 
ATOM     73  C   UNL A   1      35.941  32.630  31.462  1.00  0.00     0.173 A 
ATOM     74  F   UNL A   1      37.474  33.687  28.344  1.00  0.00    -0.203 F 
ATOM     75  C   UNL A   1      35.329  34.131  29.209  1.00  0.00     0.198 A 
ATOM     76  C   UNL A   1      34.688  33.226  31.337  1.00  0.00     0.198 A 
ATOM     77  F   UNL A   1      36.213  31.919  32.566  1.00  0.00    -0.203 F 
ATOM     78  F   UNL A   1      35.054  34.886  28.137  1.00  0.00    -0.200 F 
ATOM     79  C   UNL A   1      34.387  33.984  30.215  1.00  0.00     0.200 A 
ATOM     80  F   UNL A   1      33.776  33.073  32.306  1.00  0.00    -0.200 F 
ATOM     81  F   UNL A   1      33.191  34.580  30.108  1.00  0.00    -0.200 F 
ENDBRANCH  47  71
BRANCH  59  82
ATOM     82  C   UNL A   1      42.789  34.851  33.535  1.00  0.00     0.064 A 
ATOM     83  C   UNL A   1      43.218  36.003  32.862  1.00  0.00     0.173 A 
ATOM     84  C   UNL A   1      42.666  34.909  34.931  1.00  0.00     0.173 A 
ATOM     85  F   UNL A   1      43.367  35.990  31.528  1.00  0.00    -0.203 F 
ATOM     86  C   UNL A   1      43.531  37.165  33.563  1.00  0.00     0.198 A 
ATOM     87  C   UNL A   1      42.957  36.080  35.627  1.00  0.00     0.198 A 
ATOM     88  F   UNL A   1      42.254  33.834  35.620  1.00  0.00    -0.203 F 
ATOM     89  F   UNL A   1      43.977  38.243  32.904  1.00  0.00    -0.200 F 
ATOM     90  C   UNL A   1      43.394  37.204  34.943  1.00  0.00     0.200 A 
ATOM     91  F   UNL A   1      42.814  36.120  36.958  1.00  0.00    -0.200 F 
ATOM     92  F   UNL A   1      43.689  38.325  35.615  1.00  0.00    -0.200 F 
ENDBRANCH  59  82
ENDBRANCH  33  34
ENDBRANCH  25  28
ENDBRANCH  23  24
ENDBRANCH  22  23
ENDBRANCH   1  22
TORSDOF 13
ENDMDL
MODEL 2
REMARK VINA RESULT:     -10.5      5.476     10.294
REMARK SMILES C[C@H](c1ccc(Br)s1)[NH+]1CCC(CC(=O)NCCCNC(=O)c2ccc(-c3c4nc(c(-c5c(F)c(F)c(F)c(F)c5F)c5ccc([nH]5)c(-c5c(F)c(F)c(F)c(F)c5F)c5nc(c(-c6c(F)c(F)c(F)c(F)c6F)c6ccc3[nH]6)C=C5)C=C4)cc2)CC1
REMARK SMILES IDX 17 1 16 2 14 3 15 4 13 6 12 7 9 8 10 9 87 10 11 12 86 13
REMARK SMILES IDX 2 14 1 15 3 16 4 17 8 18 5 19 6 20 7 21 18 22 19 23 20 24
REMARK SMILES IDX 21 25 22 27 23 28 24 29 85 30 25 31 84 32 26 33 27 34 28 35
REMARK SMILES IDX 78 36 29 37 83 38 77 39 79 40 30 41 82 42 76 43 75 44 31 46
REMARK SMILES IDX 63 47 43 48 62 49 44 50 47 51 61 52 80 53 45 54 46 55 60 57
REMARK SMILES IDX 81 58 48 59 32 60 33 61 41 62 34 63 35 64 39 65 42 66 36 67
REMARK SMILES IDX 37 68 40 69 38 70 64 71 65 72 73 73 66 74 67 75 71 76 74 77
REMARK SMILES IDX 68 78 69 79 72 80 70 81 49 82 50 83 58 84 51 85 52 86 56 87
REMARK SMILES IDX 59 88 53 89 54 90 57 91 55 92
REMARK H PARENT 16 5 9 11 20 26 79 45 47 56
REMARK Flexibility Score: inf
ROOT
ATOM      1  C   UNL A   1      31.400  30.774  25.721  1.00  0.00     0.117 C 
ENDROOT
BRANCH   1   2
ATOM      2  N   UNL A   1      30.508  30.668  24.571  1.00  0.00    -0.356 N 
ATOM      3  C   UNL A   1      30.393  29.713  23.602  1.00  0.00     0.220 C 
ATOM      4  O   UNL A   1      29.509  29.855  22.754  1.00  0.00    -0.275 OA
ATOM      5  H   UNL A   1      29.877  31.419  24.477  1.00  0.00     0.163 HD
BRANCH   3   6
ATOM      6  C   UNL A   1      31.355  28.536  23.532  1.00  0.00     0.104 C 
BRANCH   6   7
ATOM      7  C   UNL A   1      30.774  27.265  24.179  1.00  0.00     0.009 C 
ATOM      8  N   UNL A   1      31.310  24.504  25.063  1.00  0.00    -0.328 N 
ATOM      9  C   UNL A   1      30.525  24.749  23.858  1.00  0.00     0.263 C 
ATOM     10  C   UNL A   1      31.068  25.564  26.058  1.00  0.00     0.263 C 
ATOM     11  H   UNL A   1      32.291  24.545  24.783  1.00  0.00     0.348 HD
ATOM     12  C   UNL A   1      30.922  26.074  23.241  1.00  0.00     0.066 C 
ATOM     13  C   UNL A   1      31.462  26.946  25.515  1.00  0.00     0.066 C 
BRANCH   8  14
ATOM     14  C   UNL A   1      31.165  23.140  25.626  1.00  0.00     0.222 C 
ATOM     15  C   UNL A   1      30.266  23.122  26.875  1.00  0.00     0.082 C 
BRANCH  14  16
ATOM     16  C   UNL A   1      32.484  22.440  25.898  1.00  0.00     0.063 A 
ATOM     17  C   UNL A   1      33.090  22.130  27.106  1.00  0.00     0.023 A 
ATOM     18  S   UNL A   1      33.458  21.919  24.577  1.00  0.00    -0.127 S 
ATOM     19  C   UNL A   1      34.388  21.563  26.940  1.00  0.00     0.028 A 
ATOM     20  C   UNL A   1      34.691  21.405  25.614  1.00  0.00     0.070 A 
ATOM     21  Br  UNL A   1      36.311  20.693  25.001  1.00  0.00    -0.039 Br
ENDBRANCH  14  16
ENDBRANCH   8  14
ENDBRANCH   6   7
ENDBRANCH   3   6
ENDBRANCH   1   2
BRANCH   1  22
ATOM     22  C   UNL A   1      31.245  32.082  26.504  1.00  0.00     0.042 C 
BRANCH  22  23
ATOM     23  C   UNL A   1      32.519  32.585  27.171  1.00  0.00     0.118 C 
BRANCH  23  24
ATOM     24  N   UNL A   1      32.427  33.998  27.495  1.00  0.00    -0.352 N 
ATOM     25  C   UNL A   1      33.027  34.720  28.498  1.00  0.00     0.251 C 
ATOM     26  H   UNL A   1      31.840  34.521  26.903  1.00  0.00     0.163 HD
ATOM     27  O   UNL A   1      32.593  35.838  28.764  1.00  0.00    -0.269 OA
BRANCH  25  28
ATOM     28  C   UNL A   1      34.186  34.193  29.266  1.00  0.00     0.039 A 
ATOM     29  C   UNL A   1      35.474  34.401  28.756  1.00  0.00     0.014 A 
ATOM     30  C   UNL A   1      34.027  33.409  30.411  1.00  0.00     0.014 A 
ATOM     31  C   UNL A   1      36.590  33.851  29.399  1.00  0.00     0.010 A 
ATOM     32  C   UNL A   1      35.144  32.918  31.092  1.00  0.00     0.010 A 
ATOM     33  C   UNL A   1      36.437  33.114  30.583  1.00  0.00    -0.014 A 
BRANCH  33  34
ATOM     34  C   UNL A   1      37.605  32.492  31.266  1.00  0.00     0.031 A 
ATOM     35  C   UNL A   1      38.374  31.386  30.589  1.00  0.00     0.074 A 
ATOM     36  C   UNL A   1      37.960  32.887  32.505  1.00  0.00     0.049 A 
ATOM     37  N   UNL A   1      39.354  30.650  31.053  1.00  0.00    -0.248 NA
ATOM     38  C   UNL A   1      37.973  31.050  29.214  1.00  0.00     0.031 C 
ATOM     39  C   UNL A   1      37.299  33.937  33.280  1.00  0.00     0.029 A 
ATOM     40  N   UNL A   1      38.961  32.443  33.333  1.00  0.00    -0.354 N 
ATOM     41  C   UNL A   1      39.671  29.756  30.037  1.00  0.00     0.074 A 
ATOM     42  C   UNL A   1      38.752  30.012  28.949  1.00  0.00     0.031 C 
ATOM     43  C   UNL A   1      37.923  34.068  34.463  1.00  0.00     0.029 A 
ATOM     44  C   UNL A   1      39.001  33.087  34.546  1.00  0.00     0.049 A 
ATOM     45  H   UNL A   1      39.592  31.729  33.082  1.00  0.00     0.167 HD
ATOM     46  C   UNL A   1      40.651  28.822  30.003  1.00  0.00     0.037 A 
ATOM     47  C   UNL A   1      39.809  32.902  35.608  1.00  0.00     0.037 A 
ATOM     48  C   UNL A   1      41.591  28.586  31.067  1.00  0.00     0.049 A 
ATOM     49  C   UNL A   1      40.880  31.843  35.551  1.00  0.00     0.074 A 
ATOM     50  C   UNL A   1      42.635  27.678  31.113  1.00  0.00     0.029 A 
ATOM     51  N   UNL A   1      41.603  29.271  32.272  1.00  0.00    -0.354 N 
ATOM     52  N   UNL A   1      41.183  31.024  34.575  1.00  0.00    -0.248 NA
ATOM     53  C   UNL A   1      41.722  31.687  36.746  1.00  0.00     0.031 C 
ATOM     54  C   UNL A   1      43.264  27.795  32.357  1.00  0.00     0.029 A 
ATOM     55  C   UNL A   1      42.634  28.801  33.071  1.00  0.00     0.049 A 
ATOM     56  H   UNL A   1      40.974  29.985  32.524  1.00  0.00     0.167 HD
ATOM     57  C   UNL A   1      42.267  30.282  35.022  1.00  0.00     0.074 A 
ATOM     58  C   UNL A   1      42.576  30.753  36.356  1.00  0.00     0.031 C 
ATOM     59  C   UNL A   1      42.945  29.297  34.385  1.00  0.00     0.037 A 
BRANCH  46  60
ATOM     60  C   UNL A   1      40.770  27.986  28.761  1.00  0.00     0.064 A 
ATOM     61  C   UNL A   1      41.605  28.367  27.701  1.00  0.00     0.173 A 
ATOM     62  C   UNL A   1      40.078  26.771  28.649  1.00  0.00     0.173 A 
ATOM     63  F   UNL A   1      42.280  29.526  27.756  1.00  0.00    -0.203 F 
ATOM     64  C   UNL A   1      41.726  27.574  26.563  1.00  0.00     0.198 A 
ATOM     65  C   UNL A   1      40.221  25.967  27.521  1.00  0.00     0.198 A 
ATOM     66  F   UNL A   1      39.273  26.357  29.638  1.00  0.00    -0.203 F 
ATOM     67  F   UNL A   1      42.498  27.979  25.545  1.00  0.00    -0.200 F 
ATOM     68  C   UNL A   1      41.040  26.371  26.477  1.00  0.00     0.200 A 
ATOM     69  F   UNL A   1      39.568  24.799  27.444  1.00  0.00    -0.200 F 
ATOM     70  F   UNL A   1      41.163  25.605  25.384  1.00  0.00    -0.200 F 
ENDBRANCH  46  60
BRANCH  47  71
ATOM     71  C   UNL A   1      39.656  33.749  36.819  1.00  0.00     0.064 A 
ATOM     72  C   UNL A   1      38.827  33.345  37.876  1.00  0.00     0.173 A 
ATOM     73  C   UNL A   1      40.309  34.984  36.937  1.00  0.00     0.173 A 
ATOM     74  F   UNL A   1      38.163  32.183  37.797  1.00  0.00    -0.203 F 
ATOM     75  C   UNL A   1      38.640  34.154  38.994  1.00  0.00     0.198 A 
ATOM     76  C   UNL A   1      40.142  35.781  38.067  1.00  0.00     0.198 A 
ATOM     77  F   UNL A   1      41.112  35.415  35.953  1.00  0.00    -0.203 F 
ATOM     78  F   UNL A   1      37.804  33.767  39.966  1.00  0.00    -0.200 F 
ATOM     79  C   UNL A   1      39.300  35.370  39.090  1.00  0.00     0.200 A 
ATOM     80  F   UNL A   1      40.789  36.950  38.161  1.00  0.00    -0.200 F 
ATOM     81  F   UNL A   1      39.119  36.149  40.165  1.00  0.00    -0.200 F 
ENDBRANCH  47  71
BRANCH  59  82
ATOM     82  C   UNL A   1      44.121  28.697  35.097  1.00  0.00     0.064 A 
ATOM     83  C   UNL A   1      43.988  27.561  35.909  1.00  0.00     0.173 A 
ATOM     84  C   UNL A   1      45.404  29.239  34.927  1.00  0.00     0.173 A 
ATOM     85  F   UNL A   1      42.779  27.017  36.114  1.00  0.00    -0.203 F 
ATOM     86  C   UNL A   1      45.095  27.002  36.541  1.00  0.00     0.198 A 
ATOM     87  C   UNL A   1      46.512  28.663  35.542  1.00  0.00     0.198 A 
ATOM     88  F   UNL A   1      45.584  30.323  34.156  1.00  0.00    -0.203 F 
ATOM     89  F   UNL A   1      44.939  25.940  37.343  1.00  0.00    -0.200 F 
ATOM     90  C   UNL A   1      46.356  27.549  36.352  1.00  0.00     0.200 A 
ATOM     91  F   UNL A   1      47.731  29.186  35.351  1.00  0.00    -0.200 F 
ATOM     92  F   UNL A   1      47.421  27.004  36.956  1.00  0.00    -0.200 F 
ENDBRANCH  59  82
ENDBRANCH  33  34
ENDBRANCH  25  28
ENDBRANCH  23  24
ENDBRANCH  22  23
ENDBRANCH   1  22
TORSDOF 13
ENDMDL
MODEL 3
REMARK VINA RESULT:     -10.4      4.928     10.620
REMARK SMILES C[C@H](c1ccc(Br)s1)[NH+]1CCC(CC(=O)NCCCNC(=O)c2ccc(-c3c4nc(c(-c5c(F)c(F)c(F)c(F)c5F)c5ccc([nH]5)c(-c5c(F)c(F)c(F)c(F)c5F)c5nc(c(-c6c(F)c(F)c(F)c(F)c6F)c6ccc3[nH]6)C=C5)C=C4)cc2)CC1
REMARK SMILES IDX 17 1 16 2 14 3 15 4 13 6 12 7 9 8 10 9 87 10 11 12 86 13
REMARK SMILES IDX 2 14 1 15 3 16 4 17 8 18 5 19 6 20 7 21 18 22 19 23 20 24
REMARK SMILES IDX 21 25 22 27 23 28 24 29 85 30 25 31 84 32 26 33 27 34 28 35
REMARK SMILES IDX 78 36 29 37 83 38 77 39 79 40 30 41 82 42 76 43 75 44 31 46
REMARK SMILES IDX 63 47 43 48 62 49 44 50 47 51 61 52 80 53 45 54 46 55 60 57
REMARK SMILES IDX 81 58 48 59 32 60 33 61 41 62 34 63 35 64 39 65 42 66 36 67
REMARK SMILES IDX 37 68 40 69 38 70 64 71 65 72 73 73 66 74 67 75 71 76 74 77
REMARK SMILES IDX 68 78 69 79 72 80 70 81 49 82 50 83 58 84 51 85 52 86 56 87
REMARK SMILES IDX 59 88 53 89 54 90 57 91 55 92
REMARK H PARENT 16 5 9 11 20 26 79 45 47 56
REMARK Flexibility Score: inf
ROOT
ATOM      1  C   UNL A   1      36.556  20.371  25.002  1.00  0.00     0.117 C 
ENDROOT
BRANCH   1   2
ATOM      2  N   UNL A   1      35.342  19.563  24.986  1.00  0.00    -0.356 N 
ATOM      3  C   UNL A   1      34.027  19.905  25.126  1.00  0.00     0.220 C 
ATOM      4  O   UNL A   1      33.185  19.010  25.029  1.00  0.00    -0.275 OA
ATOM      5  H   UNL A   1      35.498  18.600  24.850  1.00  0.00     0.163 HD
BRANCH   3   6
ATOM      6  C   UNL A   1      33.610  21.333  25.446  1.00  0.00     0.104 C 
BRANCH   6   7
ATOM      7  C   UNL A   1      32.954  22.035  24.243  1.00  0.00     0.009 C 
ATOM      8  N   UNL A   1      32.034  24.594  23.105  1.00  0.00    -0.328 N 
ATOM      9  C   UNL A   1      31.065  23.618  23.590  1.00  0.00     0.263 C 
ATOM     10  C   UNL A   1      33.209  23.913  22.533  1.00  0.00     0.263 C 
ATOM     11  H   UNL A   1      32.339  25.130  23.918  1.00  0.00     0.348 HD
ATOM     12  C   UNL A   1      31.690  22.766  24.677  1.00  0.00     0.066 C 
ATOM     13  C   UNL A   1      33.913  23.034  23.579  1.00  0.00     0.066 C 
BRANCH   8  14
ATOM     14  C   UNL A   1      31.469  25.625  22.201  1.00  0.00     0.222 C 
ATOM     15  C   UNL A   1      32.280  25.760  20.899  1.00  0.00     0.082 C 
BRANCH  14  16
ATOM     16  C   UNL A   1      31.268  26.980  22.856  1.00  0.00     0.063 A 
ATOM     17  C   UNL A   1      30.623  28.109  22.377  1.00  0.00     0.023 A 
ATOM     18  S   UNL A   1      31.905  27.265  24.431  1.00  0.00    -0.127 S 
ATOM     19  C   UNL A   1      30.744  29.226  23.255  1.00  0.00     0.028 A 
ATOM     20  C   UNL A   1      31.420  28.885  24.396  1.00  0.00     0.070 A 
ATOM     21  Br  UNL A   1      31.778  30.087  25.785  1.00  0.00    -0.039 Br
ENDBRANCH  14  16
ENDBRANCH   8  14
ENDBRANCH   6   7
ENDBRANCH   3   6
ENDBRANCH   1   2
BRANCH   1  22
ATOM     22  C   UNL A   1      37.847  19.545  24.988  1.00  0.00     0.042 C 
BRANCH  22  23
ATOM     23  C   UNL A   1      39.010  20.161  25.756  1.00  0.00     0.118 C 
BRANCH  23  24
ATOM     24  N   UNL A   1      40.067  19.192  25.986  1.00  0.00    -0.352 N 
ATOM     25  C   UNL A   1      41.423  19.371  26.124  1.00  0.00     0.251 C 
ATOM     26  H   UNL A   1      39.765  18.257  26.051  1.00  0.00     0.163 HD
ATOM     27  O   UNL A   1      42.162  18.395  26.027  1.00  0.00    -0.269 OA
BRANCH  25  28
ATOM     28  C   UNL A   1      42.019  20.707  26.391  1.00  0.00     0.039 A 
ATOM     29  C   UNL A   1      42.258  21.075  27.721  1.00  0.00     0.014 A 
ATOM     30  C   UNL A   1      42.243  21.639  25.376  1.00  0.00     0.014 A 
ATOM     31  C   UNL A   1      42.740  22.355  28.027  1.00  0.00     0.010 A 
ATOM     32  C   UNL A   1      42.788  22.891  25.674  1.00  0.00     0.010 A 
ATOM     33  C   UNL A   1      43.023  23.272  27.004  1.00  0.00    -0.014 A 
BRANCH  33  34
ATOM     34  C   UNL A   1      43.504  24.649  27.307  1.00  0.00     0.031 A 
ATOM     35  C   UNL A   1      42.549  25.678  27.854  1.00  0.00     0.074 A 
ATOM     36  C   UNL A   1      44.784  24.993  27.062  1.00  0.00     0.049 A 
ATOM     37  N   UNL A   1      42.744  26.953  28.089  1.00  0.00    -0.248 NA
ATOM     38  C   UNL A   1      41.185  25.217  28.158  1.00  0.00     0.031 C 
ATOM     39  C   UNL A   1      45.812  24.101  26.526  1.00  0.00     0.029 A 
ATOM     40  N   UNL A   1      45.435  26.191  27.225  1.00  0.00    -0.354 N 
ATOM     41  C   UNL A   1      41.528  27.445  28.547  1.00  0.00     0.074 A 
ATOM     42  C   UNL A   1      40.589  26.344  28.517  1.00  0.00     0.031 C 
ATOM     43  C   UNL A   1      46.968  24.777  26.420  1.00  0.00     0.029 A 
ATOM     44  C   UNL A   1      46.755  26.159  26.843  1.00  0.00     0.049 A 
ATOM     45  H   UNL A   1      44.998  26.998  27.582  1.00  0.00     0.167 HD
ATOM     46  C   UNL A   1      41.224  28.694  28.976  1.00  0.00     0.037 A 
ATOM     47  C   UNL A   1      47.684  27.133  26.828  1.00  0.00     0.037 A 
ATOM     48  C   UNL A   1      42.162  29.784  29.041  1.00  0.00     0.049 A 
ATOM     49  C   UNL A   1      47.316  28.518  27.293  1.00  0.00     0.074 A 
ATOM     50  C   UNL A   1      41.953  31.079  29.486  1.00  0.00     0.029 A 
ATOM     51  N   UNL A   1      43.492  29.703  28.658  1.00  0.00    -0.354 N 
ATOM     52  N   UNL A   1      46.170  28.961  27.747  1.00  0.00    -0.248 NA
ATOM     53  C   UNL A   1      48.375  29.538  27.243  1.00  0.00     0.031 C 
ATOM     54  C   UNL A   1      43.150  31.789  29.347  1.00  0.00     0.029 A 
ATOM     55  C   UNL A   1      44.114  30.927  28.850  1.00  0.00     0.049 A 
ATOM     56  H   UNL A   1      43.930  28.897  28.302  1.00  0.00     0.167 HD
ATOM     57  C   UNL A   1      46.377  30.296  28.068  1.00  0.00     0.074 A 
ATOM     58  C   UNL A   1      47.762  30.590  27.764  1.00  0.00     0.031 C 
ATOM     59  C   UNL A   1      45.498  31.197  28.568  1.00  0.00     0.037 A 
BRANCH  46  60
ATOM     60  C   UNL A   1      39.815  28.950  29.425  1.00  0.00     0.064 A 
ATOM     61  C   UNL A   1      38.832  29.395  28.529  1.00  0.00     0.173 A 
ATOM     62  C   UNL A   1      39.433  28.707  30.753  1.00  0.00     0.173 A 
ATOM     63  F   UNL A   1      39.151  29.652  27.251  1.00  0.00    -0.203 F 
ATOM     64  C   UNL A   1      37.523  29.608  28.950  1.00  0.00     0.198 A 
ATOM     65  C   UNL A   1      38.117  28.896  31.165  1.00  0.00     0.198 A 
ATOM     66  F   UNL A   1      40.333  28.273  31.647  1.00  0.00    -0.203 F 
ATOM     67  F   UNL A   1      36.609  30.073  28.086  1.00  0.00    -0.200 F 
ATOM     68  C   UNL A   1      37.164  29.352  30.266  1.00  0.00     0.200 A 
ATOM     69  F   UNL A   1      37.768  28.636  32.433  1.00  0.00    -0.200 F 
ATOM     70  F   UNL A   1      35.901  29.552  30.668  1.00  0.00    -0.200 F 
ENDBRANCH  46  60
BRANCH  47  71
ATOM     71  C   UNL A   1      49.067  26.838  26.374  1.00  0.00     0.064 A 
ATOM     72  C   UNL A   1      50.058  26.458  27.291  1.00  0.00     0.173 A 
ATOM     73  C   UNL A   1      49.436  26.954  25.026  1.00  0.00     0.173 A 
ATOM     74  F   UNL A   1      49.758  26.358  28.594  1.00  0.00    -0.203 F 
ATOM     75  C   UNL A   1      51.368  26.224  26.880  1.00  0.00     0.198 A 
ATOM     76  C   UNL A   1      50.741  26.695  24.612  1.00  0.00     0.198 A 
ATOM     77  F   UNL A   1      48.526  27.315  24.110  1.00  0.00    -0.203 F 
ATOM     78  F   UNL A   1      52.305  25.910  27.785  1.00  0.00    -0.200 F 
ATOM     79  C   UNL A   1      51.708  26.340  25.541  1.00  0.00     0.200 A 
ATOM     80  F   UNL A   1      51.063  26.797  23.316  1.00  0.00    -0.200 F 
ATOM     81  F   UNL A   1      52.969  26.118  25.147  1.00  0.00    -0.200 F 
ENDBRANCH  47  71
BRANCH  59  82
ATOM     82  C   UNL A   1      46.016  32.573  28.870  1.00  0.00     0.064 A 
ATOM     83  C   UNL A   1      46.581  32.888  30.113  1.00  0.00     0.173 A 
ATOM     84  C   UNL A   1      45.985  33.573  27.886  1.00  0.00     0.173 A 
ATOM     85  F   UNL A   1      46.618  31.969  31.091  1.00  0.00    -0.203 F 
ATOM     86  C   UNL A   1      47.081  34.163  30.368  1.00  0.00     0.198 A 
ATOM     87  C   UNL A   1      46.507  34.839  28.137  1.00  0.00     0.198 A 
ATOM     88  F   UNL A   1      45.458  33.318  26.679  1.00  0.00    -0.203 F 
ATOM     89  F   UNL A   1      47.582  34.454  31.576  1.00  0.00    -0.200 F 
ATOM     90  C   UNL A   1      47.049  35.134  29.378  1.00  0.00     0.200 A 
ATOM     91  F   UNL A   1      46.485  35.773  27.177  1.00  0.00    -0.200 F 
ATOM     92  F   UNL A   1      47.536  36.358  29.624  1.00  0.00    -0.200 F 
ENDBRANCH  59  82
ENDBRANCH  33  34
ENDBRANCH  25  28
ENDBRANCH  23  24
ENDBRANCH  22  23
ENDBRANCH   1  22
TORSDOF 13
ENDMDL
