MODEL 1
REMARK VINA RESULT:     -10.6      0.000      0.000
REMARK SMILES COc1ccc(CC(=O)N[C@H](C)C(=O)NCCCNC(=O)c2ccc(-c3c4nc(c(-c5c(F)c(F)c(F)c(F)c5F)c5ccc([nH]5)c(-c5c(F)c(F)c(F)c(F)c5F)c5nc(c(-c6c(F)c(F)c(F)c(F)c6F)c6ccc3[nH]6)C=C5)C=C4)cc2)cc1F
REMARK SMILES IDX 16 1 15 2 13 3 14 4 11 6 12 7 10 8 8 9 9 10 7 12 6 13 3 14
REMARK SMILES IDX 4 15 86 16 5 17 85 18 87 19 2 20 1 21 17 22 18 23 19 24
REMARK SMILES IDX 20 25 21 27 22 28 23 29 84 30 24 31 83 32 25 33 26 34 27 35
REMARK SMILES IDX 77 36 28 37 82 38 76 39 78 40 29 41 81 42 75 43 74 44 30 46
REMARK SMILES IDX 62 47 42 48 61 49 43 50 46 51 60 52 79 53 44 54 45 55 59 57
REMARK SMILES IDX 80 58 47 59 31 60 32 61 40 62 33 63 34 64 38 65 41 66 35 67
REMARK SMILES IDX 36 68 39 69 37 70 63 71 64 72 72 73 65 74 66 75 70 76 73 77
REMARK SMILES IDX 67 78 68 79 71 80 69 81 48 82 49 83 57 84 50 85 51 86 55 87
REMARK SMILES IDX 58 88 52 89 53 90 56 91 54 92
REMARK H PARENT 15 5 10 11 19 26 78 45 46 56
REMARK Flexibility Score: inf
ROOT
ATOM      1  C   UNL A   1      34.239  34.873  29.817  1.00  0.00     0.117 C 
ENDROOT
BRANCH   1   2
ATOM      2  N   UNL A   1      33.050  35.024  30.636  1.00  0.00    -0.354 N 
ATOM      3  C   UNL A   1      32.924  35.409  31.939  1.00  0.00     0.242 C 
ATOM      4  O   UNL A   1      31.840  35.214  32.492  1.00  0.00    -0.273 OA
ATOM      5  H   UNL A   1      32.202  34.819  30.180  1.00  0.00     0.163 HD
BRANCH   3   6
ATOM      6  C   UNL A   1      34.126  35.981  32.709  1.00  0.00     0.168 C 
ATOM      7  C   UNL A   1      33.876  37.434  33.105  1.00  0.00     0.041 C 
BRANCH   6   8
ATOM      8  N   UNL A   1      34.436  35.115  33.851  1.00  0.00    -0.344 N 
ATOM      9  C   UNL A   1      35.307  34.076  33.962  1.00  0.00     0.225 C 
ATOM     10  O   UNL A   1      35.380  33.494  35.047  1.00  0.00    -0.275 OA
ATOM     11  H   UNL A   1      33.931  35.319  34.671  1.00  0.00     0.164 HD
BRANCH   9  12
ATOM     12  C   UNL A   1      36.178  33.668  32.787  1.00  0.00     0.135 C 
BRANCH  12  13
ATOM     13  C   UNL A   1      37.174  32.590  33.139  1.00  0.00    -0.036 A 
ATOM     14  C   UNL A   1      38.898  30.547  34.032  1.00  0.00     0.154 A 
ATOM     15  C   UNL A   1      39.191  31.888  34.291  1.00  0.00     0.050 A 
ATOM     16  C   UNL A   1      37.752  30.242  33.296  1.00  0.00     0.165 A 
ATOM     17  C   UNL A   1      38.346  32.904  33.839  1.00  0.00     0.008 A 
ATOM     18  C   UNL A   1      36.908  31.250  32.835  1.00  0.00     0.047 A 
ATOM     19  F   UNL A   1      37.394  28.974  33.043  1.00  0.00    -0.203 F 
BRANCH  14  20
ATOM     20  O   UNL A   1      39.785  29.660  34.577  1.00  0.00    -0.494 OA
ATOM     21  C   UNL A   1      40.645  28.991  33.665  1.00  0.00     0.278 C 
ENDBRANCH  14  20
ENDBRANCH  12  13
ENDBRANCH   9  12
ENDBRANCH   6   8
ENDBRANCH   3   6
ENDBRANCH   1   2
BRANCH   1  22
ATOM     22  C   UNL A   1      33.936  34.138  28.517  1.00  0.00     0.042 C 
BRANCH  22  23
ATOM     23  C   UNL A   1      34.734  32.854  28.340  1.00  0.00     0.118 C 
BRANCH  23  24
ATOM     24  N   UNL A   1      33.890  31.708  28.031  1.00  0.00    -0.352 N 
ATOM     25  C   UNL A   1      34.234  30.396  27.829  1.00  0.00     0.251 C 
ATOM     26  H   UNL A   1      32.928  31.905  27.957  1.00  0.00     0.163 HD
ATOM     27  O   UNL A   1      33.407  29.604  27.382  1.00  0.00    -0.269 OA
BRANCH  25  28
ATOM     28  C   UNL A   1      35.604  29.940  28.131  1.00  0.00     0.039 A 
ATOM     29  C   UNL A   1      36.596  30.076  27.155  1.00  0.00     0.014 A 
ATOM     30  C   UNL A   1      35.911  29.387  29.376  1.00  0.00     0.014 A 
ATOM     31  C   UNL A   1      37.913  29.727  27.459  1.00  0.00     0.010 A 
ATOM     32  C   UNL A   1      37.234  29.123  29.705  1.00  0.00     0.010 A 
ATOM     33  C   UNL A   1      38.249  29.290  28.751  1.00  0.00    -0.014 A 
BRANCH  33  34
ATOM     34  C   UNL A   1      39.653  29.001  29.139  1.00  0.00     0.031 A 
ATOM     35  C   UNL A   1      40.437  30.016  29.919  1.00  0.00     0.074 A 
ATOM     36  C   UNL A   1      40.245  27.868  28.710  1.00  0.00     0.049 A 
ATOM     37  N   UNL A   1      41.709  30.019  30.229  1.00  0.00    -0.248 NA
ATOM     38  C   UNL A   1      39.702  31.201  30.391  1.00  0.00     0.031 C 
ATOM     39  C   UNL A   1      39.595  26.820  27.923  1.00  0.00     0.029 A 
ATOM     40  N   UNL A   1      41.533  27.418  28.863  1.00  0.00    -0.354 N 
ATOM     41  C   UNL A   1      41.926  31.207  30.914  1.00  0.00     0.074 A 
ATOM     42  C   UNL A   1      40.671  31.926  30.930  1.00  0.00     0.031 C 
ATOM     43  C   UNL A   1      40.480  25.840  27.679  1.00  0.00     0.029 A 
ATOM     44  C   UNL A   1      41.772  26.215  28.245  1.00  0.00     0.049 A 
ATOM     45  H   UNL A   1      42.220  27.910  29.367  1.00  0.00     0.167 HD
ATOM     46  C   UNL A   1      43.066  31.644  31.498  1.00  0.00     0.037 A 
ATOM     47  C   UNL A   1      42.911  25.501  28.130  1.00  0.00     0.037 A 
ATOM     48  C   UNL A   1      44.301  30.909  31.504  1.00  0.00     0.049 A 
ATOM     49  C   UNL A   1      44.173  26.028  28.757  1.00  0.00     0.074 A 
ATOM     50  C   UNL A   1      45.496  31.243  32.117  1.00  0.00     0.029 A 
ATOM     51  N   UNL A   1      44.504  29.693  30.867  1.00  0.00    -0.354 N 
ATOM     52  N   UNL A   1      44.357  27.130  29.442  1.00  0.00    -0.248 NA
ATOM     53  C   UNL A   1      45.389  25.216  28.592  1.00  0.00     0.031 C 
ATOM     54  C   UNL A   1      46.437  30.260  31.803  1.00  0.00     0.029 A 
ATOM     55  C   UNL A   1      45.812  29.279  31.049  1.00  0.00     0.049 A 
ATOM     56  H   UNL A   1      43.818  29.199  30.361  1.00  0.00     0.167 HD
ATOM     57  C   UNL A   1      45.694  27.131  29.813  1.00  0.00     0.074 A 
ATOM     58  C   UNL A   1      46.278  25.916  29.284  1.00  0.00     0.031 C 
ATOM     59  C   UNL A   1      46.376  28.059  30.527  1.00  0.00     0.037 A 
BRANCH  46  60
ATOM     60  C   UNL A   1      43.036  32.973  32.194  1.00  0.00     0.064 A 
ATOM     61  C   UNL A   1      42.672  33.060  33.546  1.00  0.00     0.173 A 
ATOM     62  C   UNL A   1      43.284  34.169  31.503  1.00  0.00     0.173 A 
ATOM     63  F   UNL A   1      42.419  31.949  34.252  1.00  0.00    -0.203 F 
ATOM     64  C   UNL A   1      42.542  34.296  34.176  1.00  0.00     0.198 A 
ATOM     65  C   UNL A   1      43.183  35.401  32.144  1.00  0.00     0.198 A 
ATOM     66  F   UNL A   1      43.644  34.141  30.211  1.00  0.00    -0.203 F 
ATOM     67  F   UNL A   1      42.155  34.356  35.458  1.00  0.00    -0.200 F 
ATOM     68  C   UNL A   1      42.801  35.464  33.476  1.00  0.00     0.200 A 
ATOM     69  F   UNL A   1      43.458  36.527  31.472  1.00  0.00    -0.200 F 
ATOM     70  F   UNL A   1      42.683  36.652  34.084  1.00  0.00    -0.200 F 
ENDBRANCH  46  60
BRANCH  47  71
ATOM     71  C   UNL A   1      42.893  24.203  27.407  1.00  0.00     0.064 A 
ATOM     72  C   UNL A   1      43.220  24.115  26.045  1.00  0.00     0.173 A 
ATOM     73  C   UNL A   1      42.512  23.023  28.061  1.00  0.00     0.173 A 
ATOM     74  F   UNL A   1      43.586  25.215  25.370  1.00  0.00    -0.203 F 
ATOM     75  C   UNL A   1      43.144  22.903  25.362  1.00  0.00     0.198 A 
ATOM     76  C   UNL A   1      42.464  21.806  27.384  1.00  0.00     0.198 A 
ATOM     77  F   UNL A   1      42.209  23.051  29.368  1.00  0.00    -0.203 F 
ATOM     78  F   UNL A   1      43.422  22.856  24.052  1.00  0.00    -0.200 F 
ATOM     79  C   UNL A   1      42.770  21.750  26.033  1.00  0.00     0.200 A 
ATOM     80  F   UNL A   1      42.126  20.689  28.042  1.00  0.00    -0.200 F 
ATOM     81  F   UNL A   1      42.707  20.582  25.377  1.00  0.00    -0.200 F 
ENDBRANCH  47  71
BRANCH  59  82
ATOM     82  C   UNL A   1      47.827  27.804  30.815  1.00  0.00     0.064 A 
ATOM     83  C   UNL A   1      48.814  28.243  29.918  1.00  0.00     0.173 A 
ATOM     84  C   UNL A   1      48.231  27.026  31.909  1.00  0.00     0.173 A 
ATOM     85  F   UNL A   1      48.477  28.982  28.852  1.00  0.00    -0.203 F 
ATOM     86  C   UNL A   1      50.148  27.887  30.092  1.00  0.00     0.198 A 
ATOM     87  C   UNL A   1      49.571  26.697  32.095  1.00  0.00     0.198 A 
ATOM     88  F   UNL A   1      47.326  26.593  32.800  1.00  0.00    -0.203 F 
ATOM     89  F   UNL A   1      51.065  28.274  29.194  1.00  0.00    -0.200 F 
ATOM     90  C   UNL A   1      50.525  27.114  31.179  1.00  0.00     0.200 A 
ATOM     91  F   UNL A   1      49.938  25.969  33.158  1.00  0.00    -0.200 F 
ATOM     92  F   UNL A   1      51.810  26.769  31.343  1.00  0.00    -0.200 F 
ENDBRANCH  59  82
ENDBRANCH  33  34
ENDBRANCH  25  28
ENDBRANCH  23  24
ENDBRANCH  22  23
ENDBRANCH   1  22
TORSDOF 14
ENDMDL
MODEL 2
REMARK VINA RESULT:     -10.6      4.375     10.590
REMARK SMILES COc1ccc(CC(=O)N[C@H](C)C(=O)NCCCNC(=O)c2ccc(-c3c4nc(c(-c5c(F)c(F)c(F)c(F)c5F)c5ccc([nH]5)c(-c5c(F)c(F)c(F)c(F)c5F)c5nc(c(-c6c(F)c(F)c(F)c(F)c6F)c6ccc3[nH]6)C=C5)C=C4)cc2)cc1F
REMARK SMILES IDX 16 1 15 2 13 3 14 4 11 6 12 7 10 8 8 9 9 10 7 12 6 13 3 14
REMARK SMILES IDX 4 15 86 16 5 17 85 18 87 19 2 20 1 21 17 22 18 23 19 24
REMARK SMILES IDX 20 25 21 27 22 28 23 29 84 30 24 31 83 32 25 33 26 34 27 35
REMARK SMILES IDX 77 36 28 37 82 38 76 39 78 40 29 41 81 42 75 43 74 44 30 46
REMARK SMILES IDX 62 47 42 48 61 49 43 50 46 51 60 52 79 53 44 54 45 55 59 57
REMARK SMILES IDX 80 58 47 59 31 60 32 61 40 62 33 63 34 64 38 65 41 66 35 67
REMARK SMILES IDX 36 68 39 69 37 70 63 71 64 72 72 73 65 74 66 75 70 76 73 77
REMARK SMILES IDX 67 78 68 79 71 80 69 81 48 82 49 83 57 84 50 85 51 86 55 87
REMARK SMILES IDX 58 88 52 89 53 90 56 91 54 92
REMARK H PARENT 15 5 10 11 19 26 78 45 46 56
REMARK Flexibility Score: inf
ROOT
ATOM      1  C   UNL A   1      31.662  30.825  25.975  1.00  0.00     0.117 C 
ENDROOT
BRANCH   1   2
ATOM      2  N   UNL A   1      32.887  30.151  26.372  1.00  0.00    -0.354 N 
ATOM      3  C   UNL A   1      33.464  29.017  25.881  1.00  0.00     0.242 C 
ATOM      4  O   UNL A   1      34.361  28.497  26.546  1.00  0.00    -0.273 OA
ATOM      5  H   UNL A   1      33.377  30.581  27.109  1.00  0.00     0.163 HD
BRANCH   3   6
ATOM      6  C   UNL A   1      32.944  28.368  24.588  1.00  0.00     0.168 C 
ATOM      7  C   UNL A   1      34.074  28.189  23.577  1.00  0.00     0.041 C 
BRANCH   6   8
ATOM      8  N   UNL A   1      32.252  27.116  24.910  1.00  0.00    -0.344 N 
ATOM      9  C   UNL A   1      31.378  26.374  24.176  1.00  0.00     0.225 C 
ATOM     10  O   UNL A   1      30.923  25.347  24.682  1.00  0.00    -0.275 OA
ATOM     11  H   UNL A   1      32.452  26.753  25.802  1.00  0.00     0.164 HD
BRANCH   9  12
ATOM     12  C   UNL A   1      31.000  26.796  22.767  1.00  0.00     0.135 C 
BRANCH  12  13
ATOM     13  C   UNL A   1      30.076  27.987  22.737  1.00  0.00    -0.036 A 
ATOM     14  C   UNL A   1      28.271  30.131  22.430  1.00  0.00     0.154 A 
ATOM     15  C   UNL A   1      29.608  30.268  22.050  1.00  0.00     0.050 A 
ATOM     16  C   UNL A   1      27.855  28.924  22.994  1.00  0.00     0.165 A 
ATOM     17  C   UNL A   1      30.508  29.212  22.212  1.00  0.00     0.008 A 
ATOM     18  C   UNL A   1      28.748  27.868  23.166  1.00  0.00     0.047 A 
ATOM     19  F   UNL A   1      26.579  28.715  23.347  1.00  0.00    -0.203 F 
BRANCH  14  20
ATOM     20  O   UNL A   1      27.495  31.227  22.167  1.00  0.00    -0.494 OA
ATOM     21  C   UNL A   1      28.136  32.304  21.497  1.00  0.00     0.278 C 
ENDBRANCH  14  20
ENDBRANCH  12  13
ENDBRANCH   9  12
ENDBRANCH   6   8
ENDBRANCH   3   6
ENDBRANCH   1   2
BRANCH   1  22
ATOM     22  C   UNL A   1      31.387  32.046  26.844  1.00  0.00     0.042 C 
BRANCH  22  23
ATOM     23  C   UNL A   1      32.646  32.778  27.286  1.00  0.00     0.118 C 
BRANCH  23  24
ATOM     24  N   UNL A   1      32.394  34.174  27.620  1.00  0.00    -0.352 N 
ATOM     25  C   UNL A   1      32.973  34.962  28.582  1.00  0.00     0.251 C 
ATOM     26  H   UNL A   1      31.706  34.617  27.073  1.00  0.00     0.163 HD
ATOM     27  O   UNL A   1      32.491  36.060  28.850  1.00  0.00    -0.269 OA
BRANCH  25  28
ATOM     28  C   UNL A   1      34.162  34.480  29.310  1.00  0.00     0.039 A 
ATOM     29  C   UNL A   1      33.998  33.891  30.567  1.00  0.00     0.014 A 
ATOM     30  C   UNL A   1      35.435  34.603  28.750  1.00  0.00     0.014 A 
ATOM     31  C   UNL A   1      35.106  33.356  31.226  1.00  0.00     0.010 A 
ATOM     32  C   UNL A   1      36.521  33.993  29.366  1.00  0.00     0.010 A 
ATOM     33  C   UNL A   1      36.368  33.363  30.610  1.00  0.00    -0.014 A 
BRANCH  33  34
ATOM     34  C   UNL A   1      37.549  32.720  31.238  1.00  0.00     0.031 A 
ATOM     35  C   UNL A   1      38.238  31.581  30.543  1.00  0.00     0.074 A 
ATOM     36  C   UNL A   1      37.942  33.100  32.471  1.00  0.00     0.049 A 
ATOM     37  N   UNL A   1      39.188  30.795  30.983  1.00  0.00    -0.248 NA
ATOM     38  C   UNL A   1      37.780  31.263  29.180  1.00  0.00     0.031 C 
ATOM     39  C   UNL A   1      37.335  34.174  33.257  1.00  0.00     0.029 A 
ATOM     40  N   UNL A   1      38.935  32.614  33.284  1.00  0.00    -0.354 N 
ATOM     41  C   UNL A   1      39.427  29.886  29.962  1.00  0.00     0.074 A 
ATOM     42  C   UNL A   1      38.489  30.179  28.901  1.00  0.00     0.031 C 
ATOM     43  C   UNL A   1      37.980  34.279  34.430  1.00  0.00     0.029 A 
ATOM     44  C   UNL A   1      39.009  33.247  34.501  1.00  0.00     0.049 A 
ATOM     45  H   UNL A   1      39.537  31.880  33.021  1.00  0.00     0.167 HD
ATOM     46  C   UNL A   1      40.363  28.910  29.909  1.00  0.00     0.037 A 
ATOM     47  C   UNL A   1      39.805  33.010  35.564  1.00  0.00     0.037 A 
ATOM     48  C   UNL A   1      41.312  28.644  30.955  1.00  0.00     0.049 A 
ATOM     49  C   UNL A   1      40.813  31.894  35.492  1.00  0.00     0.074 A 
ATOM     50  C   UNL A   1      42.335  27.714  30.971  1.00  0.00     0.029 A 
ATOM     51  N   UNL A   1      41.355  29.308  32.173  1.00  0.00    -0.354 N 
ATOM     52  N   UNL A   1      41.061  31.070  34.504  1.00  0.00    -0.248 NA
ATOM     53  C   UNL A   1      41.647  31.672  36.683  1.00  0.00     0.031 C 
ATOM     54  C   UNL A   1      42.960  27.773  32.218  1.00  0.00     0.029 A 
ATOM     55  C   UNL A   1      42.370  28.786  32.957  1.00  0.00     0.049 A 
ATOM     56  H   UNL A   1      40.753  30.041  32.439  1.00  0.00     0.167 HD
ATOM     57  C   UNL A   1      42.095  30.252  34.940  1.00  0.00     0.074 A 
ATOM     58  C   UNL A   1      42.434  30.683  36.280  1.00  0.00     0.031 C 
ATOM     59  C   UNL A   1      42.706  29.234  34.286  1.00  0.00     0.037 A 
BRANCH  46  60
ATOM     60  C   UNL A   1      40.423  28.059  28.674  1.00  0.00     0.064 A 
ATOM     61  C   UNL A   1      39.768  26.819  28.632  1.00  0.00     0.173 A 
ATOM     62  C   UNL A   1      41.197  28.429  27.564  1.00  0.00     0.173 A 
ATOM     63  F   UNL A   1      39.019  26.413  29.668  1.00  0.00    -0.203 F 
ATOM     64  C   UNL A   1      39.899  25.975  27.532  1.00  0.00     0.198 A 
ATOM     65  C   UNL A   1      41.301  27.597  26.453  1.00  0.00     0.198 A 
ATOM     66  F   UNL A   1      41.836  29.609  27.549  1.00  0.00    -0.203 F 
ATOM     67  F   UNL A   1      39.296  24.778  27.531  1.00  0.00    -0.200 F 
ATOM     68  C   UNL A   1      40.662  26.366  26.442  1.00  0.00     0.200 A 
ATOM     69  F   UNL A   1      42.018  27.988  25.391  1.00  0.00    -0.200 F 
ATOM     70  F   UNL A   1      40.782  25.557  25.381  1.00  0.00    -0.200 F 
ENDBRANCH  46  60
BRANCH  47  71
ATOM     71  C   UNL A   1      39.687  33.865  36.774  1.00  0.00     0.064 A 
ATOM     72  C   UNL A   1      38.877  33.496  37.859  1.00  0.00     0.173 A 
ATOM     73  C   UNL A   1      40.360  35.092  36.852  1.00  0.00     0.173 A 
ATOM     74  F   UNL A   1      38.207  32.334  37.832  1.00  0.00    -0.203 F 
ATOM     75  C   UNL A   1      38.727  34.332  38.963  1.00  0.00     0.198 A 
ATOM     76  C   UNL A   1      40.232  35.914  37.970  1.00  0.00     0.198 A 
ATOM     77  F   UNL A   1      41.162  35.480  35.849  1.00  0.00    -0.203 F 
ATOM     78  F   UNL A   1      37.915  33.973  39.967  1.00  0.00    -0.200 F 
ATOM     79  C   UNL A   1      39.408  35.537  39.020  1.00  0.00     0.200 A 
ATOM     80  F   UNL A   1      40.911  37.067  38.032  1.00  0.00    -0.200 F 
ATOM     81  F   UNL A   1      39.271  36.336  40.087  1.00  0.00    -0.200 F 
ENDBRANCH  47  71
BRANCH  59  82
ATOM     82  C   UNL A   1      43.826  28.519  34.981  1.00  0.00     0.064 A 
ATOM     83  C   UNL A   1      43.557  27.417  35.808  1.00  0.00     0.173 A 
ATOM     84  C   UNL A   1      45.144  28.994  34.926  1.00  0.00     0.173 A 
ATOM     85  F   UNL A   1      42.311  26.930  35.901  1.00  0.00    -0.203 F 
ATOM     86  C   UNL A   1      44.562  26.836  36.575  1.00  0.00     0.198 A 
ATOM     87  C   UNL A   1      46.152  28.391  35.673  1.00  0.00     0.198 A 
ATOM     88  F   UNL A   1      45.453  30.038  34.141  1.00  0.00    -0.203 F 
ATOM     89  F   UNL A   1      44.271  25.817  37.397  1.00  0.00    -0.200 F 
ATOM     90  C   UNL A   1      45.858  27.323  36.508  1.00  0.00     0.200 A 
ATOM     91  F   UNL A   1      47.409  28.848  35.591  1.00  0.00    -0.200 F 
ATOM     92  F   UNL A   1      46.824  26.765  37.251  1.00  0.00    -0.200 F 
ENDBRANCH  59  82
ENDBRANCH  33  34
ENDBRANCH  25  28
ENDBRANCH  23  24
ENDBRANCH  22  23
ENDBRANCH   1  22
TORSDOF 14
ENDMDL
MODEL 3
REMARK VINA RESULT:     -10.6      5.619     10.515
REMARK SMILES COc1ccc(CC(=O)N[C@H](C)C(=O)NCCCNC(=O)c2ccc(-c3c4nc(c(-c5c(F)c(F)c(F)c(F)c5F)c5ccc([nH]5)c(-c5c(F)c(F)c(F)c(F)c5F)c5nc(c(-c6c(F)c(F)c(F)c(F)c6F)c6ccc3[nH]6)C=C5)C=C4)cc2)cc1F
REMARK SMILES IDX 16 1 15 2 13 3 14 4 11 6 12 7 10 8 8 9 9 10 7 12 6 13 3 14
REMARK SMILES IDX 4 15 86 16 5 17 85 18 87 19 2 20 1 21 17 22 18 23 19 24
REMARK SMILES IDX 20 25 21 27 22 28 23 29 84 30 24 31 83 32 25 33 26 34 27 35
REMARK SMILES IDX 77 36 28 37 82 38 76 39 78 40 29 41 81 42 75 43 74 44 30 46
REMARK SMILES IDX 62 47 42 48 61 49 43 50 46 51 60 52 79 53 44 54 45 55 59 57
REMARK SMILES IDX 80 58 47 59 31 60 32 61 40 62 33 63 34 64 38 65 41 66 35 67
REMARK SMILES IDX 36 68 39 69 37 70 63 71 64 72 72 73 65 74 66 75 70 76 73 77
REMARK SMILES IDX 67 78 68 79 71 80 69 81 48 82 49 83 57 84 50 85 51 86 55 87
REMARK SMILES IDX 58 88 52 89 53 90 56 91 54 92
REMARK H PARENT 15 5 10 11 19 26 78 45 46 56
REMARK Flexibility Score: inf
ROOT
ATOM      1  C   UNL A   1      36.763  20.771  25.083  1.00  0.00     0.117 C 
ENDROOT
BRANCH   1   2
ATOM      2  N   UNL A   1      36.870  21.770  24.034  1.00  0.00    -0.354 N 
ATOM      3  C   UNL A   1      36.025  22.788  23.700  1.00  0.00     0.242 C 
ATOM      4  O   UNL A   1      36.198  23.344  22.614  1.00  0.00    -0.273 OA
ATOM      5  H   UNL A   1      37.680  21.704  23.478  1.00  0.00     0.163 HD
BRANCH   3   6
ATOM      6  C   UNL A   1      34.845  23.160  24.613  1.00  0.00     0.168 C 
ATOM      7  C   UNL A   1      35.158  24.418  25.419  1.00  0.00     0.041 C 
BRANCH   6   8
ATOM      8  N   UNL A   1      33.621  23.275  23.813  1.00  0.00    -0.344 N 
ATOM      9  C   UNL A   1      32.417  22.656  23.946  1.00  0.00     0.225 C 
ATOM     10  O   UNL A   1      31.535  22.923  23.127  1.00  0.00    -0.275 OA
ATOM     11  H   UNL A   1      33.682  23.902  23.057  1.00  0.00     0.164 HD
BRANCH   9  12
ATOM     12  C   UNL A   1      32.168  21.687  25.088  1.00  0.00     0.135 C 
BRANCH  12  13
ATOM     13  C   UNL A   1      32.535  20.265  24.743  1.00  0.00    -0.036 A 
ATOM     14  C   UNL A   1      32.957  17.545  24.133  1.00  0.00     0.154 A 
ATOM     15  C   UNL A   1      33.087  18.008  25.444  1.00  0.00     0.050 A 
ATOM     16  C   UNL A   1      32.645  18.461  23.127  1.00  0.00     0.165 A 
ATOM     17  C   UNL A   1      32.892  19.356  25.749  1.00  0.00     0.008 A 
ATOM     18  C   UNL A   1      32.455  19.810  23.421  1.00  0.00     0.047 A 
ATOM     19  F   UNL A   1      32.470  18.078  21.854  1.00  0.00    -0.203 F 
BRANCH  14  20
ATOM     20  O   UNL A   1      33.126  16.195  23.991  1.00  0.00    -0.494 OA
ATOM     21  C   UNL A   1      33.286  15.453  25.193  1.00  0.00     0.278 C 
ENDBRANCH  14  20
ENDBRANCH  12  13
ENDBRANCH   9  12
ENDBRANCH   6   8
ENDBRANCH   3   6
ENDBRANCH   1   2
BRANCH   1  22
ATOM     22  C   UNL A   1      37.905  19.765  25.018  1.00  0.00     0.042 C 
BRANCH  22  23
ATOM     23  C   UNL A   1      39.160  20.217  25.751  1.00  0.00     0.118 C 
BRANCH  23  24
ATOM     24  N   UNL A   1      40.149  19.155  25.876  1.00  0.00    -0.352 N 
ATOM     25  C   UNL A   1      41.507  19.239  26.049  1.00  0.00     0.251 C 
ATOM     26  H   UNL A   1      39.789  18.240  25.829  1.00  0.00     0.163 HD
ATOM     27  O   UNL A   1      42.206  18.235  25.933  1.00  0.00    -0.269 OA
BRANCH  25  28
ATOM     28  C   UNL A   1      42.131  20.541  26.354  1.00  0.00     0.039 A 
ATOM     29  C   UNL A   1      42.518  21.374  25.300  1.00  0.00     0.014 A 
ATOM     30  C   UNL A   1      42.326  20.942  27.678  1.00  0.00     0.014 A 
ATOM     31  C   UNL A   1      43.030  22.642  25.578  1.00  0.00     0.010 A 
ATOM     32  C   UNL A   1      42.753  22.235  27.949  1.00  0.00     0.010 A 
ATOM     33  C   UNL A   1      43.109  23.100  26.903  1.00  0.00    -0.014 A 
BRANCH  33  34
ATOM     34  C   UNL A   1      43.559  24.475  27.231  1.00  0.00     0.031 A 
ATOM     35  C   UNL A   1      42.572  25.479  27.754  1.00  0.00     0.074 A 
ATOM     36  C   UNL A   1      44.830  24.844  26.972  1.00  0.00     0.049 A 
ATOM     37  N   UNL A   1      42.728  26.762  27.963  1.00  0.00    -0.248 NA
ATOM     38  C   UNL A   1      41.220  24.983  28.057  1.00  0.00     0.031 C 
ATOM     39  C   UNL A   1      45.871  23.966  26.438  1.00  0.00     0.029 A 
ATOM     40  N   UNL A   1      45.455  26.058  27.107  1.00  0.00    -0.354 N 
ATOM     41  C   UNL A   1      41.496  27.224  28.403  1.00  0.00     0.074 A 
ATOM     42  C   UNL A   1      40.586  26.101  28.382  1.00  0.00     0.031 C 
ATOM     43  C   UNL A   1      47.011  24.664  26.311  1.00  0.00     0.029 A 
ATOM     44  C   UNL A   1      46.768  26.049  26.701  1.00  0.00     0.049 A 
ATOM     45  H   UNL A   1      45.007  26.860  27.461  1.00  0.00     0.167 HD
ATOM     46  C   UNL A   1      41.163  28.471  28.811  1.00  0.00     0.037 A 
ATOM     47  C   UNL A   1      47.670  27.049  26.633  1.00  0.00     0.037 A 
ATOM     48  C   UNL A   1      42.081  29.576  28.858  1.00  0.00     0.049 A 
ATOM     49  C   UNL A   1      47.263  28.434  27.058  1.00  0.00     0.074 A 
ATOM     50  C   UNL A   1      41.853  30.864  29.310  1.00  0.00     0.029 A 
ATOM     51  N   UNL A   1      43.404  29.527  28.438  1.00  0.00    -0.354 N 
ATOM     52  N   UNL A   1      46.108  28.851  27.517  1.00  0.00    -0.248 NA
ATOM     53  C   UNL A   1      48.282  29.490  26.953  1.00  0.00     0.031 C 
ATOM     54  C   UNL A   1      43.017  31.609  29.110  1.00  0.00     0.029 A 
ATOM     55  C   UNL A   1      43.993  30.770  28.594  1.00  0.00     0.049 A 
ATOM     56  H   UNL A   1      43.854  28.727  28.083  1.00  0.00     0.167 HD
ATOM     57  C   UNL A   1      46.267  30.204  27.780  1.00  0.00     0.074 A 
ATOM     58  C   UNL A   1      47.633  30.541  27.438  1.00  0.00     0.031 C 
ATOM     59  C   UNL A   1      45.359  31.088  28.262  1.00  0.00     0.037 A 
BRANCH  46  60
ATOM     60  C   UNL A   1      39.750  28.713  29.255  1.00  0.00     0.064 A 
ATOM     61  C   UNL A   1      38.792  29.192  28.349  1.00  0.00     0.173 A 
ATOM     62  C   UNL A   1      39.364  28.553  30.594  1.00  0.00     0.173 A 
ATOM     63  F   UNL A   1      39.110  29.368  27.058  1.00  0.00    -0.203 F 
ATOM     64  C   UNL A   1      37.505  29.517  28.770  1.00  0.00     0.198 A 
ATOM     65  C   UNL A   1      38.067  28.848  31.006  1.00  0.00     0.198 A 
ATOM     66  F   UNL A   1      40.239  28.089  31.499  1.00  0.00    -0.203 F 
ATOM     67  F   UNL A   1      36.618  30.009  27.894  1.00  0.00    -0.200 F 
ATOM     68  C   UNL A   1      37.142  29.341  30.097  1.00  0.00     0.200 A 
ATOM     69  F   UNL A   1      37.712  28.655  32.283  1.00  0.00    -0.200 F 
ATOM     70  F   UNL A   1      35.902  29.647  30.501  1.00  0.00    -0.200 F 
ENDBRANCH  46  60
BRANCH  47  71
ATOM     71  C   UNL A   1      49.049  26.762  26.160  1.00  0.00     0.064 A 
ATOM     72  C   UNL A   1      49.415  26.926  24.815  1.00  0.00     0.173 A 
ATOM     73  C   UNL A   1      50.024  26.282  27.045  1.00  0.00     0.173 A 
ATOM     74  F   UNL A   1      48.518  27.377  23.926  1.00  0.00    -0.203 F 
ATOM     75  C   UNL A   1      50.694  26.598  24.371  1.00  0.00     0.198 A 
ATOM     76  C   UNL A   1      51.312  25.982  26.605  1.00  0.00     0.198 A 
ATOM     77  F   UNL A   1      49.730  26.128  28.345  1.00  0.00    -0.203 F 
ATOM     78  F   UNL A   1      51.003  26.726  23.073  1.00  0.00    -0.200 F 
ATOM     79  C   UNL A   1      51.643  26.132  25.267  1.00  0.00     0.200 A 
ATOM     80  F   UNL A   1      52.234  25.555  27.480  1.00  0.00    -0.200 F 
ATOM     81  F   UNL A   1      52.876  25.826  24.841  1.00  0.00    -0.200 F 
ENDBRANCH  47  71
BRANCH  59  82
ATOM     82  C   UNL A   1      45.800  32.505  28.482  1.00  0.00     0.064 A 
ATOM     83  C   UNL A   1      46.299  32.905  29.732  1.00  0.00     0.173 A 
ATOM     84  C   UNL A   1      45.620  33.489  27.500  1.00  0.00     0.173 A 
ATOM     85  F   UNL A   1      46.481  32.002  30.707  1.00  0.00    -0.203 F 
ATOM     86  C   UNL A   1      46.572  34.242  29.999  1.00  0.00     0.198 A 
ATOM     87  C   UNL A   1      45.923  34.822  27.762  1.00  0.00     0.198 A 
ATOM     88  F   UNL A   1      45.158  33.154  26.286  1.00  0.00    -0.203 F 
ATOM     89  F   UNL A   1      46.998  34.608  31.216  1.00  0.00    -0.200 F 
ATOM     90  C   UNL A   1      46.384  35.200  29.014  1.00  0.00     0.200 A 
ATOM     91  F   UNL A   1      45.762  35.744  26.803  1.00  0.00    -0.200 F 
ATOM     92  F   UNL A   1      46.644  36.489  29.274  1.00  0.00    -0.200 F 
ENDBRANCH  59  82
ENDBRANCH  33  34
ENDBRANCH  25  28
ENDBRANCH  23  24
ENDBRANCH  22  23
ENDBRANCH   1  22
TORSDOF 14
ENDMDL
