MODEL 1
REMARK VINA RESULT:     -11.5      0.000      0.000
REMARK SMILES CC(C)C[C@@H](C(=O)NCCCNC(=O)c1ccc(-c2c3nc(c(-c4c(F)c(F)c(F)c(F)c4F)c4ccc([nH]4)c(-c4c(F)c(F)c(F)c(F)c4F)c4nc(c(-c5c(F)c(F)c(F)c(F)c5F)c5ccc2[nH]5)C=C4)C=C3)cc1)[C@@H]1CCC[C@@H](C)C1
REMARK SMILES IDX 10 1 9 2 8 3 6 4 7 5 5 7 4 8 2 9 1 10 3 11 78 12 79 13 84 14
REMARK SMILES IDX 80 15 82 16 81 17 83 18 11 19 12 20 13 21 14 23 15 24 16 25
REMARK SMILES IDX 77 26 17 27 76 28 18 29 19 30 20 31 70 32 21 33 75 34 69 35
REMARK SMILES IDX 71 36 22 37 74 38 68 39 67 40 23 42 55 43 35 44 54 45 36 46
REMARK SMILES IDX 39 47 53 48 72 49 37 50 38 51 52 53 73 54 40 55 24 56 25 57
REMARK SMILES IDX 33 58 26 59 27 60 31 61 34 62 28 63 29 64 32 65 30 66 56 67
REMARK SMILES IDX 57 68 65 69 58 70 59 71 63 72 66 73 60 74 61 75 64 76 62 77
REMARK SMILES IDX 41 78 42 79 50 80 43 81 44 82 48 83 51 84 45 85 46 86 49 87
REMARK SMILES IDX 47 88
REMARK H PARENT 8 6 12 22 71 41 39 52
REMARK Flexibility Score: inf
ROOT
ATOM      1  C   UNL A   1      33.432  29.210  24.379  1.00  0.00     0.042 C 
ENDROOT
BRANCH   1   2
ATOM      2  C   UNL A   1      32.553  28.952  23.149  1.00  0.00     0.117 C 
BRANCH   2   3
ATOM      3  N   UNL A   1      33.070  27.974  22.207  1.00  0.00    -0.356 N 
ATOM      4  C   UNL A   1      33.049  26.625  22.123  1.00  0.00     0.223 C 
ATOM      5  O   UNL A   1      33.333  26.177  21.003  1.00  0.00    -0.275 OA
ATOM      6  H   UNL A   1      33.547  28.392  21.454  1.00  0.00     0.163 HD
BRANCH   4   7
ATOM      7  C   UNL A   1      32.778  25.646  23.271  1.00  0.00     0.082 C 
BRANCH   7   8
ATOM      8  C   UNL A   1      33.859  24.558  23.447  1.00  0.00     0.016 C 
BRANCH   8   9
ATOM      9  C   UNL A   1      34.697  24.629  24.748  1.00  0.00    -0.017 C 
ATOM     10  C   UNL A   1      34.207  25.695  25.729  1.00  0.00     0.007 C 
ATOM     11  C   UNL A   1      34.654  23.267  25.453  1.00  0.00     0.007 C 
ENDBRANCH   8   9
ENDBRANCH   7   8
BRANCH   7  12
ATOM     12  C   UNL A   1      31.280  25.221  23.437  1.00  0.00     0.002 C 
ATOM     13  C   UNL A   1      30.302  26.274  23.980  1.00  0.00     0.004 C 
ATOM     14  C   UNL A   1      31.061  23.863  24.152  1.00  0.00     0.007 C 
ATOM     15  C   UNL A   1      30.262  26.350  25.497  1.00  0.00     0.001 C 
ATOM     16  C   UNL A   1      30.985  23.947  25.685  1.00  0.00    -0.014 C 
ATOM     17  C   UNL A   1      29.964  24.996  26.128  1.00  0.00     0.003 C 
ATOM     18  C   UNL A   1      30.649  22.582  26.286  1.00  0.00     0.007 C 
ENDBRANCH   7  12
ENDBRANCH   4   7
ENDBRANCH   2   3
ENDBRANCH   1   2
BRANCH   1  19
ATOM     19  C   UNL A   1      32.715  29.228  25.730  1.00  0.00     0.118 C 
BRANCH  19  20
ATOM     20  N   UNL A   1      32.487  30.581  26.202  1.00  0.00    -0.352 N 
ATOM     21  C   UNL A   1      33.184  31.376  27.071  1.00  0.00     0.251 C 
ATOM     22  H   UNL A   1      31.681  31.006  25.829  1.00  0.00     0.163 HD
ATOM     23  O   UNL A   1      32.670  32.429  27.445  1.00  0.00    -0.269 OA
BRANCH  21  24
ATOM     24  C   UNL A   1      34.530  31.020  27.580  1.00  0.00     0.039 A 
ATOM     25  C   UNL A   1      34.773  29.672  27.875  1.00  0.00     0.014 A 
ATOM     26  C   UNL A   1      35.493  31.978  27.912  1.00  0.00     0.014 A 
ATOM     27  C   UNL A   1      35.966  29.283  28.490  1.00  0.00     0.010 A 
ATOM     28  C   UNL A   1      36.706  31.586  28.491  1.00  0.00     0.010 A 
ATOM     29  C   UNL A   1      36.940  30.239  28.810  1.00  0.00    -0.014 A 
BRANCH  29  30
ATOM     30  C   UNL A   1      38.156  29.842  29.562  1.00  0.00     0.031 A 
ATOM     31  C   UNL A   1      38.374  30.357  30.958  1.00  0.00     0.074 A 
ATOM     32  C   UNL A   1      39.058  29.014  29.008  1.00  0.00     0.049 A 
ATOM     33  N   UNL A   1      39.374  30.135  31.775  1.00  0.00    -0.248 NA
ATOM     34  C   UNL A   1      37.337  31.244  31.504  1.00  0.00     0.031 C 
ATOM     35  C   UNL A   1      38.975  28.448  27.662  1.00  0.00     0.029 A 
ATOM     36  N   UNL A   1      40.227  28.503  29.516  1.00  0.00    -0.354 N 
ATOM     37  C   UNL A   1      39.098  30.872  32.918  1.00  0.00     0.074 A 
ATOM     38  C   UNL A   1      37.842  31.554  32.691  1.00  0.00     0.031 C 
ATOM     39  C   UNL A   1      40.040  27.655  27.456  1.00  0.00     0.029 A 
ATOM     40  C   UNL A   1      40.884  27.667  28.649  1.00  0.00     0.049 A 
ATOM     41  H   UNL A   1      40.562  28.715  30.417  1.00  0.00     0.167 HD
ATOM     42  C   UNL A   1      39.823  30.969  34.057  1.00  0.00     0.037 A 
ATOM     43  C   UNL A   1      42.035  26.986  28.801  1.00  0.00     0.037 A 
ATOM     44  C   UNL A   1      41.049  30.267  34.317  1.00  0.00     0.049 A 
ATOM     45  C   UNL A   1      42.798  27.077  30.092  1.00  0.00     0.074 A 
ATOM     46  C   UNL A   1      41.829  30.280  35.460  1.00  0.00     0.029 A 
ATOM     47  N   UNL A   1      41.668  29.411  33.420  1.00  0.00    -0.354 N 
ATOM     48  N   UNL A   1      42.518  27.767  31.168  1.00  0.00    -0.248 NA
ATOM     49  C   UNL A   1      44.038  26.290  30.185  1.00  0.00     0.031 C 
ATOM     50  C   UNL A   1      42.927  29.437  35.253  1.00  0.00     0.029 A 
ATOM     51  C   UNL A   1      42.822  28.893  33.983  1.00  0.00     0.049 A 
ATOM     52  H   UNL A   1      41.337  29.204  32.517  1.00  0.00     0.167 HD
ATOM     53  C   UNL A   1      43.536  27.494  32.070  1.00  0.00     0.074 A 
ATOM     54  C   UNL A   1      44.441  26.569  31.418  1.00  0.00     0.031 C 
ATOM     55  C   UNL A   1      43.705  27.970  33.326  1.00  0.00     0.037 A 
BRANCH  42  56
ATOM     56  C   UNL A   1      39.300  31.882  35.119  1.00  0.00     0.064 A 
ATOM     57  C   UNL A   1      39.585  33.254  35.104  1.00  0.00     0.173 A 
ATOM     58  C   UNL A   1      38.482  31.383  36.143  1.00  0.00     0.173 A 
ATOM     59  F   UNL A   1      40.375  33.767  34.149  1.00  0.00    -0.203 F 
ATOM     60  C   UNL A   1      39.077  34.097  36.086  1.00  0.00     0.198 A 
ATOM     61  C   UNL A   1      37.968  32.232  37.119  1.00  0.00     0.198 A 
ATOM     62  F   UNL A   1      38.187  30.076  36.196  1.00  0.00    -0.203 F 
ATOM     63  F   UNL A   1      39.376  35.403  36.069  1.00  0.00    -0.200 F 
ATOM     64  C   UNL A   1      38.266  33.586  37.091  1.00  0.00     0.200 A 
ATOM     65  F   UNL A   1      37.186  31.738  38.089  1.00  0.00    -0.200 F 
ATOM     66  F   UNL A   1      37.777  34.400  38.036  1.00  0.00    -0.200 F 
ENDBRANCH  42  56
BRANCH  43  67
ATOM     67  C   UNL A   1      42.529  26.130  27.698  1.00  0.00     0.064 A 
ATOM     68  C   UNL A   1      42.031  24.834  27.519  1.00  0.00     0.173 A 
ATOM     69  C   UNL A   1      43.503  26.595  26.805  1.00  0.00     0.173 A 
ATOM     70  F   UNL A   1      41.112  24.347  28.368  1.00  0.00    -0.203 F 
ATOM     71  C   UNL A   1      42.494  24.026  26.485  1.00  0.00     0.198 A 
ATOM     72  C   UNL A   1      43.959  25.789  25.765  1.00  0.00     0.198 A 
ATOM     73  F   UNL A   1      44.009  27.828  26.946  1.00  0.00    -0.203 F 
ATOM     74  F   UNL A   1      42.018  22.782  26.344  1.00  0.00    -0.200 F 
ATOM     75  C   UNL A   1      43.456  24.505  25.607  1.00  0.00     0.200 A 
ATOM     76  F   UNL A   1      44.889  26.253  24.920  1.00  0.00    -0.200 F 
ATOM     77  F   UNL A   1      43.903  23.727  24.612  1.00  0.00    -0.200 F 
ENDBRANCH  43  67
BRANCH  55  78
ATOM     78  C   UNL A   1      44.902  27.490  34.083  1.00  0.00     0.064 A 
ATOM     79  C   UNL A   1      44.850  26.316  34.845  1.00  0.00     0.173 A 
ATOM     80  C   UNL A   1      46.117  28.183  34.011  1.00  0.00     0.173 A 
ATOM     81  F   UNL A   1      43.702  25.629  34.950  1.00  0.00    -0.203 F 
ATOM     82  C   UNL A   1      45.978  25.853  35.517  1.00  0.00     0.198 A 
ATOM     83  C   UNL A   1      47.245  27.714  34.678  1.00  0.00     0.198 A 
ATOM     84  F   UNL A   1      46.208  29.313  33.295  1.00  0.00    -0.203 F 
ATOM     85  F   UNL A   1      45.906  24.736  36.254  1.00  0.00    -0.200 F 
ATOM     86  C   UNL A   1      47.175  26.550  35.430  1.00  0.00     0.200 A 
ATOM     87  F   UNL A   1      48.400  28.389  34.597  1.00  0.00    -0.200 F 
ATOM     88  F   UNL A   1      48.259  26.104  36.078  1.00  0.00    -0.200 F 
ENDBRANCH  55  78
ENDBRANCH  29  30
ENDBRANCH  21  24
ENDBRANCH  19  20
ENDBRANCH   1  19
TORSDOF 13
ENDMDL
MODEL 2
REMARK VINA RESULT:     -11.5      0.482      7.502
REMARK SMILES CC(C)C[C@@H](C(=O)NCCCNC(=O)c1ccc(-c2c3nc(c(-c4c(F)c(F)c(F)c(F)c4F)c4ccc([nH]4)c(-c4c(F)c(F)c(F)c(F)c4F)c4nc(c(-c5c(F)c(F)c(F)c(F)c5F)c5ccc2[nH]5)C=C4)C=C3)cc1)[C@@H]1CCC[C@@H](C)C1
REMARK SMILES IDX 10 1 9 2 8 3 6 4 7 5 5 7 4 8 2 9 1 10 3 11 78 12 79 13 84 14
REMARK SMILES IDX 80 15 82 16 81 17 83 18 11 19 12 20 13 21 14 23 15 24 16 25
REMARK SMILES IDX 77 26 17 27 76 28 18 29 19 30 20 31 70 32 21 33 75 34 69 35
REMARK SMILES IDX 71 36 22 37 74 38 68 39 67 40 23 42 55 43 35 44 54 45 36 46
REMARK SMILES IDX 39 47 53 48 72 49 37 50 38 51 52 53 73 54 40 55 24 56 25 57
REMARK SMILES IDX 33 58 26 59 27 60 31 61 34 62 28 63 29 64 32 65 30 66 56 67
REMARK SMILES IDX 57 68 65 69 58 70 59 71 63 72 66 73 60 74 61 75 64 76 62 77
REMARK SMILES IDX 41 78 42 79 50 80 43 81 44 82 48 83 51 84 45 85 46 86 49 87
REMARK SMILES IDX 47 88
REMARK H PARENT 8 6 12 22 71 41 39 52
REMARK Flexibility Score: inf
ROOT
ATOM      1  C   UNL A   1      33.539  28.985  23.905  1.00  0.00     0.042 C 
ENDROOT
BRANCH   1   2
ATOM      2  C   UNL A   1      32.587  28.624  22.757  1.00  0.00     0.117 C 
BRANCH   2   3
ATOM      3  N   UNL A   1      33.066  27.595  21.850  1.00  0.00    -0.356 N 
ATOM      4  C   UNL A   1      33.033  26.244  21.833  1.00  0.00     0.223 C 
ATOM      5  O   UNL A   1      33.278  25.739  20.729  1.00  0.00    -0.275 OA
ATOM      6  H   UNL A   1      33.522  27.971  21.062  1.00  0.00     0.163 HD
BRANCH   4   7
ATOM      7  C   UNL A   1      32.791  25.325  23.037  1.00  0.00     0.082 C 
BRANCH   7   8
ATOM      8  C   UNL A   1      33.865  24.232  23.228  1.00  0.00     0.016 C 
BRANCH   8   9
ATOM      9  C   UNL A   1      34.748  24.354  24.495  1.00  0.00    -0.017 C 
ATOM     10  C   UNL A   1      34.391  25.554  25.373  1.00  0.00     0.007 C 
ATOM     11  C   UNL A   1      34.604  23.080  25.337  1.00  0.00     0.007 C 
ENDBRANCH   8   9
ENDBRANCH   7   8
BRANCH   7  12
ATOM     12  C   UNL A   1      31.295  24.929  23.276  1.00  0.00     0.002 C 
ATOM     13  C   UNL A   1      30.302  26.062  23.576  1.00  0.00     0.004 C 
ATOM     14  C   UNL A   1      31.080  23.750  24.259  1.00  0.00     0.007 C 
ATOM     15  C   UNL A   1      30.246  26.456  25.043  1.00  0.00     0.001 C 
ATOM     16  C   UNL A   1      30.988  24.154  25.740  1.00  0.00    -0.014 C 
ATOM     17  C   UNL A   1      29.953  25.263  25.942  1.00  0.00     0.003 C 
ATOM     18  C   UNL A   1      30.656  22.943  26.612  1.00  0.00     0.007 C 
ENDBRANCH   7  12
ENDBRANCH   4   7
ENDBRANCH   2   3
ENDBRANCH   1   2
BRANCH   1  19
ATOM     19  C   UNL A   1      32.959  28.891  25.317  1.00  0.00     0.118 C 
BRANCH  19  20
ATOM     20  N   UNL A   1      32.595  30.196  25.838  1.00  0.00    -0.352 N 
ATOM     21  C   UNL A   1      33.159  30.985  26.804  1.00  0.00     0.251 C 
ATOM     22  H   UNL A   1      31.793  30.585  25.420  1.00  0.00     0.163 HD
ATOM     23  O   UNL A   1      32.541  31.976  27.187  1.00  0.00    -0.269 OA
BRANCH  21  24
ATOM     24  C   UNL A   1      34.481  30.692  27.407  1.00  0.00     0.039 A 
ATOM     25  C   UNL A   1      34.696  29.397  27.898  1.00  0.00     0.014 A 
ATOM     26  C   UNL A   1      35.445  31.680  27.637  1.00  0.00     0.014 A 
ATOM     27  C   UNL A   1      35.861  29.089  28.604  1.00  0.00     0.010 A 
ATOM     28  C   UNL A   1      36.631  31.363  28.309  1.00  0.00     0.010 A 
ATOM     29  C   UNL A   1      36.835  30.073  28.822  1.00  0.00    -0.014 A 
BRANCH  29  30
ATOM     30  C   UNL A   1      38.019  29.775  29.666  1.00  0.00     0.031 A 
ATOM     31  C   UNL A   1      39.103  28.873  29.144  1.00  0.00     0.074 A 
ATOM     32  C   UNL A   1      38.135  30.317  30.891  1.00  0.00     0.049 A 
ATOM     33  N   UNL A   1      40.209  28.484  29.729  1.00  0.00    -0.248 NA
ATOM     34  C   UNL A   1      38.916  28.331  27.790  1.00  0.00     0.031 C 
ATOM     35  C   UNL A   1      37.156  31.200  31.523  1.00  0.00     0.029 A 
ATOM     36  N   UNL A   1      39.135  30.201  31.824  1.00  0.00    -0.354 N 
ATOM     37  C   UNL A   1      40.834  27.635  28.826  1.00  0.00     0.074 A 
ATOM     38  C   UNL A   1      39.985  27.558  27.656  1.00  0.00     0.031 C 
ATOM     39  C   UNL A   1      37.612  31.560  32.736  1.00  0.00     0.029 A 
ATOM     40  C   UNL A   1      38.906  30.923  32.968  1.00  0.00     0.049 A 
ATOM     41  H   UNL A   1      39.942  29.653  31.685  1.00  0.00     0.167 HD
ATOM     42  C   UNL A   1      42.013  26.981  28.956  1.00  0.00     0.037 A 
ATOM     43  C   UNL A   1      39.657  31.058  34.077  1.00  0.00     0.037 A 
ATOM     44  C   UNL A   1      42.889  27.079  30.091  1.00  0.00     0.049 A 
ATOM     45  C   UNL A   1      40.982  30.356  34.179  1.00  0.00     0.074 A 
ATOM     46  C   UNL A   1      44.120  26.478  30.288  1.00  0.00     0.029 A 
ATOM     47  N   UNL A   1      42.629  27.840  31.219  1.00  0.00    -0.354 N 
ATOM     48  N   UNL A   1      41.566  29.568  33.312  1.00  0.00    -0.248 NA
ATOM     49  C   UNL A   1      41.750  30.567  35.416  1.00  0.00     0.031 C 
ATOM     50  C   UNL A   1      44.604  26.870  31.542  1.00  0.00     0.029 A 
ATOM     51  C   UNL A   1      43.675  27.722  32.118  1.00  0.00     0.049 A 
ATOM     52  H   UNL A   1      41.820  28.383  31.360  1.00  0.00     0.167 HD
ATOM     53  C   UNL A   1      42.771  29.195  33.890  1.00  0.00     0.074 A 
ATOM     54  C   UNL A   1      42.840  29.847  35.182  1.00  0.00     0.031 C 
ATOM     55  C   UNL A   1      43.733  28.383  33.393  1.00  0.00     0.037 A 
BRANCH  42  56
ATOM     56  C   UNL A   1      42.423  26.090  27.829  1.00  0.00     0.064 A 
ATOM     57  C   UNL A   1      43.287  26.542  26.822  1.00  0.00     0.173 A 
ATOM     58  C   UNL A   1      41.972  24.764  27.774  1.00  0.00     0.173 A 
ATOM     59  F   UNL A   1      43.730  27.808  26.832  1.00  0.00    -0.203 F 
ATOM     60  C   UNL A   1      43.678  25.697  25.789  1.00  0.00     0.198 A 
ATOM     61  C   UNL A   1      42.373  23.918  26.743  1.00  0.00     0.198 A 
ATOM     62  F   UNL A   1      41.142  24.293  28.715  1.00  0.00    -0.203 F 
ATOM     63  F   UNL A   1      44.489  26.151  24.823  1.00  0.00    -0.200 F 
ATOM     64  C   UNL A   1      43.224  24.385  25.752  1.00  0.00     0.200 A 
ATOM     65  F   UNL A   1      41.934  22.653  26.707  1.00  0.00    -0.200 F 
ATOM     66  F   UNL A   1      43.602  23.573  24.756  1.00  0.00    -0.200 F 
ENDBRANCH  42  56
BRANCH  43  67
ATOM     67  C   UNL A   1      39.180  31.920  35.182  1.00  0.00     0.064 A 
ATOM     68  C   UNL A   1      39.459  33.292  35.192  1.00  0.00     0.173 A 
ATOM     69  C   UNL A   1      38.436  31.387  36.243  1.00  0.00     0.173 A 
ATOM     70  F   UNL A   1      40.187  33.833  34.204  1.00  0.00    -0.203 F 
ATOM     71  C   UNL A   1      39.014  34.104  36.230  1.00  0.00     0.198 A 
ATOM     72  C   UNL A   1      37.984  32.203  37.277  1.00  0.00     0.198 A 
ATOM     73  F   UNL A   1      38.153  30.077  36.273  1.00  0.00    -0.203 F 
ATOM     74  F   UNL A   1      39.308  35.411  36.230  1.00  0.00    -0.200 F 
ATOM     75  C   UNL A   1      38.274  33.560  37.271  1.00  0.00     0.200 A 
ATOM     76  F   UNL A   1      37.271  31.675  38.281  1.00  0.00    -0.200 F 
ATOM     77  F   UNL A   1      37.846  34.342  38.272  1.00  0.00    -0.200 F 
ENDBRANCH  43  67
BRANCH  55  78
ATOM     78  C   UNL A   1      44.946  28.164  34.237  1.00  0.00     0.064 A 
ATOM     79  C   UNL A   1      45.015  27.093  35.138  1.00  0.00     0.173 A 
ATOM     80  C   UNL A   1      46.062  29.003  34.115  1.00  0.00     0.173 A 
ATOM     81  F   UNL A   1      43.964  26.274  35.294  1.00  0.00    -0.203 F 
ATOM     82  C   UNL A   1      46.162  26.871  35.894  1.00  0.00     0.198 A 
ATOM     83  C   UNL A   1      47.211  28.773  34.868  1.00  0.00     0.198 A 
ATOM     84  F   UNL A   1      46.036  30.041  33.267  1.00  0.00    -0.203 F 
ATOM     85  F   UNL A   1      46.205  25.851  36.762  1.00  0.00    -0.200 F 
ATOM     86  C   UNL A   1      47.260  27.709  35.756  1.00  0.00     0.200 A 
ATOM     87  F   UNL A   1      48.270  29.585  34.736  1.00  0.00    -0.200 F 
ATOM     88  F   UNL A   1      48.363  27.495  36.485  1.00  0.00    -0.200 F 
ENDBRANCH  55  78
ENDBRANCH  29  30
ENDBRANCH  21  24
ENDBRANCH  19  20
ENDBRANCH   1  19
TORSDOF 13
ENDMDL
MODEL 3
REMARK VINA RESULT:     -11.5      2.114      8.014
REMARK SMILES CC(C)C[C@@H](C(=O)NCCCNC(=O)c1ccc(-c2c3nc(c(-c4c(F)c(F)c(F)c(F)c4F)c4ccc([nH]4)c(-c4c(F)c(F)c(F)c(F)c4F)c4nc(c(-c5c(F)c(F)c(F)c(F)c5F)c5ccc2[nH]5)C=C4)C=C3)cc1)[C@@H]1CCC[C@@H](C)C1
REMARK SMILES IDX 10 1 9 2 8 3 6 4 7 5 5 7 4 8 2 9 1 10 3 11 78 12 79 13 84 14
REMARK SMILES IDX 80 15 82 16 81 17 83 18 11 19 12 20 13 21 14 23 15 24 16 25
REMARK SMILES IDX 77 26 17 27 76 28 18 29 19 30 20 31 70 32 21 33 75 34 69 35
REMARK SMILES IDX 71 36 22 37 74 38 68 39 67 40 23 42 55 43 35 44 54 45 36 46
REMARK SMILES IDX 39 47 53 48 72 49 37 50 38 51 52 53 73 54 40 55 24 56 25 57
REMARK SMILES IDX 33 58 26 59 27 60 31 61 34 62 28 63 29 64 32 65 30 66 56 67
REMARK SMILES IDX 57 68 65 69 58 70 59 71 63 72 66 73 60 74 61 75 64 76 62 77
REMARK SMILES IDX 41 78 42 79 50 80 43 81 44 82 48 83 51 84 45 85 46 86 49 87
REMARK SMILES IDX 47 88
REMARK H PARENT 8 6 12 22 71 41 39 52
REMARK Flexibility Score: inf
ROOT
ATOM      1  C   UNL A   1      31.447  32.144  26.524  1.00  0.00     0.042 C 
ENDROOT
BRANCH   1   2
ATOM      2  C   UNL A   1      31.578  30.692  26.047  1.00  0.00     0.117 C 
BRANCH   2   3
ATOM      3  N   UNL A   1      31.031  30.417  24.730  1.00  0.00    -0.356 N 
ATOM      4  C   UNL A   1      30.771  29.297  24.017  1.00  0.00     0.223 C 
ATOM      5  O   UNL A   1      30.014  29.468  23.052  1.00  0.00    -0.275 OA
ATOM      6  H   UNL A   1      30.793  31.238  24.241  1.00  0.00     0.163 HD
BRANCH   4   7
ATOM      7  C   UNL A   1      31.367  27.906  24.260  1.00  0.00     0.082 C 
BRANCH   7   8
ATOM      8  C   UNL A   1      30.831  27.196  25.523  1.00  0.00     0.016 C 
BRANCH   8   9
ATOM      9  C   UNL A   1      29.992  25.917  25.286  1.00  0.00    -0.017 C 
ATOM     10  C   UNL A   1      29.978  25.460  23.827  1.00  0.00     0.007 C 
ATOM     11  C   UNL A   1      30.554  24.776  26.144  1.00  0.00     0.007 C 
ENDBRANCH   8   9
ENDBRANCH   7   8
BRANCH   7  12
ATOM     12  C   UNL A   1      32.894  27.775  23.942  1.00  0.00     0.002 C 
ATOM     13  C   UNL A   1      33.290  27.451  22.493  1.00  0.00     0.004 C 
ATOM     14  C   UNL A   1      33.695  26.889  24.930  1.00  0.00     0.007 C 
ATOM     15  C   UNL A   1      33.279  25.967  22.172  1.00  0.00     0.001 C 
ATOM     16  C   UNL A   1      33.713  25.391  24.584  1.00  0.00    -0.014 C 
ATOM     17  C   UNL A   1      34.150  25.169  23.134  1.00  0.00     0.003 C 
ATOM     18  C   UNL A   1      34.623  24.625  25.543  1.00  0.00     0.007 C 
ENDBRANCH   7  12
ENDBRANCH   4   7
ENDBRANCH   2   3
ENDBRANCH   1   2
BRANCH   1  19
ATOM     19  C   UNL A   1      32.649  32.717  27.278  1.00  0.00     0.118 C 
BRANCH  19  20
ATOM     20  N   UNL A   1      32.450  34.112  27.628  1.00  0.00    -0.352 N 
ATOM     21  C   UNL A   1      32.977  34.889  28.623  1.00  0.00     0.251 C 
ATOM     22  H   UNL A   1      31.818  34.587  27.041  1.00  0.00     0.163 HD
ATOM     23  O   UNL A   1      32.498  36.005  28.813  1.00  0.00    -0.269 OA
BRANCH  21  24
ATOM     24  C   UNL A   1      34.099  34.439  29.482  1.00  0.00     0.039 A 
ATOM     25  C   UNL A   1      35.384  34.443  28.923  1.00  0.00     0.014 A 
ATOM     26  C   UNL A   1      33.906  33.880  30.750  1.00  0.00     0.014 A 
ATOM     27  C   UNL A   1      36.465  33.901  29.622  1.00  0.00     0.010 A 
ATOM     28  C   UNL A   1      34.995  33.374  31.469  1.00  0.00     0.010 A 
ATOM     29  C   UNL A   1      36.277  33.355  30.899  1.00  0.00    -0.014 A 
BRANCH  29  30
ATOM     30  C   UNL A   1      37.402  32.681  31.594  1.00  0.00     0.031 A 
ATOM     31  C   UNL A   1      38.144  31.566  30.909  1.00  0.00     0.074 A 
ATOM     32  C   UNL A   1      37.771  33.068  32.827  1.00  0.00     0.049 A 
ATOM     33  N   UNL A   1      39.147  30.846  31.349  1.00  0.00    -0.248 NA
ATOM     34  C   UNL A   1      37.696  31.208  29.555  1.00  0.00     0.031 C 
ATOM     35  C   UNL A   1      37.134  34.127  33.608  1.00  0.00     0.029 A 
ATOM     36  N   UNL A   1      38.778  32.611  33.640  1.00  0.00    -0.354 N 
ATOM     37  C   UNL A   1      39.431  29.938  30.340  1.00  0.00     0.074 A 
ATOM     38  C   UNL A   1      38.494  30.189  29.265  1.00  0.00     0.031 C 
ATOM     39  C   UNL A   1      37.776  34.250  34.783  1.00  0.00     0.029 A 
ATOM     40  C   UNL A   1      38.859  33.271  34.839  1.00  0.00     0.049 A 
ATOM     41  H   UNL A   1      39.386  31.879  33.385  1.00  0.00     0.167 HD
ATOM     42  C   UNL A   1      40.390  28.982  30.306  1.00  0.00     0.037 A 
ATOM     43  C   UNL A   1      39.713  33.107  35.867  1.00  0.00     0.037 A 
ATOM     44  C   UNL A   1      41.355  28.747  31.344  1.00  0.00     0.049 A 
ATOM     45  C   UNL A   1      40.795  32.068  35.788  1.00  0.00     0.074 A 
ATOM     46  C   UNL A   1      42.384  27.822  31.375  1.00  0.00     0.029 A 
ATOM     47  N   UNL A   1      41.416  29.454  32.534  1.00  0.00    -0.354 N 
ATOM     48  N   UNL A   1      41.060  31.226  34.821  1.00  0.00    -0.248 NA
ATOM     49  C   UNL A   1      41.697  31.961  36.945  1.00  0.00     0.031 C 
ATOM     50  C   UNL A   1      43.066  27.964  32.590  1.00  0.00     0.029 A 
ATOM     51  C   UNL A   1      42.464  28.985  33.307  1.00  0.00     0.049 A 
ATOM     52  H   UNL A   1      40.805  30.181  32.791  1.00  0.00     0.167 HD
ATOM     53  C   UNL A   1      42.161  30.496  35.245  1.00  0.00     0.074 A 
ATOM     54  C   UNL A   1      42.521  30.997  36.556  1.00  0.00     0.031 C 
ATOM     55  C   UNL A   1      42.813  29.499  34.603  1.00  0.00     0.037 A 
BRANCH  42  56
ATOM     56  C   UNL A   1      40.437  28.109  29.094  1.00  0.00     0.064 A 
ATOM     57  C   UNL A   1      41.224  28.447  27.985  1.00  0.00     0.173 A 
ATOM     58  C   UNL A   1      39.712  26.910  29.056  1.00  0.00     0.173 A 
ATOM     59  F   UNL A   1      41.922  29.593  27.977  1.00  0.00    -0.203 F 
ATOM     60  C   UNL A   1      41.276  27.616  26.871  1.00  0.00     0.198 A 
ATOM     61  C   UNL A   1      39.774  26.077  27.943  1.00  0.00     0.198 A 
ATOM     62  F   UNL A   1      38.945  26.551  30.095  1.00  0.00    -0.203 F 
ATOM     63  F   UNL A   1      42.018  27.964  25.810  1.00  0.00    -0.200 F 
ATOM     64  C   UNL A   1      40.554  26.430  26.852  1.00  0.00     0.200 A 
ATOM     65  F   UNL A   1      39.076  24.934  27.924  1.00  0.00    -0.200 F 
ATOM     66  F   UNL A   1      40.606  25.632  25.777  1.00  0.00    -0.200 F 
ENDBRANCH  42  56
BRANCH  43  67
ATOM     67  C   UNL A   1      39.591  33.971  37.063  1.00  0.00     0.064 A 
ATOM     68  C   UNL A   1      38.859  33.549  38.180  1.00  0.00     0.173 A 
ATOM     69  C   UNL A   1      40.204  35.230  37.110  1.00  0.00     0.173 A 
ATOM     70  F   UNL A   1      38.241  32.358  38.163  1.00  0.00    -0.203 F 
ATOM     71  C   UNL A   1      38.741  34.359  39.305  1.00  0.00     0.198 A 
ATOM     72  C   UNL A   1      40.092  36.036  38.239  1.00  0.00     0.198 A 
ATOM     73  F   UNL A   1      40.908  35.673  36.058  1.00  0.00    -0.203 F 
ATOM     74  F   UNL A   1      38.021  33.944  40.355  1.00  0.00    -0.200 F 
ATOM     75  C   UNL A   1      39.359  35.601  39.335  1.00  0.00     0.200 A 
ATOM     76  F   UNL A   1      40.688  37.235  38.266  1.00  0.00    -0.200 F 
ATOM     77  F   UNL A   1      39.244  36.382  40.418  1.00  0.00    -0.200 F 
ENDBRANCH  43  67
BRANCH  55  78
ATOM     78  C   UNL A   1      43.989  28.892  35.300  1.00  0.00     0.064 A 
ATOM     79  C   UNL A   1      43.829  27.810  36.176  1.00  0.00     0.173 A 
ATOM     80  C   UNL A   1      45.285  29.365  35.057  1.00  0.00     0.173 A 
ATOM     81  F   UNL A   1      42.603  27.335  36.446  1.00  0.00    -0.203 F 
ATOM     82  C   UNL A   1      44.931  27.224  36.792  1.00  0.00     0.198 A 
ATOM     83  C   UNL A   1      46.386  28.772  35.669  1.00  0.00     0.198 A 
ATOM     84  F   UNL A   1      45.481  30.400  34.227  1.00  0.00    -0.203 F 
ATOM     85  F   UNL A   1      44.758  26.201  37.640  1.00  0.00    -0.200 F 
ATOM     86  C   UNL A   1      46.208  27.703  36.535  1.00  0.00     0.200 A 
ATOM     87  F   UNL A   1      47.619  29.236  35.423  1.00  0.00    -0.200 F 
ATOM     88  F   UNL A   1      47.268  27.139  37.130  1.00  0.00    -0.200 F 
ENDBRANCH  55  78
ENDBRANCH  29  30
ENDBRANCH  21  24
ENDBRANCH  19  20
ENDBRANCH   1  19
TORSDOF 13
ENDMDL
