MODEL 1
REMARK VINA RESULT:     -11.5      0.000      0.000
REMARK SMILES O=C(NCCCNC(=O)[C@H](CCOCC(F)(F)F)c1ccccc1Br)c1ccc(-c2c3nc(c(-c4c(F)c(F)c(F)c(F)c4F)c4ccc([nH]4)c(-c4c(F)c(F)c(F)c(F)c4F)c4nc(c(-c5c(F)c(F)c(F)c(F)c5F)c5ccc2[nH]5)C=C4)C=C3)cc1
REMARK SMILES IDX 7 1 8 2 9 3 6 5 5 6 4 7 3 8 1 9 2 10 26 12 27 13 88 14 28 15
REMARK SMILES IDX 87 16 29 17 30 18 31 19 81 20 32 21 86 22 80 23 82 24 33 25
REMARK SMILES IDX 85 26 79 27 78 28 34 30 66 31 46 32 65 33 47 34 50 35 64 36
REMARK SMILES IDX 83 37 48 38 49 39 63 41 84 42 51 43 35 44 36 45 44 46 37 47
REMARK SMILES IDX 38 48 42 49 45 50 39 51 40 52 43 53 41 54 67 55 68 56 76 57
REMARK SMILES IDX 69 58 70 59 74 60 77 61 71 62 72 63 75 64 73 65 52 66 53 67
REMARK SMILES IDX 61 68 54 69 55 70 59 71 62 72 56 73 57 74 60 75 58 76 10 77
REMARK SMILES IDX 19 78 20 79 24 80 21 81 23 82 25 83 22 84 11 85 12 86 13 87
REMARK SMILES IDX 14 88 15 89 16 90 17 91 18 92
REMARK H PARENT 7 4 3 11 82 29 50 40
REMARK Flexibility Score: inf
ROOT
ATOM      1  N   UNL A   1      33.161  27.275  21.524  1.00  0.00    -0.356 N 
ATOM      2  C   UNL A   1      32.800  25.963  21.527  1.00  0.00     0.227 C 
ATOM      3  O   UNL A   1      32.155  25.566  20.551  1.00  0.00    -0.274 OA
ATOM      4  H   UNL A   1      32.763  27.799  20.792  1.00  0.00     0.163 HD
ENDROOT
BRANCH   1   5
ATOM      5  C   UNL A   1      34.026  28.048  22.401  1.00  0.00     0.117 C 
BRANCH   5   6
ATOM      6  C   UNL A   1      33.205  29.056  23.208  1.00  0.00     0.042 C 
BRANCH   6   7
ATOM      7  C   UNL A   1      33.535  29.038  24.694  1.00  0.00     0.118 C 
BRANCH   7   8
ATOM      8  N   UNL A   1      32.882  30.090  25.456  1.00  0.00    -0.352 N 
ATOM      9  O   UNL A   1      32.323  31.628  26.955  1.00  0.00    -0.269 OA
ATOM     10  C   UNL A   1      33.167  30.800  26.598  1.00  0.00     0.251 C 
ATOM     11  H   UNL A   1      32.024  30.361  25.057  1.00  0.00     0.163 HD
BRANCH  10  12
ATOM     12  C   UNL A   1      34.391  30.636  27.436  1.00  0.00     0.039 A 
ATOM     13  C   UNL A   1      34.810  29.429  27.980  1.00  0.00     0.014 A 
ATOM     14  C   UNL A   1      35.220  31.758  27.632  1.00  0.00     0.014 A 
ATOM     15  C   UNL A   1      35.931  29.363  28.804  1.00  0.00     0.010 A 
ATOM     16  C   UNL A   1      36.423  31.666  28.353  1.00  0.00     0.010 A 
ATOM     17  C   UNL A   1      36.785  30.463  28.965  1.00  0.00    -0.014 A 
BRANCH  17  18
ATOM     18  C   UNL A   1      38.066  30.250  29.695  1.00  0.00     0.031 A 
ATOM     19  C   UNL A   1      38.262  30.716  31.111  1.00  0.00     0.074 A 
ATOM     20  C   UNL A   1      39.031  29.522  29.092  1.00  0.00     0.049 A 
ATOM     21  N   UNL A   1      39.271  30.489  31.918  1.00  0.00    -0.248 NA
ATOM     22  C   UNL A   1      37.205  31.552  31.697  1.00  0.00     0.031 C 
ATOM     23  C   UNL A   1      38.977  29.048  27.705  1.00  0.00     0.029 A 
ATOM     24  N   UNL A   1      40.207  28.998  29.568  1.00  0.00    -0.354 N 
ATOM     25  C   UNL A   1      38.979  31.165  33.095  1.00  0.00     0.074 A 
ATOM     26  C   UNL A   1      37.712  31.834  32.891  1.00  0.00     0.031 C 
ATOM     27  C   UNL A   1      40.007  28.223  27.478  1.00  0.00     0.029 A 
ATOM     28  C   UNL A   1      40.843  28.171  28.672  1.00  0.00     0.049 A 
ATOM     29  H   UNL A   1      40.560  29.196  30.466  1.00  0.00     0.167 HD
ATOM     30  C   UNL A   1      39.701  31.214  34.242  1.00  0.00     0.037 A 
ATOM     31  C   UNL A   1      41.973  27.450  28.789  1.00  0.00     0.037 A 
ATOM     32  C   UNL A   1      40.954  30.531  34.448  1.00  0.00     0.049 A 
ATOM     33  C   UNL A   1      42.731  27.500  30.083  1.00  0.00     0.074 A 
ATOM     34  C   UNL A   1      41.758  30.522  35.575  1.00  0.00     0.029 A 
ATOM     35  N   UNL A   1      41.582  29.729  33.505  1.00  0.00    -0.354 N 
ATOM     36  N   UNL A   1      42.435  28.139  31.188  1.00  0.00    -0.248 NA
ATOM     37  C   UNL A   1      43.985  26.739  30.144  1.00  0.00     0.031 C 
ATOM     38  C   UNL A   1      42.887  29.740  35.305  1.00  0.00     0.029 A 
ATOM     39  C   UNL A   1      42.766  29.227  34.024  1.00  0.00     0.049 A 
ATOM     40  H   UNL A   1      41.237  29.543  32.603  1.00  0.00     0.167 HD
ATOM     41  C   UNL A   1      43.468  27.868  32.073  1.00  0.00     0.074 A 
ATOM     42  C   UNL A   1      44.373  26.965  31.391  1.00  0.00     0.031 C 
ATOM     43  C   UNL A   1      43.661  28.341  33.327  1.00  0.00     0.037 A 
BRANCH  30  44
ATOM     44  C   UNL A   1      39.159  32.041  35.372  1.00  0.00     0.064 A 
ATOM     45  C   UNL A   1      38.410  31.468  36.409  1.00  0.00     0.173 A 
ATOM     46  C   UNL A   1      39.447  33.413  35.453  1.00  0.00     0.173 A 
ATOM     47  F   UNL A   1      38.098  30.164  36.375  1.00  0.00    -0.203 F 
ATOM     48  C   UNL A   1      37.955  32.239  37.477  1.00  0.00     0.198 A 
ATOM     49  C   UNL A   1      39.013  34.175  36.534  1.00  0.00     0.198 A 
ATOM     50  F   UNL A   1      40.167  34.010  34.490  1.00  0.00    -0.203 F 
ATOM     51  F   UNL A   1      37.215  31.676  38.442  1.00  0.00    -0.200 F 
ATOM     52  C   UNL A   1      38.266  33.590  37.543  1.00  0.00     0.200 A 
ATOM     53  F   UNL A   1      39.325  35.478  36.602  1.00  0.00    -0.200 F 
ATOM     54  F   UNL A   1      37.840  34.327  38.578  1.00  0.00    -0.200 F 
ENDBRANCH  30  44
BRANCH  31  55
ATOM     55  C   UNL A   1      42.461  26.638  27.643  1.00  0.00     0.064 A 
ATOM     56  C   UNL A   1      43.418  27.137  26.749  1.00  0.00     0.173 A 
ATOM     57  C   UNL A   1      41.977  25.339  27.419  1.00  0.00     0.173 A 
ATOM     58  F   UNL A   1      43.898  28.380  26.906  1.00  0.00    -0.203 F 
ATOM     59  C   UNL A   1      43.860  26.377  25.668  1.00  0.00     0.198 A 
ATOM     60  C   UNL A   1      42.446  24.566  26.360  1.00  0.00     0.198 A 
ATOM     61  F   UNL A   1      41.062  24.812  28.246  1.00  0.00    -0.203 F 
ATOM     62  F   UNL A   1      44.741  26.895  24.801  1.00  0.00    -0.200 F 
ATOM     63  C   UNL A   1      43.380  25.088  25.480  1.00  0.00     0.200 A 
ATOM     64  F   UNL A   1      41.994  23.316  26.196  1.00  0.00    -0.200 F 
ATOM     65  F   UNL A   1      43.813  24.354  24.446  1.00  0.00    -0.200 F 
ENDBRANCH  31  55
BRANCH  43  66
ATOM     66  C   UNL A   1      44.903  27.885  34.033  1.00  0.00     0.064 A 
ATOM     67  C   UNL A   1      44.888  26.773  34.890  1.00  0.00     0.173 A 
ATOM     68  C   UNL A   1      46.117  28.565  33.857  1.00  0.00     0.173 A 
ATOM     69  F   UNL A   1      43.748  26.102  35.106  1.00  0.00    -0.203 F 
ATOM     70  C   UNL A   1      46.037  26.382  35.572  1.00  0.00     0.198 A 
ATOM     71  C   UNL A   1      47.270  28.153  34.518  1.00  0.00     0.198 A 
ATOM     72  F   UNL A   1      46.183  29.631  33.046  1.00  0.00    -0.203 F 
ATOM     73  F   UNL A   1      45.986  25.354  36.431  1.00  0.00    -0.200 F 
ATOM     74  C   UNL A   1      47.227  27.069  35.383  1.00  0.00     0.200 A 
ATOM     75  F   UNL A   1      48.420  28.813  34.330  1.00  0.00    -0.200 F 
ATOM     76  F   UNL A   1      48.330  26.694  36.045  1.00  0.00    -0.200 F 
ENDBRANCH  43  66
ENDBRANCH  17  18
ENDBRANCH  10  12
ENDBRANCH   7   8
ENDBRANCH   6   7
ENDBRANCH   5   6
ENDBRANCH   1   5
BRANCH   2  77
ATOM     77  C   UNL A   1      33.154  25.024  22.705  1.00  0.00     0.112 C 
BRANCH  77  78
ATOM     78  C   UNL A   1      32.304  25.335  23.965  1.00  0.00    -0.021 A 
ATOM     79  C   UNL A   1      31.063  25.998  23.758  1.00  0.00     0.006 A 
ATOM     80  C   UNL A   1      32.690  25.182  25.316  1.00  0.00     0.021 A 
ATOM     81  C   UNL A   1      30.269  26.481  24.804  1.00  0.00     0.000 A 
ATOM     82  C   UNL A   1      31.899  25.701  26.361  1.00  0.00     0.016 A 
ATOM     83  Br  UNL A   1      34.250  24.310  25.963  1.00  0.00    -0.051 Br
ATOM     84  C   UNL A   1      30.698  26.350  26.110  1.00  0.00     0.001 A 
ENDBRANCH  77  78
BRANCH  77  85
ATOM     85  C   UNL A   1      33.136  23.600  22.092  1.00  0.00     0.047 C 
BRANCH  85  86
ATOM     86  C   UNL A   1      32.299  22.596  22.902  1.00  0.00     0.161 C 
BRANCH  86  87
ATOM     87  O   UNL A   1      33.035  21.512  23.454  1.00  0.00    -0.372 OA
BRANCH  87  88
ATOM     88  C   UNL A   1      32.319  20.527  24.211  1.00  0.00     0.275 C 
BRANCH  88  89
ATOM     89  C   UNL A   1      33.011  19.195  24.477  1.00  0.00     0.411 C 
ATOM     90  F   UNL A   1      34.325  19.375  24.735  1.00  0.00    -0.168 F 
ATOM     91  F   UNL A   1      32.477  18.599  25.569  1.00  0.00    -0.168 F 
ATOM     92  F   UNL A   1      32.901  18.337  23.445  1.00  0.00    -0.168 F 
ENDBRANCH  88  89
ENDBRANCH  87  88
ENDBRANCH  86  87
ENDBRANCH  85  86
ENDBRANCH  77  85
ENDBRANCH   2  77
TORSDOF 16
ENDMDL
MODEL 2
REMARK VINA RESULT:     -11.2      1.457      2.401
REMARK SMILES O=C(NCCCNC(=O)[C@H](CCOCC(F)(F)F)c1ccccc1Br)c1ccc(-c2c3nc(c(-c4c(F)c(F)c(F)c(F)c4F)c4ccc([nH]4)c(-c4c(F)c(F)c(F)c(F)c4F)c4nc(c(-c5c(F)c(F)c(F)c(F)c5F)c5ccc2[nH]5)C=C4)C=C3)cc1
REMARK SMILES IDX 7 1 8 2 9 3 6 5 5 6 4 7 3 8 1 9 2 10 26 12 27 13 88 14 28 15
REMARK SMILES IDX 87 16 29 17 30 18 31 19 81 20 32 21 86 22 80 23 82 24 33 25
REMARK SMILES IDX 85 26 79 27 78 28 34 30 66 31 46 32 65 33 47 34 50 35 64 36
REMARK SMILES IDX 83 37 48 38 49 39 63 41 84 42 51 43 35 44 36 45 44 46 37 47
REMARK SMILES IDX 38 48 42 49 45 50 39 51 40 52 43 53 41 54 67 55 68 56 76 57
REMARK SMILES IDX 69 58 70 59 74 60 77 61 71 62 72 63 75 64 73 65 52 66 53 67
REMARK SMILES IDX 61 68 54 69 55 70 59 71 62 72 56 73 57 74 60 75 58 76 10 77
REMARK SMILES IDX 19 78 20 79 24 80 21 81 23 82 25 83 22 84 11 85 12 86 13 87
REMARK SMILES IDX 14 88 15 89 16 90 17 91 18 92
REMARK H PARENT 7 4 3 11 82 29 50 40
REMARK Flexibility Score: inf
ROOT
ATOM      1  N   UNL A   1      32.016  25.500  26.548  1.00  0.00    -0.356 N 
ATOM      2  C   UNL A   1      31.871  24.147  26.536  1.00  0.00     0.227 C 
ATOM      3  O   UNL A   1      31.452  23.629  27.576  1.00  0.00    -0.274 OA
ATOM      4  H   UNL A   1      31.881  25.911  27.432  1.00  0.00     0.163 HD
ENDROOT
BRANCH   1   5
ATOM      5  C   UNL A   1      32.334  26.454  25.496  1.00  0.00     0.117 C 
BRANCH   5   6
ATOM      6  C   UNL A   1      33.443  27.403  25.955  1.00  0.00     0.042 C 
BRANCH   6   7
ATOM      7  C   UNL A   1      33.518  28.675  25.122  1.00  0.00     0.118 C 
BRANCH   7   8
ATOM      8  N   UNL A   1      32.961  29.846  25.782  1.00  0.00    -0.352 N 
ATOM      9  O   UNL A   1      32.560  31.577  27.111  1.00  0.00    -0.269 OA
ATOM     10  C   UNL A   1      33.339  30.663  26.820  1.00  0.00     0.251 C 
ATOM     11  H   UNL A   1      32.103  30.122  25.387  1.00  0.00     0.163 HD
BRANCH  10  12
ATOM     12  C   UNL A   1      34.588  30.520  27.624  1.00  0.00     0.039 A 
ATOM     13  C   UNL A   1      34.948  29.369  28.312  1.00  0.00     0.014 A 
ATOM     14  C   UNL A   1      35.503  31.591  27.629  1.00  0.00     0.014 A 
ATOM     15  C   UNL A   1      36.102  29.328  29.092  1.00  0.00     0.010 A 
ATOM     16  C   UNL A   1      36.732  31.505  28.308  1.00  0.00     0.010 A 
ATOM     17  C   UNL A   1      37.038  30.371  29.065  1.00  0.00    -0.014 A 
BRANCH  17  18
ATOM     18  C   UNL A   1      38.336  30.161  29.766  1.00  0.00     0.031 A 
ATOM     19  C   UNL A   1      38.579  30.670  31.160  1.00  0.00     0.074 A 
ATOM     20  C   UNL A   1      39.271  29.398  29.161  1.00  0.00     0.049 A 
ATOM     21  N   UNL A   1      39.607  30.453  31.945  1.00  0.00    -0.248 NA
ATOM     22  C   UNL A   1      37.553  31.542  31.747  1.00  0.00     0.031 C 
ATOM     23  C   UNL A   1      39.171  28.880  27.792  1.00  0.00     0.029 A 
ATOM     24  N   UNL A   1      40.452  28.870  29.621  1.00  0.00    -0.354 N 
ATOM     25  C   UNL A   1      39.359  31.172  33.107  1.00  0.00     0.074 A 
ATOM     26  C   UNL A   1      38.097  31.854  32.917  1.00  0.00     0.031 C 
ATOM     27  C   UNL A   1      40.181  28.032  27.564  1.00  0.00     0.029 A 
ATOM     28  C   UNL A   1      41.049  28.005  28.735  1.00  0.00     0.049 A 
ATOM     29  H   UNL A   1      40.834  29.092  30.501  1.00  0.00     0.167 HD
ATOM     30  C   UNL A   1      40.113  31.245  34.231  1.00  0.00     0.037 A 
ATOM     31  C   UNL A   1      42.171  27.270  28.844  1.00  0.00     0.037 A 
ATOM     32  C   UNL A   1      41.361  30.549  34.425  1.00  0.00     0.049 A 
ATOM     33  C   UNL A   1      42.967  27.349  30.115  1.00  0.00     0.074 A 
ATOM     34  C   UNL A   1      42.197  30.563  35.529  1.00  0.00     0.029 A 
ATOM     35  N   UNL A   1      41.950  29.707  33.492  1.00  0.00    -0.354 N 
ATOM     36  N   UNL A   1      42.712  28.029  31.205  1.00  0.00    -0.248 NA
ATOM     37  C   UNL A   1      44.210  26.570  30.166  1.00  0.00     0.031 C 
ATOM     38  C   UNL A   1      43.305  29.755  35.254  1.00  0.00     0.029 A 
ATOM     39  C   UNL A   1      43.140  29.202  33.994  1.00  0.00     0.049 A 
ATOM     40  H   UNL A   1      41.576  29.497  32.606  1.00  0.00     0.167 HD
ATOM     41  C   UNL A   1      43.765  27.769  32.070  1.00  0.00     0.074 A 
ATOM     42  C   UNL A   1      44.637  26.830  31.394  1.00  0.00     0.031 C 
ATOM     43  C   UNL A   1      44.001  28.279  33.302  1.00  0.00     0.037 A 
BRANCH  30  44
ATOM     44  C   UNL A   1      39.617  32.118  35.348  1.00  0.00     0.064 A 
ATOM     45  C   UNL A   1      39.983  33.468  35.445  1.00  0.00     0.173 A 
ATOM     46  C   UNL A   1      38.712  31.615  36.296  1.00  0.00     0.173 A 
ATOM     47  F   UNL A   1      40.852  33.995  34.570  1.00  0.00    -0.203 F 
ATOM     48  C   UNL A   1      39.475  34.279  36.458  1.00  0.00     0.198 A 
ATOM     49  C   UNL A   1      38.186  32.434  37.292  1.00  0.00     0.198 A 
ATOM     50  F   UNL A   1      38.322  30.332  36.245  1.00  0.00    -0.203 F 
ATOM     51  F   UNL A   1      39.863  35.558  36.549  1.00  0.00    -0.200 F 
ATOM     52  C   UNL A   1      38.570  33.763  37.375  1.00  0.00     0.200 A 
ATOM     53  F   UNL A   1      37.302  31.938  38.169  1.00  0.00    -0.200 F 
ATOM     54  F   UNL A   1      38.072  34.548  38.340  1.00  0.00    -0.200 F 
ENDBRANCH  30  44
BRANCH  31  55
ATOM     55  C   UNL A   1      42.614  26.412  27.712  1.00  0.00     0.064 A 
ATOM     56  C   UNL A   1      43.544  26.871  26.769  1.00  0.00     0.173 A 
ATOM     57  C   UNL A   1      42.113  25.111  27.552  1.00  0.00     0.173 A 
ATOM     58  F   UNL A   1      44.039  28.114  26.865  1.00  0.00    -0.203 F 
ATOM     59  C   UNL A   1      43.943  26.068  25.702  1.00  0.00     0.198 A 
ATOM     60  C   UNL A   1      42.539  24.296  26.506  1.00  0.00     0.198 A 
ATOM     61  F   UNL A   1      41.222  24.622  28.427  1.00  0.00    -0.203 F 
ATOM     62  F   UNL A   1      44.799  26.547  24.789  1.00  0.00    -0.200 F 
ATOM     63  C   UNL A   1      43.448  24.778  25.577  1.00  0.00     0.200 A 
ATOM     64  F   UNL A   1      42.073  23.045  26.402  1.00  0.00    -0.200 F 
ATOM     65  F   UNL A   1      43.840  24.004  24.557  1.00  0.00    -0.200 F 
ENDBRANCH  31  55
BRANCH  43  66
ATOM     66  C   UNL A   1      45.256  27.826  33.988  1.00  0.00     0.064 A 
ATOM     67  C   UNL A   1      45.265  26.693  34.816  1.00  0.00     0.173 A 
ATOM     68  C   UNL A   1      46.456  28.530  33.820  1.00  0.00     0.173 A 
ATOM     69  F   UNL A   1      44.137  25.998  35.022  1.00  0.00    -0.203 F 
ATOM     70  C   UNL A   1      46.425  26.304  35.480  1.00  0.00     0.198 A 
ATOM     71  C   UNL A   1      47.621  28.120  34.464  1.00  0.00     0.198 A 
ATOM     72  F   UNL A   1      46.499  29.618  33.036  1.00  0.00    -0.203 F 
ATOM     73  F   UNL A   1      46.396  25.254  36.313  1.00  0.00    -0.200 F 
ATOM     74  C   UNL A   1      47.602  27.015  35.300  1.00  0.00     0.200 A 
ATOM     75  F   UNL A   1      48.759  28.804  34.284  1.00  0.00    -0.200 F 
ATOM     76  F   UNL A   1      48.715  26.641  35.945  1.00  0.00    -0.200 F 
ENDBRANCH  43  66
ENDBRANCH  17  18
ENDBRANCH  10  12
ENDBRANCH   7   8
ENDBRANCH   6   7
ENDBRANCH   5   6
ENDBRANCH   1   5
BRANCH   2  77
ATOM     77  C   UNL A   1      32.241  23.300  25.295  1.00  0.00     0.112 C 
BRANCH  77  78
ATOM     78  C   UNL A   1      33.769  23.309  25.026  1.00  0.00    -0.021 A 
ATOM     79  C   UNL A   1      34.624  23.364  26.161  1.00  0.00     0.006 A 
ATOM     80  C   UNL A   1      34.416  23.433  23.775  1.00  0.00     0.021 A 
ATOM     81  C   UNL A   1      36.009  23.537  26.070  1.00  0.00     0.000 A 
ATOM     82  C   UNL A   1      35.808  23.639  23.694  1.00  0.00     0.016 A 
ATOM     83  Br  UNL A   1      33.602  23.356  22.059  1.00  0.00    -0.051 Br
ATOM     84  C   UNL A   1      36.601  23.696  24.832  1.00  0.00     0.001 A 
ENDBRANCH  77  78
BRANCH  77  85
ATOM     85  C   UNL A   1      31.500  21.954  25.504  1.00  0.00     0.047 C 
BRANCH  85  86
ATOM     86  C   UNL A   1      32.446  20.745  25.606  1.00  0.00     0.161 C 
BRANCH  86  87
ATOM     87  O   UNL A   1      32.099  19.643  24.778  1.00  0.00    -0.372 OA
BRANCH  87  88
ATOM     88  C   UNL A   1      32.757  18.391  25.012  1.00  0.00     0.275 C 
BRANCH  88  89
ATOM     89  C   UNL A   1      33.302  17.638  23.803  1.00  0.00     0.411 C 
ATOM     90  F   UNL A   1      32.925  16.342  23.829  1.00  0.00    -0.168 F 
ATOM     91  F   UNL A   1      32.808  18.166  22.659  1.00  0.00    -0.168 F 
ATOM     92  F   UNL A   1      34.647  17.681  23.728  1.00  0.00    -0.168 F 
ENDBRANCH  88  89
ENDBRANCH  87  88
ENDBRANCH  86  87
ENDBRANCH  85  86
ENDBRANCH  77  85
ENDBRANCH   2  77
TORSDOF 16
ENDMDL
MODEL 3
REMARK VINA RESULT:     -11.2      2.709      3.366
REMARK SMILES O=C(NCCCNC(=O)[C@H](CCOCC(F)(F)F)c1ccccc1Br)c1ccc(-c2c3nc(c(-c4c(F)c(F)c(F)c(F)c4F)c4ccc([nH]4)c(-c4c(F)c(F)c(F)c(F)c4F)c4nc(c(-c5c(F)c(F)c(F)c(F)c5F)c5ccc2[nH]5)C=C4)C=C3)cc1
REMARK SMILES IDX 7 1 8 2 9 3 6 5 5 6 4 7 3 8 1 9 2 10 26 12 27 13 88 14 28 15
REMARK SMILES IDX 87 16 29 17 30 18 31 19 81 20 32 21 86 22 80 23 82 24 33 25
REMARK SMILES IDX 85 26 79 27 78 28 34 30 66 31 46 32 65 33 47 34 50 35 64 36
REMARK SMILES IDX 83 37 48 38 49 39 63 41 84 42 51 43 35 44 36 45 44 46 37 47
REMARK SMILES IDX 38 48 42 49 45 50 39 51 40 52 43 53 41 54 67 55 68 56 76 57
REMARK SMILES IDX 69 58 70 59 74 60 77 61 71 62 72 63 75 64 73 65 52 66 53 67
REMARK SMILES IDX 61 68 54 69 55 70 59 71 62 72 56 73 57 74 60 75 58 76 10 77
REMARK SMILES IDX 19 78 20 79 24 80 21 81 23 82 25 83 22 84 11 85 12 86 13 87
REMARK SMILES IDX 14 88 15 89 16 90 17 91 18 92
REMARK H PARENT 7 4 3 11 82 29 50 40
REMARK Flexibility Score: inf
ROOT
ATOM      1  N   UNL A   1      33.620  26.457  23.760  1.00  0.00    -0.356 N 
ATOM      2  C   UNL A   1      32.764  26.059  22.779  1.00  0.00     0.227 C 
ATOM      3  O   UNL A   1      33.201  26.086  21.623  1.00  0.00    -0.274 OA
ATOM      4  H   UNL A   1      34.464  26.839  23.426  1.00  0.00     0.163 HD
ENDROOT
BRANCH   1   5
ATOM      5  C   UNL A   1      33.520  26.423  25.211  1.00  0.00     0.117 C 
BRANCH   5   6
ATOM      6  C   UNL A   1      32.827  27.686  25.727  1.00  0.00     0.042 C 
BRANCH   6   7
ATOM      7  C   UNL A   1      33.292  28.950  25.018  1.00  0.00     0.118 C 
BRANCH   7   8
ATOM      8  N   UNL A   1      32.807  30.180  25.624  1.00  0.00    -0.352 N 
ATOM      9  O   UNL A   1      32.494  31.974  26.891  1.00  0.00    -0.269 OA
ATOM     10  C   UNL A   1      33.208  30.993  26.657  1.00  0.00     0.251 C 
ATOM     11  H   UNL A   1      31.989  30.512  25.187  1.00  0.00     0.163 HD
BRANCH  10  12
ATOM     12  C   UNL A   1      34.409  30.775  27.515  1.00  0.00     0.039 A 
ATOM     13  C   UNL A   1      34.785  29.544  28.035  1.00  0.00     0.014 A 
ATOM     14  C   UNL A   1      35.263  31.869  27.755  1.00  0.00     0.014 A 
ATOM     15  C   UNL A   1      35.886  29.426  28.879  1.00  0.00     0.010 A 
ATOM     16  C   UNL A   1      36.449  31.726  28.498  1.00  0.00     0.010 A 
ATOM     17  C   UNL A   1      36.766  30.498  29.086  1.00  0.00    -0.014 A 
BRANCH  17  18
ATOM     18  C   UNL A   1      38.026  30.231  29.836  1.00  0.00     0.031 A 
ATOM     19  C   UNL A   1      38.212  30.674  31.260  1.00  0.00     0.074 A 
ATOM     20  C   UNL A   1      38.975  29.478  29.240  1.00  0.00     0.049 A 
ATOM     21  N   UNL A   1      39.198  30.402  32.081  1.00  0.00    -0.248 NA
ATOM     22  C   UNL A   1      37.175  31.538  31.838  1.00  0.00     0.031 C 
ATOM     23  C   UNL A   1      38.930  29.023  27.846  1.00  0.00     0.029 A 
ATOM     24  N   UNL A   1      40.124  28.908  29.730  1.00  0.00    -0.354 N 
ATOM     25  C   UNL A   1      38.909  31.073  33.262  1.00  0.00     0.074 A 
ATOM     26  C   UNL A   1      37.669  31.788  33.045  1.00  0.00     0.031 C 
ATOM     27  C   UNL A   1      39.935  28.166  27.627  1.00  0.00     0.029 A 
ATOM     28  C   UNL A   1      40.747  28.070  28.834  1.00  0.00     0.049 A 
ATOM     29  H   UNL A   1      40.468  29.082  30.636  1.00  0.00     0.167 HD
ATOM     30  C   UNL A   1      39.611  31.083  34.422  1.00  0.00     0.037 A 
ATOM     31  C   UNL A   1      41.849  27.310  28.962  1.00  0.00     0.037 A 
ATOM     32  C   UNL A   1      40.836  30.355  34.641  1.00  0.00     0.049 A 
ATOM     33  C   UNL A   1      42.585  27.318  30.270  1.00  0.00     0.074 A 
ATOM     34  C   UNL A   1      41.619  30.304  35.782  1.00  0.00     0.029 A 
ATOM     35  N   UNL A   1      41.452  29.543  33.699  1.00  0.00    -0.354 N 
ATOM     36  N   UNL A   1      42.292  27.953  31.377  1.00  0.00    -0.248 NA
ATOM     37  C   UNL A   1      43.811  26.512  30.343  1.00  0.00     0.031 C 
ATOM     38  C   UNL A   1      42.724  29.487  35.522  1.00  0.00     0.029 A 
ATOM     39  C   UNL A   1      42.609  28.993  34.233  1.00  0.00     0.049 A 
ATOM     40  H   UNL A   1      41.118  29.380  32.789  1.00  0.00     0.167 HD
ATOM     41  C   UNL A   1      43.299  27.635  32.276  1.00  0.00     0.074 A 
ATOM     42  C   UNL A   1      44.184  26.710  31.599  1.00  0.00     0.031 C 
ATOM     43  C   UNL A   1      43.486  28.085  33.540  1.00  0.00     0.037 A 
BRANCH  30  44
ATOM     44  C   UNL A   1      39.078  31.915  35.553  1.00  0.00     0.064 A 
ATOM     45  C   UNL A   1      38.261  31.363  36.550  1.00  0.00     0.173 A 
ATOM     46  C   UNL A   1      39.441  33.265  35.676  1.00  0.00     0.173 A 
ATOM     47  F   UNL A   1      37.877  30.080  36.474  1.00  0.00    -0.203 F 
ATOM     48  C   UNL A   1      37.814  32.134  37.621  1.00  0.00     0.198 A 
ATOM     49  C   UNL A   1      39.013  34.027  36.760  1.00  0.00     0.198 A 
ATOM     50  F   UNL A   1      40.226  33.841  34.754  1.00  0.00    -0.203 F 
ATOM     51  F   UNL A   1      37.009  31.594  38.545  1.00  0.00    -0.200 F 
ATOM     52  C   UNL A   1      38.198  33.463  37.729  1.00  0.00     0.200 A 
ATOM     53  F   UNL A   1      39.396  35.307  36.871  1.00  0.00    -0.200 F 
ATOM     54  F   UNL A   1      37.779  34.200  38.767  1.00  0.00    -0.200 F 
ENDBRANCH  30  44
BRANCH  31  55
ATOM     55  C   UNL A   1      42.330  26.495  27.814  1.00  0.00     0.064 A 
ATOM     56  C   UNL A   1      43.307  26.978  26.934  1.00  0.00     0.173 A 
ATOM     57  C   UNL A   1      41.817  25.210  27.575  1.00  0.00     0.173 A 
ATOM     58  F   UNL A   1      43.815  28.208  27.106  1.00  0.00    -0.203 F 
ATOM     59  C   UNL A   1      43.742  26.216  25.851  1.00  0.00     0.198 A 
ATOM     60  C   UNL A   1      42.278  24.434  26.514  1.00  0.00     0.198 A 
ATOM     61  F   UNL A   1      40.881  24.698  28.388  1.00  0.00    -0.203 F 
ATOM     62  F   UNL A   1      44.645  26.719  24.998  1.00  0.00    -0.200 F 
ATOM     63  C   UNL A   1      43.234  24.941  25.648  1.00  0.00     0.200 A 
ATOM     64  F   UNL A   1      41.798  23.197  26.335  1.00  0.00    -0.200 F 
ATOM     65  F   UNL A   1      43.660  24.204  24.613  1.00  0.00    -0.200 F 
ENDBRANCH  31  55
BRANCH  43  66
ATOM     66  C   UNL A   1      44.699  27.578  34.261  1.00  0.00     0.064 A 
ATOM     67  C   UNL A   1      44.657  26.393  35.013  1.00  0.00     0.173 A 
ATOM     68  C   UNL A   1      45.910  28.282  34.206  1.00  0.00     0.173 A 
ATOM     69  F   UNL A   1      43.516  25.695  35.111  1.00  0.00    -0.203 F 
ATOM     70  C   UNL A   1      45.777  25.952  35.712  1.00  0.00     0.198 A 
ATOM     71  C   UNL A   1      47.035  27.821  34.884  1.00  0.00     0.198 A 
ATOM     72  F   UNL A   1      46.001  29.418  33.499  1.00  0.00    -0.203 F 
ATOM     73  F   UNL A   1      45.698  24.850  36.471  1.00  0.00    -0.200 F 
ATOM     74  C   UNL A   1      46.965  26.663  35.643  1.00  0.00     0.200 A 
ATOM     75  F   UNL A   1      48.185  28.506  34.812  1.00  0.00    -0.200 F 
ATOM     76  F   UNL A   1      48.040  26.239  36.322  1.00  0.00    -0.200 F 
ENDBRANCH  43  66
ENDBRANCH  17  18
ENDBRANCH  10  12
ENDBRANCH   7   8
ENDBRANCH   6   7
ENDBRANCH   5   6
ENDBRANCH   1   5
BRANCH   2  77
ATOM     77  C   UNL A   1      31.313  25.624  23.092  1.00  0.00     0.112 C 
BRANCH  77  78
ATOM     78  C   UNL A   1      31.270  24.440  24.094  1.00  0.00    -0.021 A 
ATOM     79  C   UNL A   1      30.620  24.671  25.337  1.00  0.00     0.006 A 
ATOM     80  C   UNL A   1      31.943  23.203  23.983  1.00  0.00     0.021 A 
ATOM     81  C   UNL A   1      30.641  23.754  26.394  1.00  0.00     0.000 A 
ATOM     82  C   UNL A   1      31.986  22.299  25.064  1.00  0.00     0.016 A 
ATOM     83  Br  UNL A   1      32.871  22.542  22.461  1.00  0.00    -0.051 Br
ATOM     84  C   UNL A   1      31.344  22.572  26.264  1.00  0.00     0.001 A 
ENDBRANCH  77  78
BRANCH  77  85
ATOM     85  C   UNL A   1      30.570  26.945  23.421  1.00  0.00     0.047 C 
BRANCH  85  86
ATOM     86  C   UNL A   1      30.783  28.046  22.368  1.00  0.00     0.161 C 
BRANCH  86  87
ATOM     87  O   UNL A   1      29.633  28.831  22.084  1.00  0.00    -0.372 OA
BRANCH  87  88
ATOM     88  C   UNL A   1      29.160  29.725  23.100  1.00  0.00     0.275 C 
BRANCH  88  89
ATOM     89  C   UNL A   1      27.700  30.161  23.041  1.00  0.00     0.411 C 
ATOM     90  F   UNL A   1      27.366  30.566  21.796  1.00  0.00    -0.168 F 
ATOM     91  F   UNL A   1      26.888  29.122  23.343  1.00  0.00    -0.168 F 
ATOM     92  F   UNL A   1      27.422  31.164  23.896  1.00  0.00    -0.168 F 
ENDBRANCH  88  89
ENDBRANCH  87  88
ENDBRANCH  86  87
ENDBRANCH  85  86
ENDBRANCH  77  85
ENDBRANCH   2  77
TORSDOF 16
ENDMDL
