MODEL 1
REMARK VINA RESULT:     -12.3      0.000      0.000
REMARK SMILES CCOc1cc(N2CCC[C@@H](C(=O)NCCCNC(=O)c3ccc(-c4c5nc(c(-c6c(F)c(F)c(F)c(F)c6F)c6ccc([nH]6)c(-c6c(F)c(F)c(F)c(F)c6F)c6nc(c(-c7c(F)c(F)c(F)c(F)c7F)c7ccc4[nH]7)C=C6)C=C5)cc3)C2)nc(SC)n1
REMARK SMILES IDX 15 1 14 2 12 3 13 4 11 6 7 7 8 8 84 9 9 10 10 11 6 12 4 13
REMARK SMILES IDX 5 14 89 15 86 16 85 17 3 18 2 19 1 20 87 21 88 22 16 23
REMARK SMILES IDX 17 24 18 25 19 26 20 28 21 29 22 30 83 31 23 32 82 33 24 34
REMARK SMILES IDX 25 35 26 36 76 37 27 38 81 39 75 40 77 41 28 42 80 43 74 44
REMARK SMILES IDX 73 45 29 47 61 48 41 49 60 50 42 51 45 52 59 53 78 54 43 55
REMARK SMILES IDX 44 56 58 58 79 59 46 60 30 61 31 62 39 63 32 64 33 65 37 66
REMARK SMILES IDX 40 67 34 68 35 69 38 70 36 71 62 72 63 73 71 74 64 75 65 76
REMARK SMILES IDX 69 77 72 78 66 79 67 80 70 81 68 82 47 83 48 84 56 85 49 86
REMARK SMILES IDX 50 87 54 88 57 89 51 90 52 91 55 92 53 93
REMARK H PARENT 14 5 18 27 77 46 45 57
REMARK Flexibility Score: inf
ROOT
ATOM      1  C   UNL A   1      32.526  28.046  23.002  1.00  0.00     0.117 C 
ENDROOT
BRANCH   1   2
ATOM      2  N   UNL A   1      32.899  27.361  21.779  1.00  0.00    -0.356 N 
ATOM      3  C   UNL A   1      32.897  26.067  21.379  1.00  0.00     0.224 C 
ATOM      4  O   UNL A   1      33.270  25.875  20.214  1.00  0.00    -0.275 OA
ATOM      5  H   UNL A   1      33.228  27.974  21.082  1.00  0.00     0.163 HD
BRANCH   3   6
ATOM      6  C   UNL A   1      32.435  24.874  22.209  1.00  0.00     0.098 C 
ATOM      7  N   UNL A   1      32.885  23.011  23.725  1.00  0.00    -0.356 N 
ATOM      8  C   UNL A   1      31.646  23.175  24.484  1.00  0.00     0.118 C 
ATOM      9  C   UNL A   1      33.456  24.199  23.103  1.00  0.00     0.131 C 
ATOM     10  C   UNL A   1      30.605  23.929  23.653  1.00  0.00     0.022 C 
ATOM     11  C   UNL A   1      31.168  25.200  23.004  1.00  0.00     0.017 C 
BRANCH   7  12
ATOM     12  C   UNL A   1      33.714  21.959  24.081  1.00  0.00     0.137 A 
ATOM     13  C   UNL A   1      34.121  19.735  24.701  1.00  0.00     0.219 A 
ATOM     14  C   UNL A   1      33.229  20.685  24.276  1.00  0.00     0.115 A 
ATOM     15  N   UNL A   1      35.398  19.988  24.999  1.00  0.00    -0.187 NA
ATOM     16  C   UNL A   1      35.781  21.258  24.803  1.00  0.00     0.192 A 
ATOM     17  N   UNL A   1      35.003  22.234  24.307  1.00  0.00    -0.205 NA
BRANCH  13  18
ATOM     18  O   UNL A   1      33.656  18.476  24.992  1.00  0.00    -0.478 OA
BRANCH  18  19
ATOM     19  C   UNL A   1      33.042  17.862  23.855  1.00  0.00     0.228 C 
ATOM     20  C   UNL A   1      34.029  16.950  23.136  1.00  0.00     0.049 C 
ENDBRANCH  18  19
ENDBRANCH  13  18
BRANCH  16  21
ATOM     21  S   UNL A   1      37.424  21.698  25.321  1.00  0.00    -0.089 SA
ATOM     22  C   UNL A   1      37.211  23.493  25.482  1.00  0.00     0.094 C 
ENDBRANCH  16  21
ENDBRANCH   7  12
ENDBRANCH   3   6
ENDBRANCH   1   2
BRANCH   1  23
ATOM     23  C   UNL A   1      33.693  28.825  23.610  1.00  0.00     0.042 C 
BRANCH  23  24
ATOM     24  C   UNL A   1      33.653  28.869  25.137  1.00  0.00     0.118 C 
BRANCH  24  25
ATOM     25  N   UNL A   1      33.074  30.114  25.625  1.00  0.00    -0.352 N 
ATOM     26  C   UNL A   1      33.337  30.839  26.759  1.00  0.00     0.251 C 
ATOM     27  H   UNL A   1      32.379  30.498  25.044  1.00  0.00     0.163 HD
ATOM     28  O   UNL A   1      32.544  31.708  27.109  1.00  0.00    -0.269 OA
BRANCH  26  29
ATOM     29  C   UNL A   1      34.556  30.595  27.557  1.00  0.00     0.039 A 
ATOM     30  C   UNL A   1      35.514  31.610  27.651  1.00  0.00     0.014 A 
ATOM     31  C   UNL A   1      34.801  29.351  28.145  1.00  0.00     0.014 A 
ATOM     32  C   UNL A   1      36.693  31.393  28.368  1.00  0.00     0.010 A 
ATOM     33  C   UNL A   1      35.940  29.159  28.921  1.00  0.00     0.010 A 
ATOM     34  C   UNL A   1      36.903  30.173  29.028  1.00  0.00    -0.014 A 
BRANCH  34  35
ATOM     35  C   UNL A   1      38.134  29.926  29.819  1.00  0.00     0.031 A 
ATOM     36  C   UNL A   1      39.201  29.013  29.284  1.00  0.00     0.074 A 
ATOM     37  C   UNL A   1      38.251  30.460  31.049  1.00  0.00     0.049 A 
ATOM     38  N   UNL A   1      40.295  28.586  29.863  1.00  0.00    -0.248 NA
ATOM     39  C   UNL A   1      38.996  28.484  27.927  1.00  0.00     0.031 C 
ATOM     40  C   UNL A   1      37.257  31.320  31.695  1.00  0.00     0.029 A 
ATOM     41  N   UNL A   1      39.249  30.346  31.982  1.00  0.00    -0.354 N 
ATOM     42  C   UNL A   1      40.891  27.721  28.954  1.00  0.00     0.074 A 
ATOM     43  C   UNL A   1      40.016  27.647  27.805  1.00  0.00     0.031 C 
ATOM     44  C   UNL A   1      37.702  31.666  32.913  1.00  0.00     0.029 A 
ATOM     45  C   UNL A   1      38.993  31.026  33.147  1.00  0.00     0.049 A 
ATOM     46  H   UNL A   1      40.072  29.826  31.832  1.00  0.00     0.167 HD
ATOM     47  C   UNL A   1      42.073  27.068  29.061  1.00  0.00     0.037 A 
ATOM     48  C   UNL A   1      39.715  31.115  34.279  1.00  0.00     0.037 A 
ATOM     49  C   UNL A   1      42.954  27.174  30.193  1.00  0.00     0.049 A 
ATOM     50  C   UNL A   1      41.034  30.400  34.364  1.00  0.00     0.074 A 
ATOM     51  C   UNL A   1      44.201  26.602  30.375  1.00  0.00     0.029 A 
ATOM     52  N   UNL A   1      42.680  27.908  31.338  1.00  0.00    -0.354 N 
ATOM     53  N   UNL A   1      41.616  29.631  33.476  1.00  0.00    -0.248 NA
ATOM     54  C   UNL A   1      41.801  30.569  35.606  1.00  0.00     0.031 C 
ATOM     55  C   UNL A   1      44.665  26.963  31.645  1.00  0.00     0.029 A 
ATOM     56  C   UNL A   1      43.728  27.794  32.236  1.00  0.00     0.049 A 
ATOM     57  H   UNL A   1      41.860  28.433  31.489  1.00  0.00     0.167 HD
ATOM     58  C   UNL A   1      42.824  29.244  34.038  1.00  0.00     0.074 A 
ATOM     59  C   UNL A   1      42.899  29.876  35.340  1.00  0.00     0.031 C 
ATOM     60  C   UNL A   1      43.785  28.437  33.524  1.00  0.00     0.037 A 
BRANCH  47  61
ATOM     61  C   UNL A   1      42.480  26.184  27.917  1.00  0.00     0.064 A 
ATOM     62  C   UNL A   1      43.358  26.633  26.918  1.00  0.00     0.173 A 
ATOM     63  C   UNL A   1      42.007  24.866  27.828  1.00  0.00     0.173 A 
ATOM     64  F   UNL A   1      43.830  27.888  26.949  1.00  0.00    -0.203 F 
ATOM     65  C   UNL A   1      43.720  25.807  25.856  1.00  0.00     0.198 A 
ATOM     66  C   UNL A   1      42.393  24.033  26.781  1.00  0.00     0.198 A 
ATOM     67  F   UNL A   1      41.169  24.384  28.759  1.00  0.00    -0.203 F 
ATOM     68  F   UNL A   1      44.515  26.277  24.885  1.00  0.00    -0.200 F 
ATOM     69  C   UNL A   1      43.242  24.508  25.792  1.00  0.00     0.200 A 
ATOM     70  F   UNL A   1      41.941  22.773  26.726  1.00  0.00    -0.200 F 
ATOM     71  F   UNL A   1      43.592  23.713  24.770  1.00  0.00    -0.200 F 
ENDBRANCH  47  61
BRANCH  48  72
ATOM     72  C   UNL A   1      39.216  31.940  35.409  1.00  0.00     0.064 A 
ATOM     73  C   UNL A   1      39.493  33.311  35.472  1.00  0.00     0.173 A 
ATOM     74  C   UNL A   1      38.440  31.380  36.434  1.00  0.00     0.173 A 
ATOM     75  F   UNL A   1      40.246  33.887  34.524  1.00  0.00    -0.203 F 
ATOM     76  C   UNL A   1      39.024  34.092  36.528  1.00  0.00     0.198 A 
ATOM     77  C   UNL A   1      37.951  32.167  37.476  1.00  0.00     0.198 A 
ATOM     78  F   UNL A   1      38.141  30.074  36.415  1.00  0.00    -0.203 F 
ATOM     79  F   UNL A   1      39.334  35.394  36.583  1.00  0.00    -0.200 F 
ATOM     80  C   UNL A   1      38.249  33.521  37.525  1.00  0.00     0.200 A 
ATOM     81  F   UNL A   1      37.190  31.614  38.431  1.00  0.00    -0.200 F 
ATOM     82  F   UNL A   1      37.793  34.274  38.535  1.00  0.00    -0.200 F 
ENDBRANCH  48  72
BRANCH  60  83
ATOM     83  C   UNL A   1      45.011  28.216  34.359  1.00  0.00     0.064 A 
ATOM     84  C   UNL A   1      46.124  29.064  34.268  1.00  0.00     0.173 A 
ATOM     85  C   UNL A   1      45.055  27.167  35.289  1.00  0.00     0.173 A 
ATOM     86  F   UNL A   1      46.134  30.070  33.381  1.00  0.00    -0.203 F 
ATOM     87  C   UNL A   1      47.247  28.856  35.063  1.00  0.00     0.198 A 
ATOM     88  C   UNL A   1      46.169  26.978  36.102  1.00  0.00     0.198 A 
ATOM     89  F   UNL A   1      44.013  26.332  35.417  1.00  0.00    -0.203 F 
ATOM     90  F   UNL A   1      48.316  29.652  34.930  1.00  0.00    -0.200 F 
ATOM     91  C   UNL A   1      47.266  27.819  35.984  1.00  0.00     0.200 A 
ATOM     92  F   UNL A   1      46.181  25.983  36.999  1.00  0.00    -0.200 F 
ATOM     93  F   UNL A   1      48.345  27.624  36.754  1.00  0.00    -0.200 F 
ENDBRANCH  60  83
ENDBRANCH  34  35
ENDBRANCH  26  29
ENDBRANCH  24  25
ENDBRANCH  23  24
ENDBRANCH   1  23
TORSDOF 14
ENDMDL
MODEL 2
REMARK VINA RESULT:     -12.1      0.872      2.344
REMARK SMILES CCOc1cc(N2CCC[C@@H](C(=O)NCCCNC(=O)c3ccc(-c4c5nc(c(-c6c(F)c(F)c(F)c(F)c6F)c6ccc([nH]6)c(-c6c(F)c(F)c(F)c(F)c6F)c6nc(c(-c7c(F)c(F)c(F)c(F)c7F)c7ccc4[nH]7)C=C6)C=C5)cc3)C2)nc(SC)n1
REMARK SMILES IDX 15 1 14 2 12 3 13 4 11 6 7 7 8 8 84 9 9 10 10 11 6 12 4 13
REMARK SMILES IDX 5 14 89 15 86 16 85 17 3 18 2 19 1 20 87 21 88 22 16 23
REMARK SMILES IDX 17 24 18 25 19 26 20 28 21 29 22 30 83 31 23 32 82 33 24 34
REMARK SMILES IDX 25 35 26 36 76 37 27 38 81 39 75 40 77 41 28 42 80 43 74 44
REMARK SMILES IDX 73 45 29 47 61 48 41 49 60 50 42 51 45 52 59 53 78 54 43 55
REMARK SMILES IDX 44 56 58 58 79 59 46 60 30 61 31 62 39 63 32 64 33 65 37 66
REMARK SMILES IDX 40 67 34 68 35 69 38 70 36 71 62 72 63 73 71 74 64 75 65 76
REMARK SMILES IDX 69 77 72 78 66 79 67 80 70 81 68 82 47 83 48 84 56 85 49 86
REMARK SMILES IDX 50 87 54 88 57 89 51 90 52 91 55 92 53 93
REMARK H PARENT 14 5 18 27 77 46 45 57
REMARK Flexibility Score: inf
ROOT
ATOM      1  C   UNL A   1      32.529  27.991  23.201  1.00  0.00     0.117 C 
ENDROOT
BRANCH   1   2
ATOM      2  N   UNL A   1      32.859  27.362  21.936  1.00  0.00    -0.356 N 
ATOM      3  C   UNL A   1      32.887  26.082  21.493  1.00  0.00     0.224 C 
ATOM      4  O   UNL A   1      33.200  25.944  20.303  1.00  0.00    -0.275 OA
ATOM      5  H   UNL A   1      33.123  28.011  21.244  1.00  0.00     0.163 HD
BRANCH   3   6
ATOM      6  C   UNL A   1      32.521  24.845  22.305  1.00  0.00     0.098 C 
ATOM      7  N   UNL A   1      33.050  23.140  23.974  1.00  0.00    -0.356 N 
ATOM      8  C   UNL A   1      31.695  23.087  24.521  1.00  0.00     0.118 C 
ATOM      9  C   UNL A   1      33.488  24.398  23.384  1.00  0.00     0.131 C 
ATOM     10  C   UNL A   1      30.684  23.609  23.497  1.00  0.00     0.022 C 
ATOM     11  C   UNL A   1      31.104  24.946  22.875  1.00  0.00     0.017 C 
BRANCH   7  12
ATOM     12  C   UNL A   1      33.987  22.274  24.513  1.00  0.00     0.137 A 
ATOM     13  C   UNL A   1      36.088  21.769  25.424  1.00  0.00     0.219 A 
ATOM     14  C   UNL A   1      35.203  22.718  24.982  1.00  0.00     0.115 A 
ATOM     15  N   UNL A   1      35.868  20.453  25.360  1.00  0.00    -0.187 NA
ATOM     16  C   UNL A   1      34.670  20.107  24.868  1.00  0.00     0.192 A 
ATOM     17  N   UNL A   1      33.707  20.966  24.494  1.00  0.00    -0.205 NA
BRANCH  13  18
ATOM     18  O   UNL A   1      37.344  22.167  25.815  1.00  0.00    -0.478 OA
BRANCH  18  19
ATOM     19  C   UNL A   1      37.374  23.555  26.162  1.00  0.00     0.228 C 
ATOM     20  C   UNL A   1      38.810  24.063  26.227  1.00  0.00     0.049 C 
ENDBRANCH  18  19
ENDBRANCH  13  18
BRANCH  16  21
ATOM     21  S   UNL A   1      34.369  18.373  24.615  1.00  0.00    -0.089 SA
ATOM     22  C   UNL A   1      32.555  18.376  24.679  1.00  0.00     0.094 C 
ENDBRANCH  16  21
ENDBRANCH   7  12
ENDBRANCH   3   6
ENDBRANCH   1   2
BRANCH   1  23
ATOM     23  C   UNL A   1      33.711  28.762  23.791  1.00  0.00     0.042 C 
BRANCH  23  24
ATOM     24  C   UNL A   1      33.651  28.876  25.314  1.00  0.00     0.118 C 
BRANCH  24  25
ATOM     25  N   UNL A   1      33.132  30.170  25.737  1.00  0.00    -0.352 N 
ATOM     26  C   UNL A   1      33.436  30.942  26.829  1.00  0.00     0.251 C 
ATOM     27  H   UNL A   1      32.451  30.553  25.140  1.00  0.00     0.163 HD
ATOM     28  O   UNL A   1      32.686  31.863  27.137  1.00  0.00    -0.269 OA
BRANCH  26  29
ATOM     29  C   UNL A   1      34.649  30.686  27.633  1.00  0.00     0.039 A 
ATOM     30  C   UNL A   1      35.618  31.691  27.729  1.00  0.00     0.014 A 
ATOM     31  C   UNL A   1      34.878  29.441  28.225  1.00  0.00     0.014 A 
ATOM     32  C   UNL A   1      36.791  31.463  28.451  1.00  0.00     0.010 A 
ATOM     33  C   UNL A   1      36.012  29.238  29.006  1.00  0.00     0.010 A 
ATOM     34  C   UNL A   1      36.985  30.242  29.115  1.00  0.00    -0.014 A 
BRANCH  34  35
ATOM     35  C   UNL A   1      38.210  29.983  29.911  1.00  0.00     0.031 A 
ATOM     36  C   UNL A   1      39.282  29.078  29.371  1.00  0.00     0.074 A 
ATOM     37  C   UNL A   1      38.317  30.498  31.151  1.00  0.00     0.049 A 
ATOM     38  N   UNL A   1      40.371  28.643  29.952  1.00  0.00    -0.248 NA
ATOM     39  C   UNL A   1      39.087  28.571  28.004  1.00  0.00     0.031 C 
ATOM     40  C   UNL A   1      37.318  31.347  31.802  1.00  0.00     0.029 A 
ATOM     41  N   UNL A   1      39.308  30.369  32.089  1.00  0.00    -0.354 N 
ATOM     42  C   UNL A   1      40.975  27.793  29.034  1.00  0.00     0.074 A 
ATOM     43  C   UNL A   1      40.109  27.736  27.876  1.00  0.00     0.031 C 
ATOM     44  C   UNL A   1      37.753  31.674  33.029  1.00  0.00     0.029 A 
ATOM     45  C   UNL A   1      39.042  31.031  33.263  1.00  0.00     0.049 A 
ATOM     46  H   UNL A   1      40.132  29.852  31.937  1.00  0.00     0.167 HD
ATOM     47  C   UNL A   1      42.156  27.138  29.140  1.00  0.00     0.037 A 
ATOM     48  C   UNL A   1      39.756  31.102  34.402  1.00  0.00     0.037 A 
ATOM     49  C   UNL A   1      43.028  27.227  30.279  1.00  0.00     0.049 A 
ATOM     50  C   UNL A   1      41.074  30.386  34.485  1.00  0.00     0.074 A 
ATOM     51  C   UNL A   1      44.274  26.653  30.463  1.00  0.00     0.029 A 
ATOM     52  N   UNL A   1      42.745  27.944  31.434  1.00  0.00    -0.354 N 
ATOM     53  N   UNL A   1      41.664  29.632  33.590  1.00  0.00    -0.248 NA
ATOM     54  C   UNL A   1      41.832  30.537  35.736  1.00  0.00     0.031 C 
ATOM     55  C   UNL A   1      44.729  26.994  31.742  1.00  0.00     0.029 A 
ATOM     56  C   UNL A   1      43.786  27.816  32.338  1.00  0.00     0.049 A 
ATOM     57  H   UNL A   1      41.924  28.466  31.587  1.00  0.00     0.167 HD
ATOM     58  C   UNL A   1      42.867  29.236  34.155  1.00  0.00     0.074 A 
ATOM     59  C   UNL A   1      42.932  29.848  35.467  1.00  0.00     0.031 C 
ATOM     60  C   UNL A   1      43.832  28.438  33.637  1.00  0.00     0.037 A 
BRANCH  47  61
ATOM     61  C   UNL A   1      42.573  26.273  27.985  1.00  0.00     0.064 A 
ATOM     62  C   UNL A   1      42.089  24.964  27.835  1.00  0.00     0.173 A 
ATOM     63  C   UNL A   1      43.448  26.763  27.004  1.00  0.00     0.173 A 
ATOM     64  F   UNL A   1      41.259  24.442  28.752  1.00  0.00    -0.203 F 
ATOM     65  C   UNL A   1      42.492  24.167  26.766  1.00  0.00     0.198 A 
ATOM     66  C   UNL A   1      43.826  25.974  25.920  1.00  0.00     0.198 A 
ATOM     67  F   UNL A   1      43.937  28.009  27.094  1.00  0.00    -0.203 F 
ATOM     68  F   UNL A   1      42.059  22.902  26.676  1.00  0.00    -0.200 F 
ATOM     69  C   UNL A   1      43.354  24.674  25.807  1.00  0.00     0.200 A 
ATOM     70  F   UNL A   1      44.650  26.469  24.987  1.00  0.00    -0.200 F 
ATOM     71  F   UNL A   1      43.740  23.907  24.777  1.00  0.00    -0.200 F 
ENDBRANCH  47  61
BRANCH  48  72
ATOM     72  C   UNL A   1      39.247  31.909  35.541  1.00  0.00     0.064 A 
ATOM     73  C   UNL A   1      39.610  33.255  35.684  1.00  0.00     0.173 A 
ATOM     74  C   UNL A   1      38.377  31.360  36.493  1.00  0.00     0.173 A 
ATOM     75  F   UNL A   1      40.453  33.818  34.808  1.00  0.00    -0.203 F 
ATOM     76  C   UNL A   1      39.134  34.018  36.749  1.00  0.00     0.198 A 
ATOM     77  C   UNL A   1      37.881  32.132  37.543  1.00  0.00     0.198 A 
ATOM     78  F   UNL A   1      37.994  30.079  36.395  1.00  0.00    -0.203 F 
ATOM     79  F   UNL A   1      39.525  35.293  36.883  1.00  0.00    -0.200 F 
ATOM     80  C   UNL A   1      38.266  33.458  37.673  1.00  0.00     0.200 A 
ATOM     81  F   UNL A   1      37.032  31.592  38.427  1.00  0.00    -0.200 F 
ATOM     82  F   UNL A   1      37.802  34.196  38.691  1.00  0.00    -0.200 F 
ENDBRANCH  48  72
BRANCH  60  83
ATOM     83  C   UNL A   1      45.052  28.204  34.477  1.00  0.00     0.064 A 
ATOM     84  C   UNL A   1      45.132  27.125  35.369  1.00  0.00     0.173 A 
ATOM     85  C   UNL A   1      46.168  29.046  34.357  1.00  0.00     0.173 A 
ATOM     86  F   UNL A   1      44.085  26.303  35.529  1.00  0.00    -0.203 F 
ATOM     87  C   UNL A   1      46.279  26.911  36.129  1.00  0.00     0.198 A 
ATOM     88  C   UNL A   1      47.323  28.813  35.099  1.00  0.00     0.198 A 
ATOM     89  F   UNL A   1      46.141  30.088  33.513  1.00  0.00    -0.203 F 
ATOM     90  F   UNL A   1      46.320  25.899  37.006  1.00  0.00    -0.200 F 
ATOM     91  C   UNL A   1      47.375  27.749  35.988  1.00  0.00     0.200 A 
ATOM     92  F   UNL A   1      48.384  29.616  34.952  1.00  0.00    -0.200 F 
ATOM     93  F   UNL A   1      48.481  27.537  36.714  1.00  0.00    -0.200 F 
ENDBRANCH  60  83
ENDBRANCH  34  35
ENDBRANCH  26  29
ENDBRANCH  24  25
ENDBRANCH  23  24
ENDBRANCH   1  23
TORSDOF 14
ENDMDL
MODEL 3
REMARK VINA RESULT:     -12.0      1.668      7.445
REMARK SMILES CCOc1cc(N2CCC[C@@H](C(=O)NCCCNC(=O)c3ccc(-c4c5nc(c(-c6c(F)c(F)c(F)c(F)c6F)c6ccc([nH]6)c(-c6c(F)c(F)c(F)c(F)c6F)c6nc(c(-c7c(F)c(F)c(F)c(F)c7F)c7ccc4[nH]7)C=C6)C=C5)cc3)C2)nc(SC)n1
REMARK SMILES IDX 15 1 14 2 12 3 13 4 11 6 7 7 8 8 84 9 9 10 10 11 6 12 4 13
REMARK SMILES IDX 5 14 89 15 86 16 85 17 3 18 2 19 1 20 87 21 88 22 16 23
REMARK SMILES IDX 17 24 18 25 19 26 20 28 21 29 22 30 83 31 23 32 82 33 24 34
REMARK SMILES IDX 25 35 26 36 76 37 27 38 81 39 75 40 77 41 28 42 80 43 74 44
REMARK SMILES IDX 73 45 29 47 61 48 41 49 60 50 42 51 45 52 59 53 78 54 43 55
REMARK SMILES IDX 44 56 58 58 79 59 46 60 30 61 31 62 39 63 32 64 33 65 37 66
REMARK SMILES IDX 40 67 34 68 35 69 38 70 36 71 62 72 63 73 71 74 64 75 65 76
REMARK SMILES IDX 69 77 72 78 66 79 67 80 70 81 68 82 47 83 48 84 56 85 49 86
REMARK SMILES IDX 50 87 54 88 57 89 51 90 52 91 55 92 53 93
REMARK H PARENT 14 5 18 27 77 46 45 57
REMARK Flexibility Score: inf
ROOT
ATOM      1  C   UNL A   1      32.809  28.009  23.579  1.00  0.00     0.117 C 
ENDROOT
BRANCH   1   2
ATOM      2  N   UNL A   1      33.045  27.475  22.251  1.00  0.00    -0.356 N 
ATOM      3  C   UNL A   1      32.945  26.245  21.693  1.00  0.00     0.224 C 
ATOM      4  O   UNL A   1      33.210  26.192  20.484  1.00  0.00    -0.275 OA
ATOM      5  H   UNL A   1      33.344  28.161  21.611  1.00  0.00     0.163 HD
BRANCH   3   6
ATOM      6  C   UNL A   1      32.496  24.973  22.403  1.00  0.00     0.098 C 
ATOM      7  N   UNL A   1      32.951  23.018  23.797  1.00  0.00    -0.356 N 
ATOM      8  C   UNL A   1      31.668  23.071  24.497  1.00  0.00     0.118 C 
ATOM      9  C   UNL A   1      33.498  24.274  23.300  1.00  0.00     0.131 C 
ATOM     10  C   UNL A   1      30.638  23.844  23.668  1.00  0.00     0.022 C 
ATOM     11  C   UNL A   1      31.175  25.183  23.150  1.00  0.00     0.017 C 
BRANCH   7  12
ATOM     12  C   UNL A   1      33.807  21.978  24.119  1.00  0.00     0.137 A 
ATOM     13  C   UNL A   1      34.271  19.752  24.692  1.00  0.00     0.219 A 
ATOM     14  C   UNL A   1      33.352  20.691  24.301  1.00  0.00     0.115 A 
ATOM     15  N   UNL A   1      35.549  20.025  24.969  1.00  0.00    -0.187 NA
ATOM     16  C   UNL A   1      35.902  21.305  24.788  1.00  0.00     0.192 A 
ATOM     17  N   UNL A   1      35.095  22.274  24.325  1.00  0.00    -0.205 NA
BRANCH  13  18
ATOM     18  O   UNL A   1      33.837  18.478  24.970  1.00  0.00    -0.478 OA
BRANCH  18  19
ATOM     19  C   UNL A   1      34.696  17.489  24.396  1.00  0.00     0.228 C 
ATOM     20  C   UNL A   1      34.075  16.903  23.134  1.00  0.00     0.049 C 
ENDBRANCH  18  19
ENDBRANCH  13  18
BRANCH  16  21
ATOM     21  S   UNL A   1      37.545  21.770  25.281  1.00  0.00    -0.089 SA
ATOM     22  C   UNL A   1      37.277  23.541  25.573  1.00  0.00     0.094 C 
ENDBRANCH  16  21
ENDBRANCH   7  12
ENDBRANCH   3   6
ENDBRANCH   1   2
BRANCH   1  23
ATOM     23  C   UNL A   1      34.089  28.541  24.226  1.00  0.00     0.042 C 
BRANCH  23  24
ATOM     24  C   UNL A   1      34.015  28.589  25.751  1.00  0.00     0.118 C 
BRANCH  24  25
ATOM     25  N   UNL A   1      33.745  29.937  26.235  1.00  0.00    -0.352 N 
ATOM     26  C   UNL A   1      34.295  30.641  27.275  1.00  0.00     0.251 C 
ATOM     27  H   UNL A   1      33.053  30.422  25.731  1.00  0.00     0.163 HD
ATOM     28  O   UNL A   1      33.731  31.655  27.675  1.00  0.00    -0.269 OA
BRANCH  26  29
ATOM     29  C   UNL A   1      35.554  30.203  27.913  1.00  0.00     0.039 A 
ATOM     30  C   UNL A   1      36.752  30.334  27.201  1.00  0.00     0.014 A 
ATOM     31  C   UNL A   1      35.556  29.594  29.170  1.00  0.00     0.014 A 
ATOM     32  C   UNL A   1      37.951  29.894  27.765  1.00  0.00     0.010 A 
ATOM     33  C   UNL A   1      36.760  29.223  29.763  1.00  0.00     0.010 A 
ATOM     34  C   UNL A   1      37.966  29.357  29.060  1.00  0.00    -0.014 A 
BRANCH  34  35
ATOM     35  C   UNL A   1      39.230  28.907  29.695  1.00  0.00     0.031 A 
ATOM     36  C   UNL A   1      39.791  29.657  30.870  1.00  0.00     0.074 A 
ATOM     37  C   UNL A   1      39.908  27.873  29.162  1.00  0.00     0.049 A 
ATOM     38  N   UNL A   1      40.929  29.490  31.495  1.00  0.00    -0.248 NA
ATOM     39  C   UNL A   1      38.976  30.765  31.394  1.00  0.00     0.031 C 
ATOM     40  C   UNL A   1      39.489  27.101  27.991  1.00  0.00     0.029 A 
ATOM     41  N   UNL A   1      41.102  27.305  29.526  1.00  0.00    -0.354 N 
ATOM     42  C   UNL A   1      40.978  30.484  32.464  1.00  0.00     0.074 A 
ATOM     43  C   UNL A   1      39.778  31.279  32.315  1.00  0.00     0.031 C 
ATOM     44  C   UNL A   1      40.404  26.151  27.741  1.00  0.00     0.029 A 
ATOM     45  C   UNL A   1      41.489  26.270  28.710  1.00  0.00     0.049 A 
ATOM     46  H   UNL A   1      41.632  27.609  30.298  1.00  0.00     0.167 HD
ATOM     47  C   UNL A   1      41.927  30.698  33.406  1.00  0.00     0.037 A 
ATOM     48  C   UNL A   1      42.599  25.509  28.738  1.00  0.00     0.037 A 
ATOM     49  C   UNL A   1      43.099  29.882  33.570  1.00  0.00     0.049 A 
ATOM     50  C   UNL A   1      43.625  25.751  29.809  1.00  0.00     0.074 A 
ATOM     51  C   UNL A   1      44.092  29.976  34.530  1.00  0.00     0.029 A 
ATOM     52  N   UNL A   1      43.436  28.814  32.751  1.00  0.00    -0.354 N 
ATOM     53  N   UNL A   1      43.634  26.657  30.756  1.00  0.00    -0.248 NA
ATOM     54  C   UNL A   1      44.795  24.861  29.819  1.00  0.00     0.031 C 
ATOM     55  C   UNL A   1      45.046  28.986  34.271  1.00  0.00     0.029 A 
ATOM     56  C   UNL A   1      44.627  28.248  33.175  1.00  0.00     0.049 A 
ATOM     57  H   UNL A   1      42.906  28.504  31.981  1.00  0.00     0.167 HD
ATOM     58  C   UNL A   1      44.791  26.434  31.488  1.00  0.00     0.074 A 
ATOM     59  C   UNL A   1      45.453  25.296  30.884  1.00  0.00     0.031 C 
ATOM     60  C   UNL A   1      45.265  27.111  32.563  1.00  0.00     0.037 A 
BRANCH  47  61
ATOM     61  C   UNL A   1      41.728  31.860  34.336  1.00  0.00     0.064 A 
ATOM     62  C   UNL A   1      41.018  31.726  35.540  1.00  0.00     0.173 A 
ATOM     63  C   UNL A   1      42.271  33.119  34.034  1.00  0.00     0.173 A 
ATOM     64  F   UNL A   1      40.468  30.548  35.870  1.00  0.00    -0.203 F 
ATOM     65  C   UNL A   1      40.830  32.814  36.389  1.00  0.00     0.198 A 
ATOM     66  C   UNL A   1      42.107  34.198  34.899  1.00  0.00     0.198 A 
ATOM     67  F   UNL A   1      42.963  33.302  32.899  1.00  0.00    -0.203 F 
ATOM     68  F   UNL A   1      40.102  32.674  37.504  1.00  0.00    -0.200 F 
ATOM     69  C   UNL A   1      41.380  34.046  36.070  1.00  0.00     0.200 A 
ATOM     70  F   UNL A   1      42.649  35.386  34.597  1.00  0.00    -0.200 F 
ATOM     71  F   UNL A   1      41.201  35.093  36.889  1.00  0.00    -0.200 F 
ENDBRANCH  47  61
BRANCH  48  72
ATOM     72  C   UNL A   1      42.775  24.427  27.736  1.00  0.00     0.064 A 
ATOM     73  C   UNL A   1      43.327  24.699  26.477  1.00  0.00     0.173 A 
ATOM     74  C   UNL A   1      42.415  23.102  28.021  1.00  0.00     0.173 A 
ATOM     75  F   UNL A   1      43.669  25.954  26.153  1.00  0.00    -0.203 F 
ATOM     76  C   UNL A   1      43.498  23.688  25.534  1.00  0.00     0.198 A 
ATOM     77  C   UNL A   1      42.611  22.087  27.086  1.00  0.00     0.198 A 
ATOM     78  F   UNL A   1      41.891  22.790  29.214  1.00  0.00    -0.203 F 
ATOM     79  F   UNL A   1      43.994  23.982  24.324  1.00  0.00    -0.200 F 
ATOM     80  C   UNL A   1      43.146  22.383  25.841  1.00  0.00     0.200 A 
ATOM     81  F   UNL A   1      42.282  20.825  27.390  1.00  0.00    -0.200 F 
ATOM     82  F   UNL A   1      43.319  21.410  24.935  1.00  0.00    -0.200 F 
ENDBRANCH  48  72
BRANCH  60  83
ATOM     83  C   UNL A   1      46.545  26.620  33.171  1.00  0.00     0.064 A 
ATOM     84  C   UNL A   1      47.791  27.112  32.755  1.00  0.00     0.173 A 
ATOM     85  C   UNL A   1      46.521  25.678  34.209  1.00  0.00     0.173 A 
ATOM     86  F   UNL A   1      47.865  28.002  31.755  1.00  0.00    -0.203 F 
ATOM     87  C   UNL A   1      48.969  26.660  33.342  1.00  0.00     0.198 A 
ATOM     88  C   UNL A   1      47.700  25.248  34.813  1.00  0.00     0.198 A 
ATOM     89  F   UNL A   1      45.354  25.182  34.646  1.00  0.00    -0.203 F 
ATOM     90  F   UNL A   1      50.151  27.111  32.902  1.00  0.00    -0.200 F 
ATOM     91  C   UNL A   1      48.923  25.735  34.375  1.00  0.00     0.200 A 
ATOM     92  F   UNL A   1      47.652  24.364  35.818  1.00  0.00    -0.200 F 
ATOM     93  F   UNL A   1      50.057  25.307  34.945  1.00  0.00    -0.200 F 
ENDBRANCH  60  83
ENDBRANCH  34  35
ENDBRANCH  26  29
ENDBRANCH  24  25
ENDBRANCH  23  24
ENDBRANCH   1  23
TORSDOF 14
ENDMDL
