MODEL 1
REMARK VINA RESULT:     -13.5      0.000      0.000
REMARK SMILES O=C(C[C@@H](C(=O)NCCCNC(=O)c1ccc(-c2c3nc(c(-c4c(F)c(F)c(F)c(F)c4F)c4ccc([nH]4)c(-c4c(F)c(F)c(F)c(F)c4F)c4nc(c(-c5c(F)c(F)c(F)c(F)c5F)c5ccc2[nH]5)C=C4)C=C3)cc1)[NH+]1CCN(c2cccc(Cl)c2)CC1)c1ccc(F)cc1
REMARK SMILES IDX 8 1 7 2 5 3 6 4 4 6 3 7 2 8 1 9 90 10 91 11 96 12 92 13
REMARK SMILES IDX 95 14 93 15 94 16 77 17 78 18 89 19 79 21 88 22 80 23 81 24
REMARK SMILES IDX 82 25 87 26 83 27 85 28 84 29 86 30 9 31 10 32 11 33 12 34
REMARK SMILES IDX 13 36 14 37 15 38 76 39 16 40 75 41 17 42 18 43 19 44 69 45
REMARK SMILES IDX 20 46 74 47 68 48 70 49 21 50 73 51 67 52 66 53 22 55 54 56
REMARK SMILES IDX 34 57 53 58 35 59 38 60 52 61 71 62 36 63 37 64 51 66 72 67
REMARK SMILES IDX 39 68 23 69 24 70 32 71 25 72 26 73 30 74 33 75 27 76 28 77
REMARK SMILES IDX 31 78 29 79 55 80 56 81 64 82 57 83 58 84 62 85 65 86 59 87
REMARK SMILES IDX 60 88 63 89 61 90 40 91 41 92 49 93 42 94 43 95 47 96 50 97
REMARK SMILES IDX 44 98 45 99 48 100 46 101
REMARK H PARENT 7 5 77 20 11 35 70 54 38 65
REMARK Flexibility Score: inf
ROOT
ATOM      1  C   UNL A   1      32.460  27.270  26.485  1.00  0.00     0.118 C 
ENDROOT
BRANCH   1   2
ATOM      2  N   UNL A   1      31.113  26.752  26.673  1.00  0.00    -0.351 N 
ATOM      3  C   UNL A   1      30.386  25.784  26.038  1.00  0.00     0.278 C 
ATOM      4  O   UNL A   1      29.346  25.443  26.612  1.00  0.00    -0.268 OA
ATOM      5  H   UNL A   1      30.626  27.187  27.410  1.00  0.00     0.163 HD
BRANCH   3   6
ATOM      6  C   UNL A   1      30.761  25.254  24.625  1.00  0.00     0.282 C 
BRANCH   6   7
ATOM      7  C   UNL A   1      29.673  25.806  23.671  1.00  0.00     0.156 C 
BRANCH   7   8
ATOM      8  C   UNL A   1      30.084  27.061  22.946  1.00  0.00     0.169 C 
ATOM      9  O   UNL A   1      31.020  27.039  22.148  1.00  0.00    -0.294 OA
BRANCH   8  10
ATOM     10  C   UNL A   1      29.342  28.339  23.171  1.00  0.00     0.018 A 
ATOM     11  C   UNL A   1      29.983  29.557  23.435  1.00  0.00     0.015 A 
ATOM     12  C   UNL A   1      27.945  28.316  23.047  1.00  0.00     0.015 A 
ATOM     13  C   UNL A   1      29.248  30.742  23.514  1.00  0.00     0.040 A 
ATOM     14  C   UNL A   1      27.209  29.496  23.167  1.00  0.00     0.040 A 
ATOM     15  C   UNL A   1      27.868  30.701  23.378  1.00  0.00     0.123 A 
ATOM     16  F   UNL A   1      27.166  31.839  23.421  1.00  0.00    -0.207 F 
ENDBRANCH   8  10
ENDBRANCH   7   8
ENDBRANCH   6   7
BRANCH   6  17
ATOM     17  N   UNL A   1      30.656  23.764  24.493  1.00  0.00    -0.321 N 
ATOM     18  C   UNL A   1      31.443  23.230  23.347  1.00  0.00     0.284 C 
ATOM     19  C   UNL A   1      30.948  22.927  25.678  1.00  0.00     0.284 C 
ATOM     20  H   UNL A   1      29.651  23.675  24.344  1.00  0.00     0.348 HD
ATOM     21  C   UNL A   1      32.962  23.060  23.602  1.00  0.00     0.178 C 
ATOM     22  C   UNL A   1      32.438  22.716  26.008  1.00  0.00     0.178 C 
ATOM     23  N   UNL A   1      33.187  22.281  24.825  1.00  0.00    -0.360 N 
BRANCH  23  24
ATOM     24  C   UNL A   1      33.773  21.034  24.732  1.00  0.00     0.038 A 
ATOM     25  C   UNL A   1      35.148  20.887  24.976  1.00  0.00     0.026 A 
ATOM     26  C   UNL A   1      33.051  19.883  24.391  1.00  0.00     0.046 A 
ATOM     27  C   UNL A   1      35.781  19.642  24.899  1.00  0.00     0.004 A 
ATOM     28  C   UNL A   1      33.684  18.640  24.296  1.00  0.00     0.043 A 
ATOM     29  C   UNL A   1      35.046  18.513  24.555  1.00  0.00     0.020 A 
ATOM     30  Cl  UNL A   1      32.775  17.249  23.843  1.00  0.00    -0.084 Cl
ENDBRANCH  23  24
ENDBRANCH   6  17
ENDBRANCH   3   6
ENDBRANCH   1   2
BRANCH   1  31
ATOM     31  C   UNL A   1      32.755  27.947  25.136  1.00  0.00     0.042 C 
BRANCH  31  32
ATOM     32  C   UNL A   1      33.600  29.228  25.125  1.00  0.00     0.118 C 
BRANCH  32  33
ATOM     33  N   UNL A   1      32.934  30.386  25.699  1.00  0.00    -0.352 N 
ATOM     34  C   UNL A   1      33.285  31.167  26.774  1.00  0.00     0.251 C 
ATOM     35  H   UNL A   1      32.103  30.653  25.247  1.00  0.00     0.163 HD
ATOM     36  O   UNL A   1      32.511  32.067  27.128  1.00  0.00    -0.269 OA
BRANCH  34  37
ATOM     37  C   UNL A   1      34.536  30.965  27.555  1.00  0.00     0.039 A 
ATOM     38  C   UNL A   1      34.722  29.737  28.202  1.00  0.00     0.014 A 
ATOM     39  C   UNL A   1      35.476  31.978  27.757  1.00  0.00     0.014 A 
ATOM     40  C   UNL A   1      35.862  29.506  28.987  1.00  0.00     0.010 A 
ATOM     41  C   UNL A   1      36.634  31.736  28.520  1.00  0.00     0.010 A 
ATOM     42  C   UNL A   1      36.851  30.492  29.135  1.00  0.00    -0.014 A 
BRANCH  42  43
ATOM     43  C   UNL A   1      38.113  30.183  29.878  1.00  0.00     0.031 A 
ATOM     44  C   UNL A   1      38.365  30.682  31.279  1.00  0.00     0.074 A 
ATOM     45  C   UNL A   1      39.067  29.439  29.282  1.00  0.00     0.049 A 
ATOM     46  N   UNL A   1      39.376  30.427  32.076  1.00  0.00    -0.248 NA
ATOM     47  C   UNL A   1      37.367  31.593  31.854  1.00  0.00     0.031 C 
ATOM     48  C   UNL A   1      39.002  28.931  27.912  1.00  0.00     0.029 A 
ATOM     49  N   UNL A   1      40.276  28.977  29.751  1.00  0.00    -0.354 N 
ATOM     50  C   UNL A   1      39.138  31.141  33.244  1.00  0.00     0.074 A 
ATOM     51  C   UNL A   1      37.905  31.874  33.035  1.00  0.00     0.031 C 
ATOM     52  C   UNL A   1      40.105  28.208  27.660  1.00  0.00     0.029 A 
ATOM     53  C   UNL A   1      40.964  28.213  28.841  1.00  0.00     0.049 A 
ATOM     54  H   UNL A   1      40.613  29.177  30.654  1.00  0.00     0.167 HD
ATOM     55  C   UNL A   1      39.863  31.171  34.391  1.00  0.00     0.037 A 
ATOM     56  C   UNL A   1      42.148  27.575  28.940  1.00  0.00     0.037 A 
ATOM     57  C   UNL A   1      41.080  30.433  34.626  1.00  0.00     0.049 A 
ATOM     58  C   UNL A   1      42.926  27.613  30.226  1.00  0.00     0.074 A 
ATOM     59  C   UNL A   1      41.822  30.344  35.794  1.00  0.00     0.029 A 
ATOM     60  N   UNL A   1      41.742  29.668  33.680  1.00  0.00    -0.354 N 
ATOM     61  N   UNL A   1      42.630  28.206  31.355  1.00  0.00    -0.248 NA
ATOM     62  C   UNL A   1      44.200  26.877  30.255  1.00  0.00     0.031 C 
ATOM     63  C   UNL A   1      42.954  29.561  35.542  1.00  0.00     0.029 A 
ATOM     64  C   UNL A   1      42.897  29.128  34.230  1.00  0.00     0.049 A 
ATOM     65  H   UNL A   1      41.438  29.528  32.754  1.00  0.00     0.167 HD
ATOM     66  C   UNL A   1      43.663  27.898  32.230  1.00  0.00     0.074 A 
ATOM     67  C   UNL A   1      44.589  27.053  31.509  1.00  0.00     0.031 C 
ATOM     68  C   UNL A   1      43.822  28.285  33.519  1.00  0.00     0.037 A 
BRANCH  55  69
ATOM     69  C   UNL A   1      39.356  32.028  35.515  1.00  0.00     0.064 A 
ATOM     70  C   UNL A   1      38.456  31.526  36.465  1.00  0.00     0.173 A 
ATOM     71  C   UNL A   1      39.847  33.331  35.696  1.00  0.00     0.173 A 
ATOM     72  F   UNL A   1      37.961  30.286  36.337  1.00  0.00    -0.203 F 
ATOM     73  C   UNL A   1      38.050  32.304  37.547  1.00  0.00     0.198 A 
ATOM     74  C   UNL A   1      39.457  34.097  36.791  1.00  0.00     0.198 A 
ATOM     75  F   UNL A   1      40.725  33.851  34.824  1.00  0.00    -0.203 F 
ATOM     76  F   UNL A   1      37.169  31.813  38.428  1.00  0.00    -0.200 F 
ATOM     77  C   UNL A   1      38.556  33.584  37.714  1.00  0.00     0.200 A 
ATOM     78  F   UNL A   1      39.960  35.327  36.960  1.00  0.00    -0.200 F 
ATOM     79  F   UNL A   1      38.175  34.325  38.763  1.00  0.00    -0.200 F 
ENDBRANCH  55  69
BRANCH  56  80
ATOM     80  C   UNL A   1      42.664  26.804  27.780  1.00  0.00     0.064 A 
ATOM     81  C   UNL A   1      42.360  25.445  27.628  1.00  0.00     0.173 A 
ATOM     82  C   UNL A   1      43.478  27.407  26.812  1.00  0.00     0.173 A 
ATOM     83  F   UNL A   1      41.606  24.821  28.546  1.00  0.00    -0.203 F 
ATOM     84  C   UNL A   1      42.863  24.712  26.556  1.00  0.00     0.198 A 
ATOM     85  C   UNL A   1      43.961  26.680  25.727  1.00  0.00     0.198 A 
ATOM     86  F   UNL A   1      43.796  28.706  26.917  1.00  0.00    -0.203 F 
ATOM     87  F   UNL A   1      42.590  23.404  26.455  1.00  0.00    -0.200 F 
ATOM     88  C   UNL A   1      43.658  25.331  25.604  1.00  0.00     0.200 A 
ATOM     89  F   UNL A   1      44.723  27.283  24.805  1.00  0.00    -0.200 F 
ATOM     90  F   UNL A   1      44.140  24.627  24.571  1.00  0.00    -0.200 F 
ENDBRANCH  56  80
BRANCH  68  91
ATOM     91  C   UNL A   1      45.035  27.782  34.248  1.00  0.00     0.064 A 
ATOM     92  C   UNL A   1      45.031  26.549  34.916  1.00  0.00     0.173 A 
ATOM     93  C   UNL A   1      46.223  28.530  34.259  1.00  0.00     0.173 A 
ATOM     94  F   UNL A   1      43.916  25.803  34.950  1.00  0.00    -0.203 F 
ATOM     95  C   UNL A   1      46.164  26.094  35.588  1.00  0.00     0.198 A 
ATOM     96  C   UNL A   1      47.360  28.061  34.911  1.00  0.00     0.198 A 
ATOM     97  F   UNL A   1      46.281  29.715  33.633  1.00  0.00    -0.203 F 
ATOM     98  F   UNL A   1      46.123  24.933  36.256  1.00  0.00    -0.200 F 
ATOM     99  C   UNL A   1      47.328  26.847  35.580  1.00  0.00     0.200 A 
ATOM    100  F   UNL A   1      48.487  28.786  34.896  1.00  0.00    -0.200 F 
ATOM    101  F   UNL A   1      48.417  26.407  36.226  1.00  0.00    -0.200 F 
ENDBRANCH  68  91
ENDBRANCH  42  43
ENDBRANCH  34  37
ENDBRANCH  32  33
ENDBRANCH  31  32
ENDBRANCH   1  31
TORSDOF 15
ENDMDL
MODEL 2
REMARK VINA RESULT:     -13.4      1.218      2.149
REMARK SMILES O=C(C[C@@H](C(=O)NCCCNC(=O)c1ccc(-c2c3nc(c(-c4c(F)c(F)c(F)c(F)c4F)c4ccc([nH]4)c(-c4c(F)c(F)c(F)c(F)c4F)c4nc(c(-c5c(F)c(F)c(F)c(F)c5F)c5ccc2[nH]5)C=C4)C=C3)cc1)[NH+]1CCN(c2cccc(Cl)c2)CC1)c1ccc(F)cc1
REMARK SMILES IDX 8 1 7 2 5 3 6 4 4 6 3 7 2 8 1 9 90 10 91 11 96 12 92 13
REMARK SMILES IDX 95 14 93 15 94 16 77 17 78 18 89 19 79 21 88 22 80 23 81 24
REMARK SMILES IDX 82 25 87 26 83 27 85 28 84 29 86 30 9 31 10 32 11 33 12 34
REMARK SMILES IDX 13 36 14 37 15 38 76 39 16 40 75 41 17 42 18 43 19 44 69 45
REMARK SMILES IDX 20 46 74 47 68 48 70 49 21 50 73 51 67 52 66 53 22 55 54 56
REMARK SMILES IDX 34 57 53 58 35 59 38 60 52 61 71 62 36 63 37 64 51 66 72 67
REMARK SMILES IDX 39 68 23 69 24 70 32 71 25 72 26 73 30 74 33 75 27 76 28 77
REMARK SMILES IDX 31 78 29 79 55 80 56 81 64 82 57 83 58 84 62 85 65 86 59 87
REMARK SMILES IDX 60 88 63 89 61 90 40 91 41 92 49 93 42 94 43 95 47 96 50 97
REMARK SMILES IDX 44 98 45 99 48 100 46 101
REMARK H PARENT 7 5 77 20 11 35 70 54 38 65
REMARK Flexibility Score: inf
ROOT
ATOM      1  C   UNL A   1      31.851  27.829  26.999  1.00  0.00     0.118 C 
ENDROOT
BRANCH   1   2
ATOM      2  N   UNL A   1      30.871  26.758  26.903  1.00  0.00    -0.351 N 
ATOM      3  C   UNL A   1      30.768  25.653  26.105  1.00  0.00     0.278 C 
ATOM      4  O   UNL A   1      29.916  24.828  26.454  1.00  0.00    -0.268 OA
ATOM      5  H   UNL A   1      30.129  26.848  27.545  1.00  0.00     0.163 HD
BRANCH   3   6
ATOM      6  C   UNL A   1      31.561  25.509  24.775  1.00  0.00     0.282 C 
BRANCH   6   7
ATOM      7  C   UNL A   1      30.495  25.524  23.652  1.00  0.00     0.156 C 
BRANCH   7   8
ATOM      8  C   UNL A   1      30.652  26.667  22.684  1.00  0.00     0.169 C 
ATOM      9  O   UNL A   1      31.462  26.593  21.760  1.00  0.00    -0.294 OA
BRANCH   8  10
ATOM     10  C   UNL A   1      29.808  27.894  22.821  1.00  0.00     0.018 A 
ATOM     11  C   UNL A   1      30.283  29.182  22.543  1.00  0.00     0.015 A 
ATOM     12  C   UNL A   1      28.463  27.725  23.184  1.00  0.00     0.015 A 
ATOM     13  C   UNL A   1      29.418  30.278  22.569  1.00  0.00     0.040 A 
ATOM     14  C   UNL A   1      27.609  28.828  23.249  1.00  0.00     0.040 A 
ATOM     15  C   UNL A   1      28.089  30.090  22.920  1.00  0.00     0.123 A 
ATOM     16  F   UNL A   1      27.250  31.133  22.913  1.00  0.00    -0.207 F 
ENDBRANCH   8  10
ENDBRANCH   7   8
ENDBRANCH   6   7
BRANCH   6  17
ATOM     17  N   UNL A   1      32.249  24.185  24.624  1.00  0.00    -0.321 N 
ATOM     18  C   UNL A   1      33.422  24.247  23.708  1.00  0.00     0.284 C 
ATOM     19  C   UNL A   1      32.660  23.459  25.845  1.00  0.00     0.284 C 
ATOM     20  H   UNL A   1      31.483  23.638  24.232  1.00  0.00     0.348 HD
ATOM     21  C   UNL A   1      34.725  24.808  24.330  1.00  0.00     0.178 C 
ATOM     22  C   UNL A   1      33.944  23.961  26.533  1.00  0.00     0.178 C 
ATOM     23  N   UNL A   1      35.043  24.095  25.572  1.00  0.00    -0.360 N 
BRANCH  23  24
ATOM     24  C   UNL A   1      36.180  23.312  25.628  1.00  0.00     0.038 A 
ATOM     25  C   UNL A   1      37.385  23.862  26.094  1.00  0.00     0.026 A 
ATOM     26  C   UNL A   1      36.194  21.970  25.228  1.00  0.00     0.046 A 
ATOM     27  C   UNL A   1      38.559  23.105  26.173  1.00  0.00     0.004 A 
ATOM     28  C   UNL A   1      37.370  21.215  25.290  1.00  0.00     0.043 A 
ATOM     29  C   UNL A   1      38.551  21.775  25.767  1.00  0.00     0.020 A 
ATOM     30  Cl  UNL A   1      37.363  19.576  24.760  1.00  0.00    -0.084 Cl
ENDBRANCH  23  24
ENDBRANCH   6  17
ENDBRANCH   3   6
ENDBRANCH   1   2
BRANCH   1  31
ATOM     31  C   UNL A   1      31.682  29.007  26.025  1.00  0.00     0.042 C 
BRANCH  31  32
ATOM     32  C   UNL A   1      32.867  29.958  25.809  1.00  0.00     0.118 C 
BRANCH  32  33
ATOM     33  N   UNL A   1      32.647  31.306  26.310  1.00  0.00    -0.352 N 
ATOM     34  C   UNL A   1      33.342  32.025  27.252  1.00  0.00     0.251 C 
ATOM     35  H   UNL A   1      31.881  31.777  25.911  1.00  0.00     0.163 HD
ATOM     36  O   UNL A   1      32.917  33.143  27.574  1.00  0.00    -0.269 OA
BRANCH  34  37
ATOM     37  C   UNL A   1      34.565  31.514  27.929  1.00  0.00     0.039 A 
ATOM     38  C   UNL A   1      35.653  32.382  28.077  1.00  0.00     0.014 A 
ATOM     39  C   UNL A   1      34.710  30.182  28.326  1.00  0.00     0.014 A 
ATOM     40  C   UNL A   1      36.847  31.941  28.668  1.00  0.00     0.010 A 
ATOM     41  C   UNL A   1      35.898  29.748  28.948  1.00  0.00     0.010 A 
ATOM     42  C   UNL A   1      36.978  30.624  29.140  1.00  0.00    -0.014 A 
BRANCH  42  43
ATOM     43  C   UNL A   1      38.215  30.210  29.873  1.00  0.00     0.031 A 
ATOM     44  C   UNL A   1      38.516  30.679  31.274  1.00  0.00     0.074 A 
ATOM     45  C   UNL A   1      39.101  29.393  29.267  1.00  0.00     0.049 A 
ATOM     46  N   UNL A   1      39.507  30.338  32.064  1.00  0.00    -0.248 NA
ATOM     47  C   UNL A   1      37.599  31.665  31.860  1.00  0.00     0.031 C 
ATOM     48  C   UNL A   1      38.988  28.899  27.895  1.00  0.00     0.029 A 
ATOM     49  N   UNL A   1      40.271  28.832  29.726  1.00  0.00    -0.354 N 
ATOM     50  C   UNL A   1      39.335  31.063  33.237  1.00  0.00     0.074 A 
ATOM     51  C   UNL A   1      38.165  31.895  33.039  1.00  0.00     0.031 C 
ATOM     52  C   UNL A   1      40.026  28.089  27.633  1.00  0.00     0.029 A 
ATOM     53  C   UNL A   1      40.890  28.018  28.809  1.00  0.00     0.049 A 
ATOM     54  H   UNL A   1      40.630  28.998  30.628  1.00  0.00     0.167 HD
ATOM     55  C   UNL A   1      40.067  31.028  34.379  1.00  0.00     0.037 A 
ATOM     56  C   UNL A   1      42.018  27.285  28.898  1.00  0.00     0.037 A 
ATOM     57  C   UNL A   1      41.221  30.192  34.603  1.00  0.00     0.049 A 
ATOM     58  C   UNL A   1      42.805  27.253  30.179  1.00  0.00     0.074 A 
ATOM     59  C   UNL A   1      41.960  30.036  35.766  1.00  0.00     0.029 A 
ATOM     60  N   UNL A   1      41.813  29.380  33.650  1.00  0.00    -0.354 N 
ATOM     61  N   UNL A   1      42.565  27.863  31.312  1.00  0.00    -0.248 NA
ATOM     62  C   UNL A   1      44.014  26.416  30.195  1.00  0.00     0.031 C 
ATOM     63  C   UNL A   1      43.023  29.165  35.504  1.00  0.00     0.029 A 
ATOM     64  C   UNL A   1      42.922  28.744  34.190  1.00  0.00     0.049 A 
ATOM     65  H   UNL A   1      41.493  29.270  32.725  1.00  0.00     0.167 HD
ATOM     66  C   UNL A   1      43.574  27.467  32.179  1.00  0.00     0.074 A 
ATOM     67  C   UNL A   1      44.424  26.552  31.448  1.00  0.00     0.031 C 
ATOM     68  C   UNL A   1      43.772  27.833  33.468  1.00  0.00     0.037 A 
BRANCH  55  69
ATOM     69  C   UNL A   1      39.639  31.917  35.510  1.00  0.00     0.064 A 
ATOM     70  C   UNL A   1      40.140  33.219  35.645  1.00  0.00     0.173 A 
ATOM     71  C   UNL A   1      38.648  31.497  36.412  1.00  0.00     0.173 A 
ATOM     72  F   UNL A   1      41.086  33.668  34.807  1.00  0.00    -0.203 F 
ATOM     73  C   UNL A   1      39.680  34.063  36.654  1.00  0.00     0.198 A 
ATOM     74  C   UNL A   1      38.173  32.351  37.404  1.00  0.00     0.198 A 
ATOM     75  F   UNL A   1      38.122  30.266  36.314  1.00  0.00    -0.203 F 
ATOM     76  F   UNL A   1      40.193  35.294  36.780  1.00  0.00    -0.200 F 
ATOM     77  C   UNL A   1      38.692  33.631  37.527  1.00  0.00     0.200 A 
ATOM     78  F   UNL A   1      37.207  31.938  38.236  1.00  0.00    -0.200 F 
ATOM     79  F   UNL A   1      38.241  34.450  38.486  1.00  0.00    -0.200 F 
ENDBRANCH  55  69
BRANCH  56  80
ATOM     80  C   UNL A   1      42.463  26.481  27.731  1.00  0.00     0.064 A 
ATOM     81  C   UNL A   1      43.407  26.987  26.827  1.00  0.00     0.173 A 
ATOM     82  C   UNL A   1      41.945  25.201  27.491  1.00  0.00     0.173 A 
ATOM     83  F   UNL A   1      43.909  28.219  27.004  1.00  0.00    -0.203 F 
ATOM     84  C   UNL A   1      43.807  26.247  25.718  1.00  0.00     0.198 A 
ATOM     85  C   UNL A   1      42.364  24.452  26.395  1.00  0.00     0.198 A 
ATOM     86  F   UNL A   1      41.038  24.676  28.329  1.00  0.00    -0.203 F 
ATOM     87  F   UNL A   1      44.681  26.770  24.846  1.00  0.00    -0.200 F 
ATOM     88  C   UNL A   1      43.290  24.978  25.505  1.00  0.00     0.200 A 
ATOM     89  F   UNL A   1      41.868  23.223  26.196  1.00  0.00    -0.200 F 
ATOM     90  F   UNL A   1      43.677  24.265  24.438  1.00  0.00    -0.200 F 
ENDBRANCH  56  80
BRANCH  68  91
ATOM     91  C   UNL A   1      44.944  27.229  34.188  1.00  0.00     0.064 A 
ATOM     92  C   UNL A   1      44.838  26.005  34.865  1.00  0.00     0.173 A 
ATOM     93  C   UNL A   1      46.193  27.868  34.179  1.00  0.00     0.173 A 
ATOM     94  F   UNL A   1      43.662  25.362  34.917  1.00  0.00    -0.203 F 
ATOM     95  C   UNL A   1      45.934  25.456  35.528  1.00  0.00     0.198 A 
ATOM     96  C   UNL A   1      47.292  27.304  34.822  1.00  0.00     0.198 A 
ATOM     97  F   UNL A   1      46.349  29.039  33.544  1.00  0.00    -0.203 F 
ATOM     98  F   UNL A   1      45.799  24.307  36.205  1.00  0.00    -0.200 F 
ATOM     99  C   UNL A   1      47.161  26.102  35.501  1.00  0.00     0.200 A 
ATOM    100  F   UNL A   1      48.479  27.926  34.789  1.00  0.00    -0.200 F 
ATOM    101  F   UNL A   1      48.214  25.571  36.138  1.00  0.00    -0.200 F 
ENDBRANCH  68  91
ENDBRANCH  42  43
ENDBRANCH  34  37
ENDBRANCH  32  33
ENDBRANCH  31  32
ENDBRANCH   1  31
TORSDOF 15
ENDMDL
MODEL 3
REMARK VINA RESULT:     -13.3      2.304      7.400
REMARK SMILES O=C(C[C@@H](C(=O)NCCCNC(=O)c1ccc(-c2c3nc(c(-c4c(F)c(F)c(F)c(F)c4F)c4ccc([nH]4)c(-c4c(F)c(F)c(F)c(F)c4F)c4nc(c(-c5c(F)c(F)c(F)c(F)c5F)c5ccc2[nH]5)C=C4)C=C3)cc1)[NH+]1CCN(c2cccc(Cl)c2)CC1)c1ccc(F)cc1
REMARK SMILES IDX 8 1 7 2 5 3 6 4 4 6 3 7 2 8 1 9 90 10 91 11 96 12 92 13
REMARK SMILES IDX 95 14 93 15 94 16 77 17 78 18 89 19 79 21 88 22 80 23 81 24
REMARK SMILES IDX 82 25 87 26 83 27 85 28 84 29 86 30 9 31 10 32 11 33 12 34
REMARK SMILES IDX 13 36 14 37 15 38 76 39 16 40 75 41 17 42 18 43 19 44 69 45
REMARK SMILES IDX 20 46 74 47 68 48 70 49 21 50 73 51 67 52 66 53 22 55 54 56
REMARK SMILES IDX 34 57 53 58 35 59 38 60 52 61 71 62 36 63 37 64 51 66 72 67
REMARK SMILES IDX 39 68 23 69 24 70 32 71 25 72 26 73 30 74 33 75 27 76 28 77
REMARK SMILES IDX 31 78 29 79 55 80 56 81 64 82 57 83 58 84 62 85 65 86 59 87
REMARK SMILES IDX 60 88 63 89 61 90 40 91 41 92 49 93 42 94 43 95 47 96 50 97
REMARK SMILES IDX 44 98 45 99 48 100 46 101
REMARK H PARENT 7 5 77 20 11 35 70 54 38 65
REMARK Flexibility Score: inf
ROOT
ATOM      1  C   UNL A   1      31.779  28.025  27.107  1.00  0.00     0.118 C 
ENDROOT
BRANCH   1   2
ATOM      2  N   UNL A   1      30.754  26.996  27.020  1.00  0.00    -0.351 N 
ATOM      3  C   UNL A   1      30.535  25.964  26.149  1.00  0.00     0.278 C 
ATOM      4  O   UNL A   1      29.688  25.140  26.511  1.00  0.00    -0.268 OA
ATOM      5  H   UNL A   1      30.079  27.054  27.734  1.00  0.00     0.163 HD
BRANCH   3   6
ATOM      6  C   UNL A   1      31.194  25.908  24.742  1.00  0.00     0.282 C 
BRANCH   6   7
ATOM      7  C   UNL A   1      30.037  26.099  23.732  1.00  0.00     0.156 C 
BRANCH   7   8
ATOM      8  C   UNL A   1      30.222  27.281  22.816  1.00  0.00     0.169 C 
ATOM      9  O   UNL A   1      31.061  27.244  21.916  1.00  0.00    -0.294 OA
BRANCH   8  10
ATOM     10  C   UNL A   1      29.371  28.499  22.975  1.00  0.00     0.018 A 
ATOM     11  C   UNL A   1      27.985  28.494  22.772  1.00  0.00     0.015 A 
ATOM     12  C   UNL A   1      29.993  29.679  23.410  1.00  0.00     0.015 A 
ATOM     13  C   UNL A   1      27.223  29.630  23.054  1.00  0.00     0.040 A 
ATOM     14  C   UNL A   1      29.234  30.826  23.652  1.00  0.00     0.040 A 
ATOM     15  C   UNL A   1      27.854  30.785  23.493  1.00  0.00     0.123 A 
ATOM     16  F   UNL A   1      27.123  31.864  23.796  1.00  0.00    -0.207 F 
ENDBRANCH   8  10
ENDBRANCH   7   8
ENDBRANCH   6   7
BRANCH   6  17
ATOM     17  N   UNL A   1      31.774  24.567  24.402  1.00  0.00    -0.321 N 
ATOM     18  C   UNL A   1      32.976  24.664  23.528  1.00  0.00     0.284 C 
ATOM     19  C   UNL A   1      32.083  23.631  25.504  1.00  0.00     0.284 C 
ATOM     20  H   UNL A   1      30.978  24.155  23.915  1.00  0.00     0.348 HD
ATOM     21  C   UNL A   1      34.301  25.008  24.253  1.00  0.00     0.178 C 
ATOM     22  C   UNL A   1      33.383  23.908  26.285  1.00  0.00     0.178 C 
ATOM     23  N   UNL A   1      34.519  24.089  25.376  1.00  0.00    -0.360 N 
BRANCH  23  24
ATOM     24  C   UNL A   1      35.584  23.211  25.331  1.00  0.00     0.038 A 
ATOM     25  C   UNL A   1      35.416  21.935  24.769  1.00  0.00     0.026 A 
ATOM     26  C   UNL A   1      36.850  23.532  25.837  1.00  0.00     0.046 A 
ATOM     27  C   UNL A   1      36.468  21.016  24.697  1.00  0.00     0.004 A 
ATOM     28  C   UNL A   1      37.900  22.609  25.782  1.00  0.00     0.043 A 
ATOM     29  C   UNL A   1      37.716  21.354  25.210  1.00  0.00     0.020 A 
ATOM     30  Cl  UNL A   1      39.437  23.023  26.442  1.00  0.00    -0.084 Cl
ENDBRANCH  23  24
ENDBRANCH   6  17
ENDBRANCH   3   6
ENDBRANCH   1   2
BRANCH   1  31
ATOM     31  C   UNL A   1      33.171  27.658  26.567  1.00  0.00     0.042 C 
BRANCH  31  32
ATOM     32  C   UNL A   1      34.046  28.770  25.973  1.00  0.00     0.118 C 
BRANCH  32  33
ATOM     33  N   UNL A   1      33.806  30.086  26.544  1.00  0.00    -0.352 N 
ATOM     34  C   UNL A   1      34.522  30.789  27.482  1.00  0.00     0.251 C 
ATOM     35  H   UNL A   1      33.005  30.546  26.204  1.00  0.00     0.163 HD
ATOM     36  O   UNL A   1      34.075  31.876  27.874  1.00  0.00    -0.269 OA
BRANCH  34  37
ATOM     37  C   UNL A   1      35.794  30.294  28.075  1.00  0.00     0.039 A 
ATOM     38  C   UNL A   1      36.960  30.372  27.303  1.00  0.00     0.014 A 
ATOM     39  C   UNL A   1      35.855  29.662  29.320  1.00  0.00     0.014 A 
ATOM     40  C   UNL A   1      38.179  29.881  27.795  1.00  0.00     0.010 A 
ATOM     41  C   UNL A   1      37.085  29.197  29.825  1.00  0.00     0.010 A 
ATOM     42  C   UNL A   1      38.267  29.311  29.076  1.00  0.00    -0.014 A 
BRANCH  42  43
ATOM     43  C   UNL A   1      39.597  28.903  29.626  1.00  0.00     0.031 A 
ATOM     44  C   UNL A   1      40.340  27.693  29.121  1.00  0.00     0.074 A 
ATOM     45  C   UNL A   1      40.157  29.633  30.613  1.00  0.00     0.049 A 
ATOM     46  N   UNL A   1      41.538  27.264  29.446  1.00  0.00    -0.248 NA
ATOM     47  C   UNL A   1      39.651  26.847  28.138  1.00  0.00     0.031 C 
ATOM     48  C   UNL A   1      39.542  30.796  31.251  1.00  0.00     0.029 A 
ATOM     49  N   UNL A   1      41.371  29.508  31.250  1.00  0.00    -0.354 N 
ATOM     50  C   UNL A   1      41.747  26.104  28.711  1.00  0.00     0.074 A 
ATOM     51  C   UNL A   1      40.534  25.872  27.952  1.00  0.00     0.031 C 
ATOM     52  C   UNL A   1      40.388  31.294  32.167  1.00  0.00     0.029 A 
ATOM     53  C   UNL A   1      41.600  30.478  32.195  1.00  0.00     0.049 A 
ATOM     54  H   UNL A   1      42.014  28.791  31.045  1.00  0.00     0.167 HD
ATOM     55  C   UNL A   1      42.849  25.314  28.655  1.00  0.00     0.037 A 
ATOM     56  C   UNL A   1      42.665  30.700  32.992  1.00  0.00     0.037 A 
ATOM     57  C   UNL A   1      44.073  25.538  29.385  1.00  0.00     0.049 A 
ATOM     58  C   UNL A   1      43.879  29.818  32.901  1.00  0.00     0.074 A 
ATOM     59  C   UNL A   1      45.263  24.831  29.310  1.00  0.00     0.029 A 
ATOM     60  N   UNL A   1      44.265  26.533  30.329  1.00  0.00    -0.354 N 
ATOM     61  N   UNL A   1      44.098  28.790  32.122  1.00  0.00    -0.248 NA
ATOM     62  C   UNL A   1      45.003  30.140  33.795  1.00  0.00     0.031 C 
ATOM     63  C   UNL A   1      46.159  25.371  30.240  1.00  0.00     0.029 A 
ATOM     64  C   UNL A   1      45.542  26.440  30.864  1.00  0.00     0.049 A 
ATOM     65  H   UNL A   1      43.593  27.207  30.584  1.00  0.00     0.167 HD
ATOM     66  C   UNL A   1      45.385  28.358  32.411  1.00  0.00     0.074 A 
ATOM     67  C   UNL A   1      45.908  29.244  33.430  1.00  0.00     0.031 C 
ATOM     68  C   UNL A   1      46.069  27.318  31.876  1.00  0.00     0.037 A 
BRANCH  55  69
ATOM     69  C   UNL A   1      42.804  24.117  27.750  1.00  0.00     0.064 A 
ATOM     70  C   UNL A   1      43.134  24.216  26.391  1.00  0.00     0.173 A 
ATOM     71  C   UNL A   1      42.519  22.842  28.266  1.00  0.00     0.173 A 
ATOM     72  F   UNL A   1      43.416  25.412  25.851  1.00  0.00    -0.203 F 
ATOM     73  C   UNL A   1      43.163  23.086  25.577  1.00  0.00     0.198 A 
ATOM     74  C   UNL A   1      42.572  21.712  27.455  1.00  0.00     0.198 A 
ATOM     75  F   UNL A   1      42.215  22.691  29.565  1.00  0.00    -0.203 F 
ATOM     76  F   UNL A   1      43.455  23.209  24.275  1.00  0.00    -0.200 F 
ATOM     77  C   UNL A   1      42.890  21.836  26.110  1.00  0.00     0.200 A 
ATOM     78  F   UNL A   1      42.324  20.503  27.975  1.00  0.00    -0.200 F 
ATOM     79  F   UNL A   1      42.933  20.749  25.328  1.00  0.00    -0.200 F 
ENDBRANCH  55  69
BRANCH  56  80
ATOM     80  C   UNL A   1      42.645  31.845  33.939  1.00  0.00     0.064 A 
ATOM     81  C   UNL A   1      42.119  31.700  35.230  1.00  0.00     0.173 A 
ATOM     82  C   UNL A   1      43.138  33.103  33.568  1.00  0.00     0.173 A 
ATOM     83  F   UNL A   1      41.612  30.520  35.617  1.00  0.00    -0.203 F 
ATOM     84  C   UNL A   1      42.075  32.777  36.111  1.00  0.00     0.198 A 
ATOM     85  C   UNL A   1      43.116  34.173  34.458  1.00  0.00     0.198 A 
ATOM     86  F   UNL A   1      43.650  33.288  32.342  1.00  0.00    -0.203 F 
ATOM     87  F   UNL A   1      41.531  32.623  37.326  1.00  0.00    -0.200 F 
ATOM     88  C   UNL A   1      42.578  34.011  35.727  1.00  0.00     0.200 A 
ATOM     89  F   UNL A   1      43.609  35.361  34.086  1.00  0.00    -0.200 F 
ATOM     90  F   UNL A   1      42.537  35.047  36.576  1.00  0.00    -0.200 F 
ENDBRANCH  56  80
BRANCH  68  91
ATOM     91  C   UNL A   1      47.471  27.087  32.363  1.00  0.00     0.064 A 
ATOM     92  C   UNL A   1      48.568  27.732  31.774  1.00  0.00     0.173 A 
ATOM     93  C   UNL A   1      47.718  26.229  33.446  1.00  0.00     0.173 A 
ATOM     94  F   UNL A   1      48.387  28.549  30.726  1.00  0.00    -0.203 F 
ATOM     95  C   UNL A   1      49.863  27.509  32.236  1.00  0.00     0.198 A 
ATOM     96  C   UNL A   1      49.011  26.027  33.920  1.00  0.00     0.198 A 
ATOM     97  F   UNL A   1      46.703  25.589  34.046  1.00  0.00    -0.203 F 
ATOM     98  F   UNL A   1      50.901  28.103  31.630  1.00  0.00    -0.200 F 
ATOM     99  C   UNL A   1      50.084  26.661  33.311  1.00  0.00     0.200 A 
ATOM    100  F   UNL A   1      49.222  25.213  34.964  1.00  0.00    -0.200 F 
ATOM    101  F   UNL A   1      51.330  26.449  33.755  1.00  0.00    -0.200 F 
ENDBRANCH  68  91
ENDBRANCH  42  43
ENDBRANCH  34  37
ENDBRANCH  32  33
ENDBRANCH  31  32
ENDBRANCH   1  31
TORSDOF 15
ENDMDL
