MODEL 1
REMARK VINA RESULT:     -14.4      0.000      0.000
REMARK SMILES O=C(NCCCNC(=O)[C@H]1CC2=c3ccccc3=N[C@H]2[C@H](c2ccccc2F)[NH2+]1)c1ccc(-c2c3nc(c(-c4c(F)c(F)c(F)c(F)c4F)c4ccc([nH]4)c(-c4c(F)c(F)c(F)c(F)c4F)c4nc(c(-c5c(F)c(F)c(F)c(F)c5F)c5ccc2[nH]5)C=C4)C=C3)cc1
REMARK SMILES IDX 4 1 3 2 1 3 2 4 30 6 31 7 92 8 32 9 91 10 33 11 34 12 35 13
REMARK SMILES IDX 85 14 36 15 90 16 84 17 86 18 37 19 89 20 83 21 82 22 38 24
REMARK SMILES IDX 70 25 50 26 69 27 51 28 54 29 68 30 87 31 52 32 53 33 67 35
REMARK SMILES IDX 88 36 55 37 39 38 40 39 48 40 41 41 42 42 46 43 49 44 43 45
REMARK SMILES IDX 44 46 47 47 45 48 71 49 72 50 80 51 73 52 74 53 78 54 81 55
REMARK SMILES IDX 75 56 76 57 79 58 77 59 56 60 57 61 65 62 58 63 59 64 63 65
REMARK SMILES IDX 66 66 60 67 61 68 64 69 62 70 5 71 6 72 7 73 8 74 9 76 10 77
REMARK SMILES IDX 11 78 29 79 12 80 21 81 13 84 20 85 14 86 18 87 19 88 15 89
REMARK SMILES IDX 17 90 16 91 22 92 23 93 27 94 24 95 26 96 28 97 25 98
REMARK H PARENT 3 5 86 23 54 34 7 75 29 82 29 83
REMARK Flexibility Score: inf
ROOT
ATOM      1  C   UNL A   1      33.233  29.234  25.099  1.00  0.00     0.118 C 
ENDROOT
BRANCH   1   2
ATOM      2  N   UNL A   1      32.811  30.465  25.749  1.00  0.00    -0.352 N 
ATOM      3  O   UNL A   1      32.581  31.888  27.470  1.00  0.00    -0.269 OA
ATOM      4  C   UNL A   1      33.281  31.059  26.888  1.00  0.00     0.251 C 
ATOM      5  H   UNL A   1      32.076  30.943  25.301  1.00  0.00     0.163 HD
BRANCH   4   6
ATOM      6  C   UNL A   1      34.624  30.746  27.417  1.00  0.00     0.039 A 
ATOM      7  C   UNL A   1      34.909  29.427  27.793  1.00  0.00     0.014 A 
ATOM      8  C   UNL A   1      35.540  31.765  27.693  1.00  0.00     0.014 A 
ATOM      9  C   UNL A   1      36.102  29.132  28.456  1.00  0.00     0.010 A 
ATOM     10  C   UNL A   1      36.755  31.463  28.305  1.00  0.00     0.010 A 
ATOM     11  C   UNL A   1      37.024  30.152  28.731  1.00  0.00    -0.014 A 
BRANCH  11  12
ATOM     12  C   UNL A   1      38.202  29.912  29.598  1.00  0.00     0.031 A 
ATOM     13  C   UNL A   1      39.313  29.036  29.088  1.00  0.00     0.074 A 
ATOM     14  C   UNL A   1      38.274  30.450  30.827  1.00  0.00     0.049 A 
ATOM     15  N   UNL A   1      40.365  28.574  29.716  1.00  0.00    -0.248 NA
ATOM     16  C   UNL A   1      39.213  28.607  27.684  1.00  0.00     0.031 C 
ATOM     17  C   UNL A   1      37.279  31.339  31.421  1.00  0.00     0.029 A 
ATOM     18  N   UNL A   1      39.234  30.319  31.799  1.00  0.00    -0.354 N 
ATOM     19  C   UNL A   1      41.035  27.781  28.792  1.00  0.00     0.074 A 
ATOM     20  C   UNL A   1      40.253  27.794  27.574  1.00  0.00     0.031 C 
ATOM     21  C   UNL A   1      37.692  31.696  32.649  1.00  0.00     0.029 A 
ATOM     22  C   UNL A   1      38.957  31.026  32.941  1.00  0.00     0.049 A 
ATOM     23  H   UNL A   1      40.044  29.771  31.686  1.00  0.00     0.167 HD
ATOM     24  C   UNL A   1      42.205  27.117  28.940  1.00  0.00     0.037 A 
ATOM     25  C   UNL A   1      39.645  31.111  34.095  1.00  0.00     0.037 A 
ATOM     26  C   UNL A   1      42.993  27.125  30.143  1.00  0.00     0.049 A 
ATOM     27  C   UNL A   1      40.922  30.331  34.253  1.00  0.00     0.074 A 
ATOM     28  C   UNL A   1      44.190  26.482  30.399  1.00  0.00     0.029 A 
ATOM     29  N   UNL A   1      42.662  27.830  31.292  1.00  0.00    -0.354 N 
ATOM     30  N   UNL A   1      41.527  29.552  33.391  1.00  0.00    -0.248 NA
ATOM     31  C   UNL A   1      41.603  30.436  35.552  1.00  0.00     0.031 C 
ATOM     32  C   UNL A   1      44.573  26.780  31.713  1.00  0.00     0.029 A 
ATOM     33  C   UNL A   1      43.632  27.636  32.262  1.00  0.00     0.049 A 
ATOM     34  H   UNL A   1      41.857  28.386  31.401  1.00  0.00     0.167 HD
ATOM     35  C   UNL A   1      42.665  29.083  34.033  1.00  0.00     0.074 A 
ATOM     36  C   UNL A   1      42.673  29.678  35.355  1.00  0.00     0.031 C 
ATOM     37  C   UNL A   1      43.616  28.234  33.572  1.00  0.00     0.037 A 
BRANCH  24  38
ATOM     38  C   UNL A   1      42.692  26.323  27.764  1.00  0.00     0.064 A 
ATOM     39  C   UNL A   1      42.334  24.977  27.591  1.00  0.00     0.173 A 
ATOM     40  C   UNL A   1      43.527  26.910  26.801  1.00  0.00     0.173 A 
ATOM     41  F   UNL A   1      41.554  24.365  28.494  1.00  0.00    -0.203 F 
ATOM     42  C   UNL A   1      42.821  24.238  26.515  1.00  0.00     0.198 A 
ATOM     43  C   UNL A   1      43.990  26.176  25.712  1.00  0.00     0.198 A 
ATOM     44  F   UNL A   1      43.896  28.193  26.919  1.00  0.00    -0.203 F 
ATOM     45  F   UNL A   1      42.511  22.939  26.402  1.00  0.00    -0.200 F 
ATOM     46  C   UNL A   1      43.645  24.839  25.575  1.00  0.00     0.200 A 
ATOM     47  F   UNL A   1      44.778  26.759  24.799  1.00  0.00    -0.200 F 
ATOM     48  F   UNL A   1      44.115  24.126  24.542  1.00  0.00    -0.200 F 
ENDBRANCH  24  38
BRANCH  25  49
ATOM     49  C   UNL A   1      39.149  31.996  35.176  1.00  0.00     0.064 A 
ATOM     50  C   UNL A   1      38.400  31.468  36.236  1.00  0.00     0.173 A 
ATOM     51  C   UNL A   1      39.440  33.366  35.198  1.00  0.00     0.173 A 
ATOM     52  F   UNL A   1      38.080  30.165  36.245  1.00  0.00    -0.203 F 
ATOM     53  C   UNL A   1      37.961  32.278  37.280  1.00  0.00     0.198 A 
ATOM     54  C   UNL A   1      39.018  34.173  36.253  1.00  0.00     0.198 A 
ATOM     55  F   UNL A   1      40.155  33.916  34.206  1.00  0.00    -0.203 F 
ATOM     56  F   UNL A   1      37.231  31.752  38.273  1.00  0.00    -0.200 F 
ATOM     57  C   UNL A   1      38.278  33.629  37.292  1.00  0.00     0.200 A 
ATOM     58  F   UNL A   1      39.335  35.475  36.267  1.00  0.00    -0.200 F 
ATOM     59  F   UNL A   1      37.870  34.405  38.305  1.00  0.00    -0.200 F 
ENDBRANCH  25  49
BRANCH  37  60
ATOM     60  C   UNL A   1      44.751  27.908  34.495  1.00  0.00     0.064 A 
ATOM     61  C   UNL A   1      45.895  28.718  34.558  1.00  0.00     0.173 A 
ATOM     62  C   UNL A   1      44.673  26.805  35.356  1.00  0.00     0.173 A 
ATOM     63  F   UNL A   1      46.019  29.776  33.742  1.00  0.00    -0.203 F 
ATOM     64  C   UNL A   1      46.928  28.423  35.443  1.00  0.00     0.198 A 
ATOM     65  C   UNL A   1      45.699  26.527  36.255  1.00  0.00     0.198 A 
ATOM     66  F   UNL A   1      43.597  26.005  35.335  1.00  0.00    -0.203 F 
ATOM     67  F   UNL A   1      48.028  29.190  35.464  1.00  0.00    -0.200 F 
ATOM     68  C   UNL A   1      46.827  27.333  36.295  1.00  0.00     0.200 A 
ATOM     69  F   UNL A   1      45.597  25.479  37.084  1.00  0.00    -0.200 F 
ATOM     70  F   UNL A   1      47.821  27.055  37.150  1.00  0.00    -0.200 F 
ENDBRANCH  37  60
ENDBRANCH  11  12
ENDBRANCH   4   6
ENDBRANCH   1   2
BRANCH   1  71
ATOM     71  C   UNL A   1      32.336  28.053  25.482  1.00  0.00     0.042 C 
BRANCH  71  72
ATOM     72  C   UNL A   1      32.973  26.685  25.230  1.00  0.00     0.118 C 
BRANCH  72  73
ATOM     73  N   UNL A   1      32.971  26.359  23.822  1.00  0.00    -0.351 N 
ATOM     74  C   UNL A   1      33.643  25.411  23.128  1.00  0.00     0.278 C 
ATOM     75  H   UNL A   1      32.378  26.923  23.273  1.00  0.00     0.163 HD
ATOM     76  O   UNL A   1      33.977  25.751  21.985  1.00  0.00    -0.268 OA
BRANCH  74  77
ATOM     77  C   UNL A   1      33.881  23.961  23.608  1.00  0.00     0.277 C 
ATOM     78  C   UNL A   1      32.984  22.787  23.149  1.00  0.00     0.109 C 
ATOM     79  N   UNL A   1      35.322  23.642  23.405  1.00  0.00    -0.327 N 
ATOM     80  C   UNL A   1      33.411  21.524  23.854  1.00  0.00    -0.024 C 
ATOM     81  C   UNL A   1      35.730  22.388  24.094  1.00  0.00     0.246 C 
ATOM     82  H   UNL A   1      35.883  24.412  23.770  1.00  0.00     0.347 HD
ATOM     83  H   UNL A   1      35.472  23.508  22.405  1.00  0.00     0.347 HD
ATOM     84  C   UNL A   1      33.099  20.242  23.676  1.00  0.00     0.002 A 
ATOM     85  C   UNL A   1      34.558  21.660  24.829  1.00  0.00     0.196 C 
ATOM     86  C   UNL A   1      32.217  19.499  22.836  1.00  0.00     0.010 A 
ATOM     87  C   UNL A   1      34.039  19.553  24.584  1.00  0.00     0.066 A 
ATOM     88  N   UNL A   1      34.901  20.271  25.230  1.00  0.00    -0.270 NA
ATOM     89  C   UNL A   1      32.212  18.157  22.931  1.00  0.00     0.001 A 
ATOM     90  C   UNL A   1      33.944  18.084  24.668  1.00  0.00     0.028 A 
ATOM     91  C   UNL A   1      33.064  17.451  23.874  1.00  0.00     0.002 A 
BRANCH  81  92
ATOM     92  C   UNL A   1      36.903  22.571  25.038  1.00  0.00     0.048 A 
ATOM     93  C   UNL A   1      37.049  23.809  25.696  1.00  0.00     0.013 A 
ATOM     94  C   UNL A   1      37.918  21.624  25.203  1.00  0.00     0.132 A 
ATOM     95  C   UNL A   1      38.175  24.091  26.468  1.00  0.00     0.001 A 
ATOM     96  C   UNL A   1      39.034  21.891  25.995  1.00  0.00     0.040 A 
ATOM     97  F   UNL A   1      37.873  20.445  24.568  1.00  0.00    -0.206 F 
ATOM     98  C   UNL A   1      39.171  23.129  26.619  1.00  0.00     0.003 A 
ENDBRANCH  81  92
ENDBRANCH  74  77
ENDBRANCH  72  73
ENDBRANCH  71  72
ENDBRANCH   1  71
TORSDOF 11
ENDMDL
MODEL 2
REMARK VINA RESULT:     -14.4      0.085      1.569
REMARK SMILES O=C(NCCCNC(=O)[C@H]1CC2=c3ccccc3=N[C@H]2[C@H](c2ccccc2F)[NH2+]1)c1ccc(-c2c3nc(c(-c4c(F)c(F)c(F)c(F)c4F)c4ccc([nH]4)c(-c4c(F)c(F)c(F)c(F)c4F)c4nc(c(-c5c(F)c(F)c(F)c(F)c5F)c5ccc2[nH]5)C=C4)C=C3)cc1
REMARK SMILES IDX 4 1 3 2 1 3 2 4 30 6 31 7 92 8 32 9 91 10 33 11 34 12 35 13
REMARK SMILES IDX 85 14 36 15 90 16 84 17 86 18 37 19 89 20 83 21 82 22 38 24
REMARK SMILES IDX 70 25 50 26 69 27 51 28 54 29 68 30 87 31 52 32 53 33 67 35
REMARK SMILES IDX 88 36 55 37 39 38 40 39 48 40 41 41 42 42 46 43 49 44 43 45
REMARK SMILES IDX 44 46 47 47 45 48 71 49 72 50 80 51 73 52 74 53 78 54 81 55
REMARK SMILES IDX 75 56 76 57 79 58 77 59 56 60 57 61 65 62 58 63 59 64 63 65
REMARK SMILES IDX 66 66 60 67 61 68 64 69 62 70 5 71 6 72 7 73 8 74 9 76 10 77
REMARK SMILES IDX 11 78 29 79 12 80 21 81 13 84 20 85 14 86 18 87 19 88 15 89
REMARK SMILES IDX 17 90 16 91 22 92 23 93 27 94 24 95 26 96 28 97 25 98
REMARK H PARENT 3 5 86 23 54 34 7 75 29 82 29 83
REMARK Flexibility Score: inf
ROOT
ATOM      1  C   UNL A   1      33.269  29.251  25.143  1.00  0.00     0.118 C 
ENDROOT
BRANCH   1   2
ATOM      2  N   UNL A   1      32.859  30.486  25.794  1.00  0.00    -0.352 N 
ATOM      3  O   UNL A   1      32.638  31.907  27.517  1.00  0.00    -0.269 OA
ATOM      4  C   UNL A   1      33.330  31.071  26.936  1.00  0.00     0.251 C 
ATOM      5  H   UNL A   1      32.132  30.973  25.344  1.00  0.00     0.163 HD
BRANCH   4   6
ATOM      6  C   UNL A   1      34.667  30.740  27.471  1.00  0.00     0.039 A 
ATOM      7  C   UNL A   1      34.912  29.433  27.909  1.00  0.00     0.014 A 
ATOM      8  C   UNL A   1      35.618  31.741  27.690  1.00  0.00     0.014 A 
ATOM      9  C   UNL A   1      36.101  29.132  28.578  1.00  0.00     0.010 A 
ATOM     10  C   UNL A   1      36.827  31.429  28.308  1.00  0.00     0.010 A 
ATOM     11  C   UNL A   1      37.058  30.134  28.796  1.00  0.00    -0.014 A 
BRANCH  11  12
ATOM     12  C   UNL A   1      38.235  29.897  29.666  1.00  0.00     0.031 A 
ATOM     13  C   UNL A   1      39.352  29.028  29.157  1.00  0.00     0.074 A 
ATOM     14  C   UNL A   1      38.301  30.433  30.897  1.00  0.00     0.049 A 
ATOM     15  N   UNL A   1      40.404  28.570  29.787  1.00  0.00    -0.248 NA
ATOM     16  C   UNL A   1      39.258  28.602  27.752  1.00  0.00     0.031 C 
ATOM     17  C   UNL A   1      37.299  31.316  31.489  1.00  0.00     0.029 A 
ATOM     18  N   UNL A   1      39.258  30.305  31.870  1.00  0.00    -0.354 N 
ATOM     19  C   UNL A   1      41.081  27.784  28.863  1.00  0.00     0.074 A 
ATOM     20  C   UNL A   1      40.303  27.796  27.643  1.00  0.00     0.031 C 
ATOM     21  C   UNL A   1      37.707  31.672  32.720  1.00  0.00     0.029 A 
ATOM     22  C   UNL A   1      38.974  31.007  33.014  1.00  0.00     0.049 A 
ATOM     23  H   UNL A   1      40.072  29.762  31.759  1.00  0.00     0.167 HD
ATOM     24  C   UNL A   1      42.254  27.126  29.013  1.00  0.00     0.037 A 
ATOM     25  C   UNL A   1      39.659  31.094  34.170  1.00  0.00     0.037 A 
ATOM     26  C   UNL A   1      43.039  27.135  30.218  1.00  0.00     0.049 A 
ATOM     27  C   UNL A   1      40.939  30.320  34.330  1.00  0.00     0.074 A 
ATOM     28  C   UNL A   1      44.238  26.498  30.476  1.00  0.00     0.029 A 
ATOM     29  N   UNL A   1      42.701  27.836  31.368  1.00  0.00    -0.354 N 
ATOM     30  N   UNL A   1      41.551  29.546  33.468  1.00  0.00    -0.248 NA
ATOM     31  C   UNL A   1      41.616  30.426  35.630  1.00  0.00     0.031 C 
ATOM     32  C   UNL A   1      44.616  26.794  31.791  1.00  0.00     0.029 A 
ATOM     33  C   UNL A   1      43.669  27.644  32.340  1.00  0.00     0.049 A 
ATOM     34  H   UNL A   1      41.893  28.387  31.475  1.00  0.00     0.167 HD
ATOM     35  C   UNL A   1      42.689  29.082  34.111  1.00  0.00     0.074 A 
ATOM     36  C   UNL A   1      42.691  29.674  35.435  1.00  0.00     0.031 C 
ATOM     37  C   UNL A   1      43.647  28.240  33.651  1.00  0.00     0.037 A 
BRANCH  24  38
ATOM     38  C   UNL A   1      42.749  26.337  27.837  1.00  0.00     0.064 A 
ATOM     39  C   UNL A   1      43.602  26.908  26.879  1.00  0.00     0.173 A 
ATOM     40  C   UNL A   1      42.367  24.999  27.661  1.00  0.00     0.173 A 
ATOM     41  F   UNL A   1      43.981  28.189  26.992  1.00  0.00    -0.203 F 
ATOM     42  C   UNL A   1      44.027  26.178  25.772  1.00  0.00     0.198 A 
ATOM     43  C   UNL A   1      42.816  24.263  26.567  1.00  0.00     0.198 A 
ATOM     44  F   UNL A   1      41.556  24.405  28.548  1.00  0.00    -0.203 F 
ATOM     45  F   UNL A   1      44.795  26.762  24.841  1.00  0.00    -0.200 F 
ATOM     46  C   UNL A   1      43.637  24.856  25.619  1.00  0.00     0.200 A 
ATOM     47  F   UNL A   1      42.446  22.984  26.423  1.00  0.00    -0.200 F 
ATOM     48  F   UNL A   1      44.044  24.156  24.551  1.00  0.00    -0.200 F 
ENDBRANCH  24  38
BRANCH  25  49
ATOM     49  C   UNL A   1      39.155  31.974  35.252  1.00  0.00     0.064 A 
ATOM     50  C   UNL A   1      38.385  31.443  36.295  1.00  0.00     0.173 A 
ATOM     51  C   UNL A   1      39.459  33.341  35.290  1.00  0.00     0.173 A 
ATOM     52  F   UNL A   1      38.052  30.144  36.287  1.00  0.00    -0.203 F 
ATOM     53  C   UNL A   1      37.938  32.248  37.340  1.00  0.00     0.198 A 
ATOM     54  C   UNL A   1      39.028  34.142  36.346  1.00  0.00     0.198 A 
ATOM     55  F   UNL A   1      40.194  33.893  34.314  1.00  0.00    -0.203 F 
ATOM     56  F   UNL A   1      37.189  31.720  38.317  1.00  0.00    -0.200 F 
ATOM     57  C   UNL A   1      38.268  33.595  37.369  1.00  0.00     0.200 A 
ATOM     58  F   UNL A   1      39.358  35.440  36.377  1.00  0.00    -0.200 F 
ATOM     59  F   UNL A   1      37.852  34.366  38.384  1.00  0.00    -0.200 F 
ENDBRANCH  25  49
BRANCH  37  60
ATOM     60  C   UNL A   1      44.781  27.918  34.576  1.00  0.00     0.064 A 
ATOM     61  C   UNL A   1      44.737  26.800  35.422  1.00  0.00     0.173 A 
ATOM     62  C   UNL A   1      45.940  28.707  34.582  1.00  0.00     0.173 A 
ATOM     63  F   UNL A   1      43.642  26.026  35.462  1.00  0.00    -0.203 F 
ATOM     64  C   UNL A   1      45.811  26.493  36.254  1.00  0.00     0.198 A 
ATOM     65  C   UNL A   1      47.020  28.384  35.398  1.00  0.00     0.198 A 
ATOM     66  F   UNL A   1      46.030  29.783  33.786  1.00  0.00    -0.203 F 
ATOM     67  F   UNL A   1      45.736  25.441  37.080  1.00  0.00    -0.200 F 
ATOM     68  C   UNL A   1      46.953  27.281  36.237  1.00  0.00     0.200 A 
ATOM     69  F   UNL A   1      48.127  29.139  35.374  1.00  0.00    -0.200 F 
ATOM     70  F   UNL A   1      47.988  26.979  37.033  1.00  0.00    -0.200 F 
ENDBRANCH  37  60
ENDBRANCH  11  12
ENDBRANCH   4   6
ENDBRANCH   1   2
BRANCH   1  71
ATOM     71  C   UNL A   1      32.307  28.100  25.452  1.00  0.00     0.042 C 
BRANCH  71  72
ATOM     72  C   UNL A   1      32.909  26.712  25.221  1.00  0.00     0.118 C 
BRANCH  72  73
ATOM     73  N   UNL A   1      32.942  26.383  23.814  1.00  0.00    -0.351 N 
ATOM     74  C   UNL A   1      33.638  25.441  23.138  1.00  0.00     0.278 C 
ATOM     75  H   UNL A   1      32.356  26.941  23.251  1.00  0.00     0.163 HD
ATOM     76  O   UNL A   1      33.996  25.782  22.001  1.00  0.00    -0.268 OA
BRANCH  74  77
ATOM     77  C   UNL A   1      33.879  23.994  23.625  1.00  0.00     0.277 C 
ATOM     78  C   UNL A   1      32.993  22.813  23.162  1.00  0.00     0.109 C 
ATOM     79  N   UNL A   1      35.324  23.681  23.439  1.00  0.00    -0.327 N 
ATOM     80  C   UNL A   1      33.420  21.555  23.876  1.00  0.00    -0.024 C 
ATOM     81  C   UNL A   1      35.731  22.432  24.137  1.00  0.00     0.246 C 
ATOM     82  H   UNL A   1      35.877  24.456  23.806  1.00  0.00     0.347 HD
ATOM     83  H   UNL A   1      35.485  23.545  22.441  1.00  0.00     0.347 HD
ATOM     84  C   UNL A   1      33.116  20.271  23.700  1.00  0.00     0.002 A 
ATOM     85  C   UNL A   1      34.556  21.702  24.862  1.00  0.00     0.196 C 
ATOM     86  C   UNL A   1      32.247  19.521  22.853  1.00  0.00     0.010 A 
ATOM     87  C   UNL A   1      34.050  19.591  24.620  1.00  0.00     0.066 A 
ATOM     88  N   UNL A   1      34.902  20.316  25.272  1.00  0.00    -0.270 NA
ATOM     89  C   UNL A   1      32.248  18.179  22.953  1.00  0.00     0.001 A 
ATOM     90  C   UNL A   1      33.962  18.122  24.708  1.00  0.00     0.028 A 
ATOM     91  C   UNL A   1      33.094  17.481  23.908  1.00  0.00     0.002 A 
BRANCH  81  92
ATOM     92  C   UNL A   1      36.894  22.625  25.092  1.00  0.00     0.048 A 
ATOM     93  C   UNL A   1      37.023  23.866  25.750  1.00  0.00     0.013 A 
ATOM     94  C   UNL A   1      37.914  21.687  25.268  1.00  0.00     0.132 A 
ATOM     95  C   UNL A   1      38.140  24.156  26.532  1.00  0.00     0.001 A 
ATOM     96  C   UNL A   1      39.020  21.962  26.071  1.00  0.00     0.040 A 
ATOM     97  F   UNL A   1      37.884  20.506  24.634  1.00  0.00    -0.206 F 
ATOM     98  C   UNL A   1      39.141  23.203  26.695  1.00  0.00     0.003 A 
ENDBRANCH  81  92
ENDBRANCH  74  77
ENDBRANCH  72  73
ENDBRANCH  71  72
ENDBRANCH   1  71
TORSDOF 11
ENDMDL
MODEL 3
REMARK VINA RESULT:     -14.3      4.236      9.833
REMARK SMILES O=C(NCCCNC(=O)[C@H]1CC2=c3ccccc3=N[C@H]2[C@H](c2ccccc2F)[NH2+]1)c1ccc(-c2c3nc(c(-c4c(F)c(F)c(F)c(F)c4F)c4ccc([nH]4)c(-c4c(F)c(F)c(F)c(F)c4F)c4nc(c(-c5c(F)c(F)c(F)c(F)c5F)c5ccc2[nH]5)C=C4)C=C3)cc1
REMARK SMILES IDX 4 1 3 2 1 3 2 4 30 6 31 7 92 8 32 9 91 10 33 11 34 12 35 13
REMARK SMILES IDX 85 14 36 15 90 16 84 17 86 18 37 19 89 20 83 21 82 22 38 24
REMARK SMILES IDX 70 25 50 26 69 27 51 28 54 29 68 30 87 31 52 32 53 33 67 35
REMARK SMILES IDX 88 36 55 37 39 38 40 39 48 40 41 41 42 42 46 43 49 44 43 45
REMARK SMILES IDX 44 46 47 47 45 48 71 49 72 50 80 51 73 52 74 53 78 54 81 55
REMARK SMILES IDX 75 56 76 57 79 58 77 59 56 60 57 61 65 62 58 63 59 64 63 65
REMARK SMILES IDX 66 66 60 67 61 68 64 69 62 70 5 71 6 72 7 73 8 74 9 76 10 77
REMARK SMILES IDX 11 78 29 79 12 80 21 81 13 84 20 85 14 86 18 87 19 88 15 89
REMARK SMILES IDX 17 90 16 91 22 92 23 93 27 94 24 95 26 96 28 97 25 98
REMARK H PARENT 3 5 86 23 54 34 7 75 29 82 29 83
REMARK Flexibility Score: inf
ROOT
ATOM      1  C   UNL A   1      36.368  22.630  25.174  1.00  0.00     0.118 C 
ENDROOT
BRANCH   1   2
ATOM      2  N   UNL A   1      37.270  21.532  25.489  1.00  0.00    -0.352 N 
ATOM      3  O   UNL A   1      39.268  20.552  25.780  1.00  0.00    -0.269 OA
ATOM      4  C   UNL A   1      38.572  21.560  25.904  1.00  0.00     0.251 C 
ATOM      5  H   UNL A   1      36.882  20.633  25.388  1.00  0.00     0.163 HD
BRANCH   4   6
ATOM      6  C   UNL A   1      39.152  22.768  26.525  1.00  0.00     0.039 A 
ATOM      7  C   UNL A   1      38.688  24.024  26.116  1.00  0.00     0.014 A 
ATOM      8  C   UNL A   1      40.252  22.675  27.383  1.00  0.00     0.014 A 
ATOM      9  C   UNL A   1      39.334  25.184  26.553  1.00  0.00     0.010 A 
ATOM     10  C   UNL A   1      40.862  23.832  27.862  1.00  0.00     0.010 A 
ATOM     11  C   UNL A   1      40.435  25.092  27.416  1.00  0.00    -0.014 A 
BRANCH  11  12
ATOM     12  C   UNL A   1      41.258  26.281  27.742  1.00  0.00     0.031 A 
ATOM     13  C   UNL A   1      40.650  27.383  28.566  1.00  0.00     0.074 A 
ATOM     14  C   UNL A   1      42.522  26.388  27.296  1.00  0.00     0.049 A 
ATOM     15  N   UNL A   1      41.126  28.568  28.853  1.00  0.00    -0.248 NA
ATOM     16  C   UNL A   1      39.315  27.117  29.125  1.00  0.00     0.031 C 
ATOM     17  C   UNL A   1      43.232  25.377  26.517  1.00  0.00     0.029 A 
ATOM     18  N   UNL A   1      43.429  27.407  27.436  1.00  0.00    -0.354 N 
ATOM     19  C   UNL A   1      40.139  29.196  29.603  1.00  0.00     0.074 A 
ATOM     20  C   UNL A   1      39.025  28.277  29.695  1.00  0.00     0.031 C 
ATOM     21  C   UNL A   1      44.478  25.815  26.268  1.00  0.00     0.029 A 
ATOM     22  C   UNL A   1      44.635  27.154  26.832  1.00  0.00     0.049 A 
ATOM     23  H   UNL A   1      43.235  28.239  27.924  1.00  0.00     0.167 HD
ATOM     24  C   UNL A   1      40.166  30.421  30.179  1.00  0.00     0.037 A 
ATOM     25  C   UNL A   1      45.735  27.923  26.740  1.00  0.00     0.037 A 
ATOM     26  C   UNL A   1      41.284  31.322  30.108  1.00  0.00     0.049 A 
ATOM     27  C   UNL A   1      45.729  29.298  27.350  1.00  0.00     0.074 A 
ATOM     28  C   UNL A   1      41.412  32.588  30.650  1.00  0.00     0.029 A 
ATOM     29  N   UNL A   1      42.478  31.041  29.459  1.00  0.00    -0.354 N 
ATOM     30  N   UNL A   1      44.779  29.901  28.021  1.00  0.00    -0.248 NA
ATOM     31  C   UNL A   1      46.948  30.102  27.178  1.00  0.00     0.031 C 
ATOM     32  C   UNL A   1      42.677  33.082  30.310  1.00  0.00     0.029 A 
ATOM     33  C   UNL A   1      43.349  32.111  29.586  1.00  0.00     0.049 A 
ATOM     34  H   UNL A   1      42.677  30.204  28.980  1.00  0.00     0.167 HD
ATOM     35  C   UNL A   1      45.284  31.147  28.364  1.00  0.00     0.074 A 
ATOM     36  C   UNL A   1      46.634  31.209  27.838  1.00  0.00     0.031 C 
ATOM     37  C   UNL A   1      44.685  32.152  29.050  1.00  0.00     0.037 A 
BRANCH  24  38
ATOM     38  C   UNL A   1      38.941  30.849  30.930  1.00  0.00     0.064 A 
ATOM     39  C   UNL A   1      38.819  30.640  32.313  1.00  0.00     0.173 A 
ATOM     40  C   UNL A   1      37.875  31.473  30.264  1.00  0.00     0.173 A 
ATOM     41  F   UNL A   1      39.803  30.031  32.991  1.00  0.00    -0.203 F 
ATOM     42  C   UNL A   1      37.662  31.009  32.994  1.00  0.00     0.198 A 
ATOM     43  C   UNL A   1      36.731  31.865  30.954  1.00  0.00     0.198 A 
ATOM     44  F   UNL A   1      37.942  31.698  28.944  1.00  0.00    -0.203 F 
ATOM     45  F   UNL A   1      37.547  30.748  34.304  1.00  0.00    -0.200 F 
ATOM     46  C   UNL A   1      36.622  31.625  32.316  1.00  0.00     0.200 A 
ATOM     47  F   UNL A   1      35.729  32.467  30.299  1.00  0.00    -0.200 F 
ATOM     48  F   UNL A   1      35.508  31.977  32.973  1.00  0.00    -0.200 F 
ENDBRANCH  24  38
BRANCH  25  49
ATOM     49  C   UNL A   1      46.944  27.390  26.066  1.00  0.00     0.064 A 
ATOM     50  C   UNL A   1      47.138  27.596  24.694  1.00  0.00     0.173 A 
ATOM     51  C   UNL A   1      47.939  26.703  26.774  1.00  0.00     0.173 A 
ATOM     52  F   UNL A   1      46.202  28.231  23.974  1.00  0.00    -0.203 F 
ATOM     53  C   UNL A   1      48.287  27.137  24.054  1.00  0.00     0.198 A 
ATOM     54  C   UNL A   1      49.097  26.260  26.136  1.00  0.00     0.198 A 
ATOM     55  F   UNL A   1      47.796  26.482  28.088  1.00  0.00    -0.203 F 
ATOM     56  F   UNL A   1      48.442  27.333  22.737  1.00  0.00    -0.200 F 
ATOM     57  C   UNL A   1      49.269  26.477  24.777  1.00  0.00     0.200 A 
ATOM     58  F   UNL A   1      50.049  25.633  26.841  1.00  0.00    -0.200 F 
ATOM     59  F   UNL A   1      50.382  26.050  24.164  1.00  0.00    -0.200 F 
ENDBRANCH  25  49
BRANCH  37  60
ATOM     60  C   UNL A   1      45.487  33.397  29.283  1.00  0.00     0.064 A 
ATOM     61  C   UNL A   1      46.324  33.526  30.400  1.00  0.00     0.173 A 
ATOM     62  C   UNL A   1      45.453  34.449  28.356  1.00  0.00     0.173 A 
ATOM     63  F   UNL A   1      46.377  32.551  31.321  1.00  0.00    -0.203 F 
ATOM     64  C   UNL A   1      47.088  34.674  30.589  1.00  0.00     0.198 A 
ATOM     65  C   UNL A   1      46.235  35.585  28.537  1.00  0.00     0.198 A 
ATOM     66  F   UNL A   1      44.670  34.368  27.270  1.00  0.00    -0.203 F 
ATOM     67  F   UNL A   1      47.856  34.793  31.681  1.00  0.00    -0.200 F 
ATOM     68  C   UNL A   1      47.048  35.699  29.655  1.00  0.00     0.200 A 
ATOM     69  F   UNL A   1      46.203  36.571  27.630  1.00  0.00    -0.200 F 
ATOM     70  F   UNL A   1      47.790  36.801  29.836  1.00  0.00    -0.200 F 
ENDBRANCH  37  60
ENDBRANCH  11  12
ENDBRANCH   4   6
ENDBRANCH   1   2
BRANCH   1  71
ATOM     71  C   UNL A   1      35.279  22.794  26.238  1.00  0.00     0.042 C 
BRANCH  71  72
ATOM     72  C   UNL A   1      34.353  23.988  25.997  1.00  0.00     0.118 C 
BRANCH  72  73
ATOM     73  N   UNL A   1      32.978  23.652  26.288  1.00  0.00    -0.351 N 
ATOM     74  C   UNL A   1      31.915  24.435  26.581  1.00  0.00     0.278 C 
ATOM     75  H   UNL A   1      32.782  22.686  26.270  1.00  0.00     0.163 HD
ATOM     76  O   UNL A   1      31.117  23.939  27.389  1.00  0.00    -0.268 OA
BRANCH  74  77
ATOM     77  C   UNL A   1      31.587  25.780  25.894  1.00  0.00     0.277 C 
ATOM     78  C   UNL A   1      30.328  25.968  25.014  1.00  0.00     0.109 C 
ATOM     79  N   UNL A   1      31.685  26.855  26.921  1.00  0.00    -0.327 N 
ATOM     80  C   UNL A   1      30.336  27.354  24.417  1.00  0.00    -0.024 C 
ATOM     81  C   UNL A   1      31.678  28.217  26.323  1.00  0.00     0.246 C 
ATOM     82  H   UNL A   1      32.553  26.732  27.443  1.00  0.00     0.347 HD
ATOM     83  H   UNL A   1      30.868  26.780  27.528  1.00  0.00     0.347 HD
ATOM     84  C   UNL A   1      29.415  28.058  23.762  1.00  0.00     0.002 A 
ATOM     85  C   UNL A   1      31.520  28.224  24.768  1.00  0.00     0.196 C 
ATOM     86  C   UNL A   1      28.090  27.835  23.282  1.00  0.00     0.010 A 
ATOM     87  C   UNL A   1      30.043  29.391  23.662  1.00  0.00     0.066 A 
ATOM     88  N   UNL A   1      31.195  29.568  24.226  1.00  0.00    -0.270 NA
ATOM     89  C   UNL A   1      27.444  28.847  22.675  1.00  0.00     0.001 A 
ATOM     90  C   UNL A   1      29.293  30.439  22.944  1.00  0.00     0.028 A 
ATOM     91  C   UNL A   1      28.066  30.149  22.484  1.00  0.00     0.002 A 
BRANCH  81  92
ATOM     92  C   UNL A   1      32.872  29.062  26.728  1.00  0.00     0.048 A 
ATOM     93  C   UNL A   1      34.130  28.436  26.839  1.00  0.00     0.013 A 
ATOM     94  C   UNL A   1      32.775  30.400  27.117  1.00  0.00     0.132 A 
ATOM     95  C   UNL A   1      35.237  29.121  27.338  1.00  0.00     0.001 A 
ATOM     96  C   UNL A   1      33.885  31.098  27.592  1.00  0.00     0.040 A 
ATOM     97  F   UNL A   1      31.601  31.045  27.088  1.00  0.00    -0.206 F 
ATOM     98  C   UNL A   1      35.116  30.456  27.715  1.00  0.00     0.003 A 
ENDBRANCH  81  92
ENDBRANCH  74  77
ENDBRANCH  72  73
ENDBRANCH  71  72
ENDBRANCH   1  71
TORSDOF 11
ENDMDL
