MODEL 1
REMARK VINA RESULT:     -11.8      0.000      0.000
REMARK SMILES O=C(NCCCNC(=O)c1cc(Cl)cc(Cl)c1O)c1ccc(-c2c3nc(c(-c4c(F)c(F)c(F)c(F)c4F)c4ccc([nH]4)c(-c4c(F)c(F)c(F)c(F)c4F)c4nc(c(-c5c(F)c(F)c(F)c(F)c5F)c5ccc2[nH]5)C=C4)C=C3)cc1
REMARK SMILES IDX 4 1 3 2 1 3 2 4 19 6 20 7 81 8 21 9 80 10 22 11 23 12 24 13
REMARK SMILES IDX 74 14 25 15 79 16 73 17 75 18 26 19 78 20 72 21 71 22 27 24
REMARK SMILES IDX 59 25 39 26 58 27 40 28 43 29 57 30 76 31 41 32 42 33 56 35
REMARK SMILES IDX 77 36 44 37 28 38 29 39 37 40 30 41 31 42 35 43 38 44 32 45
REMARK SMILES IDX 33 46 36 47 34 48 60 49 61 50 69 51 62 52 63 53 67 54 70 55
REMARK SMILES IDX 64 56 65 57 68 58 66 59 45 60 46 61 54 62 47 63 48 64 52 65
REMARK SMILES IDX 55 66 49 67 50 68 53 69 51 70 5 71 6 72 7 73 8 74 9 76 10 77
REMARK SMILES IDX 11 78 17 79 12 80 15 81 13 82 14 83 16 84 18 85
REMARK H PARENT 3 5 75 23 43 34 7 75 18 86
REMARK Flexibility Score: inf
ROOT
ATOM      1  C   UNL A   1      33.656  29.085  25.270  1.00  0.00     0.118 C 
ENDROOT
BRANCH   1   2
ATOM      2  N   UNL A   1      33.083  30.321  25.784  1.00  0.00    -0.352 N 
ATOM      3  O   UNL A   1      32.667  31.981  27.242  1.00  0.00    -0.269 OA
ATOM      4  C   UNL A   1      33.419  31.073  26.879  1.00  0.00     0.251 C 
ATOM      5  H   UNL A   1      32.329  30.674  25.259  1.00  0.00     0.163 HD
BRANCH   4   6
ATOM      6  C   UNL A   1      34.653  30.801  27.645  1.00  0.00     0.039 A 
ATOM      7  C   UNL A   1      35.698  31.728  27.693  1.00  0.00     0.014 A 
ATOM      8  C   UNL A   1      34.745  29.612  28.376  1.00  0.00     0.014 A 
ATOM      9  C   UNL A   1      36.884  31.408  28.347  1.00  0.00     0.010 A 
ATOM     10  C   UNL A   1      35.903  29.328  29.101  1.00  0.00     0.010 A 
ATOM     11  C   UNL A   1      36.996  30.209  29.067  1.00  0.00    -0.014 A 
BRANCH  11  12
ATOM     12  C   UNL A   1      38.239  29.898  29.815  1.00  0.00     0.031 A 
ATOM     13  C   UNL A   1      39.256  28.950  29.247  1.00  0.00     0.074 A 
ATOM     14  C   UNL A   1      38.437  30.456  31.023  1.00  0.00     0.049 A 
ATOM     15  N   UNL A   1      40.357  28.495  29.790  1.00  0.00    -0.248 NA
ATOM     16  C   UNL A   1      38.996  28.438  27.893  1.00  0.00     0.031 C 
ATOM     17  C   UNL A   1      37.521  31.391  31.678  1.00  0.00     0.029 A 
ATOM     18  N   UNL A   1      39.463  30.311  31.921  1.00  0.00    -0.354 N 
ATOM     19  C   UNL A   1      40.908  27.625  28.858  1.00  0.00     0.074 A 
ATOM     20  C   UNL A   1      40.007  27.596  27.725  1.00  0.00     0.031 C 
ATOM     21  C   UNL A   1      38.031  31.746  32.866  1.00  0.00     0.029 A 
ATOM     22  C   UNL A   1      39.276  31.016  33.084  1.00  0.00     0.049 A 
ATOM     23  H   UNL A   1      40.258  29.756  31.748  1.00  0.00     0.167 HD
ATOM     24  C   UNL A   1      42.063  26.920  28.941  1.00  0.00     0.037 A 
ATOM     25  C   UNL A   1      40.005  31.046  34.215  1.00  0.00     0.037 A 
ATOM     26  C   UNL A   1      42.957  26.963  30.071  1.00  0.00     0.049 A 
ATOM     27  C   UNL A   1      41.259  30.226  34.300  1.00  0.00     0.074 A 
ATOM     28  C   UNL A   1      44.169  26.315  30.236  1.00  0.00     0.029 A 
ATOM     29  N   UNL A   1      42.729  27.686  31.232  1.00  0.00    -0.354 N 
ATOM     30  N   UNL A   1      41.789  29.431  33.403  1.00  0.00    -0.248 NA
ATOM     31  C   UNL A   1      42.019  30.307  35.555  1.00  0.00     0.031 C 
ATOM     32  C   UNL A   1      44.647  26.602  31.519  1.00  0.00     0.029 A 
ATOM     33  C   UNL A   1      43.765  27.480  32.130  1.00  0.00     0.049 A 
ATOM     34  H   UNL A   1      41.947  28.261  31.395  1.00  0.00     0.167 HD
ATOM     35  C   UNL A   1      42.955  28.940  33.968  1.00  0.00     0.074 A 
ATOM     36  C   UNL A   1      43.060  29.529  35.288  1.00  0.00     0.031 C 
ATOM     37  C   UNL A   1      43.862  28.082  33.437  1.00  0.00     0.037 A 
BRANCH  24  38
ATOM     38  C   UNL A   1      42.408  26.017  27.791  1.00  0.00     0.064 A 
ATOM     39  C   UNL A   1      43.247  26.432  26.745  1.00  0.00     0.173 A 
ATOM     40  C   UNL A   1      41.905  24.707  27.743  1.00  0.00     0.173 A 
ATOM     41  F   UNL A   1      43.747  27.677  26.736  1.00  0.00    -0.203 F 
ATOM     42  C   UNL A   1      43.537  25.585  25.679  1.00  0.00     0.198 A 
ATOM     43  C   UNL A   1      42.224  23.852  26.691  1.00  0.00     0.198 A 
ATOM     44  F   UNL A   1      41.106  24.254  28.720  1.00  0.00    -0.203 F 
ATOM     45  F   UNL A   1      44.292  26.025  24.662  1.00  0.00    -0.200 F 
ATOM     46  C   UNL A   1      43.030  24.295  25.655  1.00  0.00     0.200 A 
ATOM     47  F   UNL A   1      41.744  22.600  26.677  1.00  0.00    -0.200 F 
ATOM     48  F   UNL A   1      43.311  23.482  24.626  1.00  0.00    -0.200 F 
ENDBRANCH  24  38
BRANCH  25  49
ATOM     49  C   UNL A   1      39.546  31.885  35.352  1.00  0.00     0.064 A 
ATOM     50  C   UNL A   1      39.972  33.213  35.486  1.00  0.00     0.173 A 
ATOM     51  C   UNL A   1      38.637  31.390  36.298  1.00  0.00     0.173 A 
ATOM     52  F   UNL A   1      40.853  33.725  34.614  1.00  0.00    -0.203 F 
ATOM     53  C   UNL A   1      39.509  34.013  36.528  1.00  0.00     0.198 A 
ATOM     54  C   UNL A   1      38.154  32.200  37.324  1.00  0.00     0.198 A 
ATOM     55  F   UNL A   1      38.193  30.128  36.208  1.00  0.00    -0.203 F 
ATOM     56  F   UNL A   1      39.953  35.271  36.651  1.00  0.00    -0.200 F 
ATOM     57  C   UNL A   1      38.593  33.509  37.441  1.00  0.00     0.200 A 
ATOM     58  F   UNL A   1      37.254  31.714  38.190  1.00  0.00    -0.200 F 
ATOM     59  F   UNL A   1      38.136  34.285  38.431  1.00  0.00    -0.200 F 
ENDBRANCH  25  49
BRANCH  37  60
ATOM     60  C   UNL A   1      45.077  27.763  34.259  1.00  0.00     0.064 A 
ATOM     61  C   UNL A   1      45.117  26.660  35.123  1.00  0.00     0.173 A 
ATOM     62  C   UNL A   1      46.237  28.541  34.129  1.00  0.00     0.173 A 
ATOM     63  F   UNL A   1      44.028  25.896  35.295  1.00  0.00    -0.203 F 
ATOM     64  C   UNL A   1      46.273  26.357  35.839  1.00  0.00     0.198 A 
ATOM     65  C   UNL A   1      47.399  28.217  34.823  1.00  0.00     0.198 A 
ATOM     66  F   UNL A   1      46.250  29.605  33.310  1.00  0.00    -0.203 F 
ATOM     67  F   UNL A   1      46.280  25.319  36.688  1.00  0.00    -0.200 F 
ATOM     68  C   UNL A   1      47.414  27.128  35.680  1.00  0.00     0.200 A 
ATOM     69  F   UNL A   1      48.505  28.956  34.658  1.00  0.00    -0.200 F 
ATOM     70  F   UNL A   1      48.531  26.825  36.359  1.00  0.00    -0.200 F 
ENDBRANCH  37  60
ENDBRANCH  11  12
ENDBRANCH   4   6
ENDBRANCH   1   2
BRANCH   1  71
ATOM     71  C   UNL A   1      32.954  27.843  25.804  1.00  0.00     0.042 C 
BRANCH  71  72
ATOM     72  C   UNL A   1      31.685  27.467  25.047  1.00  0.00     0.118 C 
BRANCH  72  73
ATOM     73  N   UNL A   1      31.942  27.197  23.638  1.00  0.00    -0.352 N 
ATOM     74  C   UNL A   1      31.139  27.384  22.545  1.00  0.00     0.255 C 
ATOM     75  H   UNL A   1      32.831  26.824  23.442  1.00  0.00     0.163 HD
ATOM     76  O   UNL A   1      31.403  26.819  21.484  1.00  0.00    -0.269 OA
BRANCH  74  77
ATOM     77  C   UNL A   1      29.923  28.216  22.611  1.00  0.00     0.084 A 
ATOM     78  C   UNL A   1      28.756  27.724  23.206  1.00  0.00     0.038 A 
ATOM     79  C   UNL A   1      29.959  29.532  22.122  1.00  0.00     0.147 A 
ATOM     80  C   UNL A   1      27.603  28.503  23.210  1.00  0.00     0.043 A 
ATOM     81  C   UNL A   1      28.793  30.304  22.139  1.00  0.00     0.085 A 
ATOM     82  Cl  UNL A   1      26.153  27.861  23.876  1.00  0.00    -0.084 Cl
ATOM     83  C   UNL A   1      27.610  29.786  22.669  1.00  0.00     0.045 A 
ATOM     84  Cl  UNL A   1      28.772  31.915  21.519  1.00  0.00    -0.080 Cl
BRANCH  79  85
ATOM     85  O   UNL A   1      31.116  30.078  21.626  1.00  0.00    -0.506 OA
ATOM     86  H   UNL A   1      31.939  29.664  21.793  1.00  0.00     0.293 HD
ENDBRANCH  79  85
ENDBRANCH  74  77
ENDBRANCH  72  73
ENDBRANCH  71  72
ENDBRANCH   1  71
TORSDOF 11
ENDMDL
MODEL 2
REMARK VINA RESULT:     -11.7      2.666      7.880
REMARK SMILES O=C(NCCCNC(=O)c1cc(Cl)cc(Cl)c1O)c1ccc(-c2c3nc(c(-c4c(F)c(F)c(F)c(F)c4F)c4ccc([nH]4)c(-c4c(F)c(F)c(F)c(F)c4F)c4nc(c(-c5c(F)c(F)c(F)c(F)c5F)c5ccc2[nH]5)C=C4)C=C3)cc1
REMARK SMILES IDX 4 1 3 2 1 3 2 4 19 6 20 7 81 8 21 9 80 10 22 11 23 12 24 13
REMARK SMILES IDX 74 14 25 15 79 16 73 17 75 18 26 19 78 20 72 21 71 22 27 24
REMARK SMILES IDX 59 25 39 26 58 27 40 28 43 29 57 30 76 31 41 32 42 33 56 35
REMARK SMILES IDX 77 36 44 37 28 38 29 39 37 40 30 41 31 42 35 43 38 44 32 45
REMARK SMILES IDX 33 46 36 47 34 48 60 49 61 50 69 51 62 52 63 53 67 54 70 55
REMARK SMILES IDX 64 56 65 57 68 58 66 59 45 60 46 61 54 62 47 63 48 64 52 65
REMARK SMILES IDX 55 66 49 67 50 68 53 69 51 70 5 71 6 72 7 73 8 74 9 76 10 77
REMARK SMILES IDX 11 78 17 79 12 80 15 81 13 82 14 83 16 84 18 85
REMARK H PARENT 3 5 75 23 43 34 7 75 18 86
REMARK Flexibility Score: inf
ROOT
ATOM      1  C   UNL A   1      34.028  28.071  26.515  1.00  0.00     0.118 C 
ENDROOT
BRANCH   1   2
ATOM      2  N   UNL A   1      33.758  29.432  26.955  1.00  0.00    -0.352 N 
ATOM      3  O   UNL A   1      33.979  31.321  28.154  1.00  0.00    -0.269 OA
ATOM      4  C   UNL A   1      34.494  30.277  27.744  1.00  0.00     0.251 C 
ATOM      5  H   UNL A   1      32.908  29.808  26.633  1.00  0.00     0.163 HD
BRANCH   4   6
ATOM      6  C   UNL A   1      35.882  29.951  28.129  1.00  0.00     0.039 A 
ATOM      7  C   UNL A   1      36.952  30.189  27.263  1.00  0.00     0.014 A 
ATOM      8  C   UNL A   1      36.125  29.444  29.410  1.00  0.00     0.014 A 
ATOM      9  C   UNL A   1      38.237  29.788  27.616  1.00  0.00     0.010 A 
ATOM     10  C   UNL A   1      37.427  29.120  29.796  1.00  0.00     0.010 A 
ATOM     11  C   UNL A   1      38.490  29.259  28.890  1.00  0.00    -0.014 A 
BRANCH  11  12
ATOM     12  C   UNL A   1      39.872  28.891  29.288  1.00  0.00     0.031 A 
ATOM     13  C   UNL A   1      40.698  29.820  30.131  1.00  0.00     0.074 A 
ATOM     14  C   UNL A   1      40.390  27.724  28.864  1.00  0.00     0.049 A 
ATOM     15  N   UNL A   1      41.947  29.707  30.506  1.00  0.00    -0.248 NA
ATOM     16  C   UNL A   1      40.034  31.042  30.608  1.00  0.00     0.031 C 
ATOM     17  C   UNL A   1      39.685  26.740  28.040  1.00  0.00     0.029 A 
ATOM     18  N   UNL A   1      41.630  27.171  29.055  1.00  0.00    -0.354 N 
ATOM     19  C   UNL A   1      42.227  30.853  31.241  1.00  0.00     0.074 A 
ATOM     20  C   UNL A   1      41.025  31.659  31.236  1.00  0.00     0.031 C 
ATOM     21  C   UNL A   1      40.497  25.700  27.808  1.00  0.00     0.029 A 
ATOM     22  C   UNL A   1      41.798  25.971  28.410  1.00  0.00     0.049 A 
ATOM     23  H   UNL A   1      42.331  27.593  29.602  1.00  0.00     0.167 HD
ATOM     24  C   UNL A   1      43.382  31.193  31.863  1.00  0.00     0.037 A 
ATOM     25  C   UNL A   1      42.889  25.191  28.286  1.00  0.00     0.037 A 
ATOM     26  C   UNL A   1      44.570  30.378  31.867  1.00  0.00     0.049 A 
ATOM     27  C   UNL A   1      44.168  25.608  28.950  1.00  0.00     0.074 A 
ATOM     28  C   UNL A   1      45.779  30.618  32.499  1.00  0.00     0.029 A 
ATOM     29  N   UNL A   1      44.702  29.171  31.198  1.00  0.00    -0.354 N 
ATOM     30  N   UNL A   1      44.416  26.676  29.668  1.00  0.00    -0.248 NA
ATOM     31  C   UNL A   1      45.321  24.712  28.789  1.00  0.00     0.031 C 
ATOM     32  C   UNL A   1      46.659  29.583  32.167  1.00  0.00     0.029 A 
ATOM     33  C   UNL A   1      45.981  28.666  31.379  1.00  0.00     0.049 A 
ATOM     34  H   UNL A   1      43.993  28.736  30.671  1.00  0.00     0.167 HD
ATOM     35  C   UNL A   1      45.738  26.570  30.069  1.00  0.00     0.074 A 
ATOM     36  C   UNL A   1      46.243  25.329  29.517  1.00  0.00     0.031 C 
ATOM     37  C   UNL A   1      46.466  27.423  30.832  1.00  0.00     0.037 A 
BRANCH  24  38
ATOM     38  C   UNL A   1      43.425  32.522  32.565  1.00  0.00     0.064 A 
ATOM     39  C   UNL A   1      43.791  33.702  31.900  1.00  0.00     0.173 A 
ATOM     40  C   UNL A   1      43.078  32.618  33.922  1.00  0.00     0.173 A 
ATOM     41  F   UNL A   1      44.142  33.666  30.606  1.00  0.00    -0.203 F 
ATOM     42  C   UNL A   1      43.845  34.919  32.575  1.00  0.00     0.198 A 
ATOM     43  C   UNL A   1      43.101  33.842  34.585  1.00  0.00     0.198 A 
ATOM     44  F   UNL A   1      42.712  31.523  34.605  1.00  0.00    -0.203 F 
ATOM     45  F   UNL A   1      44.255  36.022  31.933  1.00  0.00    -0.200 F 
ATOM     46  C   UNL A   1      43.495  34.989  33.915  1.00  0.00     0.200 A 
ATOM     47  F   UNL A   1      42.749  33.910  35.877  1.00  0.00    -0.200 F 
ATOM     48  F   UNL A   1      43.548  36.162  34.563  1.00  0.00    -0.200 F 
ENDBRANCH  24  38
BRANCH  25  49
ATOM     49  C   UNL A   1      42.799  23.940  27.489  1.00  0.00     0.064 A 
ATOM     50  C   UNL A   1      43.161  23.921  26.135  1.00  0.00     0.173 A 
ATOM     51  C   UNL A   1      42.395  22.733  28.076  1.00  0.00     0.173 A 
ATOM     52  F   UNL A   1      43.539  25.055  25.527  1.00  0.00    -0.203 F 
ATOM     53  C   UNL A   1      43.117  22.740  25.399  1.00  0.00     0.198 A 
ATOM     54  C   UNL A   1      42.378  21.547  27.345  1.00  0.00     0.198 A 
ATOM     55  F   UNL A   1      42.047  22.698  29.371  1.00  0.00    -0.203 F 
ATOM     56  F   UNL A   1      43.442  22.753  24.098  1.00  0.00    -0.200 F 
ATOM     57  C   UNL A   1      42.734  21.552  26.006  1.00  0.00     0.200 A 
ATOM     58  F   UNL A   1      42.028  20.400  27.942  1.00  0.00    -0.200 F 
ATOM     59  F   UNL A   1      42.710  20.415  25.300  1.00  0.00    -0.200 F 
ENDBRANCH  25  49
BRANCH  37  60
ATOM     60  C   UNL A   1      47.875  27.023  31.163  1.00  0.00     0.064 A 
ATOM     61  C   UNL A   1      48.168  26.149  32.219  1.00  0.00     0.173 A 
ATOM     62  C   UNL A   1      48.939  27.476  30.368  1.00  0.00     0.173 A 
ATOM     63  F   UNL A   1      47.188  25.702  33.019  1.00  0.00    -0.203 F 
ATOM     64  C   UNL A   1      49.479  25.755  32.477  1.00  0.00     0.198 A 
ATOM     65  C   UNL A   1      50.244  27.056  30.610  1.00  0.00     0.198 A 
ATOM     66  F   UNL A   1      48.710  28.310  29.342  1.00  0.00    -0.203 F 
ATOM     67  F   UNL A   1      49.742  24.947  33.514  1.00  0.00    -0.200 F 
ATOM     68  C   UNL A   1      50.513  26.200  31.666  1.00  0.00     0.200 A 
ATOM     69  F   UNL A   1      51.239  27.477  29.817  1.00  0.00    -0.200 F 
ATOM     70  F   UNL A   1      51.772  25.806  31.906  1.00  0.00    -0.200 F 
ENDBRANCH  37  60
ENDBRANCH  11  12
ENDBRANCH   4   6
ENDBRANCH   1   2
BRANCH   1  71
ATOM     71  C   UNL A   1      32.837  27.433  25.812  1.00  0.00     0.042 C 
BRANCH  71  72
ATOM     72  C   UNL A   1      32.211  28.302  24.726  1.00  0.00     0.118 C 
BRANCH  72  73
ATOM     73  N   UNL A   1      32.193  27.638  23.429  1.00  0.00    -0.352 N 
ATOM     74  C   UNL A   1      31.173  27.492  22.528  1.00  0.00     0.255 C 
ATOM     75  H   UNL A   1      33.048  27.231  23.160  1.00  0.00     0.163 HD
ATOM     76  O   UNL A   1      31.254  26.646  21.639  1.00  0.00    -0.269 OA
BRANCH  74  77
ATOM     77  C   UNL A   1      29.940  28.297  22.618  1.00  0.00     0.084 A 
ATOM     78  C   UNL A   1      28.792  27.775  23.223  1.00  0.00     0.038 A 
ATOM     79  C   UNL A   1      29.942  29.618  22.141  1.00  0.00     0.147 A 
ATOM     80  C   UNL A   1      27.623  28.529  23.249  1.00  0.00     0.043 A 
ATOM     81  C   UNL A   1      28.760  30.365  22.181  1.00  0.00     0.085 A 
ATOM     82  Cl  UNL A   1      26.195  27.850  23.927  1.00  0.00    -0.084 Cl
ATOM     83  C   UNL A   1      27.595  29.816  22.721  1.00  0.00     0.045 A 
ATOM     84  Cl  UNL A   1      28.697  31.981  21.577  1.00  0.00    -0.080 Cl
BRANCH  79  85
ATOM     85  O   UNL A   1      31.080  30.194  21.636  1.00  0.00    -0.506 OA
ATOM     86  H   UNL A   1      31.764  29.655  21.289  1.00  0.00     0.293 HD
ENDBRANCH  79  85
ENDBRANCH  74  77
ENDBRANCH  72  73
ENDBRANCH  71  72
ENDBRANCH   1  71
TORSDOF 11
ENDMDL
MODEL 3
REMARK VINA RESULT:     -11.7      4.311      9.614
REMARK SMILES O=C(NCCCNC(=O)c1cc(Cl)cc(Cl)c1O)c1ccc(-c2c3nc(c(-c4c(F)c(F)c(F)c(F)c4F)c4ccc([nH]4)c(-c4c(F)c(F)c(F)c(F)c4F)c4nc(c(-c5c(F)c(F)c(F)c(F)c5F)c5ccc2[nH]5)C=C4)C=C3)cc1
REMARK SMILES IDX 4 1 3 2 1 3 2 4 19 6 20 7 81 8 21 9 80 10 22 11 23 12 24 13
REMARK SMILES IDX 74 14 25 15 79 16 73 17 75 18 26 19 78 20 72 21 71 22 27 24
REMARK SMILES IDX 59 25 39 26 58 27 40 28 43 29 57 30 76 31 41 32 42 33 56 35
REMARK SMILES IDX 77 36 44 37 28 38 29 39 37 40 30 41 31 42 35 43 38 44 32 45
REMARK SMILES IDX 33 46 36 47 34 48 60 49 61 50 69 51 62 52 63 53 67 54 70 55
REMARK SMILES IDX 64 56 65 57 68 58 66 59 45 60 46 61 54 62 47 63 48 64 52 65
REMARK SMILES IDX 55 66 49 67 50 68 53 69 51 70 5 71 6 72 7 73 8 74 9 76 10 77
REMARK SMILES IDX 11 78 17 79 12 80 15 81 13 82 14 83 16 84 18 85
REMARK H PARENT 3 5 75 23 43 34 7 75 18 86
REMARK Flexibility Score: inf
ROOT
ATOM      1  C   UNL A   1      34.907  32.885  28.003  1.00  0.00     0.118 C 
ENDROOT
BRANCH   1   2
ATOM      2  N   UNL A   1      34.123  31.680  27.773  1.00  0.00    -0.352 N 
ATOM      3  O   UNL A   1      33.701  29.518  27.325  1.00  0.00    -0.269 OA
ATOM      4  C   UNL A   1      34.500  30.363  27.735  1.00  0.00     0.251 C 
ATOM      5  H   UNL A   1      33.163  31.837  27.619  1.00  0.00     0.163 HD
BRANCH   4   6
ATOM      6  C   UNL A   1      35.853  29.942  28.155  1.00  0.00     0.039 A 
ATOM      7  C   UNL A   1      36.079  29.369  29.409  1.00  0.00     0.014 A 
ATOM      8  C   UNL A   1      36.911  30.076  27.251  1.00  0.00     0.014 A 
ATOM      9  C   UNL A   1      37.376  29.065  29.813  1.00  0.00     0.010 A 
ATOM     10  C   UNL A   1      38.200  29.692  27.626  1.00  0.00     0.010 A 
ATOM     11  C   UNL A   1      38.449  29.214  28.923  1.00  0.00    -0.014 A 
BRANCH  11  12
ATOM     12  C   UNL A   1      39.823  28.830  29.334  1.00  0.00     0.031 A 
ATOM     13  C   UNL A   1      40.650  29.749  30.186  1.00  0.00     0.074 A 
ATOM     14  C   UNL A   1      40.331  27.658  28.914  1.00  0.00     0.049 A 
ATOM     15  N   UNL A   1      41.894  29.622  30.574  1.00  0.00    -0.248 NA
ATOM     16  C   UNL A   1      39.995  30.978  30.658  1.00  0.00     0.031 C 
ATOM     17  C   UNL A   1      39.624  26.683  28.083  1.00  0.00     0.029 A 
ATOM     18  N   UNL A   1      41.564  27.091  29.117  1.00  0.00    -0.354 N 
ATOM     19  C   UNL A   1      42.179  30.764  31.312  1.00  0.00     0.074 A 
ATOM     20  C   UNL A   1      40.986  31.584  31.297  1.00  0.00     0.031 C 
ATOM     21  C   UNL A   1      40.427  25.633  27.857  1.00  0.00     0.029 A 
ATOM     22  C   UNL A   1      41.725  25.890  28.473  1.00  0.00     0.049 A 
ATOM     23  H   UNL A   1      42.264  27.505  29.672  1.00  0.00     0.167 HD
ATOM     24  C   UNL A   1      43.331  31.092  31.946  1.00  0.00     0.037 A 
ATOM     25  C   UNL A   1      42.808  25.098  28.359  1.00  0.00     0.037 A 
ATOM     26  C   UNL A   1      44.510  30.264  31.961  1.00  0.00     0.049 A 
ATOM     27  C   UNL A   1      44.085  25.501  29.036  1.00  0.00     0.074 A 
ATOM     28  C   UNL A   1      45.715  30.489  32.606  1.00  0.00     0.029 A 
ATOM     29  N   UNL A   1      44.636  29.055  31.292  1.00  0.00    -0.354 N 
ATOM     30  N   UNL A   1      44.338  26.565  29.758  1.00  0.00    -0.248 NA
ATOM     31  C   UNL A   1      45.230  24.592  28.886  1.00  0.00     0.031 C 
ATOM     32  C   UNL A   1      46.587  29.445  32.281  1.00  0.00     0.029 A 
ATOM     33  C   UNL A   1      45.907  28.536  31.485  1.00  0.00     0.049 A 
ATOM     34  H   UNL A   1      43.928  28.629  30.758  1.00  0.00     0.167 HD
ATOM     35  C   UNL A   1      45.655  26.444  30.171  1.00  0.00     0.074 A 
ATOM     36  C   UNL A   1      46.151  25.198  29.623  1.00  0.00     0.031 C 
ATOM     37  C   UNL A   1      46.384  27.288  30.943  1.00  0.00     0.037 A 
BRANCH  24  38
ATOM     38  C   UNL A   1      43.382  32.419  32.650  1.00  0.00     0.064 A 
ATOM     39  C   UNL A   1      43.815  33.587  32.003  1.00  0.00     0.173 A 
ATOM     40  C   UNL A   1      42.975  32.527  33.989  1.00  0.00     0.173 A 
ATOM     41  F   UNL A   1      44.225  33.539  30.727  1.00  0.00    -0.203 F 
ATOM     42  C   UNL A   1      43.874  34.802  32.680  1.00  0.00     0.198 A 
ATOM     43  C   UNL A   1      43.004  33.751  34.653  1.00  0.00     0.198 A 
ATOM     44  F   UNL A   1      42.544  31.445  34.654  1.00  0.00    -0.203 F 
ATOM     45  F   UNL A   1      44.347  35.891  32.058  1.00  0.00    -0.200 F 
ATOM     46  C   UNL A   1      43.464  34.884  34.002  1.00  0.00     0.200 A 
ATOM     47  F   UNL A   1      42.594  33.830  35.927  1.00  0.00    -0.200 F 
ATOM     48  F   UNL A   1      43.523  36.056  34.652  1.00  0.00    -0.200 F 
ENDBRANCH  24  38
BRANCH  25  49
ATOM     49  C   UNL A   1      42.713  23.849  27.560  1.00  0.00     0.064 A 
ATOM     50  C   UNL A   1      43.096  23.825  26.212  1.00  0.00     0.173 A 
ATOM     51  C   UNL A   1      42.282  22.648  28.140  1.00  0.00     0.173 A 
ATOM     52  F   UNL A   1      43.500  24.953  25.610  1.00  0.00    -0.203 F 
ATOM     53  C   UNL A   1      43.046  22.645  25.474  1.00  0.00     0.198 A 
ATOM     54  C   UNL A   1      42.259  21.462  27.407  1.00  0.00     0.198 A 
ATOM     55  F   UNL A   1      41.912  22.618  29.429  1.00  0.00    -0.203 F 
ATOM     56  F   UNL A   1      43.392  22.653  24.179  1.00  0.00    -0.200 F 
ATOM     57  C   UNL A   1      42.637  21.463  26.074  1.00  0.00     0.200 A 
ATOM     58  F   UNL A   1      41.882  20.320  27.998  1.00  0.00    -0.200 F 
ATOM     59  F   UNL A   1      42.607  20.326  25.367  1.00  0.00    -0.200 F 
ENDBRANCH  25  49
BRANCH  37  60
ATOM     60  C   UNL A   1      47.786  26.873  31.287  1.00  0.00     0.064 A 
ATOM     61  C   UNL A   1      48.060  26.009  32.356  1.00  0.00     0.173 A 
ATOM     62  C   UNL A   1      48.860  27.300  30.493  1.00  0.00     0.173 A 
ATOM     63  F   UNL A   1      47.069  25.586  33.155  1.00  0.00    -0.203 F 
ATOM     64  C   UNL A   1      49.363  25.599  32.626  1.00  0.00     0.198 A 
ATOM     65  C   UNL A   1      50.157  26.865  30.748  1.00  0.00     0.198 A 
ATOM     66  F   UNL A   1      48.649  28.124  29.455  1.00  0.00    -0.203 F 
ATOM     67  F   UNL A   1      49.609  24.801  33.675  1.00  0.00    -0.200 F 
ATOM     68  C   UNL A   1      50.408  26.019  31.816  1.00  0.00     0.200 A 
ATOM     69  F   UNL A   1      51.163  27.261  29.956  1.00  0.00    -0.200 F 
ATOM     70  F   UNL A   1      51.661  25.611  32.069  1.00  0.00    -0.200 F 
ENDBRANCH  37  60
ENDBRANCH  11  12
ENDBRANCH   4   6
ENDBRANCH   1   2
BRANCH   1  71
ATOM     71  C   UNL A   1      34.181  33.902  28.874  1.00  0.00     0.042 C 
BRANCH  71  72
ATOM     72  C   UNL A   1      34.895  34.232  30.180  1.00  0.00     0.118 C 
BRANCH  72  73
ATOM     73  N   UNL A   1      34.035  34.047  31.342  1.00  0.00    -0.352 N 
ATOM     74  C   UNL A   1      34.275  33.393  32.521  1.00  0.00     0.255 C 
ATOM     75  H   UNL A   1      33.143  34.456  31.267  1.00  0.00     0.163 HD
ATOM     76  O   UNL A   1      33.336  33.078  33.251  1.00  0.00    -0.269 OA
BRANCH  74  77
ATOM     77  C   UNL A   1      35.639  33.007  32.928  1.00  0.00     0.084 A 
ATOM     78  C   UNL A   1      36.055  31.674  32.845  1.00  0.00     0.038 A 
ATOM     79  C   UNL A   1      36.540  33.997  33.348  1.00  0.00     0.147 A 
ATOM     80  C   UNL A   1      37.326  31.320  33.285  1.00  0.00     0.043 A 
ATOM     81  C   UNL A   1      37.817  33.626  33.781  1.00  0.00     0.085 A 
ATOM     82  Cl  UNL A   1      37.803  29.667  33.250  1.00  0.00    -0.084 Cl
ATOM     83  C   UNL A   1      38.207  32.286  33.765  1.00  0.00     0.045 A 
ATOM     84  Cl  UNL A   1      38.954  34.799  34.341  1.00  0.00    -0.080 Cl
BRANCH  79  85
ATOM     85  O   UNL A   1      36.196  35.326  33.343  1.00  0.00    -0.506 OA
ATOM     86  H   UNL A   1      36.855  35.980  33.222  1.00  0.00     0.293 HD
ENDBRANCH  79  85
ENDBRANCH  74  77
ENDBRANCH  72  73
ENDBRANCH  71  72
ENDBRANCH   1  71
TORSDOF 11
ENDMDL
