MODEL 1
REMARK VINA RESULT:     -12.7      0.000      0.000
REMARK SMILES O=C(NCCCNC(=O)c1cc(Br)n(Cc2ccn(C3CCCC3)n2)c1)c1ccc(-c2c3nc(c(-c4c(F)c(F)c(F)c(F)c4F)c4ccc([nH]4)c(-c4c(F)c(F)c(F)c(F)c4F)c4nc(c(-c5c(F)c(F)c(F)c(F)c5F)c5ccc2[nH]5)C=C4)C=C3)cc1
REMARK SMILES IDX 5 1 4 2 3 3 1 4 2 5 27 7 28 8 89 9 29 10 88 11 30 12 31 13
REMARK SMILES IDX 32 14 82 15 33 16 87 17 81 18 83 19 34 20 86 21 80 22 79 23
REMARK SMILES IDX 35 25 67 26 47 27 66 28 48 29 51 30 65 31 84 32 49 33 50 34
REMARK SMILES IDX 64 36 85 37 52 38 36 39 37 40 45 41 38 42 39 43 43 44 46 45
REMARK SMILES IDX 40 46 41 47 44 48 42 49 68 50 69 51 77 52 70 53 71 54 75 55
REMARK SMILES IDX 78 56 72 57 73 58 76 59 74 60 53 61 54 62 62 63 55 64 56 65
REMARK SMILES IDX 60 66 63 67 57 68 58 69 61 70 59 71 6 72 7 73 8 74 9 76
REMARK SMILES IDX 10 77 11 78 26 79 12 80 14 81 13 82 15 83 16 84 17 85 25 86
REMARK SMILES IDX 18 87 19 88 20 89 21 90 24 91 22 92 23 93
REMARK H PARENT 3 6 83 24 51 35 7 75
REMARK Flexibility Score: inf
ROOT
ATOM      1  C   UNL A   1      37.935  22.490  25.285  1.00  0.00     0.042 C 
ENDROOT
BRANCH   1   2
ATOM      2  C   UNL A   1      38.904  21.819  26.261  1.00  0.00     0.118 C 
BRANCH   2   3
ATOM      3  N   UNL A   1      40.294  21.851  25.848  1.00  0.00    -0.352 N 
ATOM      4  O   UNL A   1      42.424  22.355  25.556  1.00  0.00    -0.269 OA
ATOM      5  C   UNL A   1      41.340  22.714  26.025  1.00  0.00     0.251 C 
ATOM      6  H   UNL A   1      40.545  21.063  25.313  1.00  0.00     0.163 HD
BRANCH   5   7
ATOM      7  C   UNL A   1      41.265  24.042  26.700  1.00  0.00     0.039 A 
ATOM      8  C   UNL A   1      41.853  24.366  27.922  1.00  0.00     0.014 A 
ATOM      9  C   UNL A   1      40.559  25.051  26.017  1.00  0.00     0.014 A 
ATOM     10  C   UNL A   1      41.711  25.646  28.462  1.00  0.00     0.010 A 
ATOM     11  C   UNL A   1      40.430  26.338  26.542  1.00  0.00     0.010 A 
ATOM     12  C   UNL A   1      41.001  26.637  27.776  1.00  0.00    -0.014 A 
BRANCH  12  13
ATOM     13  C   UNL A   1      40.990  27.986  28.347  1.00  0.00     0.031 A 
ATOM     14  C   UNL A   1      42.093  28.904  27.933  1.00  0.00     0.074 A 
ATOM     15  C   UNL A   1      39.998  28.508  29.093  1.00  0.00     0.049 A 
ATOM     16  N   UNL A   1      42.947  29.526  28.684  1.00  0.00    -0.248 NA
ATOM     17  C   UNL A   1      42.256  29.169  26.497  1.00  0.00     0.031 C 
ATOM     18  C   UNL A   1      38.669  27.953  29.347  1.00  0.00     0.029 A 
ATOM     19  N   UNL A   1      39.959  29.727  29.716  1.00  0.00    -0.354 N 
ATOM     20  C   UNL A   1      43.676  30.362  27.840  1.00  0.00     0.074 A 
ATOM     21  C   UNL A   1      43.250  30.058  26.496  1.00  0.00     0.031 C 
ATOM     22  C   UNL A   1      37.893  28.910  29.904  1.00  0.00     0.029 A 
ATOM     23  C   UNL A   1      38.701  30.092  30.161  1.00  0.00     0.049 A 
ATOM     24  H   UNL A   1      40.756  30.294  29.836  1.00  0.00     0.167 HD
ATOM     25  C   UNL A   1      44.485  31.354  28.306  1.00  0.00     0.037 A 
ATOM     26  C   UNL A   1      38.332  31.296  30.661  1.00  0.00     0.037 A 
ATOM     27  C   UNL A   1      44.804  31.197  29.696  1.00  0.00     0.049 A 
ATOM     28  C   UNL A   1      39.545  32.017  31.110  1.00  0.00     0.074 A 
ATOM     29  C   UNL A   1      45.449  30.240  30.453  1.00  0.00     0.029 A 
ATOM     30  N   UNL A   1      44.218  32.045  30.600  1.00  0.00    -0.354 N 
ATOM     31  N   UNL A   1      40.239  31.722  32.172  1.00  0.00    -0.248 NA
ATOM     32  C   UNL A   1      40.174  32.963  30.199  1.00  0.00     0.031 C 
ATOM     33  C   UNL A   1      44.837  30.298  31.739  1.00  0.00     0.029 A 
ATOM     34  C   UNL A   1      43.852  31.284  31.679  1.00  0.00     0.049 A 
ATOM     35  H   UNL A   1      44.087  33.015  30.494  1.00  0.00     0.167 HD
ATOM     36  C   UNL A   1      41.531  32.111  31.866  1.00  0.00     0.074 A 
ATOM     37  C   UNL A   1      41.399  33.001  30.723  1.00  0.00     0.031 C 
ATOM     38  C   UNL A   1      42.604  31.447  32.382  1.00  0.00     0.037 A 
BRANCH  25  39
ATOM     39  C   UNL A   1      44.792  32.632  27.570  1.00  0.00     0.064 A 
ATOM     40  C   UNL A   1      46.016  32.770  26.884  1.00  0.00     0.173 A 
ATOM     41  C   UNL A   1      44.059  33.820  27.762  1.00  0.00     0.173 A 
ATOM     42  F   UNL A   1      46.810  31.707  26.681  1.00  0.00    -0.203 F 
ATOM     43  C   UNL A   1      46.492  34.015  26.465  1.00  0.00     0.198 A 
ATOM     44  C   UNL A   1      44.513  35.055  27.299  1.00  0.00     0.198 A 
ATOM     45  F   UNL A   1      42.937  33.838  28.495  1.00  0.00    -0.203 F 
ATOM     46  F   UNL A   1      47.711  34.114  25.916  1.00  0.00    -0.200 F 
ATOM     47  C   UNL A   1      45.740  35.158  26.674  1.00  0.00     0.200 A 
ATOM     48  F   UNL A   1      43.785  36.157  27.530  1.00  0.00    -0.200 F 
ATOM     49  F   UNL A   1      46.218  36.358  26.321  1.00  0.00    -0.200 F 
ENDBRANCH  25  39
BRANCH  26  50
ATOM     50  C   UNL A   1      37.004  31.947  30.641  1.00  0.00     0.064 A 
ATOM     51  C   UNL A   1      36.167  31.928  31.769  1.00  0.00     0.173 A 
ATOM     52  C   UNL A   1      36.633  32.818  29.600  1.00  0.00     0.173 A 
ATOM     53  F   UNL A   1      36.472  31.162  32.826  1.00  0.00    -0.203 F 
ATOM     54  C   UNL A   1      35.035  32.743  31.855  1.00  0.00     0.198 A 
ATOM     55  C   UNL A   1      35.495  33.621  29.680  1.00  0.00     0.198 A 
ATOM     56  F   UNL A   1      37.415  32.973  28.521  1.00  0.00    -0.203 F 
ATOM     57  F   UNL A   1      34.295  32.742  32.973  1.00  0.00    -0.200 F 
ATOM     58  C   UNL A   1      34.704  33.594  30.813  1.00  0.00     0.200 A 
ATOM     59  F   UNL A   1      35.203  34.463  28.679  1.00  0.00    -0.200 F 
ATOM     60  F   UNL A   1      33.648  34.412  30.917  1.00  0.00    -0.200 F 
ENDBRANCH  26  50
BRANCH  38  61
ATOM     61  C   UNL A   1      42.378  30.577  33.583  1.00  0.00     0.064 A 
ATOM     62  C   UNL A   1      42.449  31.040  34.907  1.00  0.00     0.173 A 
ATOM     63  C   UNL A   1      41.958  29.255  33.377  1.00  0.00     0.173 A 
ATOM     64  F   UNL A   1      42.731  32.322  35.176  1.00  0.00    -0.203 F 
ATOM     65  C   UNL A   1      42.171  30.195  35.978  1.00  0.00     0.198 A 
ATOM     66  C   UNL A   1      41.643  28.425  34.449  1.00  0.00     0.198 A 
ATOM     67  F   UNL A   1      41.812  28.781  32.130  1.00  0.00    -0.203 F 
ATOM     68  F   UNL A   1      42.266  30.650  37.236  1.00  0.00    -0.200 F 
ATOM     69  C   UNL A   1      41.763  28.890  35.748  1.00  0.00     0.200 A 
ATOM     70  F   UNL A   1      41.198  27.182  34.221  1.00  0.00    -0.200 F 
ATOM     71  F   UNL A   1      41.459  28.089  36.779  1.00  0.00    -0.200 F 
ENDBRANCH  38  61
ENDBRANCH  12  13
ENDBRANCH   5   7
ENDBRANCH   2   3
ENDBRANCH   1   2
BRANCH   1  72
ATOM     72  C   UNL A   1      36.479  22.515  25.753  1.00  0.00     0.118 C 
BRANCH  72  73
ATOM     73  N   UNL A   1      35.721  21.395  25.225  1.00  0.00    -0.352 N 
ATOM     74  C   UNL A   1      34.441  21.351  24.739  1.00  0.00     0.252 C 
ATOM     75  H   UNL A   1      36.200  20.535  25.216  1.00  0.00     0.163 HD
ATOM     76  O   UNL A   1      33.894  20.259  24.624  1.00  0.00    -0.269 OA
BRANCH  74  77
ATOM     77  C   UNL A   1      33.784  22.590  24.349  1.00  0.00     0.058 A 
ATOM     78  C   UNL A   1      34.013  23.400  23.200  1.00  0.00     0.049 A 
ATOM     79  C   UNL A   1      32.687  23.140  24.994  1.00  0.00     0.101 A 
ATOM     80  C   UNL A   1      33.042  24.376  23.172  1.00  0.00     0.086 A 
ATOM     81  N   UNL A   1      32.271  24.255  24.300  1.00  0.00    -0.335 N 
ATOM     82  Br  UNL A   1      32.843  25.575  21.752  1.00  0.00    -0.031 Br
BRANCH  81  83
ATOM     83  C   UNL A   1      31.090  25.042  24.650  1.00  0.00     0.180 C 
BRANCH  83  84
ATOM     84  C   UNL A   1      31.416  26.474  24.931  1.00  0.00     0.082 A 
ATOM     85  C   UNL A   1      30.865  27.631  24.326  1.00  0.00     0.047 A 
ATOM     86  N   UNL A   1      32.265  26.809  25.920  1.00  0.00    -0.176 NA
ATOM     87  C   UNL A   1      31.427  28.693  24.986  1.00  0.00     0.109 A 
ATOM     88  N   UNL A   1      32.249  28.159  25.935  1.00  0.00    -0.269 N 
BRANCH  88  89
ATOM     89  C   UNL A   1      32.990  28.913  26.920  1.00  0.00     0.107 C 
ATOM     90  C   UNL A   1      34.508  28.844  26.767  1.00  0.00     0.027 C 
ATOM     91  C   UNL A   1      32.723  30.416  26.930  1.00  0.00     0.027 C 
ATOM     92  C   UNL A   1      34.999  29.939  27.706  1.00  0.00     0.002 C 
ATOM     93  C   UNL A   1      33.891  30.997  27.727  1.00  0.00     0.002 C 
ENDBRANCH  88  89
ENDBRANCH  83  84
ENDBRANCH  81  83
ENDBRANCH  74  77
ENDBRANCH  72  73
ENDBRANCH   1  72
TORSDOF 13
ENDMDL
MODEL 2
REMARK VINA RESULT:     -12.6      1.935      4.200
REMARK SMILES O=C(NCCCNC(=O)c1cc(Br)n(Cc2ccn(C3CCCC3)n2)c1)c1ccc(-c2c3nc(c(-c4c(F)c(F)c(F)c(F)c4F)c4ccc([nH]4)c(-c4c(F)c(F)c(F)c(F)c4F)c4nc(c(-c5c(F)c(F)c(F)c(F)c5F)c5ccc2[nH]5)C=C4)C=C3)cc1
REMARK SMILES IDX 5 1 4 2 3 3 1 4 2 5 27 7 28 8 89 9 29 10 88 11 30 12 31 13
REMARK SMILES IDX 32 14 82 15 33 16 87 17 81 18 83 19 34 20 86 21 80 22 79 23
REMARK SMILES IDX 35 25 67 26 47 27 66 28 48 29 51 30 65 31 84 32 49 33 50 34
REMARK SMILES IDX 64 36 85 37 52 38 36 39 37 40 45 41 38 42 39 43 43 44 46 45
REMARK SMILES IDX 40 46 41 47 44 48 42 49 68 50 69 51 77 52 70 53 71 54 75 55
REMARK SMILES IDX 78 56 72 57 73 58 76 59 74 60 53 61 54 62 62 63 55 64 56 65
REMARK SMILES IDX 60 66 63 67 57 68 58 69 61 70 59 71 6 72 7 73 8 74 9 76
REMARK SMILES IDX 10 77 11 78 26 79 12 80 14 81 13 82 15 83 16 84 17 85 25 86
REMARK SMILES IDX 18 87 19 88 20 89 21 90 24 91 22 92 23 93
REMARK H PARENT 3 6 83 24 51 35 7 75
REMARK Flexibility Score: inf
ROOT
ATOM      1  C   UNL A   1      39.278  22.968  26.608  1.00  0.00     0.042 C 
ENDROOT
BRANCH   1   2
ATOM      2  C   UNL A   1      40.368  21.907  26.449  1.00  0.00     0.118 C 
BRANCH   2   3
ATOM      3  N   UNL A   1      41.493  22.316  25.629  1.00  0.00    -0.352 N 
ATOM      4  O   UNL A   1      43.204  23.384  24.730  1.00  0.00    -0.269 OA
ATOM      5  C   UNL A   1      42.273  23.436  25.539  1.00  0.00     0.251 C 
ATOM      6  H   UNL A   1      41.758  21.621  24.984  1.00  0.00     0.163 HD
BRANCH   5   7
ATOM      7  C   UNL A   1      42.069  24.699  26.305  1.00  0.00     0.039 A 
ATOM      8  C   UNL A   1      42.501  24.937  27.608  1.00  0.00     0.014 A 
ATOM      9  C   UNL A   1      41.406  25.741  25.626  1.00  0.00     0.014 A 
ATOM     10  C   UNL A   1      42.248  26.163  28.229  1.00  0.00     0.010 A 
ATOM     11  C   UNL A   1      41.168  26.975  26.234  1.00  0.00     0.010 A 
ATOM     12  C   UNL A   1      41.582  27.185  27.546  1.00  0.00    -0.014 A 
BRANCH  12  13
ATOM     13  C   UNL A   1      41.453  28.482  28.217  1.00  0.00     0.031 A 
ATOM     14  C   UNL A   1      42.554  29.468  28.001  1.00  0.00     0.074 A 
ATOM     15  C   UNL A   1      40.366  28.906  28.889  1.00  0.00     0.049 A 
ATOM     16  N   UNL A   1      43.296  30.052  28.889  1.00  0.00    -0.248 NA
ATOM     17  C   UNL A   1      42.857  29.857  26.617  1.00  0.00     0.031 C 
ATOM     18  C   UNL A   1      39.043  28.287  28.951  1.00  0.00     0.029 A 
ATOM     19  N   UNL A   1      40.209  30.067  29.599  1.00  0.00    -0.354 N 
ATOM     20  C   UNL A   1      44.075  30.980  28.198  1.00  0.00     0.074 A 
ATOM     21  C   UNL A   1      43.807  30.776  26.796  1.00  0.00     0.031 C 
ATOM     22  C   UNL A   1      38.171  29.167  29.494  1.00  0.00     0.029 A 
ATOM     23  C   UNL A   1      38.897  30.351  29.931  1.00  0.00     0.049 A 
ATOM     24  H   UNL A   1      40.964  30.648  29.850  1.00  0.00     0.167 HD
ATOM     25  C   UNL A   1      44.786  31.956  28.827  1.00  0.00     0.037 A 
ATOM     26  C   UNL A   1      38.425  31.495  30.481  1.00  0.00     0.037 A 
ATOM     27  C   UNL A   1      44.961  31.695  30.227  1.00  0.00     0.049 A 
ATOM     28  C   UNL A   1      39.552  32.217  31.117  1.00  0.00     0.074 A 
ATOM     29  C   UNL A   1      45.563  30.700  30.972  1.00  0.00     0.029 A 
ATOM     30  N   UNL A   1      44.247  32.444  31.126  1.00  0.00    -0.354 N 
ATOM     31  N   UNL A   1      40.141  31.858  32.221  1.00  0.00    -0.248 NA
ATOM     32  C   UNL A   1      40.233  33.256  30.357  1.00  0.00     0.031 C 
ATOM     33  C   UNL A   1      44.815  30.630  32.184  1.00  0.00     0.029 A 
ATOM     34  C   UNL A   1      43.801  31.584  32.094  1.00  0.00     0.049 A 
ATOM     35  H   UNL A   1      44.087  33.415  31.083  1.00  0.00     0.167 HD
ATOM     36  C   UNL A   1      41.440  32.314  32.090  1.00  0.00     0.074 A 
ATOM     37  C   UNL A   1      41.393  33.292  31.015  1.00  0.00     0.031 C 
ATOM     38  C   UNL A   1      42.479  31.645  32.667  1.00  0.00     0.037 A 
BRANCH  25  39
ATOM     39  C   UNL A   1      45.115  33.302  28.234  1.00  0.00     0.064 A 
ATOM     40  C   UNL A   1      46.462  33.695  28.091  1.00  0.00     0.173 A 
ATOM     41  C   UNL A   1      44.158  34.322  28.076  1.00  0.00     0.173 A 
ATOM     42  F   UNL A   1      47.455  32.808  28.259  1.00  0.00    -0.203 F 
ATOM     43  C   UNL A   1      46.822  35.024  27.856  1.00  0.00     0.198 A 
ATOM     44  C   UNL A   1      44.518  35.640  27.792  1.00  0.00     0.198 A 
ATOM     45  F   UNL A   1      42.855  34.099  28.297  1.00  0.00    -0.203 F 
ATOM     46  F   UNL A   1      48.116  35.372  27.839  1.00  0.00    -0.200 F 
ATOM     47  C   UNL A   1      45.849  35.997  27.708  1.00  0.00     0.200 A 
ATOM     48  F   UNL A   1      43.565  36.576  27.674  1.00  0.00    -0.200 F 
ATOM     49  F   UNL A   1      46.194  37.280  27.535  1.00  0.00    -0.200 F 
ENDBRANCH  25  39
BRANCH  26  50
ATOM     50  C   UNL A   1      37.080  32.100  30.367  1.00  0.00     0.064 A 
ATOM     51  C   UNL A   1      36.132  31.966  31.395  1.00  0.00     0.173 A 
ATOM     52  C   UNL A   1      36.784  33.037  29.359  1.00  0.00     0.173 A 
ATOM     53  F   UNL A   1      36.358  31.131  32.420  1.00  0.00    -0.203 F 
ATOM     54  C   UNL A   1      34.964  32.733  31.419  1.00  0.00     0.198 A 
ATOM     55  C   UNL A   1      35.611  33.792  29.376  1.00  0.00     0.198 A 
ATOM     56  F   UNL A   1      37.667  33.301  28.385  1.00  0.00    -0.203 F 
ATOM     57  F   UNL A   1      34.113  32.621  32.449  1.00  0.00    -0.200 F 
ATOM     58  C   UNL A   1      34.708  33.650  30.414  1.00  0.00     0.200 A 
ATOM     59  F   UNL A   1      35.390  34.699  28.415  1.00  0.00    -0.200 F 
ATOM     60  F   UNL A   1      33.614  34.422  30.464  1.00  0.00    -0.200 F 
ENDBRANCH  26  50
BRANCH  38  61
ATOM     61  C   UNL A   1      42.164  30.672  33.763  1.00  0.00     0.064 A 
ATOM     62  C   UNL A   1      41.744  29.351  33.537  1.00  0.00     0.173 A 
ATOM     63  C   UNL A   1      42.411  31.058  35.088  1.00  0.00     0.173 A 
ATOM     64  F   UNL A   1      41.597  28.876  32.292  1.00  0.00    -0.203 F 
ATOM     65  C   UNL A   1      41.522  28.477  34.599  1.00  0.00     0.198 A 
ATOM     66  C   UNL A   1      42.227  30.170  36.143  1.00  0.00     0.198 A 
ATOM     67  F   UNL A   1      42.875  32.289  35.355  1.00  0.00    -0.203 F 
ATOM     68  F   UNL A   1      41.099  27.227  34.363  1.00  0.00    -0.200 F 
ATOM     69  C   UNL A   1      41.769  28.886  35.900  1.00  0.00     0.200 A 
ATOM     70  F   UNL A   1      42.518  30.552  37.395  1.00  0.00    -0.200 F 
ATOM     71  F   UNL A   1      41.591  28.031  36.918  1.00  0.00    -0.200 F 
ENDBRANCH  38  61
ENDBRANCH  12  13
ENDBRANCH   5   7
ENDBRANCH   2   3
ENDBRANCH   1   2
BRANCH   1  72
ATOM     72  C   UNL A   1      37.926  22.583  26.003  1.00  0.00     0.118 C 
BRANCH  72  73
ATOM     73  N   UNL A   1      37.783  23.070  24.643  1.00  0.00    -0.352 N 
ATOM     74  C   UNL A   1      36.657  23.222  23.878  1.00  0.00     0.252 C 
ATOM     75  H   UNL A   1      38.625  23.330  24.203  1.00  0.00     0.163 HD
ATOM     76  O   UNL A   1      36.785  23.362  22.666  1.00  0.00    -0.269 OA
BRANCH  74  77
ATOM     77  C   UNL A   1      35.353  23.242  24.524  1.00  0.00     0.058 A 
ATOM     78  C   UNL A   1      34.691  24.325  25.170  1.00  0.00     0.049 A 
ATOM     79  C   UNL A   1      34.445  22.195  24.503  1.00  0.00     0.101 A 
ATOM     80  C   UNL A   1      33.415  23.915  25.481  1.00  0.00     0.086 A 
ATOM     81  N   UNL A   1      33.284  22.595  25.130  1.00  0.00    -0.335 N 
ATOM     82  Br  UNL A   1      32.121  25.060  26.192  1.00  0.00    -0.031 Br
BRANCH  81  83
ATOM     83  C   UNL A   1      32.080  21.772  25.223  1.00  0.00     0.180 C 
BRANCH  83  84
ATOM     84  C   UNL A   1      32.189  20.504  24.436  1.00  0.00     0.082 A 
ATOM     85  C   UNL A   1      32.079  20.335  23.034  1.00  0.00     0.047 A 
ATOM     86  N   UNL A   1      32.511  19.344  25.035  1.00  0.00    -0.176 NA
ATOM     87  C   UNL A   1      32.339  19.008  22.803  1.00  0.00     0.109 A 
ATOM     88  N   UNL A   1      32.600  18.455  24.022  1.00  0.00    -0.269 N 
BRANCH  88  89
ATOM     89  C   UNL A   1      33.002  17.086  24.251  1.00  0.00     0.107 C 
ATOM     90  C   UNL A   1      34.501  16.887  24.461  1.00  0.00     0.027 C 
ATOM     91  C   UNL A   1      32.400  16.425  25.488  1.00  0.00     0.027 C 
ATOM     92  C   UNL A   1      34.589  15.453  24.970  1.00  0.00     0.002 C 
ATOM     93  C   UNL A   1      33.278  15.195  25.719  1.00  0.00     0.002 C 
ENDBRANCH  88  89
ENDBRANCH  83  84
ENDBRANCH  81  83
ENDBRANCH  74  77
ENDBRANCH  72  73
ENDBRANCH   1  72
TORSDOF 13
ENDMDL
MODEL 3
REMARK VINA RESULT:     -12.5      1.380      1.955
REMARK SMILES O=C(NCCCNC(=O)c1cc(Br)n(Cc2ccn(C3CCCC3)n2)c1)c1ccc(-c2c3nc(c(-c4c(F)c(F)c(F)c(F)c4F)c4ccc([nH]4)c(-c4c(F)c(F)c(F)c(F)c4F)c4nc(c(-c5c(F)c(F)c(F)c(F)c5F)c5ccc2[nH]5)C=C4)C=C3)cc1
REMARK SMILES IDX 5 1 4 2 3 3 1 4 2 5 27 7 28 8 89 9 29 10 88 11 30 12 31 13
REMARK SMILES IDX 32 14 82 15 33 16 87 17 81 18 83 19 34 20 86 21 80 22 79 23
REMARK SMILES IDX 35 25 67 26 47 27 66 28 48 29 51 30 65 31 84 32 49 33 50 34
REMARK SMILES IDX 64 36 85 37 52 38 36 39 37 40 45 41 38 42 39 43 43 44 46 45
REMARK SMILES IDX 40 46 41 47 44 48 42 49 68 50 69 51 77 52 70 53 71 54 75 55
REMARK SMILES IDX 78 56 72 57 73 58 76 59 74 60 53 61 54 62 62 63 55 64 56 65
REMARK SMILES IDX 60 66 63 67 57 68 58 69 61 70 59 71 6 72 7 73 8 74 9 76
REMARK SMILES IDX 10 77 11 78 26 79 12 80 14 81 13 82 15 83 16 84 17 85 25 86
REMARK SMILES IDX 18 87 19 88 20 89 21 90 24 91 22 92 23 93
REMARK H PARENT 3 6 83 24 51 35 7 75
REMARK Flexibility Score: inf
ROOT
ATOM      1  C   UNL A   1      36.717  22.370  24.419  1.00  0.00     0.042 C 
ENDROOT
BRANCH   1   2
ATOM      2  C   UNL A   1      37.245  22.096  25.828  1.00  0.00     0.118 C 
BRANCH   2   3
ATOM      3  N   UNL A   1      38.614  21.618  25.877  1.00  0.00    -0.352 N 
ATOM      4  O   UNL A   1      40.778  21.369  26.241  1.00  0.00    -0.269 OA
ATOM      5  C   UNL A   1      39.805  22.126  26.316  1.00  0.00     0.251 C 
ATOM      6  H   UNL A   1      38.708  20.711  25.504  1.00  0.00     0.163 HD
BRANCH   5   7
ATOM      7  C   UNL A   1      40.020  23.505  26.840  1.00  0.00     0.039 A 
ATOM      8  C   UNL A   1      39.246  24.622  26.530  1.00  0.00     0.014 A 
ATOM      9  C   UNL A   1      41.086  23.670  27.748  1.00  0.00     0.014 A 
ATOM     10  C   UNL A   1      39.546  25.871  27.079  1.00  0.00     0.010 A 
ATOM     11  C   UNL A   1      41.378  24.912  28.315  1.00  0.00     0.010 A 
ATOM     12  C   UNL A   1      40.611  26.021  27.972  1.00  0.00    -0.014 A 
BRANCH  12  13
ATOM     13  C   UNL A   1      40.796  27.334  28.598  1.00  0.00     0.031 A 
ATOM     14  C   UNL A   1      41.967  28.141  28.141  1.00  0.00     0.074 A 
ATOM     15  C   UNL A   1      39.925  27.926  29.437  1.00  0.00     0.049 A 
ATOM     16  N   UNL A   1      42.937  28.625  28.852  1.00  0.00    -0.248 NA
ATOM     17  C   UNL A   1      42.059  28.457  26.709  1.00  0.00     0.031 C 
ATOM     18  C   UNL A   1      38.562  27.512  29.765  1.00  0.00     0.029 A 
ATOM     19  N   UNL A   1      40.070  29.109  30.111  1.00  0.00    -0.354 N 
ATOM     20  C   UNL A   1      43.698  29.415  27.991  1.00  0.00     0.074 A 
ATOM     21  C   UNL A   1      43.147  29.228  26.671  1.00  0.00     0.031 C 
ATOM     22  C   UNL A   1      37.941  28.520  30.418  1.00  0.00     0.029 A 
ATOM     23  C   UNL A   1      38.897  29.591  30.663  1.00  0.00     0.049 A 
ATOM     24  H   UNL A   1      40.934  29.576  30.194  1.00  0.00     0.167 HD
ATOM     25  C   UNL A   1      44.646  30.285  28.436  1.00  0.00     0.037 A 
ATOM     26  C   UNL A   1      38.705  30.801  31.239  1.00  0.00     0.037 A 
ATOM     27  C   UNL A   1      45.040  30.025  29.791  1.00  0.00     0.049 A 
ATOM     28  C   UNL A   1      40.021  31.359  31.626  1.00  0.00     0.074 A 
ATOM     29  C   UNL A   1      45.621  28.964  30.458  1.00  0.00     0.029 A 
ATOM     30  N   UNL A   1      44.620  30.887  30.771  1.00  0.00    -0.354 N 
ATOM     31  N   UNL A   1      40.749  30.935  32.620  1.00  0.00    -0.248 NA
ATOM     32  C   UNL A   1      40.691  32.272  30.710  1.00  0.00     0.031 C 
ATOM     33  C   UNL A   1      45.110  29.027  31.787  1.00  0.00     0.029 A 
ATOM     34  C   UNL A   1      44.244  30.119  31.841  1.00  0.00     0.049 A 
ATOM     35  H   UNL A   1      44.594  31.870  30.715  1.00  0.00     0.167 HD
ATOM     36  C   UNL A   1      42.053  31.191  32.235  1.00  0.00     0.074 A 
ATOM     37  C   UNL A   1      41.946  32.147  31.143  1.00  0.00     0.031 C 
ATOM     38  C   UNL A   1      43.075  30.386  32.642  1.00  0.00     0.037 A 
BRANCH  25  39
ATOM     39  C   UNL A   1      45.047  31.556  27.734  1.00  0.00     0.064 A 
ATOM     40  C   UNL A   1      46.324  31.659  27.144  1.00  0.00     0.173 A 
ATOM     41  C   UNL A   1      44.338  32.765  27.876  1.00  0.00     0.173 A 
ATOM     42  F   UNL A   1      47.098  30.572  26.996  1.00  0.00    -0.203 F 
ATOM     43  C   UNL A   1      46.867  32.890  26.769  1.00  0.00     0.198 A 
ATOM     44  C   UNL A   1      44.863  33.987  27.456  1.00  0.00     0.198 A 
ATOM     45  F   UNL A   1      43.164  32.815  28.521  1.00  0.00    -0.203 F 
ATOM     46  F   UNL A   1      48.127  32.953  26.316  1.00  0.00    -0.200 F 
ATOM     47  C   UNL A   1      46.137  34.054  26.927  1.00  0.00     0.200 A 
ATOM     48  F   UNL A   1      44.153  35.110  27.636  1.00  0.00    -0.200 F 
ATOM     49  F   UNL A   1      46.677  35.241  26.618  1.00  0.00    -0.200 F 
ENDBRANCH  25  39
BRANCH  26  50
ATOM     50  C   UNL A   1      37.463  31.598  31.344  1.00  0.00     0.064 A 
ATOM     51  C   UNL A   1      36.816  31.776  32.578  1.00  0.00     0.173 A 
ATOM     52  C   UNL A   1      37.023  32.410  30.283  1.00  0.00     0.173 A 
ATOM     53  F   UNL A   1      37.204  31.077  33.655  1.00  0.00    -0.203 F 
ATOM     54  C   UNL A   1      35.800  32.722  32.743  1.00  0.00     0.198 A 
ATOM     55  C   UNL A   1      35.999  33.343  30.444  1.00  0.00     0.198 A 
ATOM     56  F   UNL A   1      37.638  32.377  29.091  1.00  0.00    -0.203 F 
ATOM     57  F   UNL A   1      35.248  32.906  33.951  1.00  0.00    -0.200 F 
ATOM     58  C   UNL A   1      35.397  33.509  31.677  1.00  0.00     0.200 A 
ATOM     59  F   UNL A   1      35.640  34.121  29.413  1.00  0.00    -0.200 F 
ATOM     60  F   UNL A   1      34.459  34.450  31.847  1.00  0.00    -0.200 F 
ENDBRANCH  26  50
BRANCH  38  61
ATOM     61  C   UNL A   1      42.833  29.489  33.819  1.00  0.00     0.064 A 
ATOM     62  C   UNL A   1      42.158  28.260  33.739  1.00  0.00     0.173 A 
ATOM     63  C   UNL A   1      43.412  29.834  35.048  1.00  0.00     0.173 A 
ATOM     64  F   UNL A   1      41.679  27.810  32.571  1.00  0.00    -0.203 F 
ATOM     65  C   UNL A   1      42.018  27.444  34.860  1.00  0.00     0.198 A 
ATOM     66  C   UNL A   1      43.304  28.999  36.156  1.00  0.00     0.198 A 
ATOM     67  F   UNL A   1      44.123  30.967  35.164  1.00  0.00    -0.203 F 
ATOM     68  F   UNL A   1      41.350  26.286  34.767  1.00  0.00    -0.200 F 
ATOM     69  C   UNL A   1      42.594  27.812  36.065  1.00  0.00     0.200 A 
ATOM     70  F   UNL A   1      43.908  29.332  37.304  1.00  0.00    -0.200 F 
ATOM     71  F   UNL A   1      42.490  27.008  37.133  1.00  0.00    -0.200 F 
ENDBRANCH  38  61
ENDBRANCH  12  13
ENDBRANCH   5   7
ENDBRANCH   2   3
ENDBRANCH   1   2
BRANCH   1  72
ATOM     72  C   UNL A   1      35.224  22.699  24.354  1.00  0.00     0.118 C 
BRANCH  72  73
ATOM     73  N   UNL A   1      34.825  23.139  23.029  1.00  0.00    -0.352 N 
ATOM     74  C   UNL A   1      33.580  23.440  22.541  1.00  0.00     0.252 C 
ATOM     75  H   UNL A   1      35.561  23.236  22.383  1.00  0.00     0.163 HD
ATOM     76  O   UNL A   1      33.425  23.500  21.326  1.00  0.00    -0.269 OA
BRANCH  74  77
ATOM     77  C   UNL A   1      32.493  23.703  23.473  1.00  0.00     0.058 A 
ATOM     78  C   UNL A   1      31.963  22.859  24.490  1.00  0.00     0.049 A 
ATOM     79  C   UNL A   1      31.854  24.924  23.616  1.00  0.00     0.101 A 
ATOM     80  C   UNL A   1      31.060  23.596  25.222  1.00  0.00     0.086 A 
ATOM     81  N   UNL A   1      30.947  24.838  24.651  1.00  0.00    -0.335 N 
ATOM     82  Br  UNL A   1      30.233  22.950  26.769  1.00  0.00    -0.031 Br
BRANCH  81  83
ATOM     83  C   UNL A   1      30.150  25.963  25.135  1.00  0.00     0.180 C 
BRANCH  83  84
ATOM     84  C   UNL A   1      30.952  27.219  25.273  1.00  0.00     0.082 A 
ATOM     85  C   UNL A   1      30.920  28.370  24.448  1.00  0.00     0.047 A 
ATOM     86  N   UNL A   1      31.770  27.404  26.324  1.00  0.00    -0.176 NA
ATOM     87  C   UNL A   1      31.770  29.269  25.041  1.00  0.00     0.109 A 
ATOM     88  N   UNL A   1      32.249  28.656  26.162  1.00  0.00    -0.269 N 
BRANCH  88  89
ATOM     89  C   UNL A   1      33.123  29.264  27.138  1.00  0.00     0.107 C 
ATOM     90  C   UNL A   1      34.604  28.937  26.962  1.00  0.00     0.027 C 
ATOM     91  C   UNL A   1      33.118  30.791  27.160  1.00  0.00     0.027 C 
ATOM     92  C   UNL A   1      35.288  29.925  27.899  1.00  0.00     0.002 C 
ATOM     93  C   UNL A   1      34.379  31.157  27.942  1.00  0.00     0.002 C 
ENDBRANCH  88  89
ENDBRANCH  83  84
ENDBRANCH  81  83
ENDBRANCH  74  77
ENDBRANCH  72  73
ENDBRANCH   1  72
TORSDOF 13
ENDMDL
