MODEL 1
REMARK VINA RESULT:     -11.6      0.000      0.000
REMARK SMILES CCN(CC)C(=O)C[C@](C)(C(=O)NCCCNC(=O)c1ccc(-c2c3nc(c(-c4c(F)c(F)c(F)c(F)c4F)c4ccc([nH]4)c(-c4c(F)c(F)c(F)c(F)c4F)c4nc(c(-c5c(F)c(F)c(F)c(F)c5F)c5ccc2[nH]5)C=C4)C=C3)cc1)c1ccccc1
REMARK SMILES IDX 14 1 13 2 11 3 12 4 9 6 10 7 8 8 6 9 3 10 7 11 2 12 1 13
REMARK SMILES IDX 4 14 5 15 83 16 84 17 88 18 85 19 87 20 86 21 15 22 16 23
REMARK SMILES IDX 17 24 18 25 19 27 20 28 21 29 82 30 22 31 81 32 23 33 24 34
REMARK SMILES IDX 25 35 75 36 26 37 80 38 74 39 76 40 27 41 79 42 73 43 72 44
REMARK SMILES IDX 28 46 60 47 40 48 59 49 41 50 44 51 58 52 77 53 42 54 43 55
REMARK SMILES IDX 57 57 78 58 45 59 29 60 30 61 38 62 31 63 32 64 36 65 39 66
REMARK SMILES IDX 33 67 34 68 37 69 35 70 61 71 62 72 70 73 63 74 64 75 68 76
REMARK SMILES IDX 71 77 65 78 66 79 69 80 67 81 46 82 47 83 55 84 48 85 49 86
REMARK SMILES IDX 53 87 56 88 50 89 51 90 54 91 52 92
REMARK H PARENT 13 5 17 26 76 45 44 56
REMARK Flexibility Score: inf
ROOT
ATOM      1  C   UNL A   1      37.017  21.072  24.844  1.00  0.00     0.117 C 
ENDROOT
BRANCH   1   2
ATOM      2  N   UNL A   1      36.089  21.070  25.965  1.00  0.00    -0.355 N 
ATOM      3  C   UNL A   1      34.746  21.279  26.084  1.00  0.00     0.230 C 
ATOM      4  O   UNL A   1      34.398  21.549  27.238  1.00  0.00    -0.274 OA
ATOM      5  H   UNL A   1      36.525  20.872  26.826  1.00  0.00     0.163 HD
BRANCH   3   6
ATOM      6  C   UNL A   1      33.749  21.185  24.874  1.00  0.00     0.080 C 
ATOM      7  C   UNL A   1      32.393  21.707  25.405  1.00  0.00     0.027 C 
BRANCH   6   8
ATOM      8  C   UNL A   1      34.324  22.089  23.748  1.00  0.00     0.121 C 
BRANCH   8   9
ATOM      9  C   UNL A   1      33.419  23.041  22.995  1.00  0.00     0.223 C 
ATOM     10  N   UNL A   1      33.378  24.400  23.288  1.00  0.00    -0.343 N 
ATOM     11  O   UNL A   1      32.674  22.536  22.145  1.00  0.00    -0.275 OA
BRANCH  10  12
ATOM     12  C   UNL A   1      32.482  25.229  22.461  1.00  0.00     0.116 C 
ATOM     13  C   UNL A   1      31.206  25.696  23.162  1.00  0.00     0.027 C 
ENDBRANCH  10  12
BRANCH  10  14
ATOM     14  C   UNL A   1      34.212  25.126  24.261  1.00  0.00     0.116 C 
ATOM     15  C   UNL A   1      33.647  25.375  25.652  1.00  0.00     0.027 C 
ENDBRANCH  10  14
ENDBRANCH   8   9
ENDBRANCH   6   8
BRANCH   6  16
ATOM     16  C   UNL A   1      33.564  19.733  24.342  1.00  0.00    -0.032 A 
ATOM     17  C   UNL A   1      34.451  18.683  24.650  1.00  0.00     0.005 A 
ATOM     18  C   UNL A   1      32.534  19.435  23.424  1.00  0.00     0.005 A 
ATOM     19  C   UNL A   1      34.335  17.420  24.053  1.00  0.00     0.000 A 
ATOM     20  C   UNL A   1      32.414  18.173  22.833  1.00  0.00     0.000 A 
ATOM     21  C   UNL A   1      33.323  17.169  23.136  1.00  0.00     0.000 A 
ENDBRANCH   6  16
ENDBRANCH   3   6
ENDBRANCH   1   2
BRANCH   1  22
ATOM     22  C   UNL A   1      38.047  19.956  24.973  1.00  0.00     0.042 C 
BRANCH  22  23
ATOM     23  C   UNL A   1      39.087  20.205  26.055  1.00  0.00     0.118 C 
BRANCH  23  24
ATOM     24  N   UNL A   1      40.142  19.200  26.055  1.00  0.00    -0.352 N 
ATOM     25  C   UNL A   1      41.501  19.356  26.113  1.00  0.00     0.251 C 
ATOM     26  H   UNL A   1      39.830  18.268  26.007  1.00  0.00     0.163 HD
ATOM     27  O   UNL A   1      42.237  18.391  25.894  1.00  0.00    -0.269 OA
BRANCH  25  28
ATOM     28  C   UNL A   1      42.094  20.675  26.415  1.00  0.00     0.039 A 
ATOM     29  C   UNL A   1      42.407  21.535  25.359  1.00  0.00     0.014 A 
ATOM     30  C   UNL A   1      42.356  21.062  27.732  1.00  0.00     0.014 A 
ATOM     31  C   UNL A   1      42.920  22.806  25.629  1.00  0.00     0.010 A 
ATOM     32  C   UNL A   1      42.778  22.360  28.003  1.00  0.00     0.010 A 
ATOM     33  C   UNL A   1      43.073  23.243  26.955  1.00  0.00    -0.014 A 
BRANCH  33  34
ATOM     34  C   UNL A   1      43.552  24.614  27.266  1.00  0.00     0.031 A 
ATOM     35  C   UNL A   1      42.590  25.648  27.784  1.00  0.00     0.074 A 
ATOM     36  C   UNL A   1      44.837  24.943  27.028  1.00  0.00     0.049 A 
ATOM     37  N   UNL A   1      42.793  26.916  28.037  1.00  0.00    -0.248 NA
ATOM     38  C   UNL A   1      41.208  25.205  28.026  1.00  0.00     0.031 C 
ATOM     39  C   UNL A   1      45.857  24.042  26.488  1.00  0.00     0.029 A 
ATOM     40  N   UNL A   1      45.504  26.131  27.201  1.00  0.00    -0.354 N 
ATOM     41  C   UNL A   1      41.569  27.420  28.457  1.00  0.00     0.074 A 
ATOM     42  C   UNL A   1      40.613  26.339  28.368  1.00  0.00     0.031 C 
ATOM     43  C   UNL A   1      47.023  24.700  26.395  1.00  0.00     0.029 A 
ATOM     44  C   UNL A   1      46.825  26.080  26.826  1.00  0.00     0.049 A 
ATOM     45  H   UNL A   1      45.077  26.941  27.559  1.00  0.00     0.167 HD
ATOM     46  C   UNL A   1      41.276  28.664  28.904  1.00  0.00     0.037 A 
ATOM     47  C   UNL A   1      47.767  27.044  26.819  1.00  0.00     0.037 A 
ATOM     48  C   UNL A   1      42.234  29.732  29.012  1.00  0.00     0.049 A 
ATOM     49  C   UNL A   1      47.403  28.425  27.297  1.00  0.00     0.074 A 
ATOM     50  C   UNL A   1      42.044  31.016  29.492  1.00  0.00     0.029 A 
ATOM     51  N   UNL A   1      43.566  29.637  28.638  1.00  0.00    -0.354 N 
ATOM     52  N   UNL A   1      46.256  28.871  27.750  1.00  0.00    -0.248 NA
ATOM     53  C   UNL A   1      48.469  29.436  27.270  1.00  0.00     0.031 C 
ATOM     54  C   UNL A   1      43.250  31.713  29.364  1.00  0.00     0.029 A 
ATOM     55  C   UNL A   1      44.205  30.847  28.858  1.00  0.00     0.049 A 
ATOM     56  H   UNL A   1      43.995  28.831  28.269  1.00  0.00     0.167 HD
ATOM     57  C   UNL A   1      46.473  30.199  28.094  1.00  0.00     0.074 A 
ATOM     58  C   UNL A   1      47.864  30.481  27.814  1.00  0.00     0.031 C 
ATOM     59  C   UNL A   1      45.597  31.105  28.595  1.00  0.00     0.037 A 
BRANCH  46  60
ATOM     60  C   UNL A   1      39.862  28.939  29.327  1.00  0.00     0.064 A 
ATOM     61  C   UNL A   1      38.892  29.364  28.406  1.00  0.00     0.173 A 
ATOM     62  C   UNL A   1      39.455  28.719  30.652  1.00  0.00     0.173 A 
ATOM     63  F   UNL A   1      39.230  29.600  27.130  1.00  0.00    -0.203 F 
ATOM     64  C   UNL A   1      37.574  29.576  28.799  1.00  0.00     0.198 A 
ATOM     65  C   UNL A   1      38.130  28.903  31.035  1.00  0.00     0.198 A 
ATOM     66  F   UNL A   1      40.342  28.309  31.572  1.00  0.00    -0.203 F 
ATOM     67  F   UNL A   1      36.674  30.019  27.910  1.00  0.00    -0.200 F 
ATOM     68  C   UNL A   1      37.191  29.336  30.111  1.00  0.00     0.200 A 
ATOM     69  F   UNL A   1      37.759  28.656  32.299  1.00  0.00    -0.200 F 
ATOM     70  F   UNL A   1      35.918  29.524  30.484  1.00  0.00    -0.200 F 
ENDBRANCH  46  60
BRANCH  47  71
ATOM     71  C   UNL A   1      49.147  26.745  26.354  1.00  0.00     0.064 A 
ATOM     72  C   UNL A   1      50.121  26.272  27.245  1.00  0.00     0.173 A 
ATOM     73  C   UNL A   1      49.536  26.963  25.023  1.00  0.00     0.173 A 
ATOM     74  F   UNL A   1      49.806  26.066  28.533  1.00  0.00    -0.203 F 
ATOM     75  C   UNL A   1      51.437  26.065  26.833  1.00  0.00     0.198 A 
ATOM     76  C   UNL A   1      50.842  26.723  24.605  1.00  0.00     0.198 A 
ATOM     77  F   UNL A   1      48.642  27.409  24.127  1.00  0.00    -0.203 F 
ATOM     78  F   UNL A   1      52.361  25.678  27.724  1.00  0.00    -0.200 F 
ATOM     79  C   UNL A   1      51.796  26.289  25.513  1.00  0.00     0.200 A 
ATOM     80  F   UNL A   1      51.181  26.925  23.324  1.00  0.00    -0.200 F 
ATOM     81  F   UNL A   1      53.062  26.096  25.120  1.00  0.00    -0.200 F 
ENDBRANCH  47  71
BRANCH  59  82
ATOM     82  C   UNL A   1      46.128  32.471  28.920  1.00  0.00     0.064 A 
ATOM     83  C   UNL A   1      46.693  32.767  30.168  1.00  0.00     0.173 A 
ATOM     84  C   UNL A   1      46.103  33.487  27.952  1.00  0.00     0.173 A 
ATOM     85  F   UNL A   1      46.727  31.834  31.132  1.00  0.00    -0.203 F 
ATOM     86  C   UNL A   1      47.187  34.038  30.447  1.00  0.00     0.198 A 
ATOM     87  C   UNL A   1      46.628  34.747  28.223  1.00  0.00     0.198 A 
ATOM     88  F   UNL A   1      45.580  33.255  26.739  1.00  0.00    -0.203 F 
ATOM     89  F   UNL A   1      47.674  34.314  31.664  1.00  0.00    -0.200 F 
ATOM     90  C   UNL A   1      47.161  35.025  29.473  1.00  0.00     0.200 A 
ATOM     91  F   UNL A   1      46.617  35.694  27.274  1.00  0.00    -0.200 F 
ATOM     92  F   UNL A   1      47.645  36.245  29.740  1.00  0.00    -0.200 F 
ENDBRANCH  59  82
ENDBRANCH  33  34
ENDBRANCH  25  28
ENDBRANCH  23  24
ENDBRANCH  22  23
ENDBRANCH   1  22
TORSDOF 15
ENDMDL
MODEL 2
REMARK VINA RESULT:     -11.6      5.850     11.377
REMARK SMILES CCN(CC)C(=O)C[C@](C)(C(=O)NCCCNC(=O)c1ccc(-c2c3nc(c(-c4c(F)c(F)c(F)c(F)c4F)c4ccc([nH]4)c(-c4c(F)c(F)c(F)c(F)c4F)c4nc(c(-c5c(F)c(F)c(F)c(F)c5F)c5ccc2[nH]5)C=C4)C=C3)cc1)c1ccccc1
REMARK SMILES IDX 14 1 13 2 11 3 12 4 9 6 10 7 8 8 6 9 3 10 7 11 2 12 1 13
REMARK SMILES IDX 4 14 5 15 83 16 84 17 88 18 85 19 87 20 86 21 15 22 16 23
REMARK SMILES IDX 17 24 18 25 19 27 20 28 21 29 82 30 22 31 81 32 23 33 24 34
REMARK SMILES IDX 25 35 75 36 26 37 80 38 74 39 76 40 27 41 79 42 73 43 72 44
REMARK SMILES IDX 28 46 60 47 40 48 59 49 41 50 44 51 58 52 77 53 42 54 43 55
REMARK SMILES IDX 57 57 78 58 45 59 29 60 30 61 38 62 31 63 32 64 36 65 39 66
REMARK SMILES IDX 33 67 34 68 37 69 35 70 61 71 62 72 70 73 63 74 64 75 68 76
REMARK SMILES IDX 71 77 65 78 66 79 69 80 67 81 46 82 47 83 55 84 48 85 49 86
REMARK SMILES IDX 53 87 56 88 50 89 51 90 54 91 52 92
REMARK H PARENT 13 5 17 26 76 45 44 56
REMARK Flexibility Score: inf
ROOT
ATOM      1  C   UNL A   1      31.683  30.703  25.946  1.00  0.00     0.117 C 
ENDROOT
BRANCH   1   2
ATOM      2  N   UNL A   1      31.773  29.659  26.956  1.00  0.00    -0.355 N 
ATOM      3  C   UNL A   1      31.766  28.295  26.912  1.00  0.00     0.230 C 
ATOM      4  O   UNL A   1      31.498  27.777  28.001  1.00  0.00    -0.274 OA
ATOM      5  H   UNL A   1      31.860  30.014  27.871  1.00  0.00     0.163 HD
BRANCH   3   6
ATOM      6  C   UNL A   1      32.070  27.474  25.609  1.00  0.00     0.080 C 
ATOM      7  C   UNL A   1      33.573  27.695  25.313  1.00  0.00     0.027 C 
BRANCH   6   8
ATOM      8  C   UNL A   1      31.751  25.987  25.933  1.00  0.00     0.121 C 
BRANCH   8   9
ATOM      9  C   UNL A   1      32.749  24.900  25.594  1.00  0.00     0.223 C 
ATOM     10  N   UNL A   1      32.759  24.275  24.351  1.00  0.00    -0.343 N 
ATOM     11  O   UNL A   1      33.516  24.554  26.502  1.00  0.00    -0.275 OA
BRANCH  10  12
ATOM     12  C   UNL A   1      33.801  23.256  24.130  1.00  0.00     0.116 C 
ATOM     13  C   UNL A   1      33.278  21.842  23.880  1.00  0.00     0.027 C 
ENDBRANCH  10  12
BRANCH  10  14
ATOM     14  C   UNL A   1      31.914  24.594  23.188  1.00  0.00     0.116 C 
ATOM     15  C   UNL A   1      32.524  25.404  22.052  1.00  0.00     0.027 C 
ENDBRANCH  10  14
ENDBRANCH   8   9
ENDBRANCH   6   8
BRANCH   6  16
ATOM     16  C   UNL A   1      31.234  27.937  24.380  1.00  0.00    -0.032 A 
ATOM     17  C   UNL A   1      31.728  28.829  23.408  1.00  0.00     0.005 A 
ATOM     18  C   UNL A   1      29.883  27.552  24.249  1.00  0.00     0.005 A 
ATOM     19  C   UNL A   1      30.911  29.331  22.384  1.00  0.00     0.000 A 
ATOM     20  C   UNL A   1      29.069  28.048  23.224  1.00  0.00     0.000 A 
ATOM     21  C   UNL A   1      29.579  28.949  22.300  1.00  0.00     0.000 A 
ENDBRANCH   6  16
ENDBRANCH   3   6
ENDBRANCH   1   2
BRANCH   1  22
ATOM     22  C   UNL A   1      31.408  32.063  26.577  1.00  0.00     0.042 C 
BRANCH  22  23
ATOM     23  C   UNL A   1      32.624  32.683  27.249  1.00  0.00     0.118 C 
BRANCH  23  24
ATOM     24  N   UNL A   1      32.416  34.083  27.595  1.00  0.00    -0.352 N 
ATOM     25  C   UNL A   1      32.989  34.837  28.584  1.00  0.00     0.251 C 
ATOM     26  H   UNL A   1      31.765  34.560  27.031  1.00  0.00     0.163 HD
ATOM     27  O   UNL A   1      32.531  35.950  28.848  1.00  0.00    -0.269 OA
BRANCH  25  28
ATOM     28  C   UNL A   1      34.141  34.319  29.351  1.00  0.00     0.039 A 
ATOM     29  C   UNL A   1      33.905  33.637  30.548  1.00  0.00     0.014 A 
ATOM     30  C   UNL A   1      35.451  34.513  28.905  1.00  0.00     0.014 A 
ATOM     31  C   UNL A   1      34.977  33.095  31.260  1.00  0.00     0.010 A 
ATOM     32  C   UNL A   1      36.507  33.894  29.565  1.00  0.00     0.010 A 
ATOM     33  C   UNL A   1      36.284  33.186  30.754  1.00  0.00    -0.014 A 
BRANCH  33  34
ATOM     34  C   UNL A   1      37.431  32.559  31.459  1.00  0.00     0.031 A 
ATOM     35  C   UNL A   1      38.156  31.399  30.833  1.00  0.00     0.074 A 
ATOM     36  C   UNL A   1      37.782  32.996  32.684  1.00  0.00     0.049 A 
ATOM     37  N   UNL A   1      39.125  30.666  31.321  1.00  0.00    -0.248 NA
ATOM     38  C   UNL A   1      37.718  30.990  29.489  1.00  0.00     0.031 C 
ATOM     39  C   UNL A   1      37.131  34.084  33.415  1.00  0.00     0.029 A 
ATOM     40  N   UNL A   1      38.769  32.570  33.538  1.00  0.00    -0.354 N 
ATOM     41  C   UNL A   1      39.403  29.711  30.353  1.00  0.00     0.074 A 
ATOM     42  C   UNL A   1      38.462  29.916  29.273  1.00  0.00     0.031 C 
ATOM     43  C   UNL A   1      37.748  34.256  34.595  1.00  0.00     0.029 A 
ATOM     44  C   UNL A   1      38.809  33.262  34.724  1.00  0.00     0.049 A 
ATOM     45  H   UNL A   1      39.389  31.837  33.322  1.00  0.00     0.167 HD
ATOM     46  C   UNL A   1      40.374  28.767  30.350  1.00  0.00     0.037 A 
ATOM     47  C   UNL A   1      39.604  33.104  35.800  1.00  0.00     0.037 A 
ATOM     48  C   UNL A   1      41.322  28.579  31.416  1.00  0.00     0.049 A 
ATOM     49  C   UNL A   1      40.658  32.028  35.779  1.00  0.00     0.074 A 
ATOM     50  C   UNL A   1      42.369  27.677  31.490  1.00  0.00     0.029 A 
ATOM     51  N   UNL A   1      41.341  29.312  32.594  1.00  0.00    -0.354 N 
ATOM     52  N   UNL A   1      40.950  31.172  34.830  1.00  0.00    -0.248 NA
ATOM     53  C   UNL A   1      41.498  31.901  36.978  1.00  0.00     0.031 C 
ATOM     54  C   UNL A   1      42.992  27.832  32.733  1.00  0.00     0.029 A 
ATOM     55  C   UNL A   1      42.369  28.868  33.409  1.00  0.00     0.049 A 
ATOM     56  H   UNL A   1      40.715  30.038  32.818  1.00  0.00     0.167 HD
ATOM     57  C   UNL A   1      42.027  30.432  35.301  1.00  0.00     0.074 A 
ATOM     58  C   UNL A   1      42.347  30.952  36.614  1.00  0.00     0.031 C 
ATOM     59  C   UNL A   1      42.689  29.412  34.703  1.00  0.00     0.037 A 
BRANCH  46  60
ATOM     60  C   UNL A   1      40.473  27.869  29.151  1.00  0.00     0.064 A 
ATOM     61  C   UNL A   1      39.701  26.701  29.045  1.00  0.00     0.173 A 
ATOM     62  C   UNL A   1      41.301  28.208  28.070  1.00  0.00     0.173 A 
ATOM     63  F   UNL A   1      38.903  26.326  30.055  1.00  0.00    -0.203 F 
ATOM     64  C   UNL A   1      39.770  25.898  27.911  1.00  0.00     0.198 A 
ATOM     65  C   UNL A   1      41.344  27.418  26.924  1.00  0.00     0.198 A 
ATOM     66  F   UNL A   1      42.056  29.316  28.118  1.00  0.00    -0.203 F 
ATOM     67  F   UNL A   1      39.053  24.767  27.849  1.00  0.00    -0.200 F 
ATOM     68  C   UNL A   1      40.583  26.261  26.848  1.00  0.00     0.200 A 
ATOM     69  F   UNL A   1      42.118  27.779  25.892  1.00  0.00    -0.200 F 
ATOM     70  F   UNL A   1      40.634  25.495  25.749  1.00  0.00    -0.200 F 
ENDBRANCH  46  60
BRANCH  47  71
ATOM     71  C   UNL A   1      39.449  33.986  36.988  1.00  0.00     0.064 A 
ATOM     72  C   UNL A   1      40.076  35.240  37.041  1.00  0.00     0.173 A 
ATOM     73  C   UNL A   1      38.710  33.581  38.109  1.00  0.00     0.173 A 
ATOM     74  F   UNL A   1      40.811  35.665  36.002  1.00  0.00    -0.203 F 
ATOM     75  C   UNL A   1      40.000  36.037  38.182  1.00  0.00     0.198 A 
ATOM     76  C   UNL A   1      38.607  34.394  39.236  1.00  0.00     0.198 A 
ATOM     77  F   UNL A   1      38.086  32.394  38.110  1.00  0.00    -0.203 F 
ATOM     78  F   UNL A   1      40.665  37.200  38.228  1.00  0.00    -0.200 F 
ATOM     79  C   UNL A   1      39.264  35.614  39.277  1.00  0.00     0.200 A 
ATOM     80  F   UNL A   1      37.880  33.988  40.287  1.00  0.00    -0.200 F 
ATOM     81  F   UNL A   1      39.197  36.378  40.377  1.00  0.00    -0.200 F 
ENDBRANCH  47  71
BRANCH  59  82
ATOM     82  C   UNL A   1      43.858  28.824  35.438  1.00  0.00     0.064 A 
ATOM     83  C   UNL A   1      45.168  29.284  35.234  1.00  0.00     0.173 A 
ATOM     84  C   UNL A   1      43.659  27.810  36.388  1.00  0.00     0.173 A 
ATOM     85  F   UNL A   1      45.413  30.240  34.326  1.00  0.00    -0.203 F 
ATOM     86  C   UNL A   1      46.237  28.730  35.931  1.00  0.00     0.198 A 
ATOM     87  C   UNL A   1      44.726  27.282  37.109  1.00  0.00     0.198 A 
ATOM     88  F   UNL A   1      42.425  27.339  36.627  1.00  0.00    -0.203 F 
ATOM     89  F   UNL A   1      47.486  29.147  35.682  1.00  0.00    -0.200 F 
ATOM     90  C   UNL A   1      46.016  27.735  36.874  1.00  0.00     0.200 A 
ATOM     91  F   UNL A   1      44.507  26.333  38.029  1.00  0.00    -0.200 F 
ATOM     92  F   UNL A   1      47.045  27.210  37.550  1.00  0.00    -0.200 F 
ENDBRANCH  59  82
ENDBRANCH  33  34
ENDBRANCH  25  28
ENDBRANCH  23  24
ENDBRANCH  22  23
ENDBRANCH   1  22
TORSDOF 15
ENDMDL
MODEL 3
REMARK VINA RESULT:     -11.6      5.592     11.108
REMARK SMILES CCN(CC)C(=O)C[C@](C)(C(=O)NCCCNC(=O)c1ccc(-c2c3nc(c(-c4c(F)c(F)c(F)c(F)c4F)c4ccc([nH]4)c(-c4c(F)c(F)c(F)c(F)c4F)c4nc(c(-c5c(F)c(F)c(F)c(F)c5F)c5ccc2[nH]5)C=C4)C=C3)cc1)c1ccccc1
REMARK SMILES IDX 14 1 13 2 11 3 12 4 9 6 10 7 8 8 6 9 3 10 7 11 2 12 1 13
REMARK SMILES IDX 4 14 5 15 83 16 84 17 88 18 85 19 87 20 86 21 15 22 16 23
REMARK SMILES IDX 17 24 18 25 19 27 20 28 21 29 82 30 22 31 81 32 23 33 24 34
REMARK SMILES IDX 25 35 75 36 26 37 80 38 74 39 76 40 27 41 79 42 73 43 72 44
REMARK SMILES IDX 28 46 60 47 40 48 59 49 41 50 44 51 58 52 77 53 42 54 43 55
REMARK SMILES IDX 57 57 78 58 45 59 29 60 30 61 38 62 31 63 32 64 36 65 39 66
REMARK SMILES IDX 33 67 34 68 37 69 35 70 61 71 62 72 70 73 63 74 64 75 68 76
REMARK SMILES IDX 71 77 65 78 66 79 69 80 67 81 46 82 47 83 55 84 48 85 49 86
REMARK SMILES IDX 53 87 56 88 50 89 51 90 54 91 52 92
REMARK H PARENT 13 5 17 26 76 45 44 56
REMARK Flexibility Score: inf
ROOT
ATOM      1  C   UNL A   1      31.715  29.929  26.012  1.00  0.00     0.117 C 
ENDROOT
BRANCH   1   2
ATOM      2  N   UNL A   1      32.542  29.802  24.821  1.00  0.00    -0.355 N 
ATOM      3  C   UNL A   1      32.601  28.900  23.800  1.00  0.00     0.230 C 
ATOM      4  O   UNL A   1      33.669  28.938  23.180  1.00  0.00    -0.274 OA
ATOM      5  H   UNL A   1      33.203  30.527  24.733  1.00  0.00     0.163 HD
BRANCH   3   6
ATOM      6  C   UNL A   1      31.427  27.917  23.449  1.00  0.00     0.080 C 
ATOM      7  C   UNL A   1      31.994  26.945  22.388  1.00  0.00     0.027 C 
BRANCH   6   8
ATOM      8  C   UNL A   1      31.046  27.187  24.768  1.00  0.00     0.121 C 
BRANCH   8   9
ATOM      9  C   UNL A   1      32.014  26.216  25.411  1.00  0.00     0.223 C 
ATOM     10  N   UNL A   1      31.883  24.840  25.257  1.00  0.00    -0.343 N 
ATOM     11  O   UNL A   1      32.893  26.708  26.130  1.00  0.00    -0.275 OA
BRANCH  10  12
ATOM     12  C   UNL A   1      32.908  24.000  25.903  1.00  0.00     0.116 C 
ATOM     13  C   UNL A   1      32.396  23.117  27.041  1.00  0.00     0.027 C 
ENDBRANCH  10  12
BRANCH  10  14
ATOM     14  C   UNL A   1      30.896  24.127  24.427  1.00  0.00     0.116 C 
ATOM     15  C   UNL A   1      31.404  23.107  23.418  1.00  0.00     0.027 C 
ENDBRANCH  10  14
ENDBRANCH   8   9
ENDBRANCH   6   8
BRANCH   6  16
ATOM     16  C   UNL A   1      30.175  28.637  22.865  1.00  0.00    -0.032 A 
ATOM     17  C   UNL A   1      30.261  29.766  22.027  1.00  0.00     0.005 A 
ATOM     18  C   UNL A   1      28.878  28.237  23.249  1.00  0.00     0.005 A 
ATOM     19  C   UNL A   1      29.119  30.471  21.622  1.00  0.00     0.000 A 
ATOM     20  C   UNL A   1      27.738  28.937  22.840  1.00  0.00     0.000 A 
ATOM     21  C   UNL A   1      27.859  30.063  22.038  1.00  0.00     0.000 A 
ENDBRANCH   6  16
ENDBRANCH   3   6
ENDBRANCH   1   2
BRANCH   1  22
ATOM     22  C   UNL A   1      31.485  31.391  26.376  1.00  0.00     0.042 C 
BRANCH  22  23
ATOM     23  C   UNL A   1      32.730  32.096  26.894  1.00  0.00     0.118 C 
BRANCH  23  24
ATOM     24  N   UNL A   1      32.474  33.484  27.253  1.00  0.00    -0.352 N 
ATOM     25  C   UNL A   1      33.031  34.250  28.242  1.00  0.00     0.251 C 
ATOM     26  H   UNL A   1      31.799  33.941  26.700  1.00  0.00     0.163 HD
ATOM     27  O   UNL A   1      32.535  35.344  28.520  1.00  0.00    -0.269 OA
BRANCH  25  28
ATOM     28  C   UNL A   1      34.209  33.769  28.992  1.00  0.00     0.039 A 
ATOM     29  C   UNL A   1      34.025  32.836  30.016  1.00  0.00     0.014 A 
ATOM     30  C   UNL A   1      35.491  34.242  28.701  1.00  0.00     0.014 A 
ATOM     31  C   UNL A   1      35.132  32.330  30.700  1.00  0.00     0.010 A 
ATOM     32  C   UNL A   1      36.599  33.670  29.319  1.00  0.00     0.010 A 
ATOM     33  C   UNL A   1      36.431  32.715  30.331  1.00  0.00    -0.014 A 
BRANCH  33  34
ATOM     34  C   UNL A   1      37.627  32.140  30.999  1.00  0.00     0.031 A 
ATOM     35  C   UNL A   1      38.417  31.053  30.324  1.00  0.00     0.074 A 
ATOM     36  C   UNL A   1      37.966  32.555  32.236  1.00  0.00     0.049 A 
ATOM     37  N   UNL A   1      39.438  30.368  30.773  1.00  0.00    -0.248 NA
ATOM     38  C   UNL A   1      37.987  30.664  28.971  1.00  0.00     0.031 C 
ATOM     39  C   UNL A   1      37.256  33.572  33.013  1.00  0.00     0.029 A 
ATOM     40  N   UNL A   1      38.991  32.165  33.062  1.00  0.00    -0.354 N 
ATOM     41  C   UNL A   1      39.764  29.468  29.768  1.00  0.00     0.074 A 
ATOM     42  C   UNL A   1      38.797  29.648  28.707  1.00  0.00     0.031 C 
ATOM     43  C   UNL A   1      37.877  33.742  34.191  1.00  0.00     0.029 A 
ATOM     44  C   UNL A   1      39.002  32.816  34.272  1.00  0.00     0.049 A 
ATOM     45  H   UNL A   1      39.654  31.482  32.812  1.00  0.00     0.167 HD
ATOM     46  C   UNL A   1      40.794  28.590  29.719  1.00  0.00     0.037 A 
ATOM     47  C   UNL A   1      39.822  32.672  35.331  1.00  0.00     0.037 A 
ATOM     48  C   UNL A   1      41.768  28.427  30.767  1.00  0.00     0.049 A 
ATOM     49  C   UNL A   1      40.942  31.669  35.259  1.00  0.00     0.074 A 
ATOM     50  C   UNL A   1      42.872  27.594  30.796  1.00  0.00     0.029 A 
ATOM     51  N   UNL A   1      41.755  29.117  31.970  1.00  0.00    -0.354 N 
ATOM     52  N   UNL A   1      41.276  30.867  34.276  1.00  0.00    -0.248 NA
ATOM     53  C   UNL A   1      41.806  31.555  36.442  1.00  0.00     0.031 C 
ATOM     54  C   UNL A   1      43.501  27.744  32.035  1.00  0.00     0.029 A 
ATOM     55  C   UNL A   1      42.822  28.713  32.756  1.00  0.00     0.049 A 
ATOM     56  H   UNL A   1      41.086  29.793  32.228  1.00  0.00     0.167 HD
ATOM     57  C   UNL A   1      42.405  30.184  34.708  1.00  0.00     0.074 A 
ATOM     58  C   UNL A   1      42.709  30.677  36.034  1.00  0.00     0.031 C 
ATOM     59  C   UNL A   1      43.124  29.231  34.065  1.00  0.00     0.037 A 
BRANCH  46  60
ATOM     60  C   UNL A   1      40.934  27.743  28.488  1.00  0.00     0.064 A 
ATOM     61  C   UNL A   1      40.248  26.526  28.354  1.00  0.00     0.173 A 
ATOM     62  C   UNL A   1      41.712  28.179  27.405  1.00  0.00     0.173 A 
ATOM     63  F   UNL A   1      39.501  26.058  29.365  1.00  0.00    -0.203 F 
ATOM     64  C   UNL A   1      40.352  25.769  27.191  1.00  0.00     0.198 A 
ATOM     65  C   UNL A   1      41.789  27.435  26.231  1.00  0.00     0.198 A 
ATOM     66  F   UNL A   1      42.385  29.338  27.478  1.00  0.00    -0.203 F 
ATOM     67  F   UNL A   1      39.720  24.590  27.102  1.00  0.00    -0.200 F 
ATOM     68  C   UNL A   1      41.114  26.227  26.127  1.00  0.00     0.200 A 
ATOM     69  F   UNL A   1      42.514  27.887  25.198  1.00  0.00    -0.200 F 
ATOM     70  F   UNL A   1      41.199  25.506  25.001  1.00  0.00    -0.200 F 
ENDBRANCH  46  60
BRANCH  47  71
ATOM     71  C   UNL A   1      39.627  33.499  36.552  1.00  0.00     0.064 A 
ATOM     72  C   UNL A   1      38.779  33.071  37.585  1.00  0.00     0.173 A 
ATOM     73  C   UNL A   1      40.246  34.750  36.696  1.00  0.00     0.173 A 
ATOM     74  F   UNL A   1      38.148  31.892  37.486  1.00  0.00    -0.203 F 
ATOM     75  C   UNL A   1      38.530  33.877  38.695  1.00  0.00     0.198 A 
ATOM     76  C   UNL A   1      40.023  35.539  37.823  1.00  0.00     0.198 A 
ATOM     77  F   UNL A   1      41.071  35.206  35.742  1.00  0.00    -0.203 F 
ATOM     78  F   UNL A   1      37.664  33.470  39.633  1.00  0.00    -0.200 F 
ATOM     79  C   UNL A   1      39.154  35.109  38.814  1.00  0.00     0.200 A 
ATOM     80  F   UNL A   1      40.641  36.723  37.941  1.00  0.00    -0.200 F 
ATOM     81  F   UNL A   1      38.909  35.886  39.878  1.00  0.00    -0.200 F 
ENDBRANCH  47  71
BRANCH  59  82
ATOM     82  C   UNL A   1      44.339  28.695  34.765  1.00  0.00     0.064 A 
ATOM     83  C   UNL A   1      44.281  27.554  35.579  1.00  0.00     0.173 A 
ATOM     84  C   UNL A   1      45.587  29.312  34.587  1.00  0.00     0.173 A 
ATOM     85  F   UNL A   1      43.110  26.937  35.793  1.00  0.00    -0.203 F 
ATOM     86  C   UNL A   1      45.422  27.069  36.213  1.00  0.00     0.198 A 
ATOM     87  C   UNL A   1      46.731  28.804  35.194  1.00  0.00     0.198 A 
ATOM     88  F   UNL A   1      45.699  30.402  33.812  1.00  0.00    -0.203 F 
ATOM     89  F   UNL A   1      45.334  26.010  37.028  1.00  0.00    -0.200 F 
ATOM     90  C   UNL A   1      46.647  27.689  36.014  1.00  0.00     0.200 A 
ATOM     91  F   UNL A   1      47.917  29.395  34.988  1.00  0.00    -0.200 F 
ATOM     92  F   UNL A   1      47.745  27.215  36.617  1.00  0.00    -0.200 F 
ENDBRANCH  59  82
ENDBRANCH  33  34
ENDBRANCH  25  28
ENDBRANCH  23  24
ENDBRANCH  22  23
ENDBRANCH   1  22
TORSDOF 15
ENDMDL
