MODEL 1
REMARK VINA RESULT:     -13.3      0.000      0.000
REMARK SMILES O=C(NCCCNC(=O)c1ccc(-c2c3nc(c(-c4c(F)c(F)c(F)c(F)c4F)c4ccc([nH]4)c(-c4c(F)c(F)c(F)c(F)c4F)c4nc(c(-c5c(F)c(F)c(F)c(F)c5F)c5ccc2[nH]5)C=C4)C=C3)cc1)C1=Cc2c(Cl)ccc(Cl)c2O[C@@H]1C(F)(F)F
REMARK SMILES IDX 5 1 4 2 3 3 1 4 2 5 73 7 74 8 84 9 75 10 83 11 76 12 82 13
REMARK SMILES IDX 77 14 78 15 80 16 79 17 81 18 85 19 86 20 87 21 88 22 6 23
REMARK SMILES IDX 7 24 8 25 9 27 10 28 11 29 72 30 12 31 71 32 13 33 14 34
REMARK SMILES IDX 15 35 65 36 16 37 70 38 64 39 66 40 17 41 69 42 63 43 62 44
REMARK SMILES IDX 18 46 50 47 30 48 49 49 31 50 34 51 48 52 67 53 32 54 33 55
REMARK SMILES IDX 47 57 68 58 35 59 19 60 20 61 28 62 21 63 22 64 26 65 29 66
REMARK SMILES IDX 23 67 24 68 27 69 25 70 51 71 52 72 60 73 53 74 54 75 58 76
REMARK SMILES IDX 61 77 55 78 56 79 59 80 57 81 36 82 37 83 45 84 38 85 39 86
REMARK SMILES IDX 43 87 46 88 40 89 41 90 44 91 42 92
REMARK H PARENT 3 6 7 26 66 45 34 56
REMARK Flexibility Score: inf
ROOT
ATOM      1  C   UNL A   1      31.794  28.572  25.720  1.00  0.00     0.042 C 
ENDROOT
BRANCH   1   2
ATOM      2  C   UNL A   1      31.980  27.483  26.766  1.00  0.00     0.118 C 
BRANCH   2   3
ATOM      3  N   UNL A   1      30.935  26.459  26.734  1.00  0.00    -0.352 N 
ATOM      4  O   UNL A   1      30.076  24.374  26.522  1.00  0.00    -0.270 OA
ATOM      5  C   UNL A   1      30.969  25.168  26.262  1.00  0.00     0.251 C 
ATOM      6  H   UNL A   1      30.069  26.739  27.111  1.00  0.00     0.163 HD
BRANCH   5   7
ATOM      7  C   UNL A   1      32.177  24.745  25.528  1.00  0.00     0.067 C 
ATOM      8  C   UNL A   1      33.079  23.970  26.142  1.00  0.00     0.027 C 
ATOM      9  C   UNL A   1      32.149  24.895  24.044  1.00  0.00     0.314 C 
ATOM     10  C   UNL A   1      33.368  22.726  25.386  1.00  0.00     0.037 A 
ATOM     11  O   UNL A   1      32.255  23.620  23.380  1.00  0.00    -0.474 OA
ATOM     12  C   UNL A   1      33.786  21.567  26.073  1.00  0.00     0.052 A 
ATOM     13  C   UNL A   1      32.823  22.579  24.084  1.00  0.00     0.148 A 
ATOM     14  Cl  UNL A   1      34.380  21.608  27.700  1.00  0.00    -0.084 Cl
ATOM     15  C   UNL A   1      33.601  20.300  25.509  1.00  0.00     0.023 A 
ATOM     16  C   UNL A   1      32.655  21.299  23.527  1.00  0.00     0.083 A 
ATOM     17  C   UNL A   1      33.021  20.165  24.248  1.00  0.00     0.026 A 
ATOM     18  Cl  UNL A   1      31.843  21.076  22.018  1.00  0.00    -0.080 Cl
BRANCH   9  19
ATOM     19  C   UNL A   1      33.249  25.858  23.570  1.00  0.00     0.429 C 
ATOM     20  F   UNL A   1      34.092  25.249  22.703  1.00  0.00    -0.167 F 
ATOM     21  F   UNL A   1      32.737  26.934  22.929  1.00  0.00    -0.167 F 
ATOM     22  F   UNL A   1      34.000  26.322  24.598  1.00  0.00    -0.167 F 
ENDBRANCH   9  19
ENDBRANCH   5   7
ENDBRANCH   2   3
ENDBRANCH   1   2
BRANCH   1  23
ATOM     23  C   UNL A   1      32.917  29.598  25.750  1.00  0.00     0.118 C 
BRANCH  23  24
ATOM     24  N   UNL A   1      32.533  30.881  26.339  1.00  0.00    -0.352 N 
ATOM     25  C   UNL A   1      33.206  31.708  27.222  1.00  0.00     0.251 C 
ATOM     26  H   UNL A   1      31.649  31.212  26.060  1.00  0.00     0.163 HD
ATOM     27  O   UNL A   1      32.658  32.695  27.677  1.00  0.00    -0.269 OA
BRANCH  25  28
ATOM     28  C   UNL A   1      34.577  31.354  27.656  1.00  0.00     0.039 A 
ATOM     29  C   UNL A   1      35.551  32.355  27.741  1.00  0.00     0.014 A 
ATOM     30  C   UNL A   1      34.882  30.055  28.047  1.00  0.00     0.014 A 
ATOM     31  C   UNL A   1      36.777  32.078  28.355  1.00  0.00     0.010 A 
ATOM     32  C   UNL A   1      36.035  29.819  28.780  1.00  0.00     0.010 A 
ATOM     33  C   UNL A   1      36.995  30.828  28.953  1.00  0.00    -0.014 A 
BRANCH  33  34
ATOM     34  C   UNL A   1      38.202  30.513  29.765  1.00  0.00     0.031 A 
ATOM     35  C   UNL A   1      39.232  29.567  29.210  1.00  0.00     0.074 A 
ATOM     36  C   UNL A   1      38.301  30.944  31.039  1.00  0.00     0.049 A 
ATOM     37  N   UNL A   1      40.194  28.927  29.825  1.00  0.00    -0.248 NA
ATOM     38  C   UNL A   1      39.116  29.246  27.779  1.00  0.00     0.031 C 
ATOM     39  C   UNL A   1      37.354  31.828  31.719  1.00  0.00     0.029 A 
ATOM     40  N   UNL A   1      39.245  30.670  31.999  1.00  0.00    -0.354 N 
ATOM     41  C   UNL A   1      40.749  28.083  28.871  1.00  0.00     0.074 A 
ATOM     42  C   UNL A   1      39.981  28.251  27.657  1.00  0.00     0.031 C 
ATOM     43  C   UNL A   1      37.780  32.051  32.974  1.00  0.00     0.029 A 
ATOM     44  C   UNL A   1      38.995  31.279  33.206  1.00  0.00     0.049 A 
ATOM     45  H   UNL A   1      40.024  30.092  31.840  1.00  0.00     0.167 HD
ATOM     46  C   UNL A   1      41.817  27.260  28.988  1.00  0.00     0.037 A 
ATOM     47  C   UNL A   1      39.665  31.208  34.372  1.00  0.00     0.037 A 
ATOM     48  C   UNL A   1      42.625  27.159  30.174  1.00  0.00     0.049 A 
ATOM     49  C   UNL A   1      40.878  30.324  34.469  1.00  0.00     0.074 A 
ATOM     50  C   UNL A   1      43.772  26.415  30.379  1.00  0.00     0.029 A 
ATOM     51  N   UNL A   1      42.375  27.847  31.354  1.00  0.00    -0.354 N 
ATOM     52  N   UNL A   1      41.410  29.548  33.557  1.00  0.00    -0.248 NA
ATOM     53  C   UNL A   1      41.582  30.303  35.759  1.00  0.00     0.031 C 
ATOM     54  C   UNL A   1      44.206  26.635  31.691  1.00  0.00     0.029 A 
ATOM     55  C   UNL A   1      43.349  27.545  32.290  1.00  0.00     0.049 A 
ATOM     56  H   UNL A   1      41.618  28.458  31.502  1.00  0.00     0.167 HD
ATOM     57  C   UNL A   1      42.528  28.975  34.146  1.00  0.00     0.074 A 
ATOM     58  C   UNL A   1      42.600  29.495  35.496  1.00  0.00     0.031 C 
ATOM     59  C   UNL A   1      43.417  28.100  33.618  1.00  0.00     0.037 A 
BRANCH  46  60
ATOM     60  C   UNL A   1      42.176  26.420  27.796  1.00  0.00     0.064 A 
ATOM     61  C   UNL A   1      41.579  25.170  27.567  1.00  0.00     0.173 A 
ATOM     62  C   UNL A   1      43.136  26.865  26.875  1.00  0.00     0.173 A 
ATOM     63  F   UNL A   1      40.665  24.692  28.424  1.00  0.00    -0.203 F 
ATOM     64  C   UNL A   1      41.968  24.376  26.492  1.00  0.00     0.198 A 
ATOM     65  C   UNL A   1      43.495  26.083  25.779  1.00  0.00     0.198 A 
ATOM     66  F   UNL A   1      43.735  28.054  27.041  1.00  0.00    -0.203 F 
ATOM     67  F   UNL A   1      41.438  23.154  26.340  1.00  0.00    -0.200 F 
ATOM     68  C   UNL A   1      42.921  24.835  25.597  1.00  0.00     0.200 A 
ATOM     69  F   UNL A   1      44.409  26.533  24.908  1.00  0.00    -0.200 F 
ATOM     70  F   UNL A   1      43.298  24.066  24.565  1.00  0.00    -0.200 F 
ENDBRANCH  46  60
BRANCH  47  71
ATOM     71  C   UNL A   1      39.229  32.030  35.531  1.00  0.00     0.064 A 
ATOM     72  C   UNL A   1      39.635  33.368  35.641  1.00  0.00     0.173 A 
ATOM     73  C   UNL A   1      38.399  31.515  36.536  1.00  0.00     0.173 A 
ATOM     74  F   UNL A   1      40.446  33.899  34.715  1.00  0.00    -0.203 F 
ATOM     75  C   UNL A   1      39.241  34.154  36.721  1.00  0.00     0.198 A 
ATOM     76  C   UNL A   1      37.984  32.311  37.603  1.00  0.00     0.198 A 
ATOM     77  F   UNL A   1      37.976  30.244  36.473  1.00  0.00    -0.203 F 
ATOM     78  F   UNL A   1      39.675  35.418  36.820  1.00  0.00    -0.200 F 
ATOM     79  C   UNL A   1      38.411  33.628  37.698  1.00  0.00     0.200 A 
ATOM     80  F   UNL A   1      37.172  31.803  38.539  1.00  0.00    -0.200 F 
ATOM     81  F   UNL A   1      38.027  34.387  38.734  1.00  0.00    -0.200 F 
ENDBRANCH  47  71
BRANCH  59  82
ATOM     82  C   UNL A   1      44.579  27.695  34.474  1.00  0.00     0.064 A 
ATOM     83  C   UNL A   1      44.534  26.555  35.289  1.00  0.00     0.173 A 
ATOM     84  C   UNL A   1      45.774  28.427  34.427  1.00  0.00     0.173 A 
ATOM     85  F   UNL A   1      43.407  25.833  35.377  1.00  0.00    -0.203 F 
ATOM     86  C   UNL A   1      45.642  26.171  36.038  1.00  0.00     0.198 A 
ATOM     87  C   UNL A   1      46.888  28.026  35.159  1.00  0.00     0.198 A 
ATOM     88  F   UNL A   1      45.867  29.523  33.658  1.00  0.00    -0.203 F 
ATOM     89  F   UNL A   1      45.567  25.097  36.836  1.00  0.00    -0.200 F 
ATOM     90  C   UNL A   1      46.820  26.901  35.967  1.00  0.00     0.200 A 
ATOM     91  F   UNL A   1      48.029  28.725  35.079  1.00  0.00    -0.200 F 
ATOM     92  F   UNL A   1      47.889  26.521  36.679  1.00  0.00    -0.200 F 
ENDBRANCH  59  82
ENDBRANCH  33  34
ENDBRANCH  25  28
ENDBRANCH  23  24
ENDBRANCH   1  23
TORSDOF 11
ENDMDL
MODEL 2
REMARK VINA RESULT:     -13.3      1.008      1.611
REMARK SMILES O=C(NCCCNC(=O)c1ccc(-c2c3nc(c(-c4c(F)c(F)c(F)c(F)c4F)c4ccc([nH]4)c(-c4c(F)c(F)c(F)c(F)c4F)c4nc(c(-c5c(F)c(F)c(F)c(F)c5F)c5ccc2[nH]5)C=C4)C=C3)cc1)C1=Cc2c(Cl)ccc(Cl)c2O[C@@H]1C(F)(F)F
REMARK SMILES IDX 5 1 4 2 3 3 1 4 2 5 73 7 74 8 84 9 75 10 83 11 76 12 82 13
REMARK SMILES IDX 77 14 78 15 80 16 79 17 81 18 85 19 86 20 87 21 88 22 6 23
REMARK SMILES IDX 7 24 8 25 9 27 10 28 11 29 72 30 12 31 71 32 13 33 14 34
REMARK SMILES IDX 15 35 65 36 16 37 70 38 64 39 66 40 17 41 69 42 63 43 62 44
REMARK SMILES IDX 18 46 50 47 30 48 49 49 31 50 34 51 48 52 67 53 32 54 33 55
REMARK SMILES IDX 47 57 68 58 35 59 19 60 20 61 28 62 21 63 22 64 26 65 29 66
REMARK SMILES IDX 23 67 24 68 27 69 25 70 51 71 52 72 60 73 53 74 54 75 58 76
REMARK SMILES IDX 61 77 55 78 56 79 59 80 57 81 36 82 37 83 45 84 38 85 39 86
REMARK SMILES IDX 43 87 46 88 40 89 41 90 44 91 42 92
REMARK H PARENT 3 6 7 26 66 45 34 56
REMARK Flexibility Score: inf
ROOT
ATOM      1  C   UNL A   1      31.827  28.140  26.922  1.00  0.00     0.042 C 
ENDROOT
BRANCH   1   2
ATOM      2  C   UNL A   1      31.611  26.880  26.097  1.00  0.00     0.118 C 
BRANCH   2   3
ATOM      3  N   UNL A   1      31.352  25.690  26.908  1.00  0.00    -0.352 N 
ATOM      4  O   UNL A   1      31.653  23.566  27.633  1.00  0.00    -0.270 OA
ATOM      5  C   UNL A   1      31.769  24.391  26.738  1.00  0.00     0.251 C 
ATOM      6  H   UNL A   1      30.790  25.844  27.702  1.00  0.00     0.163 HD
BRANCH   5   7
ATOM      7  C   UNL A   1      32.463  24.059  25.479  1.00  0.00     0.067 C 
ATOM      8  C   UNL A   1      33.792  24.206  25.404  1.00  0.00     0.027 C 
ATOM      9  C   UNL A   1      31.707  23.237  24.491  1.00  0.00     0.314 C 
ATOM     10  C   UNL A   1      34.479  22.964  24.975  1.00  0.00     0.037 A 
ATOM     11  O   UNL A   1      32.344  21.966  24.259  1.00  0.00    -0.474 OA
ATOM     12  C   UNL A   1      35.806  22.717  25.382  1.00  0.00     0.052 A 
ATOM     13  C   UNL A   1      33.690  21.865  24.544  1.00  0.00     0.148 A 
ATOM     14  Cl  UNL A   1      36.835  23.958  26.015  1.00  0.00    -0.084 Cl
ATOM     15  C   UNL A   1      36.307  21.411  25.424  1.00  0.00     0.023 A 
ATOM     16  C   UNL A   1      34.212  20.561  24.581  1.00  0.00     0.083 A 
ATOM     17  C   UNL A   1      35.506  20.335  25.042  1.00  0.00     0.026 A 
ATOM     18  Cl  UNL A   1      33.225  19.188  24.223  1.00  0.00    -0.080 Cl
BRANCH   9  19
ATOM     19  C   UNL A   1      31.513  24.007  23.173  1.00  0.00     0.429 C 
ATOM     20  F   UNL A   1      30.217  23.989  22.782  1.00  0.00    -0.167 F 
ATOM     21  F   UNL A   1      31.871  25.306  23.290  1.00  0.00    -0.167 F 
ATOM     22  F   UNL A   1      32.243  23.477  22.161  1.00  0.00    -0.167 F 
ENDBRANCH   9  19
ENDBRANCH   5   7
ENDBRANCH   2   3
ENDBRANCH   1   2
BRANCH   1  23
ATOM     23  C   UNL A   1      32.704  29.156  26.205  1.00  0.00     0.118 C 
BRANCH  23  24
ATOM     24  N   UNL A   1      32.394  30.547  26.537  1.00  0.00    -0.352 N 
ATOM     25  C   UNL A   1      33.141  31.507  27.196  1.00  0.00     0.251 C 
ATOM     26  H   UNL A   1      31.506  30.850  26.241  1.00  0.00     0.163 HD
ATOM     27  O   UNL A   1      32.651  32.589  27.465  1.00  0.00    -0.269 OA
BRANCH  25  28
ATOM     28  C   UNL A   1      34.525  31.193  27.624  1.00  0.00     0.039 A 
ATOM     29  C   UNL A   1      35.465  32.224  27.721  1.00  0.00     0.014 A 
ATOM     30  C   UNL A   1      34.873  29.900  27.995  1.00  0.00     0.014 A 
ATOM     31  C   UNL A   1      36.700  31.979  28.330  1.00  0.00     0.010 A 
ATOM     32  C   UNL A   1      36.034  29.691  28.723  1.00  0.00     0.010 A 
ATOM     33  C   UNL A   1      36.960  30.728  28.910  1.00  0.00    -0.014 A 
BRANCH  33  34
ATOM     34  C   UNL A   1      38.178  30.442  29.716  1.00  0.00     0.031 A 
ATOM     35  C   UNL A   1      39.216  29.502  29.166  1.00  0.00     0.074 A 
ATOM     36  C   UNL A   1      38.283  30.894  30.983  1.00  0.00     0.049 A 
ATOM     37  N   UNL A   1      40.193  28.885  29.782  1.00  0.00    -0.248 NA
ATOM     38  C   UNL A   1      39.093  29.158  27.740  1.00  0.00     0.031 C 
ATOM     39  C   UNL A   1      37.330  31.775  31.658  1.00  0.00     0.029 A 
ATOM     40  N   UNL A   1      39.238  30.647  31.938  1.00  0.00    -0.354 N 
ATOM     41  C   UNL A   1      40.751  28.034  28.836  1.00  0.00     0.074 A 
ATOM     42  C   UNL A   1      39.970  28.173  27.626  1.00  0.00     0.031 C 
ATOM     43  C   UNL A   1      37.763  32.022  32.905  1.00  0.00     0.029 A 
ATOM     44  C   UNL A   1      38.990  31.270  33.138  1.00  0.00     0.049 A 
ATOM     45  H   UNL A   1      40.024  30.077  31.780  1.00  0.00     0.167 HD
ATOM     46  C   UNL A   1      41.831  27.227  28.956  1.00  0.00     0.037 A 
ATOM     47  C   UNL A   1      39.671  31.225  34.299  1.00  0.00     0.037 A 
ATOM     48  C   UNL A   1      42.650  27.154  30.135  1.00  0.00     0.049 A 
ATOM     49  C   UNL A   1      40.898  30.359  34.399  1.00  0.00     0.074 A 
ATOM     50  C   UNL A   1      43.809  26.429  30.342  1.00  0.00     0.029 A 
ATOM     51  N   UNL A   1      42.401  27.856  31.308  1.00  0.00    -0.354 N 
ATOM     52  N   UNL A   1      41.432  29.577  33.493  1.00  0.00    -0.248 NA
ATOM     53  C   UNL A   1      41.613  30.368  35.682  1.00  0.00     0.031 C 
ATOM     54  C   UNL A   1      44.251  26.674  31.647  1.00  0.00     0.029 A 
ATOM     55  C   UNL A   1      43.387  27.582  32.240  1.00  0.00     0.049 A 
ATOM     56  H   UNL A   1      41.637  28.459  31.453  1.00  0.00     0.167 HD
ATOM     57  C   UNL A   1      42.563  29.028  34.082  1.00  0.00     0.074 A 
ATOM     58  C   UNL A   1      42.639  29.569  35.423  1.00  0.00     0.031 C 
ATOM     59  C   UNL A   1      43.459  28.157  33.558  1.00  0.00     0.037 A 
BRANCH  46  60
ATOM     60  C   UNL A   1      42.191  26.375  27.773  1.00  0.00     0.064 A 
ATOM     61  C   UNL A   1      41.584  25.128  27.549  1.00  0.00     0.173 A 
ATOM     62  C   UNL A   1      43.163  26.802  26.856  1.00  0.00     0.173 A 
ATOM     63  F   UNL A   1      40.660  24.665  28.403  1.00  0.00    -0.203 F 
ATOM     64  C   UNL A   1      41.973  24.322  26.483  1.00  0.00     0.198 A 
ATOM     65  C   UNL A   1      43.523  26.009  25.769  1.00  0.00     0.198 A 
ATOM     66  F   UNL A   1      43.771  27.988  27.017  1.00  0.00    -0.203 F 
ATOM     67  F   UNL A   1      41.434  23.103  26.337  1.00  0.00    -0.200 F 
ATOM     68  C   UNL A   1      42.938  24.764  25.592  1.00  0.00     0.200 A 
ATOM     69  F   UNL A   1      44.447  26.443  24.901  1.00  0.00    -0.200 F 
ATOM     70  F   UNL A   1      43.315  23.984  24.570  1.00  0.00    -0.200 F 
ENDBRANCH  46  60
BRANCH  47  71
ATOM     71  C   UNL A   1      39.234  32.059  35.450  1.00  0.00     0.064 A 
ATOM     72  C   UNL A   1      38.424  31.510  36.454  1.00  0.00     0.173 A 
ATOM     73  C   UNL A   1      39.617  33.401  35.581  1.00  0.00     0.173 A 
ATOM     74  F   UNL A   1      38.015  30.236  36.361  1.00  0.00    -0.203 F 
ATOM     75  C   UNL A   1      38.000  32.275  37.538  1.00  0.00     0.198 A 
ATOM     76  C   UNL A   1      39.213  34.159  36.679  1.00  0.00     0.198 A 
ATOM     77  F   UNL A   1      40.398  33.971  34.652  1.00  0.00    -0.203 F 
ATOM     78  F   UNL A   1      37.195  31.734  38.462  1.00  0.00    -0.200 F 
ATOM     79  C   UNL A   1      38.400  33.597  37.653  1.00  0.00     0.200 A 
ATOM     80  F   UNL A   1      39.611  35.432  36.795  1.00  0.00    -0.200 F 
ATOM     81  F   UNL A   1      37.997  34.332  38.699  1.00  0.00    -0.200 F 
ENDBRANCH  47  71
BRANCH  59  82
ATOM     82  C   UNL A   1      44.634  27.781  34.410  1.00  0.00     0.064 A 
ATOM     83  C   UNL A   1      44.613  26.650  35.238  1.00  0.00     0.173 A 
ATOM     84  C   UNL A   1      45.816  28.532  34.346  1.00  0.00     0.173 A 
ATOM     85  F   UNL A   1      43.498  25.911  35.343  1.00  0.00    -0.203 F 
ATOM     86  C   UNL A   1      45.733  26.292  35.983  1.00  0.00     0.198 A 
ATOM     87  C   UNL A   1      46.942  28.156  35.074  1.00  0.00     0.198 A 
ATOM     88  F   UNL A   1      45.886  29.620  33.564  1.00  0.00    -0.203 F 
ATOM     89  F   UNL A   1      45.681  25.226  36.794  1.00  0.00    -0.200 F 
ATOM     90  C   UNL A   1      46.898  27.040  35.895  1.00  0.00     0.200 A 
ATOM     91  F   UNL A   1      48.070  28.873  34.977  1.00  0.00    -0.200 F 
ATOM     92  F   UNL A   1      47.979  26.686  36.603  1.00  0.00    -0.200 F 
ENDBRANCH  59  82
ENDBRANCH  33  34
ENDBRANCH  25  28
ENDBRANCH  23  24
ENDBRANCH   1  23
TORSDOF 11
ENDMDL
MODEL 3
REMARK VINA RESULT:     -13.2      1.692      2.636
REMARK SMILES O=C(NCCCNC(=O)c1ccc(-c2c3nc(c(-c4c(F)c(F)c(F)c(F)c4F)c4ccc([nH]4)c(-c4c(F)c(F)c(F)c(F)c4F)c4nc(c(-c5c(F)c(F)c(F)c(F)c5F)c5ccc2[nH]5)C=C4)C=C3)cc1)C1=Cc2c(Cl)ccc(Cl)c2O[C@@H]1C(F)(F)F
REMARK SMILES IDX 5 1 4 2 3 3 1 4 2 5 73 7 74 8 84 9 75 10 83 11 76 12 82 13
REMARK SMILES IDX 77 14 78 15 80 16 79 17 81 18 85 19 86 20 87 21 88 22 6 23
REMARK SMILES IDX 7 24 8 25 9 27 10 28 11 29 72 30 12 31 71 32 13 33 14 34
REMARK SMILES IDX 15 35 65 36 16 37 70 38 64 39 66 40 17 41 69 42 63 43 62 44
REMARK SMILES IDX 18 46 50 47 30 48 49 49 31 50 34 51 48 52 67 53 32 54 33 55
REMARK SMILES IDX 47 57 68 58 35 59 19 60 20 61 28 62 21 63 22 64 26 65 29 66
REMARK SMILES IDX 23 67 24 68 27 69 25 70 51 71 52 72 60 73 53 74 54 75 58 76
REMARK SMILES IDX 61 77 55 78 56 79 59 80 57 81 36 82 37 83 45 84 38 85 39 86
REMARK SMILES IDX 43 87 46 88 40 89 41 90 44 91 42 92
REMARK H PARENT 3 6 7 26 66 45 34 56
REMARK Flexibility Score: inf
ROOT
ATOM      1  C   UNL A   1      31.778  28.526  26.524  1.00  0.00     0.042 C 
ENDROOT
BRANCH   1   2
ATOM      2  C   UNL A   1      32.356  27.119  26.490  1.00  0.00     0.118 C 
BRANCH   2   3
ATOM      3  N   UNL A   1      31.410  26.091  26.925  1.00  0.00    -0.352 N 
ATOM      4  O   UNL A   1      30.145  24.221  26.739  1.00  0.00    -0.270 OA
ATOM      5  C   UNL A   1      30.717  25.155  26.194  1.00  0.00     0.251 C 
ATOM      6  H   UNL A   1      31.245  26.063  27.895  1.00  0.00     0.163 HD
BRANCH   5   7
ATOM      7  C   UNL A   1      30.784  25.256  24.723  1.00  0.00     0.067 C 
ATOM      8  C   UNL A   1      29.832  25.931  24.068  1.00  0.00     0.027 C 
ATOM      9  C   UNL A   1      32.090  24.921  24.085  1.00  0.00     0.314 C 
ATOM     10  C   UNL A   1      30.386  26.993  23.193  1.00  0.00     0.037 A 
ATOM     11  O   UNL A   1      32.654  26.058  23.403  1.00  0.00    -0.474 OA
ATOM     12  C   UNL A   1      29.616  28.138  22.902  1.00  0.00     0.052 A 
ATOM     13  C   UNL A   1      31.793  27.063  23.018  1.00  0.00     0.148 A 
ATOM     14  Cl  UNL A   1      27.905  28.204  23.165  1.00  0.00    -0.084 Cl
ATOM     15  C   UNL A   1      30.234  29.333  22.518  1.00  0.00     0.023 A 
ATOM     16  C   UNL A   1      32.397  28.268  22.620  1.00  0.00     0.083 A 
ATOM     17  C   UNL A   1      31.621  29.402  22.394  1.00  0.00     0.026 A 
ATOM     18  Cl  UNL A   1      34.116  28.433  22.559  1.00  0.00    -0.080 Cl
BRANCH   9  19
ATOM     19  C   UNL A   1      31.943  23.722  23.133  1.00  0.00     0.429 C 
ATOM     20  F   UNL A   1      32.717  22.685  23.530  1.00  0.00    -0.167 F 
ATOM     21  F   UNL A   1      30.670  23.267  23.087  1.00  0.00    -0.167 F 
ATOM     22  F   UNL A   1      32.307  24.030  21.865  1.00  0.00    -0.167 F 
ENDBRANCH   9  19
ENDBRANCH   5   7
ENDBRANCH   2   3
ENDBRANCH   1   2
BRANCH   1  23
ATOM     23  C   UNL A   1      32.775  29.572  26.047  1.00  0.00     0.118 C 
BRANCH  23  24
ATOM     24  N   UNL A   1      32.470  30.931  26.494  1.00  0.00    -0.352 N 
ATOM     25  C   UNL A   1      33.208  31.819  27.257  1.00  0.00     0.251 C 
ATOM     26  H   UNL A   1      31.594  31.271  26.202  1.00  0.00     0.163 HD
ATOM     27  O   UNL A   1      32.721  32.878  27.609  1.00  0.00    -0.269 OA
BRANCH  25  28
ATOM     28  C   UNL A   1      34.575  31.450  27.693  1.00  0.00     0.039 A 
ATOM     29  C   UNL A   1      35.559  32.439  27.781  1.00  0.00     0.014 A 
ATOM     30  C   UNL A   1      34.865  30.147  28.083  1.00  0.00     0.014 A 
ATOM     31  C   UNL A   1      36.781  32.148  28.396  1.00  0.00     0.010 A 
ATOM     32  C   UNL A   1      36.014  29.897  28.817  1.00  0.00     0.010 A 
ATOM     33  C   UNL A   1      36.985  30.895  28.993  1.00  0.00    -0.014 A 
BRANCH  33  34
ATOM     34  C   UNL A   1      38.187  30.567  29.807  1.00  0.00     0.031 A 
ATOM     35  C   UNL A   1      39.220  29.629  29.242  1.00  0.00     0.074 A 
ATOM     36  C   UNL A   1      38.279  30.976  31.088  1.00  0.00     0.049 A 
ATOM     37  N   UNL A   1      40.178  28.979  29.851  1.00  0.00    -0.248 NA
ATOM     38  C   UNL A   1      39.112  29.332  27.805  1.00  0.00     0.031 C 
ATOM     39  C   UNL A   1      37.329  31.849  31.778  1.00  0.00     0.029 A 
ATOM     40  N   UNL A   1      39.217  30.686  32.049  1.00  0.00    -0.354 N 
ATOM     41  C   UNL A   1      40.738  28.151  28.887  1.00  0.00     0.074 A 
ATOM     42  C   UNL A   1      39.977  28.339  27.671  1.00  0.00     0.031 C 
ATOM     43  C   UNL A   1      37.748  32.051  33.038  1.00  0.00     0.029 A 
ATOM     44  C   UNL A   1      38.961  31.274  33.265  1.00  0.00     0.049 A 
ATOM     45  H   UNL A   1      39.998  30.110  31.884  1.00  0.00     0.167 HD
ATOM     46  C   UNL A   1      41.805  27.325  28.997  1.00  0.00     0.037 A 
ATOM     47  C   UNL A   1      39.624  31.183  34.433  1.00  0.00     0.037 A 
ATOM     48  C   UNL A   1      42.606  27.203  30.185  1.00  0.00     0.049 A 
ATOM     49  C   UNL A   1      40.837  30.297  34.522  1.00  0.00     0.074 A 
ATOM     50  C   UNL A   1      43.752  26.455  30.384  1.00  0.00     0.029 A 
ATOM     51  N   UNL A   1      42.350  27.871  31.375  1.00  0.00    -0.354 N 
ATOM     52  N   UNL A   1      41.373  29.536  33.600  1.00  0.00    -0.248 NA
ATOM     53  C   UNL A   1      41.533  30.255  35.816  1.00  0.00     0.031 C 
ATOM     54  C   UNL A   1      44.178  26.653  31.702  1.00  0.00     0.029 A 
ATOM     55  C   UNL A   1      43.318  27.554  32.311  1.00  0.00     0.049 A 
ATOM     56  H   UNL A   1      41.592  28.481  31.529  1.00  0.00     0.167 HD
ATOM     57  C   UNL A   1      42.488  28.953  34.186  1.00  0.00     0.074 A 
ATOM     58  C   UNL A   1      42.552  29.450  35.545  1.00  0.00     0.031 C 
ATOM     59  C   UNL A   1      43.379  28.086  33.648  1.00  0.00     0.037 A 
BRANCH  46  60
ATOM     60  C   UNL A   1      42.170  26.505  27.792  1.00  0.00     0.064 A 
ATOM     61  C   UNL A   1      41.571  25.261  27.537  1.00  0.00     0.173 A 
ATOM     62  C   UNL A   1      43.139  26.962  26.887  1.00  0.00     0.173 A 
ATOM     63  F   UNL A   1      40.650  24.770  28.379  1.00  0.00    -0.203 F 
ATOM     64  C   UNL A   1      41.965  24.484  26.451  1.00  0.00     0.198 A 
ATOM     65  C   UNL A   1      43.504  26.199  25.780  1.00  0.00     0.198 A 
ATOM     66  F   UNL A   1      43.740  28.147  27.077  1.00  0.00    -0.203 F 
ATOM     67  F   UNL A   1      41.433  23.267  26.274  1.00  0.00    -0.200 F 
ATOM     68  C   UNL A   1      42.927  24.955  25.572  1.00  0.00     0.200 A 
ATOM     69  F   UNL A   1      44.426  26.660  24.923  1.00  0.00    -0.200 F 
ATOM     70  F   UNL A   1      43.309  24.204  24.529  1.00  0.00    -0.200 F 
ENDBRANCH  46  60
BRANCH  47  71
ATOM     71  C   UNL A   1      39.182  31.987  35.603  1.00  0.00     0.064 A 
ATOM     72  C   UNL A   1      39.604  33.316  35.748  1.00  0.00     0.173 A 
ATOM     73  C   UNL A   1      38.330  31.462  36.584  1.00  0.00     0.173 A 
ATOM     74  F   UNL A   1      40.436  33.856  34.845  1.00  0.00    -0.203 F 
ATOM     75  C   UNL A   1      39.204  34.084  36.839  1.00  0.00     0.198 A 
ATOM     76  C   UNL A   1      37.911  32.240  37.662  1.00  0.00     0.198 A 
ATOM     77  F   UNL A   1      37.892  30.198  36.488  1.00  0.00    -0.203 F 
ATOM     78  F   UNL A   1      39.654  35.340  36.971  1.00  0.00    -0.200 F 
ATOM     79  C   UNL A   1      38.353  33.548  37.792  1.00  0.00     0.200 A 
ATOM     80  F   UNL A   1      37.077  31.723  38.575  1.00  0.00    -0.200 F 
ATOM     81  F   UNL A   1      37.964  34.290  38.838  1.00  0.00    -0.200 F 
ENDBRANCH  47  71
BRANCH  59  82
ATOM     82  C   UNL A   1      44.536  27.667  34.504  1.00  0.00     0.064 A 
ATOM     83  C   UNL A   1      44.488  26.510  35.295  1.00  0.00     0.173 A 
ATOM     84  C   UNL A   1      45.730  28.403  34.481  1.00  0.00     0.173 A 
ATOM     85  F   UNL A   1      43.362  25.783  35.360  1.00  0.00    -0.203 F 
ATOM     86  C   UNL A   1      45.592  26.113  36.044  1.00  0.00     0.198 A 
ATOM     87  C   UNL A   1      46.839  27.988  35.213  1.00  0.00     0.198 A 
ATOM     88  F   UNL A   1      45.825  29.514  33.736  1.00  0.00    -0.203 F 
ATOM     89  F   UNL A   1      45.514  25.022  36.820  1.00  0.00    -0.200 F 
ATOM     90  C   UNL A   1      46.768  26.847  35.996  1.00  0.00     0.200 A 
ATOM     91  F   UNL A   1      47.978  28.692  35.155  1.00  0.00    -0.200 F 
ATOM     92  F   UNL A   1      47.833  26.455  36.708  1.00  0.00    -0.200 F 
ENDBRANCH  59  82
ENDBRANCH  33  34
ENDBRANCH  25  28
ENDBRANCH  23  24
ENDBRANCH   1  23
TORSDOF 11
ENDMDL
