MODEL 1
REMARK VINA RESULT:     -12.6      0.000      0.000
REMARK SMILES O=C(CSc1ccc2ccccc2n1)NCc1ccc(C(=O)NCCCNC(=O)c2ccc(-c3c4nc(c(-c5c(F)c(F)c(F)c(F)c5F)c5ccc([nH]5)c(-c5c(F)c(F)c(F)c(F)c5F)c5nc(c(-c6c(F)c(F)c(F)c(F)c6F)c6ccc3[nH]6)C=C5)C=C4)cc2)cc1
REMARK SMILES IDX 21 1 22 2 23 3 20 5 17 6 18 7 94 8 19 9 93 10 16 11 15 12
REMARK SMILES IDX 1 13 2 14 3 16 4 17 5 18 6 19 14 20 7 21 13 22 8 23 12 24
REMARK SMILES IDX 9 25 11 26 10 27 24 28 25 29 26 30 27 31 28 32 29 34 30 35
REMARK SMILES IDX 31 36 92 37 32 38 91 39 33 40 34 41 35 42 85 43 36 44 90 45
REMARK SMILES IDX 84 46 86 47 37 48 89 49 83 50 82 51 38 53 70 54 50 55 69 56
REMARK SMILES IDX 51 57 54 58 68 59 87 60 52 61 53 62 67 64 88 65 55 66 39 67
REMARK SMILES IDX 40 68 48 69 41 70 42 71 46 72 49 73 43 74 44 75 47 76 45 77
REMARK SMILES IDX 71 78 72 79 80 80 73 81 74 82 78 83 81 84 75 85 76 86 79 87
REMARK SMILES IDX 77 88 56 89 57 90 65 91 58 92 59 93 63 94 66 95 60 96 61 97
REMARK SMILES IDX 64 98 62 99
REMARK H PARENT 23 4 15 15 27 33 86 52 54 63
REMARK Flexibility Score: inf
ROOT
ATOM      1  C   UNL A   1      34.104  19.133  24.904  1.00  0.00     0.251 C 
ATOM      2  O   UNL A   1      33.442  18.155  24.556  1.00  0.00    -0.269 OA
ATOM      3  N   UNL A   1      35.471  19.035  24.818  1.00  0.00    -0.352 N 
ATOM      4  H   UNL A   1      35.791  18.140  24.559  1.00  0.00     0.163 HD
ENDROOT
BRANCH   1   5
ATOM      5  C   UNL A   1      33.398  20.363  25.358  1.00  0.00     0.039 A 
ATOM      6  C   UNL A   1      31.906  22.648  26.115  1.00  0.00    -0.029 A 
ATOM      7  C   UNL A   1      31.574  21.931  24.960  1.00  0.00     0.006 A 
ATOM      8  C   UNL A   1      32.967  22.182  26.905  1.00  0.00     0.006 A 
ATOM      9  C   UNL A   1      32.317  20.807  24.582  1.00  0.00     0.014 A 
ATOM     10  C   UNL A   1      33.691  21.042  26.540  1.00  0.00     0.014 A 
BRANCH   6  11
ATOM     11  C   UNL A   1      31.107  23.833  26.604  1.00  0.00     0.151 C 
BRANCH  11  12
ATOM     12  N   UNL A   1      30.417  24.552  25.559  1.00  0.00    -0.351 N 
ATOM     13  O   UNL A   1      30.451  26.579  26.626  1.00  0.00    -0.274 OA
ATOM     14  C   UNL A   1      30.198  25.913  25.625  1.00  0.00     0.230 C 
ATOM     15  H   UNL A   1      30.092  24.055  24.774  1.00  0.00     0.163 HD
BRANCH  14  16
ATOM     16  C   UNL A   1      29.519  26.512  24.403  1.00  0.00     0.176 C 
BRANCH  16  17
ATOM     17  S   UNL A   1      30.726  27.291  23.274  1.00  0.00    -0.096 SA
BRANCH  17  18
ATOM     18  C   UNL A   1      31.972  26.016  23.243  1.00  0.00     0.097 A 
ATOM     19  C   UNL A   1      31.978  25.103  22.199  1.00  0.00     0.036 A 
ATOM     20  N   UNL A   1      32.888  26.008  24.233  1.00  0.00    -0.241 NA
ATOM     21  C   UNL A   1      32.965  24.124  22.181  1.00  0.00     0.013 A 
ATOM     22  C   UNL A   1      33.846  25.063  24.214  1.00  0.00     0.072 A 
ATOM     23  C   UNL A   1      33.925  24.089  23.197  1.00  0.00     0.000 A 
ATOM     24  C   UNL A   1      34.802  25.034  25.222  1.00  0.00     0.029 A 
ATOM     25  C   UNL A   1      34.947  23.122  23.215  1.00  0.00     0.010 A 
ATOM     26  C   UNL A   1      35.822  24.077  25.241  1.00  0.00     0.002 A 
ATOM     27  C   UNL A   1      35.894  23.119  24.236  1.00  0.00     0.001 A 
ENDBRANCH  17  18
ENDBRANCH  16  17
ENDBRANCH  14  16
ENDBRANCH  11  12
ENDBRANCH   6  11
ENDBRANCH   1   5
BRANCH   3  28
ATOM     28  C   UNL A   1      36.532  20.000  25.036  1.00  0.00     0.118 C 
BRANCH  28  29
ATOM     29  C   UNL A   1      37.910  19.367  24.853  1.00  0.00     0.042 C 
BRANCH  29  30
ATOM     30  C   UNL A   1      39.001  20.003  25.712  1.00  0.00     0.118 C 
BRANCH  30  31
ATOM     31  N   UNL A   1      40.156  19.130  25.870  1.00  0.00    -0.352 N 
ATOM     32  C   UNL A   1      41.470  19.437  26.118  1.00  0.00     0.251 C 
ATOM     33  H   UNL A   1      39.964  18.168  25.784  1.00  0.00     0.163 HD
ATOM     34  O   UNL A   1      42.322  18.562  26.011  1.00  0.00    -0.269 OA
BRANCH  32  35
ATOM     35  C   UNL A   1      41.877  20.808  26.501  1.00  0.00     0.039 A 
ATOM     36  C   UNL A   1      42.272  21.694  25.492  1.00  0.00     0.014 A 
ATOM     37  C   UNL A   1      41.940  21.209  27.839  1.00  0.00     0.014 A 
ATOM     38  C   UNL A   1      42.684  22.988  25.818  1.00  0.00     0.010 A 
ATOM     39  C   UNL A   1      42.293  22.519  28.160  1.00  0.00     0.010 A 
ATOM     40  C   UNL A   1      42.677  23.418  27.155  1.00  0.00    -0.014 A 
BRANCH  40  41
ATOM     41  C   UNL A   1      43.076  24.802  27.514  1.00  0.00     0.031 A 
ATOM     42  C   UNL A   1      44.525  25.199  27.516  1.00  0.00     0.074 A 
ATOM     43  C   UNL A   1      42.136  25.687  27.893  1.00  0.00     0.049 A 
ATOM     44  N   UNL A   1      45.071  26.343  27.846  1.00  0.00    -0.248 NA
ATOM     45  C   UNL A   1      45.492  24.165  27.120  1.00  0.00     0.031 C 
ATOM     46  C   UNL A   1      40.701  25.412  27.968  1.00  0.00     0.029 A 
ATOM     47  N   UNL A   1      42.247  26.996  28.291  1.00  0.00    -0.354 N 
ATOM     48  C   UNL A   1      46.441  26.160  27.717  1.00  0.00     0.074 A 
ATOM     49  C   UNL A   1      46.647  24.783  27.319  1.00  0.00     0.031 C 
ATOM     50  C   UNL A   1      40.061  26.525  28.361  1.00  0.00     0.029 A 
ATOM     51  C   UNL A   1      41.043  27.581  28.596  1.00  0.00     0.049 A 
ATOM     52  H   UNL A   1      43.107  27.469  28.354  1.00  0.00     0.167 HD
ATOM     53  C   UNL A   1      47.436  27.062  27.898  1.00  0.00     0.037 A 
ATOM     54  C   UNL A   1      40.763  28.829  29.016  1.00  0.00     0.037 A 
ATOM     55  C   UNL A   1      47.228  28.439  28.261  1.00  0.00     0.049 A 
ATOM     56  C   UNL A   1      41.884  29.811  29.209  1.00  0.00     0.074 A 
ATOM     57  C   UNL A   1      48.162  29.452  28.386  1.00  0.00     0.029 A 
ATOM     58  N   UNL A   1      45.993  28.996  28.562  1.00  0.00    -0.354 N 
ATOM     59  N   UNL A   1      43.169  29.647  29.015  1.00  0.00    -0.248 NA
ATOM     60  C   UNL A   1      41.512  31.153  29.678  1.00  0.00     0.031 C 
ATOM     61  C   UNL A   1      47.499  30.612  28.804  1.00  0.00     0.029 A 
ATOM     62  C   UNL A   1      46.145  30.332  28.900  1.00  0.00     0.049 A 
ATOM     63  H   UNL A   1      45.135  28.514  28.541  1.00  0.00     0.167 HD
ATOM     64  C   UNL A   1      43.758  30.869  29.313  1.00  0.00     0.074 A 
ATOM     65  C   UNL A   1      42.686  31.768  29.691  1.00  0.00     0.031 C 
ATOM     66  C   UNL A   1      45.068  31.213  29.273  1.00  0.00     0.037 A 
BRANCH  53  67
ATOM     67  C   UNL A   1      48.846  26.579  27.711  1.00  0.00     0.064 A 
ATOM     68  C   UNL A   1      49.657  26.228  28.800  1.00  0.00     0.173 A 
ATOM     69  C   UNL A   1      49.388  26.455  26.422  1.00  0.00     0.173 A 
ATOM     70  F   UNL A   1      49.189  26.339  30.053  1.00  0.00    -0.203 F 
ATOM     71  C   UNL A   1      50.970  25.806  28.609  1.00  0.00     0.198 A 
ATOM     72  C   UNL A   1      50.692  26.005  26.234  1.00  0.00     0.198 A 
ATOM     73  F   UNL A   1      48.653  26.770  25.345  1.00  0.00    -0.203 F 
ATOM     74  F   UNL A   1      51.744  25.531  29.668  1.00  0.00    -0.200 F 
ATOM     75  C   UNL A   1      51.486  25.692  27.327  1.00  0.00     0.200 A 
ATOM     76  F   UNL A   1      51.185  25.884  24.994  1.00  0.00    -0.200 F 
ATOM     77  F   UNL A   1      52.750  25.287  27.145  1.00  0.00    -0.200 F 
ENDBRANCH  53  67
BRANCH  54  78
ATOM     78  C   UNL A   1      39.351  29.230  29.235  1.00  0.00     0.064 A 
ATOM     79  C   UNL A   1      38.542  29.608  28.155  1.00  0.00     0.173 A 
ATOM     80  C   UNL A   1      38.775  29.221  30.513  1.00  0.00     0.173 A 
ATOM     81  F   UNL A   1      39.057  29.649  26.917  1.00  0.00    -0.203 F 
ATOM     82  C   UNL A   1      37.211  29.970  28.345  1.00  0.00     0.198 A 
ATOM     83  C   UNL A   1      37.437  29.562  30.699  1.00  0.00     0.198 A 
ATOM     84  F   UNL A   1      39.507  28.863  31.577  1.00  0.00    -0.203 F 
ATOM     85  F   UNL A   1      36.468  30.354  27.299  1.00  0.00    -0.200 F 
ATOM     86  C   UNL A   1      36.658  29.941  29.616  1.00  0.00     0.200 A 
ATOM     87  F   UNL A   1      36.901  29.521  31.927  1.00  0.00    -0.200 F 
ATOM     88  F   UNL A   1      35.374  30.279  29.797  1.00  0.00    -0.200 F 
ENDBRANCH  54  78
BRANCH  66  89
ATOM     89  C   UNL A   1      45.413  32.631  29.624  1.00  0.00     0.064 A 
ATOM     90  C   UNL A   1      45.817  32.989  30.918  1.00  0.00     0.173 A 
ATOM     91  C   UNL A   1      45.365  33.637  28.646  1.00  0.00     0.173 A 
ATOM     92  F   UNL A   1      45.861  32.066  31.891  1.00  0.00    -0.203 F 
ATOM     93  C   UNL A   1      46.140  34.309  31.226  1.00  0.00     0.198 A 
ATOM     94  C   UNL A   1      45.714  34.949  28.952  1.00  0.00     0.198 A 
ATOM     95  F   UNL A   1      44.988  33.343  27.393  1.00  0.00    -0.203 F 
ATOM     96  F   UNL A   1      46.480  34.637  32.480  1.00  0.00    -0.200 F 
ATOM     97  C   UNL A   1      46.094  35.285  30.242  1.00  0.00     0.200 A 
ATOM     98  F   UNL A   1      45.677  35.889  27.998  1.00  0.00    -0.200 F 
ATOM     99  F   UNL A   1      46.409  36.553  30.540  1.00  0.00    -0.200 F 
ENDBRANCH  66  89
ENDBRANCH  40  41
ENDBRANCH  32  35
ENDBRANCH  30  31
ENDBRANCH  29  30
ENDBRANCH  28  29
ENDBRANCH   3  28
TORSDOF 15
ENDMDL
MODEL 2
REMARK VINA RESULT:     -12.5      0.853      7.221
REMARK SMILES O=C(CSc1ccc2ccccc2n1)NCc1ccc(C(=O)NCCCNC(=O)c2ccc(-c3c4nc(c(-c5c(F)c(F)c(F)c(F)c5F)c5ccc([nH]5)c(-c5c(F)c(F)c(F)c(F)c5F)c5nc(c(-c6c(F)c(F)c(F)c(F)c6F)c6ccc3[nH]6)C=C5)C=C4)cc2)cc1
REMARK SMILES IDX 21 1 22 2 23 3 20 5 17 6 18 7 94 8 19 9 93 10 16 11 15 12
REMARK SMILES IDX 1 13 2 14 3 16 4 17 5 18 6 19 14 20 7 21 13 22 8 23 12 24
REMARK SMILES IDX 9 25 11 26 10 27 24 28 25 29 26 30 27 31 28 32 29 34 30 35
REMARK SMILES IDX 31 36 92 37 32 38 91 39 33 40 34 41 35 42 85 43 36 44 90 45
REMARK SMILES IDX 84 46 86 47 37 48 89 49 83 50 82 51 38 53 70 54 50 55 69 56
REMARK SMILES IDX 51 57 54 58 68 59 87 60 52 61 53 62 67 64 88 65 55 66 39 67
REMARK SMILES IDX 40 68 48 69 41 70 42 71 46 72 49 73 43 74 44 75 47 76 45 77
REMARK SMILES IDX 71 78 72 79 80 80 73 81 74 82 78 83 81 84 75 85 76 86 79 87
REMARK SMILES IDX 77 88 56 89 57 90 65 91 58 92 59 93 63 94 66 95 60 96 61 97
REMARK SMILES IDX 64 98 62 99
REMARK H PARENT 23 4 15 15 27 33 86 52 54 63
REMARK Flexibility Score: inf
ROOT
ATOM      1  C   UNL A   1      34.303  18.977  24.645  1.00  0.00     0.251 C 
ATOM      2  O   UNL A   1      33.713  17.993  24.197  1.00  0.00    -0.269 OA
ATOM      3  N   UNL A   1      35.674  18.936  24.670  1.00  0.00    -0.352 N 
ATOM      4  H   UNL A   1      36.052  18.068  24.397  1.00  0.00     0.163 HD
ENDROOT
BRANCH   1   5
ATOM      5  C   UNL A   1      33.510  20.154  25.094  1.00  0.00     0.039 A 
ATOM      6  C   UNL A   1      31.867  22.343  25.824  1.00  0.00    -0.029 A 
ATOM      7  C   UNL A   1      31.683  21.691  24.599  1.00  0.00     0.006 A 
ATOM      8  C   UNL A   1      32.855  21.858  26.693  1.00  0.00     0.006 A 
ATOM      9  C   UNL A   1      32.501  20.615  24.236  1.00  0.00     0.014 A 
ATOM     10  C   UNL A   1      33.653  20.765  26.340  1.00  0.00     0.014 A 
BRANCH   6  11
ATOM     11  C   UNL A   1      30.980  23.471  26.295  1.00  0.00     0.151 C 
BRANCH  11  12
ATOM     12  N   UNL A   1      30.459  24.296  25.231  1.00  0.00    -0.351 N 
ATOM     13  O   UNL A   1      29.759  25.998  26.596  1.00  0.00    -0.274 OA
ATOM     14  C   UNL A   1      29.937  25.552  25.465  1.00  0.00     0.230 C 
ATOM     15  H   UNL A   1      30.474  23.951  24.310  1.00  0.00     0.163 HD
BRANCH  14  16
ATOM     16  C   UNL A   1      29.500  26.306  24.218  1.00  0.00     0.176 C 
BRANCH  16  17
ATOM     17  S   UNL A   1      30.795  27.455  23.634  1.00  0.00    -0.096 SA
BRANCH  17  18
ATOM     18  C   UNL A   1      32.247  26.547  24.132  1.00  0.00     0.097 A 
ATOM     19  C   UNL A   1      32.901  26.907  25.300  1.00  0.00     0.036 A 
ATOM     20  N   UNL A   1      32.638  25.514  23.357  1.00  0.00    -0.241 NA
ATOM     21  C   UNL A   1      34.023  26.181  25.682  1.00  0.00     0.013 A 
ATOM     22  C   UNL A   1      33.722  24.808  23.729  1.00  0.00     0.072 A 
ATOM     23  C   UNL A   1      34.454  25.108  24.896  1.00  0.00     0.000 A 
ATOM     24  C   UNL A   1      34.145  23.739  22.949  1.00  0.00     0.029 A 
ATOM     25  C   UNL A   1      35.578  24.339  25.249  1.00  0.00     0.010 A 
ATOM     26  C   UNL A   1      35.259  22.969  23.298  1.00  0.00     0.002 A 
ATOM     27  C   UNL A   1      35.978  23.270  24.449  1.00  0.00     0.001 A 
ENDBRANCH  17  18
ENDBRANCH  16  17
ENDBRANCH  14  16
ENDBRANCH  11  12
ENDBRANCH   6  11
ENDBRANCH   1   5
BRANCH   3  28
ATOM     28  C   UNL A   1      36.672  19.928  25.021  1.00  0.00     0.118 C 
BRANCH  28  29
ATOM     29  C   UNL A   1      38.087  19.422  24.745  1.00  0.00     0.042 C 
BRANCH  29  30
ATOM     30  C   UNL A   1      39.143  19.999  25.685  1.00  0.00     0.118 C 
BRANCH  30  31
ATOM     31  N   UNL A   1      40.252  19.079  25.897  1.00  0.00    -0.352 N 
ATOM     32  C   UNL A   1      41.577  19.333  26.149  1.00  0.00     0.251 C 
ATOM     33  H   UNL A   1      40.015  18.125  25.852  1.00  0.00     0.163 HD
ATOM     34  O   UNL A   1      42.387  18.414  26.093  1.00  0.00    -0.269 OA
BRANCH  32  35
ATOM     35  C   UNL A   1      42.046  20.698  26.478  1.00  0.00     0.039 A 
ATOM     36  C   UNL A   1      42.261  21.601  25.429  1.00  0.00     0.014 A 
ATOM     37  C   UNL A   1      42.341  21.078  27.791  1.00  0.00     0.014 A 
ATOM     38  C   UNL A   1      42.725  22.890  25.699  1.00  0.00     0.010 A 
ATOM     39  C   UNL A   1      42.746  22.384  28.066  1.00  0.00     0.010 A 
ATOM     40  C   UNL A   1      42.951  23.299  27.023  1.00  0.00    -0.014 A 
BRANCH  40  41
ATOM     41  C   UNL A   1      43.408  24.678  27.329  1.00  0.00     0.031 A 
ATOM     42  C   UNL A   1      42.455  25.682  27.915  1.00  0.00     0.074 A 
ATOM     43  C   UNL A   1      44.667  25.043  27.026  1.00  0.00     0.049 A 
ATOM     44  N   UNL A   1      42.655  26.943  28.205  1.00  0.00    -0.248 NA
ATOM     45  C   UNL A   1      41.089  25.212  28.187  1.00  0.00     0.031 C 
ATOM     46  C   UNL A   1      45.675  24.172  26.421  1.00  0.00     0.029 A 
ATOM     47  N   UNL A   1      45.313  26.243  27.183  1.00  0.00    -0.354 N 
ATOM     48  C   UNL A   1      41.438  27.421  28.673  1.00  0.00     0.074 A 
ATOM     49  C   UNL A   1      40.495  26.326  28.589  1.00  0.00     0.031 C 
ATOM     50  C   UNL A   1      46.820  24.858  26.282  1.00  0.00     0.029 A 
ATOM     51  C   UNL A   1      46.618  26.224  26.757  1.00  0.00     0.049 A 
ATOM     52  H   UNL A   1      44.882  27.042  27.563  1.00  0.00     0.167 HD
ATOM     53  C   UNL A   1      41.139  28.656  29.144  1.00  0.00     0.037 A 
ATOM     54  C   UNL A   1      47.546  27.199  26.752  1.00  0.00     0.037 A 
ATOM     55  C   UNL A   1      42.087  29.733  29.258  1.00  0.00     0.049 A 
ATOM     56  C   UNL A   1      47.191  28.559  27.280  1.00  0.00     0.074 A 
ATOM     57  C   UNL A   1      41.904  30.993  29.801  1.00  0.00     0.029 A 
ATOM     58  N   UNL A   1      43.401  29.676  28.815  1.00  0.00    -0.354 N 
ATOM     59  N   UNL A   1      46.058  28.980  27.786  1.00  0.00    -0.248 NA
ATOM     60  C   UNL A   1      48.247  29.581  27.239  1.00  0.00     0.031 C 
ATOM     61  C   UNL A   1      43.094  31.714  29.648  1.00  0.00     0.029 A 
ATOM     62  C   UNL A   1      44.032  30.889  29.048  1.00  0.00     0.049 A 
ATOM     63  H   UNL A   1      43.823  28.892  28.397  1.00  0.00     0.167 HD
ATOM     64  C   UNL A   1      46.269  30.304  28.146  1.00  0.00     0.074 A 
ATOM     65  C   UNL A   1      47.643  30.614  27.809  1.00  0.00     0.031 C 
ATOM     66  C   UNL A   1      45.401  31.181  28.707  1.00  0.00     0.037 A 
BRANCH  53  67
ATOM     67  C   UNL A   1      39.721  28.907  29.567  1.00  0.00     0.064 A 
ATOM     68  C   UNL A   1      38.753  29.375  28.665  1.00  0.00     0.173 A 
ATOM     69  C   UNL A   1      39.320  28.664  30.890  1.00  0.00     0.173 A 
ATOM     70  F   UNL A   1      39.087  29.634  27.392  1.00  0.00    -0.203 F 
ATOM     71  C   UNL A   1      37.448  29.626  29.081  1.00  0.00     0.198 A 
ATOM     72  C   UNL A   1      38.007  28.888  31.295  1.00  0.00     0.198 A 
ATOM     73  F   UNL A   1      40.203  28.208  31.791  1.00  0.00    -0.203 F 
ATOM     74  F   UNL A   1      36.556  30.127  28.215  1.00  0.00    -0.200 F 
ATOM     75  C   UNL A   1      37.075  29.379  30.394  1.00  0.00     0.200 A 
ATOM     76  F   UNL A   1      37.645  28.638  32.561  1.00  0.00    -0.200 F 
ATOM     77  F   UNL A   1      35.819  29.622  30.792  1.00  0.00    -0.200 F 
ENDBRANCH  53  67
BRANCH  54  78
ATOM     78  C   UNL A   1      48.919  26.902  26.271  1.00  0.00     0.064 A 
ATOM     79  C   UNL A   1      49.248  27.061  24.918  1.00  0.00     0.173 A 
ATOM     80  C   UNL A   1      49.929  26.481  27.146  1.00  0.00     0.173 A 
ATOM     81  F   UNL A   1      48.308  27.443  24.041  1.00  0.00    -0.203 F 
ATOM     82  C   UNL A   1      50.537  26.802  24.457  1.00  0.00     0.198 A 
ATOM     83  C   UNL A   1      51.224  26.244  26.688  1.00  0.00     0.198 A 
ATOM     84  F   UNL A   1      49.664  26.319  28.450  1.00  0.00    -0.203 F 
ATOM     85  F   UNL A   1      50.819  26.935  23.153  1.00  0.00    -0.200 F 
ATOM     86  C   UNL A   1      51.525  26.400  25.343  1.00  0.00     0.200 A 
ATOM     87  F   UNL A   1      52.179  25.868  27.548  1.00  0.00    -0.200 F 
ATOM     88  F   UNL A   1      52.767  26.162  24.900  1.00  0.00    -0.200 F 
ENDBRANCH  54  78
BRANCH  66  89
ATOM     89  C   UNL A   1      45.922  32.554  29.017  1.00  0.00     0.064 A 
ATOM     90  C   UNL A   1      45.802  33.609  28.099  1.00  0.00     0.173 A 
ATOM     91  C   UNL A   1      46.523  32.824  30.256  1.00  0.00     0.173 A 
ATOM     92  F   UNL A   1      45.250  33.395  26.895  1.00  0.00    -0.203 F 
ATOM     93  C   UNL A   1      46.285  34.879  28.404  1.00  0.00     0.198 A 
ATOM     94  C   UNL A   1      46.981  34.101  30.566  1.00  0.00     0.198 A 
ATOM     95  F   UNL A   1      46.659  31.849  31.167  1.00  0.00    -0.203 F 
ATOM     96  F   UNL A   1      46.199  35.861  27.496  1.00  0.00    -0.200 F 
ATOM     97  C   UNL A   1      46.867  35.124  29.638  1.00  0.00     0.200 A 
ATOM     98  F   UNL A   1      47.536  34.339  31.762  1.00  0.00    -0.200 F 
ATOM     99  F   UNL A   1      47.328  36.349  29.930  1.00  0.00    -0.200 F 
ENDBRANCH  66  89
ENDBRANCH  40  41
ENDBRANCH  32  35
ENDBRANCH  30  31
ENDBRANCH  29  30
ENDBRANCH  28  29
ENDBRANCH   3  28
TORSDOF 15
ENDMDL
MODEL 3
REMARK VINA RESULT:     -12.4      5.300      9.504
REMARK SMILES O=C(CSc1ccc2ccccc2n1)NCc1ccc(C(=O)NCCCNC(=O)c2ccc(-c3c4nc(c(-c5c(F)c(F)c(F)c(F)c5F)c5ccc([nH]5)c(-c5c(F)c(F)c(F)c(F)c5F)c5nc(c(-c6c(F)c(F)c(F)c(F)c6F)c6ccc3[nH]6)C=C5)C=C4)cc2)cc1
REMARK SMILES IDX 21 1 22 2 23 3 20 5 17 6 18 7 94 8 19 9 93 10 16 11 15 12
REMARK SMILES IDX 1 13 2 14 3 16 4 17 5 18 6 19 14 20 7 21 13 22 8 23 12 24
REMARK SMILES IDX 9 25 11 26 10 27 24 28 25 29 26 30 27 31 28 32 29 34 30 35
REMARK SMILES IDX 31 36 92 37 32 38 91 39 33 40 34 41 35 42 85 43 36 44 90 45
REMARK SMILES IDX 84 46 86 47 37 48 89 49 83 50 82 51 38 53 70 54 50 55 69 56
REMARK SMILES IDX 51 57 54 58 68 59 87 60 52 61 53 62 67 64 88 65 55 66 39 67
REMARK SMILES IDX 40 68 48 69 41 70 42 71 46 72 49 73 43 74 44 75 47 76 45 77
REMARK SMILES IDX 71 78 72 79 80 80 73 81 74 82 78 83 81 84 75 85 76 86 79 87
REMARK SMILES IDX 77 88 56 89 57 90 65 91 58 92 59 93 63 94 66 95 60 96 61 97
REMARK SMILES IDX 64 98 62 99
REMARK H PARENT 23 4 15 15 27 33 86 52 54 63
REMARK Flexibility Score: inf
ROOT
ATOM      1  C   UNL A   1      30.848  29.250  24.073  1.00  0.00     0.251 C 
ATOM      2  O   UNL A   1      30.636  29.349  22.865  1.00  0.00    -0.269 OA
ATOM      3  N   UNL A   1      31.183  30.394  24.753  1.00  0.00    -0.352 N 
ATOM      4  H   UNL A   1      31.304  31.181  24.174  1.00  0.00     0.163 HD
ENDROOT
BRANCH   1   5
ATOM      5  C   UNL A   1      30.696  27.922  24.729  1.00  0.00     0.039 A 
ATOM      6  C   UNL A   1      30.369  25.321  25.804  1.00  0.00    -0.029 A 
ATOM      7  C   UNL A   1      29.822  25.652  24.560  1.00  0.00     0.006 A 
ATOM      8  C   UNL A   1      31.116  26.297  26.482  1.00  0.00     0.006 A 
ATOM      9  C   UNL A   1      29.977  26.940  24.033  1.00  0.00     0.014 A 
ATOM     10  C   UNL A   1      31.293  27.575  25.941  1.00  0.00     0.014 A 
BRANCH   6  11
ATOM     11  C   UNL A   1      30.284  23.935  26.397  1.00  0.00     0.151 C 
BRANCH  11  12
ATOM     12  N   UNL A   1      31.304  23.028  25.927  1.00  0.00    -0.351 N 
ATOM     13  O   UNL A   1      32.187  22.599  27.997  1.00  0.00    -0.274 OA
ATOM     14  C   UNL A   1      32.152  22.366  26.792  1.00  0.00     0.230 C 
ATOM     15  H   UNL A   1      31.399  22.879  24.959  1.00  0.00     0.163 HD
BRANCH  14  16
ATOM     16  C   UNL A   1      33.117  21.397  26.125  1.00  0.00     0.176 C 
BRANCH  16  17
ATOM     17  S   UNL A   1      34.785  22.118  25.948  1.00  0.00    -0.096 SA
BRANCH  17  18
ATOM     18  C   UNL A   1      34.375  23.604  25.051  1.00  0.00     0.097 A 
ATOM     19  C   UNL A   1      34.711  24.835  25.594  1.00  0.00     0.036 A 
ATOM     20  N   UNL A   1      33.773  23.467  23.851  1.00  0.00    -0.241 NA
ATOM     21  C   UNL A   1      34.398  25.983  24.876  1.00  0.00     0.013 A 
ATOM     22  C   UNL A   1      33.473  24.579  23.154  1.00  0.00     0.072 A 
ATOM     23  C   UNL A   1      33.770  25.873  23.632  1.00  0.00     0.000 A 
ATOM     24  C   UNL A   1      32.854  24.466  21.915  1.00  0.00     0.029 A 
ATOM     25  C   UNL A   1      33.442  27.007  22.866  1.00  0.00     0.010 A 
ATOM     26  C   UNL A   1      32.531  25.591  21.149  1.00  0.00     0.002 A 
ATOM     27  C   UNL A   1      32.825  26.863  21.625  1.00  0.00     0.001 A 
ENDBRANCH  17  18
ENDBRANCH  16  17
ENDBRANCH  14  16
ENDBRANCH  11  12
ENDBRANCH   6  11
ENDBRANCH   1   5
BRANCH   3  28
ATOM     28  C   UNL A   1      31.393  30.662  26.163  1.00  0.00     0.118 C 
BRANCH  28  29
ATOM     29  C   UNL A   1      31.402  32.163  26.452  1.00  0.00     0.042 C 
BRANCH  29  30
ATOM     30  C   UNL A   1      32.626  32.634  27.235  1.00  0.00     0.118 C 
BRANCH  30  31
ATOM     31  N   UNL A   1      32.523  34.033  27.625  1.00  0.00    -0.352 N 
ATOM     32  C   UNL A   1      33.176  34.726  28.613  1.00  0.00     0.251 C 
ATOM     33  H   UNL A   1      31.886  34.566  27.098  1.00  0.00     0.163 HD
ATOM     34  O   UNL A   1      32.793  35.853  28.911  1.00  0.00    -0.269 OA
BRANCH  32  35
ATOM     35  C   UNL A   1      34.325  34.133  29.334  1.00  0.00     0.039 A 
ATOM     36  C   UNL A   1      34.069  33.297  30.427  1.00  0.00     0.014 A 
ATOM     37  C   UNL A   1      35.645  34.442  28.992  1.00  0.00     0.014 A 
ATOM     38  C   UNL A   1      35.129  32.738  31.144  1.00  0.00     0.010 A 
ATOM     39  C   UNL A   1      36.703  33.837  29.670  1.00  0.00     0.010 A 
ATOM     40  C   UNL A   1      36.456  32.986  30.758  1.00  0.00    -0.014 A 
BRANCH  40  41
ATOM     41  C   UNL A   1      37.592  32.369  31.486  1.00  0.00     0.031 A 
ATOM     42  C   UNL A   1      38.351  31.223  30.879  1.00  0.00     0.074 A 
ATOM     43  C   UNL A   1      37.905  32.804  32.720  1.00  0.00     0.049 A 
ATOM     44  N   UNL A   1      39.340  30.526  31.381  1.00  0.00    -0.248 NA
ATOM     45  C   UNL A   1      37.927  30.787  29.541  1.00  0.00     0.031 C 
ATOM     46  C   UNL A   1      37.219  33.883  33.432  1.00  0.00     0.029 A 
ATOM     47  N   UNL A   1      38.876  32.390  33.597  1.00  0.00    -0.354 N 
ATOM     48  C   UNL A   1      39.640  29.558  30.432  1.00  0.00     0.074 A 
ATOM     49  C   UNL A   1      38.703  29.732  29.342  1.00  0.00     0.031 C 
ATOM     50  C   UNL A   1      37.808  34.065  34.625  1.00  0.00     0.029 A 
ATOM     51  C   UNL A   1      38.889  33.095  34.775  1.00  0.00     0.049 A 
ATOM     52  H   UNL A   1      39.502  31.657  33.399  1.00  0.00     0.167 HD
ATOM     53  C   UNL A   1      40.619  28.621  30.459  1.00  0.00     0.037 A 
ATOM     54  C   UNL A   1      39.686  32.972  35.853  1.00  0.00     0.037 A 
ATOM     55  C   UNL A   1      41.571  28.472  31.528  1.00  0.00     0.049 A 
ATOM     56  C   UNL A   1      40.764  31.925  35.860  1.00  0.00     0.074 A 
ATOM     57  C   UNL A   1      42.650  27.610  31.612  1.00  0.00     0.029 A 
ATOM     58  N   UNL A   1      41.552  29.204  32.707  1.00  0.00    -0.354 N 
ATOM     59  N   UNL A   1      41.084  31.063  34.927  1.00  0.00    -0.248 NA
ATOM     60  C   UNL A   1      41.592  31.838  37.070  1.00  0.00     0.031 C 
ATOM     61  C   UNL A   1      43.260  27.790  32.859  1.00  0.00     0.029 A 
ATOM     62  C   UNL A   1      42.586  28.793  33.536  1.00  0.00     0.049 A 
ATOM     63  H   UNL A   1      40.901  29.909  32.924  1.00  0.00     0.167 HD
ATOM     64  C   UNL A   1      42.165  30.347  35.424  1.00  0.00     0.074 A 
ATOM     65  C   UNL A   1      42.451  30.884  36.739  1.00  0.00     0.031 C 
ATOM     66  C   UNL A   1      42.857  29.339  34.841  1.00  0.00     0.037 A 
BRANCH  53  67
ATOM     67  C   UNL A   1      40.701  27.677  29.294  1.00  0.00     0.064 A 
ATOM     68  C   UNL A   1      39.830  26.585  29.164  1.00  0.00     0.173 A 
ATOM     69  C   UNL A   1      41.657  27.876  28.286  1.00  0.00     0.173 A 
ATOM     70  F   UNL A   1      38.905  26.345  30.107  1.00  0.00    -0.203 F 
ATOM     71  C   UNL A   1      39.937  25.706  28.090  1.00  0.00     0.198 A 
ATOM     72  C   UNL A   1      41.743  27.012  27.198  1.00  0.00     0.198 A 
ATOM     73  F   UNL A   1      42.510  28.909  28.356  1.00  0.00    -0.203 F 
ATOM     74  F   UNL A   1      39.132  24.638  28.018  1.00  0.00    -0.200 F 
ATOM     75  C   UNL A   1      40.891  25.921  27.106  1.00  0.00     0.200 A 
ATOM     76  F   UNL A   1      42.657  27.227  26.242  1.00  0.00    -0.200 F 
ATOM     77  F   UNL A   1      40.993  25.073  26.073  1.00  0.00    -0.200 F 
ENDBRANCH  53  67
BRANCH  54  78
ATOM     78  C   UNL A   1      39.519  33.902  36.998  1.00  0.00     0.064 A 
ATOM     79  C   UNL A   1      38.758  33.527  38.114  1.00  0.00     0.173 A 
ATOM     80  C   UNL A   1      40.129  35.163  37.015  1.00  0.00     0.173 A 
ATOM     81  F   UNL A   1      38.140  32.337  38.134  1.00  0.00    -0.203 F 
ATOM     82  C   UNL A   1      38.608  34.384  39.202  1.00  0.00     0.198 A 
ATOM     83  C   UNL A   1      39.997  36.011  38.113  1.00  0.00     0.198 A 
ATOM     84  F   UNL A   1      40.870  35.565  35.972  1.00  0.00    -0.203 F 
ATOM     85  F   UNL A   1      37.853  34.013  40.244  1.00  0.00    -0.200 F 
ATOM     86  C   UNL A   1      39.233  35.622  39.203  1.00  0.00     0.200 A 
ATOM     87  F   UNL A   1      40.612  37.201  38.116  1.00  0.00    -0.200 F 
ATOM     88  F   UNL A   1      39.096  36.442  40.254  1.00  0.00    -0.200 F 
ENDBRANCH  54  78
BRANCH  66  89
ATOM     89  C   UNL A   1      44.011  28.767  35.612  1.00  0.00     0.064 A 
ATOM     90  C   UNL A   1      43.836  27.710  36.518  1.00  0.00     0.173 A 
ATOM     91  C   UNL A   1      45.309  29.264  35.422  1.00  0.00     0.173 A 
ATOM     92  F   UNL A   1      42.611  27.214  36.747  1.00  0.00    -0.203 F 
ATOM     93  C   UNL A   1      44.918  27.186  37.222  1.00  0.00     0.198 A 
ATOM     94  C   UNL A   1      46.391  28.720  36.107  1.00  0.00     0.198 A 
ATOM     95  F   UNL A   1      45.528  30.271  34.564  1.00  0.00    -0.203 F 
ATOM     96  F   UNL A   1      44.722  26.207  38.115  1.00  0.00    -0.200 F 
ATOM     97  C   UNL A   1      46.194  27.687  37.011  1.00  0.00     0.200 A 
ATOM     98  F   UNL A   1      47.625  29.198  35.897  1.00  0.00    -0.200 F 
ATOM     99  F   UNL A   1      47.234  27.178  37.687  1.00  0.00    -0.200 F 
ENDBRANCH  66  89
ENDBRANCH  40  41
ENDBRANCH  32  35
ENDBRANCH  30  31
ENDBRANCH  29  30
ENDBRANCH  28  29
ENDBRANCH   3  28
TORSDOF 15
ENDMDL
