MODEL 1
REMARK VINA RESULT:     -13.7      0.000      0.000
REMARK SMILES CC(=O)Nc1ccc(/C=N/c2ccccc2C(=O)NCCCNC(=O)c2ccc(-c3c4nc(c(-c5c(F)c(F)c(F)c(F)c5F)c5ccc([nH]5)c(-c5c(F)c(F)c(F)c(F)c5F)c5nc(c(-c6c(F)c(F)c(F)c(F)c6F)c6ccc3[nH]6)C=C5)C=C4)cc2)cc1
REMARK SMILES IDX 20 1 19 2 17 3 18 4 16 6 11 7 12 8 13 9 15 10 14 11 10 12
REMARK SMILES IDX 9 13 8 14 5 15 6 16 90 17 7 18 89 19 4 20 1 21 2 22 3 23
REMARK SMILES IDX 21 25 22 26 23 27 24 28 25 30 26 31 27 32 88 33 28 34 87 35
REMARK SMILES IDX 29 36 30 37 31 38 81 39 32 40 86 41 80 42 82 43 33 44 85 45
REMARK SMILES IDX 79 46 78 47 34 49 66 50 46 51 65 52 47 53 50 54 64 55 83 56
REMARK SMILES IDX 48 57 49 58 63 60 84 61 51 62 35 63 36 64 44 65 37 66 38 67
REMARK SMILES IDX 42 68 45 69 39 70 40 71 43 72 41 73 67 74 68 75 76 76 69 77
REMARK SMILES IDX 70 78 74 79 77 80 71 81 72 82 75 83 73 84 52 85 53 86 61 87
REMARK SMILES IDX 54 88 55 89 59 90 62 91 56 92 57 93 60 94 58 95
REMARK H PARENT 19 5 4 24 23 29 82 48 50 59
REMARK Flexibility Score: inf
ROOT
ATOM      1  C   UNL A   1      33.860  26.571  24.647  1.00  0.00     0.118 C 
ENDROOT
BRANCH   1   2
ATOM      2  N   UNL A   1      33.629  25.566  23.639  1.00  0.00    -0.352 N 
ATOM      3  C   UNL A   1      32.603  24.655  23.549  1.00  0.00     0.253 C 
ATOM      4  O   UNL A   1      32.485  24.064  22.471  1.00  0.00    -0.269 OA
ATOM      5  H   UNL A   1      34.295  25.529  22.917  1.00  0.00     0.163 HD
BRANCH   3   6
ATOM      6  C   UNL A   1      31.707  24.258  24.679  1.00  0.00     0.065 A 
ATOM      7  C   UNL A   1      30.612  24.965  25.220  1.00  0.00     0.076 A 
ATOM      8  C   UNL A   1      29.939  24.416  26.327  1.00  0.00     0.029 A 
ATOM      9  C   UNL A   1      30.293  23.181  26.870  1.00  0.00     0.002 A 
ATOM     10  C   UNL A   1      32.031  22.993  25.223  1.00  0.00     0.016 A 
ATOM     11  C   UNL A   1      31.335  22.460  26.307  1.00  0.00     0.001 A 
BRANCH   7  12
ATOM     12  N   UNL A   1      30.183  26.248  24.843  1.00  0.00    -0.255 NA
ATOM     13  C   UNL A   1      29.299  26.383  23.911  1.00  0.00     0.119 C 
BRANCH  13  14
ATOM     14  C   UNL A   1      29.001  27.738  23.384  1.00  0.00    -0.007 A 
ATOM     15  C   UNL A   1      28.288  30.133  22.082  1.00  0.00     0.041 A 
ATOM     16  C   UNL A   1      29.601  29.646  22.018  1.00  0.00     0.027 A 
ATOM     17  C   UNL A   1      27.337  29.384  22.778  1.00  0.00     0.027 A 
ATOM     18  C   UNL A   1      29.959  28.456  22.660  1.00  0.00     0.012 A 
ATOM     19  C   UNL A   1      27.690  28.200  23.439  1.00  0.00     0.012 A 
BRANCH  15  20
ATOM     20  N   UNL A   1      28.028  31.320  21.375  1.00  0.00    -0.326 N 
ATOM     21  C   UNL A   1      28.774  33.122  22.944  1.00  0.00     0.114 C 
ATOM     22  C   UNL A   1      28.108  32.644  21.688  1.00  0.00     0.221 C 
ATOM     23  O   UNL A   1      27.647  33.454  20.877  1.00  0.00    -0.275 OA
ATOM     24  H   UNL A   1      27.724  31.161  20.452  1.00  0.00     0.169 HD
ENDBRANCH  15  20
ENDBRANCH  13  14
ENDBRANCH   7  12
ENDBRANCH   3   6
ENDBRANCH   1   2
BRANCH   1  25
ATOM     25  C   UNL A   1      33.031  27.834  24.563  1.00  0.00     0.042 C 
BRANCH  25  26
ATOM     26  C   UNL A   1      33.767  29.109  24.942  1.00  0.00     0.118 C 
BRANCH  26  27
ATOM     27  N   UNL A   1      32.995  30.077  25.721  1.00  0.00    -0.352 N 
ATOM     28  C   UNL A   1      33.321  30.850  26.817  1.00  0.00     0.251 C 
ATOM     29  H   UNL A   1      32.071  30.200  25.403  1.00  0.00     0.163 HD
ATOM     30  O   UNL A   1      32.512  31.640  27.276  1.00  0.00    -0.269 OA
BRANCH  28  31
ATOM     31  C   UNL A   1      34.637  30.686  27.468  1.00  0.00     0.039 A 
ATOM     32  C   UNL A   1      35.474  31.796  27.626  1.00  0.00     0.014 A 
ATOM     33  C   UNL A   1      35.039  29.442  27.938  1.00  0.00     0.014 A 
ATOM     34  C   UNL A   1      36.654  31.682  28.363  1.00  0.00     0.010 A 
ATOM     35  C   UNL A   1      36.144  29.351  28.767  1.00  0.00     0.010 A 
ATOM     36  C   UNL A   1      36.967  30.467  28.983  1.00  0.00    -0.014 A 
BRANCH  36  37
ATOM     37  C   UNL A   1      38.193  30.266  29.791  1.00  0.00     0.031 A 
ATOM     38  C   UNL A   1      39.262  29.373  29.231  1.00  0.00     0.074 A 
ATOM     39  C   UNL A   1      38.280  30.755  31.041  1.00  0.00     0.049 A 
ATOM     40  N   UNL A   1      40.249  28.769  29.837  1.00  0.00    -0.248 NA
ATOM     41  C   UNL A   1      39.155  29.061  27.795  1.00  0.00     0.031 C 
ATOM     42  C   UNL A   1      37.306  31.638  31.682  1.00  0.00     0.029 A 
ATOM     43  N   UNL A   1      39.229  30.551  32.010  1.00  0.00    -0.354 N 
ATOM     44  C   UNL A   1      40.831  27.955  28.873  1.00  0.00     0.074 A 
ATOM     45  C   UNL A   1      40.060  28.106  27.660  1.00  0.00     0.031 C 
ATOM     46  C   UNL A   1      37.716  31.915  32.930  1.00  0.00     0.029 A 
ATOM     47  C   UNL A   1      38.942  31.173  33.201  1.00  0.00     0.049 A 
ATOM     48  H   UNL A   1      40.039  30.009  31.865  1.00  0.00     0.167 HD
ATOM     49  C   UNL A   1      41.920  27.160  28.997  1.00  0.00     0.037 A 
ATOM     50  C   UNL A   1      39.589  31.118  34.381  1.00  0.00     0.037 A 
ATOM     51  C   UNL A   1      42.704  27.081  30.199  1.00  0.00     0.049 A 
ATOM     52  C   UNL A   1      40.807  30.236  34.491  1.00  0.00     0.074 A 
ATOM     53  C   UNL A   1      43.863  26.367  30.433  1.00  0.00     0.029 A 
ATOM     54  N   UNL A   1      42.406  27.763  31.373  1.00  0.00    -0.354 N 
ATOM     55  N   UNL A   1      41.360  29.471  33.581  1.00  0.00    -0.248 NA
ATOM     56  C   UNL A   1      41.481  30.203  35.795  1.00  0.00     0.031 C 
ATOM     57  C   UNL A   1      44.243  26.582  31.762  1.00  0.00     0.029 A 
ATOM     58  C   UNL A   1      43.353  27.476  32.340  1.00  0.00     0.049 A 
ATOM     59  H   UNL A   1      41.635  28.362  31.498  1.00  0.00     0.167 HD
ATOM     60  C   UNL A   1      42.468  28.894  34.188  1.00  0.00     0.074 A 
ATOM     61  C   UNL A   1      42.509  29.404  35.544  1.00  0.00     0.031 C 
ATOM     62  C   UNL A   1      43.372  28.023  33.674  1.00  0.00     0.037 A 
BRANCH  49  63
ATOM     63  C   UNL A   1      42.298  26.312  27.814  1.00  0.00     0.064 A 
ATOM     64  C   UNL A   1      41.736  25.045  27.592  1.00  0.00     0.173 A 
ATOM     65  C   UNL A   1      43.258  26.767  26.896  1.00  0.00     0.173 A 
ATOM     66  F   UNL A   1      40.824  24.552  28.443  1.00  0.00    -0.203 F 
ATOM     67  C   UNL A   1      42.158  24.246  26.532  1.00  0.00     0.198 A 
ATOM     68  C   UNL A   1      43.648  25.983  25.814  1.00  0.00     0.198 A 
ATOM     69  F   UNL A   1      43.829  27.971  27.053  1.00  0.00    -0.203 F 
ATOM     70  F   UNL A   1      41.665  23.008  26.390  1.00  0.00    -0.200 F 
ATOM     71  C   UNL A   1      43.109  24.717  25.641  1.00  0.00     0.200 A 
ATOM     72  F   UNL A   1      44.558  26.446  24.945  1.00  0.00    -0.200 F 
ATOM     73  F   UNL A   1      43.518  23.946  24.623  1.00  0.00    -0.200 F 
ENDBRANCH  49  63
BRANCH  50  74
ATOM     74  C   UNL A   1      39.117  31.930  35.534  1.00  0.00     0.064 A 
ATOM     75  C   UNL A   1      38.297  31.359  36.519  1.00  0.00     0.173 A 
ATOM     76  C   UNL A   1      39.473  33.277  35.690  1.00  0.00     0.173 A 
ATOM     77  F   UNL A   1      37.909  30.080  36.406  1.00  0.00    -0.203 F 
ATOM     78  C   UNL A   1      37.840  32.106  37.603  1.00  0.00     0.198 A 
ATOM     79  C   UNL A   1      39.041  34.016  36.791  1.00  0.00     0.198 A 
ATOM     80  F   UNL A   1      40.260  33.875  34.781  1.00  0.00    -0.203 F 
ATOM     81  F   UNL A   1      37.024  31.545  38.505  1.00  0.00    -0.200 F 
ATOM     82  C   UNL A   1      38.219  33.432  37.743  1.00  0.00     0.200 A 
ATOM     83  F   UNL A   1      39.423  35.293  36.931  1.00  0.00    -0.200 F 
ATOM     84  F   UNL A   1      37.788  34.148  38.790  1.00  0.00    -0.200 F 
ENDBRANCH  50  74
BRANCH  62  85
ATOM     85  C   UNL A   1      44.512  27.617  34.560  1.00  0.00     0.064 A 
ATOM     86  C   UNL A   1      45.717  28.331  34.589  1.00  0.00     0.173 A 
ATOM     87  C   UNL A   1      44.368  26.528  35.434  1.00  0.00     0.173 A 
ATOM     88  F   UNL A   1      45.906  29.370  33.762  1.00  0.00    -0.203 F 
ATOM     89  C   UNL A   1      46.747  27.957  35.449  1.00  0.00     0.198 A 
ATOM     90  C   UNL A   1      45.386  26.177  36.314  1.00  0.00     0.198 A 
ATOM     91  F   UNL A   1      43.229  25.818  35.448  1.00  0.00    -0.203 F 
ATOM     92  F   UNL A   1      47.908  28.626  35.429  1.00  0.00    -0.200 F 
ATOM     93  C   UNL A   1      46.577  26.888  36.316  1.00  0.00     0.200 A 
ATOM     94  F   UNL A   1      45.214  25.155  37.163  1.00  0.00    -0.200 F 
ATOM     95  F   UNL A   1      47.565  26.538  37.151  1.00  0.00    -0.200 F 
ENDBRANCH  62  85
ENDBRANCH  36  37
ENDBRANCH  28  31
ENDBRANCH  26  27
ENDBRANCH  25  26
ENDBRANCH   1  25
TORSDOF 13
ENDMDL
MODEL 2
REMARK VINA RESULT:     -13.6      0.882      1.620
REMARK SMILES CC(=O)Nc1ccc(/C=N/c2ccccc2C(=O)NCCCNC(=O)c2ccc(-c3c4nc(c(-c5c(F)c(F)c(F)c(F)c5F)c5ccc([nH]5)c(-c5c(F)c(F)c(F)c(F)c5F)c5nc(c(-c6c(F)c(F)c(F)c(F)c6F)c6ccc3[nH]6)C=C5)C=C4)cc2)cc1
REMARK SMILES IDX 20 1 19 2 17 3 18 4 16 6 11 7 12 8 13 9 15 10 14 11 10 12
REMARK SMILES IDX 9 13 8 14 5 15 6 16 90 17 7 18 89 19 4 20 1 21 2 22 3 23
REMARK SMILES IDX 21 25 22 26 23 27 24 28 25 30 26 31 27 32 88 33 28 34 87 35
REMARK SMILES IDX 29 36 30 37 31 38 81 39 32 40 86 41 80 42 82 43 33 44 85 45
REMARK SMILES IDX 79 46 78 47 34 49 66 50 46 51 65 52 47 53 50 54 64 55 83 56
REMARK SMILES IDX 48 57 49 58 63 60 84 61 51 62 35 63 36 64 44 65 37 66 38 67
REMARK SMILES IDX 42 68 45 69 39 70 40 71 43 72 41 73 67 74 68 75 76 76 69 77
REMARK SMILES IDX 70 78 74 79 77 80 71 81 72 82 75 83 73 84 52 85 53 86 61 87
REMARK SMILES IDX 54 88 55 89 59 90 62 91 56 92 57 93 60 94 58 95
REMARK H PARENT 19 5 4 24 23 29 82 48 50 59
REMARK Flexibility Score: inf
ROOT
ATOM      1  C   UNL A   1      32.467  26.612  26.453  1.00  0.00     0.118 C 
ENDROOT
BRANCH   1   2
ATOM      2  N   UNL A   1      31.412  25.740  26.906  1.00  0.00    -0.352 N 
ATOM      3  C   UNL A   1      31.060  24.496  26.436  1.00  0.00     0.253 C 
ATOM      4  O   UNL A   1      30.285  23.841  27.140  1.00  0.00    -0.269 OA
ATOM      5  H   UNL A   1      30.870  26.081  27.653  1.00  0.00     0.163 HD
BRANCH   3   6
ATOM      6  C   UNL A   1      31.457  23.937  25.108  1.00  0.00     0.065 A 
ATOM      7  C   UNL A   1      31.518  24.596  23.861  1.00  0.00     0.076 A 
ATOM      8  C   UNL A   1      31.874  23.849  22.723  1.00  0.00     0.029 A 
ATOM      9  C   UNL A   1      32.209  22.497  22.801  1.00  0.00     0.002 A 
ATOM     10  C   UNL A   1      31.831  22.574  25.171  1.00  0.00     0.016 A 
ATOM     11  C   UNL A   1      32.200  21.860  24.032  1.00  0.00     0.001 A 
BRANCH   7  12
ATOM     12  N   UNL A   1      31.137  25.922  23.602  1.00  0.00    -0.255 NA
ATOM     13  C   UNL A   1      29.894  26.263  23.688  1.00  0.00     0.119 C 
BRANCH  13  14
ATOM     14  C   UNL A   1      29.476  27.609  23.222  1.00  0.00    -0.007 A 
ATOM     15  C   UNL A   1      28.549  29.987  22.029  1.00  0.00     0.041 A 
ATOM     16  C   UNL A   1      29.899  29.620  21.940  1.00  0.00     0.027 A 
ATOM     17  C   UNL A   1      27.671  29.128  22.694  1.00  0.00     0.027 A 
ATOM     18  C   UNL A   1      30.363  28.438  22.528  1.00  0.00     0.012 A 
ATOM     19  C   UNL A   1      28.130  27.952  23.301  1.00  0.00     0.012 A 
BRANCH  15  20
ATOM     20  N   UNL A   1      28.183  31.177  21.376  1.00  0.00    -0.326 N 
ATOM     21  C   UNL A   1      28.799  32.968  23.012  1.00  0.00     0.114 C 
ATOM     22  C   UNL A   1      28.157  32.489  21.744  1.00  0.00     0.221 C 
ATOM     23  O   UNL A   1      27.620  33.291  20.973  1.00  0.00    -0.275 OA
ATOM     24  H   UNL A   1      27.879  31.031  20.450  1.00  0.00     0.169 HD
ENDBRANCH  15  20
ENDBRANCH  13  14
ENDBRANCH   7  12
ENDBRANCH   3   6
ENDBRANCH   1   2
BRANCH   1  25
ATOM     25  C   UNL A   1      32.068  28.000  26.006  1.00  0.00     0.042 C 
BRANCH  25  26
ATOM     26  C   UNL A   1      33.168  29.046  26.101  1.00  0.00     0.118 C 
BRANCH  26  27
ATOM     27  N   UNL A   1      32.733  30.388  26.486  1.00  0.00    -0.352 N 
ATOM     28  C   UNL A   1      33.362  31.395  27.191  1.00  0.00     0.251 C 
ATOM     29  H   UNL A   1      31.823  30.615  26.188  1.00  0.00     0.163 HD
ATOM     30  O   UNL A   1      32.811  32.472  27.350  1.00  0.00    -0.269 OA
BRANCH  28  31
ATOM     31  C   UNL A   1      34.687  31.153  27.796  1.00  0.00     0.039 A 
ATOM     32  C   UNL A   1      35.608  32.202  27.890  1.00  0.00     0.014 A 
ATOM     33  C   UNL A   1      35.018  29.896  28.286  1.00  0.00     0.014 A 
ATOM     34  C   UNL A   1      36.805  32.022  28.585  1.00  0.00     0.010 A 
ATOM     35  C   UNL A   1      36.146  29.746  29.075  1.00  0.00     0.010 A 
ATOM     36  C   UNL A   1      37.055  30.805  29.227  1.00  0.00    -0.014 A 
BRANCH  36  37
ATOM     37  C   UNL A   1      38.294  30.537  29.994  1.00  0.00     0.031 A 
ATOM     38  C   UNL A   1      39.304  29.605  29.389  1.00  0.00     0.074 A 
ATOM     39  C   UNL A   1      38.442  31.002  31.248  1.00  0.00     0.049 A 
ATOM     40  N   UNL A   1      40.280  28.949  29.955  1.00  0.00    -0.248 NA
ATOM     41  C   UNL A   1      39.139  29.321  27.952  1.00  0.00     0.031 C 
ATOM     42  C   UNL A   1      37.528  31.918  31.930  1.00  0.00     0.029 A 
ATOM     43  N   UNL A   1      39.410  30.740  32.183  1.00  0.00    -0.354 N 
ATOM     44  C   UNL A   1      40.795  28.124  28.962  1.00  0.00     0.074 A 
ATOM     45  C   UNL A   1      39.996  28.329  27.776  1.00  0.00     0.031 C 
ATOM     46  C   UNL A   1      37.988  32.157  33.170  1.00  0.00     0.029 A 
ATOM     47  C   UNL A   1      39.188  31.356  33.391  1.00  0.00     0.049 A 
ATOM     48  H   UNL A   1      40.189  30.165  32.006  1.00  0.00     0.167 HD
ATOM     49  C   UNL A   1      41.850  27.280  29.040  1.00  0.00     0.037 A 
ATOM     50  C   UNL A   1      39.867  31.254  34.549  1.00  0.00     0.037 A 
ATOM     51  C   UNL A   1      42.666  27.147  30.216  1.00  0.00     0.049 A 
ATOM     52  C   UNL A   1      41.046  30.317  34.610  1.00  0.00     0.074 A 
ATOM     53  C   UNL A   1      43.799  26.377  30.404  1.00  0.00     0.029 A 
ATOM     54  N   UNL A   1      42.436  27.823  31.408  1.00  0.00    -0.354 N 
ATOM     55  N   UNL A   1      41.537  29.542  33.672  1.00  0.00    -0.248 NA
ATOM     56  C   UNL A   1      41.758  30.233  35.891  1.00  0.00     0.031 C 
ATOM     57  C   UNL A   1      44.228  26.555  31.724  1.00  0.00     0.029 A 
ATOM     58  C   UNL A   1      43.397  27.479  32.342  1.00  0.00     0.049 A 
ATOM     59  H   UNL A   1      41.697  28.454  31.566  1.00  0.00     0.167 HD
ATOM     60  C   UNL A   1      42.635  28.907  34.236  1.00  0.00     0.074 A 
ATOM     61  C   UNL A   1      42.740  29.394  35.597  1.00  0.00     0.031 C 
ATOM     62  C   UNL A   1      43.482  28.004  33.682  1.00  0.00     0.037 A 
BRANCH  49  63
ATOM     63  C   UNL A   1      42.154  26.434  27.834  1.00  0.00     0.064 A 
ATOM     64  C   UNL A   1      41.523  25.199  27.610  1.00  0.00     0.173 A 
ATOM     65  C   UNL A   1      43.110  26.856  26.897  1.00  0.00     0.173 A 
ATOM     66  F   UNL A   1      40.612  24.738  28.479  1.00  0.00    -0.203 F 
ATOM     67  C   UNL A   1      41.876  24.399  26.526  1.00  0.00     0.198 A 
ATOM     68  C   UNL A   1      43.431  26.071  25.793  1.00  0.00     0.198 A 
ATOM     69  F   UNL A   1      43.744  28.028  27.057  1.00  0.00    -0.203 F 
ATOM     70  F   UNL A   1      41.318  23.188  26.379  1.00  0.00    -0.200 F 
ATOM     71  C   UNL A   1      42.825  24.837  25.616  1.00  0.00     0.200 A 
ATOM     72  F   UNL A   1      44.339  26.503  24.906  1.00  0.00    -0.200 F 
ATOM     73  F   UNL A   1      43.167  24.064  24.575  1.00  0.00    -0.200 F 
ENDBRANCH  49  63
BRANCH  50  74
ATOM     74  C   UNL A   1      39.467  32.069  35.728  1.00  0.00     0.064 A 
ATOM     75  C   UNL A   1      40.032  33.335  35.944  1.00  0.00     0.173 A 
ATOM     76  C   UNL A   1      38.517  31.618  36.656  1.00  0.00     0.173 A 
ATOM     77  F   UNL A   1      40.962  33.804  35.098  1.00  0.00    -0.203 F 
ATOM     78  C   UNL A   1      39.674  34.110  37.045  1.00  0.00     0.198 A 
ATOM     79  C   UNL A   1      38.136  32.406  37.741  1.00  0.00     0.198 A 
ATOM     80  F   UNL A   1      37.940  30.417  36.498  1.00  0.00    -0.203 F 
ATOM     81  F   UNL A   1      40.261  35.297  37.247  1.00  0.00    -0.200 F 
ATOM     82  C   UNL A   1      38.721  33.648  37.940  1.00  0.00     0.200 A 
ATOM     83  F   UNL A   1      37.203  31.963  38.594  1.00  0.00    -0.200 F 
ATOM     84  F   UNL A   1      38.369  34.397  38.994  1.00  0.00    -0.200 F 
ENDBRANCH  50  74
BRANCH  62  85
ATOM     85  C   UNL A   1      44.629  27.533  34.527  1.00  0.00     0.064 A 
ATOM     86  C   UNL A   1      45.844  28.229  34.578  1.00  0.00     0.173 A 
ATOM     87  C   UNL A   1      44.483  26.399  35.340  1.00  0.00     0.173 A 
ATOM     88  F   UNL A   1      46.036  29.311  33.807  1.00  0.00    -0.203 F 
ATOM     89  C   UNL A   1      46.881  27.794  35.399  1.00  0.00     0.198 A 
ATOM     90  C   UNL A   1      45.509  25.985  36.183  1.00  0.00     0.198 A 
ATOM     91  F   UNL A   1      43.334  25.704  35.331  1.00  0.00    -0.203 F 
ATOM     92  F   UNL A   1      48.051  28.448  35.400  1.00  0.00    -0.200 F 
ATOM     93  C   UNL A   1      46.709  26.680  36.207  1.00  0.00     0.200 A 
ATOM     94  F   UNL A   1      45.334  24.919  36.976  1.00  0.00    -0.200 F 
ATOM     95  F   UNL A   1      47.704  26.270  37.006  1.00  0.00    -0.200 F 
ENDBRANCH  62  85
ENDBRANCH  36  37
ENDBRANCH  28  31
ENDBRANCH  26  27
ENDBRANCH  25  26
ENDBRANCH   1  25
TORSDOF 13
ENDMDL
MODEL 3
REMARK VINA RESULT:     -13.2      1.916      4.761
REMARK SMILES CC(=O)Nc1ccc(/C=N/c2ccccc2C(=O)NCCCNC(=O)c2ccc(-c3c4nc(c(-c5c(F)c(F)c(F)c(F)c5F)c5ccc([nH]5)c(-c5c(F)c(F)c(F)c(F)c5F)c5nc(c(-c6c(F)c(F)c(F)c(F)c6F)c6ccc3[nH]6)C=C5)C=C4)cc2)cc1
REMARK SMILES IDX 20 1 19 2 17 3 18 4 16 6 11 7 12 8 13 9 15 10 14 11 10 12
REMARK SMILES IDX 9 13 8 14 5 15 6 16 90 17 7 18 89 19 4 20 1 21 2 22 3 23
REMARK SMILES IDX 21 25 22 26 23 27 24 28 25 30 26 31 27 32 88 33 28 34 87 35
REMARK SMILES IDX 29 36 30 37 31 38 81 39 32 40 86 41 80 42 82 43 33 44 85 45
REMARK SMILES IDX 79 46 78 47 34 49 66 50 46 51 65 52 47 53 50 54 64 55 83 56
REMARK SMILES IDX 48 57 49 58 63 60 84 61 51 62 35 63 36 64 44 65 37 66 38 67
REMARK SMILES IDX 42 68 45 69 39 70 40 71 43 72 41 73 67 74 68 75 76 76 69 77
REMARK SMILES IDX 70 78 74 79 77 80 71 81 72 82 75 83 73 84 52 85 53 86 61 87
REMARK SMILES IDX 54 88 55 89 59 90 62 91 56 92 57 93 60 94 58 95
REMARK H PARENT 19 5 4 24 23 29 82 48 50 59
REMARK Flexibility Score: inf
ROOT
ATOM      1  C   UNL A   1      33.636  28.849  22.781  1.00  0.00     0.118 C 
ENDROOT
BRANCH   1   2
ATOM      2  N   UNL A   1      33.805  27.597  22.087  1.00  0.00    -0.352 N 
ATOM      3  C   UNL A   1      32.906  26.569  21.931  1.00  0.00     0.253 C 
ATOM      4  O   UNL A   1      33.192  25.709  21.091  1.00  0.00    -0.269 OA
ATOM      5  H   UNL A   1      34.684  27.461  21.666  1.00  0.00     0.163 HD
BRANCH   3   6
ATOM      6  C   UNL A   1      31.683  26.365  22.767  1.00  0.00     0.065 A 
ATOM      7  C   UNL A   1      31.392  25.304  23.652  1.00  0.00     0.076 A 
ATOM      8  C   UNL A   1      30.143  25.294  24.301  1.00  0.00     0.029 A 
ATOM      9  C   UNL A   1      29.212  26.319  24.129  1.00  0.00     0.002 A 
ATOM     10  C   UNL A   1      30.740  27.410  22.631  1.00  0.00     0.016 A 
ATOM     11  C   UNL A   1      29.517  27.388  23.301  1.00  0.00     0.001 A 
BRANCH   7  12
ATOM     12  N   UNL A   1      32.182  24.164  23.872  1.00  0.00    -0.255 NA
ATOM     13  C   UNL A   1      32.040  23.127  23.116  1.00  0.00     0.119 C 
BRANCH  13  14
ATOM     14  C   UNL A   1      32.731  21.864  23.477  1.00  0.00    -0.007 A 
ATOM     15  C   UNL A   1      33.787  19.436  24.440  1.00  0.00     0.041 A 
ATOM     16  C   UNL A   1      34.370  20.662  24.794  1.00  0.00     0.027 A 
ATOM     17  C   UNL A   1      32.652  19.453  23.627  1.00  0.00     0.027 A 
ATOM     18  C   UNL A   1      33.846  21.870  24.320  1.00  0.00     0.012 A 
ATOM     19  C   UNL A   1      32.132  20.656  23.133  1.00  0.00     0.012 A 
BRANCH  15  20
ATOM     20  N   UNL A   1      34.372  18.285  24.996  1.00  0.00    -0.326 N 
ATOM     21  C   UNL A   1      34.216  16.591  23.160  1.00  0.00     0.114 C 
ATOM     22  C   UNL A   1      34.517  16.998  24.572  1.00  0.00     0.221 C 
ATOM     23  O   UNL A   1      34.949  16.172  25.382  1.00  0.00    -0.275 OA
ATOM     24  H   UNL A   1      34.764  18.443  25.886  1.00  0.00     0.169 HD
ENDBRANCH  15  20
ENDBRANCH  13  14
ENDBRANCH   7  12
ENDBRANCH   3   6
ENDBRANCH   1   2
BRANCH   1  25
ATOM     25  C   UNL A   1      34.310  28.985  24.129  1.00  0.00     0.042 C 
BRANCH  25  26
ATOM     26  C   UNL A   1      33.421  28.678  25.324  1.00  0.00     0.118 C 
BRANCH  26  27
ATOM     27  N   UNL A   1      32.754  29.829  25.929  1.00  0.00    -0.352 N 
ATOM     28  C   UNL A   1      33.179  30.763  26.852  1.00  0.00     0.251 C 
ATOM     29  H   UNL A   1      31.829  29.963  25.620  1.00  0.00     0.163 HD
ATOM     30  O   UNL A   1      32.449  31.685  27.178  1.00  0.00    -0.269 OA
BRANCH  28  31
ATOM     31  C   UNL A   1      34.506  30.620  27.486  1.00  0.00     0.039 A 
ATOM     32  C   UNL A   1      35.331  31.741  27.627  1.00  0.00     0.014 A 
ATOM     33  C   UNL A   1      34.932  29.384  27.956  1.00  0.00     0.014 A 
ATOM     34  C   UNL A   1      36.522  31.647  28.348  1.00  0.00     0.010 A 
ATOM     35  C   UNL A   1      36.049  29.311  28.770  1.00  0.00     0.010 A 
ATOM     36  C   UNL A   1      36.860  30.440  28.969  1.00  0.00    -0.014 A 
BRANCH  36  37
ATOM     37  C   UNL A   1      38.099  30.259  29.761  1.00  0.00     0.031 A 
ATOM     38  C   UNL A   1      39.174  29.380  29.189  1.00  0.00     0.074 A 
ATOM     39  C   UNL A   1      38.196  30.753  31.009  1.00  0.00     0.049 A 
ATOM     40  N   UNL A   1      40.178  28.793  29.783  1.00  0.00    -0.248 NA
ATOM     41  C   UNL A   1      39.052  29.063  27.755  1.00  0.00     0.031 C 
ATOM     42  C   UNL A   1      37.218  31.623  31.660  1.00  0.00     0.029 A 
ATOM     43  N   UNL A   1      39.161  30.565  31.965  1.00  0.00    -0.354 N 
ATOM     44  C   UNL A   1      40.759  27.985  28.814  1.00  0.00     0.074 A 
ATOM     45  C   UNL A   1      39.970  28.122  27.611  1.00  0.00     0.031 C 
ATOM     46  C   UNL A   1      37.640  31.910  32.903  1.00  0.00     0.029 A 
ATOM     47  C   UNL A   1      38.881  31.186  33.158  1.00  0.00     0.049 A 
ATOM     48  H   UNL A   1      39.977  30.035  31.811  1.00  0.00     0.167 HD
ATOM     49  C   UNL A   1      41.861  27.207  28.924  1.00  0.00     0.037 A 
ATOM     50  C   UNL A   1      39.545  31.144  34.330  1.00  0.00     0.037 A 
ATOM     51  C   UNL A   1      42.662  27.143  30.116  1.00  0.00     0.049 A 
ATOM     52  C   UNL A   1      40.776  30.281  34.426  1.00  0.00     0.074 A 
ATOM     53  C   UNL A   1      43.835  26.446  30.336  1.00  0.00     0.029 A 
ATOM     54  N   UNL A   1      42.370  27.823  31.292  1.00  0.00    -0.354 N 
ATOM     55  N   UNL A   1      41.329  29.522  33.510  1.00  0.00    -0.248 NA
ATOM     56  C   UNL A   1      41.469  30.261  35.721  1.00  0.00     0.031 C 
ATOM     57  C   UNL A   1      44.230  26.670  31.660  1.00  0.00     0.029 A 
ATOM     58  C   UNL A   1      43.334  27.553  32.247  1.00  0.00     0.049 A 
ATOM     59  H   UNL A   1      41.592  28.411  31.427  1.00  0.00     0.167 HD
ATOM     60  C   UNL A   1      42.453  28.962  34.103  1.00  0.00     0.074 A 
ATOM     61  C   UNL A   1      42.505  29.477  35.457  1.00  0.00     0.031 C 
ATOM     62  C   UNL A   1      43.363  28.103  33.580  1.00  0.00     0.037 A 
BRANCH  49  63
ATOM     63  C   UNL A   1      42.236  26.361  27.738  1.00  0.00     0.064 A 
ATOM     64  C   UNL A   1      41.702  25.078  27.537  1.00  0.00     0.173 A 
ATOM     65  C   UNL A   1      43.165  26.835  26.798  1.00  0.00     0.173 A 
ATOM     66  F   UNL A   1      40.821  24.568  28.410  1.00  0.00    -0.203 F 
ATOM     67  C   UNL A   1      42.122  24.284  26.472  1.00  0.00     0.198 A 
ATOM     68  C   UNL A   1      43.552  26.053  25.713  1.00  0.00     0.198 A 
ATOM     69  F   UNL A   1      43.707  28.054  26.936  1.00  0.00    -0.203 F 
ATOM     70  F   UNL A   1      41.657  23.033  26.348  1.00  0.00    -0.200 F 
ATOM     71  C   UNL A   1      43.042  24.774  25.558  1.00  0.00     0.200 A 
ATOM     72  F   UNL A   1      44.431  26.534  24.822  1.00  0.00    -0.200 F 
ATOM     73  F   UNL A   1      43.448  24.007  24.536  1.00  0.00    -0.200 F 
ENDBRANCH  49  63
BRANCH  50  74
ATOM     74  C   UNL A   1      39.076  31.952  35.487  1.00  0.00     0.064 A 
ATOM     75  C   UNL A   1      38.290  31.368  36.492  1.00  0.00     0.173 A 
ATOM     76  C   UNL A   1      39.402  33.309  35.627  1.00  0.00     0.173 A 
ATOM     77  F   UNL A   1      37.933  30.079  36.396  1.00  0.00    -0.203 F 
ATOM     78  C   UNL A   1      37.838  32.111  37.581  1.00  0.00     0.198 A 
ATOM     79  C   UNL A   1      38.974  34.044  36.732  1.00  0.00     0.198 A 
ATOM     80  F   UNL A   1      40.154  33.919  34.699  1.00  0.00    -0.203 F 
ATOM     81  F   UNL A   1      37.055  31.536  38.503  1.00  0.00    -0.200 F 
ATOM     82  C   UNL A   1      38.186  33.447  37.705  1.00  0.00     0.200 A 
ATOM     83  F   UNL A   1      39.327  35.331  36.855  1.00  0.00    -0.200 F 
ATOM     84  F   UNL A   1      37.759  34.159  38.756  1.00  0.00    -0.200 F 
ENDBRANCH  50  74
BRANCH  62  85
ATOM     85  C   UNL A   1      44.520  27.717  34.452  1.00  0.00     0.064 A 
ATOM     86  C   UNL A   1      44.487  26.573  35.260  1.00  0.00     0.173 A 
ATOM     87  C   UNL A   1      45.700  28.476  34.429  1.00  0.00     0.173 A 
ATOM     88  F   UNL A   1      43.376  25.823  35.326  1.00  0.00    -0.203 F 
ATOM     89  C   UNL A   1      45.589  26.213  36.032  1.00  0.00     0.198 A 
ATOM     90  C   UNL A   1      46.810  28.096  35.177  1.00  0.00     0.198 A 
ATOM     91  F   UNL A   1      45.783  29.576  33.665  1.00  0.00    -0.203 F 
ATOM     92  F   UNL A   1      45.521  25.140  36.833  1.00  0.00    -0.200 F 
ATOM     93  C   UNL A   1      46.751  26.969  35.982  1.00  0.00     0.200 A 
ATOM     94  F   UNL A   1      47.938  28.818  35.114  1.00  0.00    -0.200 F 
ATOM     95  F   UNL A   1      47.815  26.614  36.716  1.00  0.00    -0.200 F 
ENDBRANCH  62  85
ENDBRANCH  36  37
ENDBRANCH  28  31
ENDBRANCH  26  27
ENDBRANCH  25  26
ENDBRANCH   1  25
TORSDOF 13
ENDMDL
