MODEL 1
REMARK VINA RESULT:     -13.3      0.000      0.000
REMARK SMILES Cc1nn(Cc2ccc(Cl)cc2Cl)c(C)c1NC(=O)c1c(C(=O)NCCCNC(=O)c2ccc(-c3c4nc(c(-c5c(F)c(F)c(F)c(F)c5F)c5ccc([nH]5)c(-c5c(F)c(F)c(F)c(F)c5F)c5nc(c(-c6c(F)c(F)c(F)c(F)c6F)c6ccc3[nH]6)C=C5)C=C4)cc2)cnn1C
REMARK SMILES IDX 25 1 24 2 22 3 23 4 21 6 20 7 96 8 94 9 95 10 97 11 18 12
REMARK SMILES IDX 17 13 19 15 16 16 1 17 2 18 3 19 4 20 14 21 15 22 5 23 6 24
REMARK SMILES IDX 7 25 12 26 8 27 11 28 13 29 9 30 10 31 26 32 27 33 28 34
REMARK SMILES IDX 29 35 30 37 31 38 32 39 93 40 33 41 92 42 34 43 35 44 36 45
REMARK SMILES IDX 86 46 37 47 91 48 85 49 87 50 38 51 90 52 84 53 83 54 39 56
REMARK SMILES IDX 71 57 51 58 70 59 52 60 55 61 69 62 88 63 53 64 54 65 68 67
REMARK SMILES IDX 89 68 56 69 40 70 41 71 49 72 42 73 43 74 47 75 50 76 44 77
REMARK SMILES IDX 45 78 48 79 46 80 72 81 73 82 81 83 74 84 75 85 79 86 82 87
REMARK SMILES IDX 76 88 77 89 80 90 78 91 57 92 58 93 66 94 59 95 60 96 64 97
REMARK SMILES IDX 67 98 61 99 62 100 65 101 63 102
REMARK H PARENT 24 5 17 14 28 36 87 55 55 66
REMARK Flexibility Score: inf
ROOT
ATOM      1  C   UNL A   1      37.554  23.363  25.662  1.00  0.00     0.118 C 
ENDROOT
BRANCH   1   2
ATOM      2  N   UNL A   1      36.914  23.533  24.360  1.00  0.00    -0.352 N 
ATOM      3  C   UNL A   1      35.695  23.129  23.845  1.00  0.00     0.255 C 
ATOM      4  O   UNL A   1      35.341  23.668  22.797  1.00  0.00    -0.269 OA
ATOM      5  H   UNL A   1      37.461  24.038  23.717  1.00  0.00     0.163 HD
BRANCH   3   6
ATOM      6  C   UNL A   1      34.896  22.085  24.469  1.00  0.00     0.090 A 
ATOM      7  C   UNL A   1      33.599  21.700  24.093  1.00  0.00     0.138 A 
ATOM      8  N   UNL A   1      33.271  20.654  24.928  1.00  0.00    -0.262 N 
ATOM      9  C   UNL A   1      35.157  21.280  25.601  1.00  0.00     0.149 A 
ATOM     10  N   UNL A   1      34.217  20.370  25.836  1.00  0.00    -0.180 NA
ATOM     11  C   UNL A   1      32.135  19.762  24.842  1.00  0.00     0.174 C 
BRANCH   7  12
ATOM     12  C   UNL A   1      32.662  22.229  23.128  1.00  0.00     0.274 C 
ATOM     13  N   UNL A   1      32.002  23.424  23.291  1.00  0.00    -0.317 N 
ATOM     14  H   UNL A   1      31.304  23.587  22.616  1.00  0.00     0.170 HD
ATOM     15  O   UNL A   1      32.414  21.608  22.091  1.00  0.00    -0.267 OA
BRANCH  13  16
ATOM     16  C   UNL A   1      32.131  24.437  24.216  1.00  0.00     0.085 A 
ATOM     17  C   UNL A   1      30.772  23.396  26.207  1.00  0.00     0.071 C 
ATOM     18  C   UNL A   1      31.649  24.404  25.559  1.00  0.00     0.083 A 
ATOM     19  N   UNL A   1      32.097  25.449  26.267  1.00  0.00    -0.175 NA
ATOM     20  N   UNL A   1      32.808  26.155  25.367  1.00  0.00    -0.263 N 
ATOM     21  C   UNL A   1      32.632  25.713  24.078  1.00  0.00     0.060 A 
ATOM     22  C   UNL A   1      32.932  26.566  22.907  1.00  0.00     0.069 C 
BRANCH  20  23
ATOM     23  C   UNL A   1      33.836  27.082  25.830  1.00  0.00     0.181 C 
BRANCH  23  24
ATOM     24  C   UNL A   1      33.308  28.455  26.142  1.00  0.00    -0.008 A 
ATOM     25  C   UNL A   1      32.032  28.797  25.658  1.00  0.00     0.009 A 
ATOM     26  C   UNL A   1      34.013  29.411  26.895  1.00  0.00     0.047 A 
ATOM     27  C   UNL A   1      31.492  30.060  25.896  1.00  0.00     0.021 A 
ATOM     28  C   UNL A   1      33.484  30.685  27.107  1.00  0.00     0.041 A 
ATOM     29  Cl  UNL A   1      35.534  29.085  27.646  1.00  0.00    -0.084 Cl
ATOM     30  C   UNL A   1      32.228  31.004  26.605  1.00  0.00     0.042 A 
ATOM     31  Cl  UNL A   1      31.578  32.572  26.875  1.00  0.00    -0.084 Cl
ENDBRANCH  23  24
ENDBRANCH  20  23
ENDBRANCH  13  16
ENDBRANCH   7  12
ENDBRANCH   3   6
ENDBRANCH   1   2
BRANCH   1  32
ATOM     32  C   UNL A   1      38.578  22.232  25.786  1.00  0.00     0.042 C 
BRANCH  32  33
ATOM     33  C   UNL A   1      39.719  22.495  26.745  1.00  0.00     0.118 C 
BRANCH  33  34
ATOM     34  N   UNL A   1      41.031  22.242  26.163  1.00  0.00    -0.352 N 
ATOM     35  C   UNL A   1      41.986  23.176  25.797  1.00  0.00     0.251 C 
ATOM     36  H   UNL A   1      41.267  21.298  26.014  1.00  0.00     0.163 HD
ATOM     37  O   UNL A   1      42.859  22.892  24.993  1.00  0.00    -0.269 OA
BRANCH  35  38
ATOM     38  C   UNL A   1      41.932  24.525  26.398  1.00  0.00     0.039 A 
ATOM     39  C   UNL A   1      41.180  25.546  25.811  1.00  0.00     0.014 A 
ATOM     40  C   UNL A   1      42.658  24.766  27.561  1.00  0.00     0.014 A 
ATOM     41  C   UNL A   1      41.136  26.788  26.440  1.00  0.00     0.010 A 
ATOM     42  C   UNL A   1      42.470  25.920  28.272  1.00  0.00     0.010 A 
ATOM     43  C   UNL A   1      41.774  26.961  27.681  1.00  0.00    -0.014 A 
BRANCH  43  44
ATOM     44  C   UNL A   1      41.616  28.197  28.436  1.00  0.00     0.031 A 
ATOM     45  C   UNL A   1      42.676  29.197  28.156  1.00  0.00     0.074 A 
ATOM     46  C   UNL A   1      40.523  28.494  29.173  1.00  0.00     0.049 A 
ATOM     47  N   UNL A   1      43.581  29.609  28.977  1.00  0.00    -0.248 NA
ATOM     48  C   UNL A   1      42.861  29.670  26.773  1.00  0.00     0.031 C 
ATOM     49  C   UNL A   1      39.276  27.735  29.312  1.00  0.00     0.029 A 
ATOM     50  N   UNL A   1      40.259  29.618  29.895  1.00  0.00    -0.354 N 
ATOM     51  C   UNL A   1      44.320  30.556  28.283  1.00  0.00     0.074 A 
ATOM     52  C   UNL A   1      43.962  30.416  26.896  1.00  0.00     0.031 C 
ATOM     53  C   UNL A   1      38.320  28.524  29.851  1.00  0.00     0.029 A 
ATOM     54  C   UNL A   1      38.922  29.784  30.243  1.00  0.00     0.049 A 
ATOM     55  H   UNL A   1      40.958  30.262  30.149  1.00  0.00     0.167 HD
ATOM     56  C   UNL A   1      44.952  31.555  28.958  1.00  0.00     0.037 A 
ATOM     57  C   UNL A   1      38.355  30.898  30.775  1.00  0.00     0.037 A 
ATOM     58  C   UNL A   1      45.119  31.214  30.352  1.00  0.00     0.049 A 
ATOM     59  C   UNL A   1      39.454  31.696  31.383  1.00  0.00     0.074 A 
ATOM     60  C   UNL A   1      45.687  30.137  31.012  1.00  0.00     0.029 A 
ATOM     61  N   UNL A   1      44.298  31.814  31.278  1.00  0.00    -0.354 N 
ATOM     62  N   UNL A   1      40.119  31.314  32.439  1.00  0.00    -0.248 NA
ATOM     63  C   UNL A   1      40.136  32.655  30.525  1.00  0.00     0.031 C 
ATOM     64  C   UNL A   1      44.783  29.843  32.077  1.00  0.00     0.029 A 
ATOM     65  C   UNL A   1      43.785  30.816  32.068  1.00  0.00     0.049 A 
ATOM     66  H   UNL A   1      44.114  32.777  31.358  1.00  0.00     0.167 HD
ATOM     67  C   UNL A   1      41.440  31.608  32.139  1.00  0.00     0.074 A 
ATOM     68  C   UNL A   1      41.382  32.495  30.977  1.00  0.00     0.031 C 
ATOM     69  C   UNL A   1      42.468  30.870  32.655  1.00  0.00     0.037 A 
BRANCH  56  70
ATOM     70  C   UNL A   1      45.034  32.974  28.453  1.00  0.00     0.064 A 
ATOM     71  C   UNL A   1      46.292  33.601  28.385  1.00  0.00     0.173 A 
ATOM     72  C   UNL A   1      43.918  33.832  28.335  1.00  0.00     0.173 A 
ATOM     73  F   UNL A   1      47.420  32.885  28.514  1.00  0.00    -0.203 F 
ATOM     74  C   UNL A   1      46.419  34.989  28.288  1.00  0.00     0.198 A 
ATOM     75  C   UNL A   1      44.050  35.210  28.182  1.00  0.00     0.198 A 
ATOM     76  F   UNL A   1      42.661  33.399  28.482  1.00  0.00    -0.203 F 
ATOM     77  F   UNL A   1      47.633  35.552  28.364  1.00  0.00    -0.200 F 
ATOM     78  C   UNL A   1      45.297  35.792  28.192  1.00  0.00     0.200 A 
ATOM     79  F   UNL A   1      42.948  35.970  28.116  1.00  0.00    -0.200 F 
ATOM     80  F   UNL A   1      45.414  37.125  28.164  1.00  0.00    -0.200 F 
ENDBRANCH  56  70
BRANCH  57  81
ATOM     81  C   UNL A   1      37.006  31.468  30.517  1.00  0.00     0.064 A 
ATOM     82  C   UNL A   1      36.097  31.685  31.570  1.00  0.00     0.173 A 
ATOM     83  C   UNL A   1      36.680  32.075  29.287  1.00  0.00     0.173 A 
ATOM     84  F   UNL A   1      36.343  31.184  32.789  1.00  0.00    -0.203 F 
ATOM     85  C   UNL A   1      34.959  32.487  31.411  1.00  0.00     0.198 A 
ATOM     86  C   UNL A   1      35.540  32.867  29.127  1.00  0.00     0.198 A 
ATOM     87  F   UNL A   1      37.506  31.994  28.236  1.00  0.00    -0.203 F 
ATOM     88  F   UNL A   1      34.158  32.725  32.458  1.00  0.00    -0.200 F 
ATOM     89  C   UNL A   1      34.689  33.086  30.192  1.00  0.00     0.200 A 
ATOM     90  F   UNL A   1      35.309  33.468  27.951  1.00  0.00    -0.200 F 
ATOM     91  F   UNL A   1      33.637  33.906  30.057  1.00  0.00    -0.200 F 
ENDBRANCH  57  81
BRANCH  69  92
ATOM     92  C   UNL A   1      42.170  29.888  33.756  1.00  0.00     0.064 A 
ATOM     93  C   UNL A   1      41.710  28.575  33.553  1.00  0.00     0.173 A 
ATOM     94  C   UNL A   1      42.511  30.250  35.067  1.00  0.00     0.173 A 
ATOM     95  F   UNL A   1      41.462  28.108  32.323  1.00  0.00    -0.203 F 
ATOM     96  C   UNL A   1      41.554  27.688  34.620  1.00  0.00     0.198 A 
ATOM     97  C   UNL A   1      42.395  29.350  36.124  1.00  0.00     0.198 A 
ATOM     98  F   UNL A   1      43.008  31.471  35.320  1.00  0.00    -0.203 F 
ATOM     99  F   UNL A   1      41.098  26.446  34.400  1.00  0.00    -0.200 F 
ATOM    100  C   UNL A   1      41.905  28.074  35.902  1.00  0.00     0.200 A 
ATOM    101  F   UNL A   1      42.786  29.714  37.353  1.00  0.00    -0.200 F 
ATOM    102  F   UNL A   1      41.795  27.210  36.921  1.00  0.00    -0.200 F 
ENDBRANCH  69  92
ENDBRANCH  43  44
ENDBRANCH  35  38
ENDBRANCH  33  34
ENDBRANCH  32  33
ENDBRANCH   1  32
TORSDOF 14
ENDMDL
MODEL 2
REMARK VINA RESULT:     -12.9      3.545      8.624
REMARK SMILES Cc1nn(Cc2ccc(Cl)cc2Cl)c(C)c1NC(=O)c1c(C(=O)NCCCNC(=O)c2ccc(-c3c4nc(c(-c5c(F)c(F)c(F)c(F)c5F)c5ccc([nH]5)c(-c5c(F)c(F)c(F)c(F)c5F)c5nc(c(-c6c(F)c(F)c(F)c(F)c6F)c6ccc3[nH]6)C=C5)C=C4)cc2)cnn1C
REMARK SMILES IDX 25 1 24 2 22 3 23 4 21 6 20 7 96 8 94 9 95 10 97 11 18 12
REMARK SMILES IDX 17 13 19 15 16 16 1 17 2 18 3 19 4 20 14 21 15 22 5 23 6 24
REMARK SMILES IDX 7 25 12 26 8 27 11 28 13 29 9 30 10 31 26 32 27 33 28 34
REMARK SMILES IDX 29 35 30 37 31 38 32 39 93 40 33 41 92 42 34 43 35 44 36 45
REMARK SMILES IDX 86 46 37 47 91 48 85 49 87 50 38 51 90 52 84 53 83 54 39 56
REMARK SMILES IDX 71 57 51 58 70 59 52 60 55 61 69 62 88 63 53 64 54 65 68 67
REMARK SMILES IDX 89 68 56 69 40 70 41 71 49 72 42 73 43 74 47 75 50 76 44 77
REMARK SMILES IDX 45 78 48 79 46 80 72 81 73 82 81 83 74 84 75 85 79 86 82 87
REMARK SMILES IDX 76 88 77 89 80 90 78 91 57 92 58 93 66 94 59 95 60 96 64 97
REMARK SMILES IDX 67 98 61 99 62 100 65 101 63 102
REMARK H PARENT 24 5 17 14 28 36 87 55 55 66
REMARK Flexibility Score: inf
ROOT
ATOM      1  C   UNL A   1      32.993  26.873  26.500  1.00  0.00     0.118 C 
ENDROOT
BRANCH   1   2
ATOM      2  N   UNL A   1      31.589  26.480  26.598  1.00  0.00    -0.352 N 
ATOM      3  C   UNL A   1      30.847  25.469  26.016  1.00  0.00     0.255 C 
ATOM      4  O   UNL A   1      29.746  25.243  26.518  1.00  0.00    -0.269 OA
ATOM      5  H   UNL A   1      31.064  27.053  27.202  1.00  0.00     0.163 HD
BRANCH   3   6
ATOM      6  C   UNL A   1      31.307  24.745  24.841  1.00  0.00     0.090 A 
ATOM      7  C   UNL A   1      31.365  23.349  24.699  1.00  0.00     0.138 A 
ATOM      8  N   UNL A   1      31.814  23.129  23.415  1.00  0.00    -0.262 N 
ATOM      9  C   UNL A   1      31.860  25.216  23.629  1.00  0.00     0.149 A 
ATOM     10  N   UNL A   1      32.097  24.255  22.742  1.00  0.00    -0.180 NA
ATOM     11  C   UNL A   1      31.867  21.881  22.687  1.00  0.00     0.174 C 
BRANCH   7  12
ATOM     12  C   UNL A   1      31.121  22.261  25.619  1.00  0.00     0.274 C 
ATOM     13  N   UNL A   1      32.077  21.338  25.971  1.00  0.00    -0.317 N 
ATOM     14  H   UNL A   1      31.727  20.587  26.502  1.00  0.00     0.170 HD
ATOM     15  O   UNL A   1      30.010  22.117  26.138  1.00  0.00    -0.267 OA
BRANCH  13  16
ATOM     16  C   UNL A   1      33.431  21.265  25.724  1.00  0.00     0.085 A 
ATOM     17  C   UNL A   1      33.576  18.825  24.763  1.00  0.00     0.071 C 
ATOM     18  C   UNL A   1      34.106  20.169  25.108  1.00  0.00     0.083 A 
ATOM     19  N   UNL A   1      35.381  20.473  24.827  1.00  0.00    -0.175 NA
ATOM     20  N   UNL A   1      35.517  21.724  25.307  1.00  0.00    -0.263 N 
ATOM     21  C   UNL A   1      34.450  22.124  26.075  1.00  0.00     0.060 A 
ATOM     22  C   UNL A   1      34.553  23.233  27.048  1.00  0.00     0.069 C 
BRANCH  20  23
ATOM     23  C   UNL A   1      36.577  22.582  24.787  1.00  0.00     0.181 C 
BRANCH  23  24
ATOM     24  C   UNL A   1      37.808  22.605  25.650  1.00  0.00    -0.008 A 
ATOM     25  C   UNL A   1      38.077  23.775  26.384  1.00  0.00     0.009 A 
ATOM     26  C   UNL A   1      38.698  21.523  25.771  1.00  0.00     0.047 A 
ATOM     27  C   UNL A   1      39.212  23.869  27.189  1.00  0.00     0.021 A 
ATOM     28  C   UNL A   1      39.849  21.629  26.553  1.00  0.00     0.041 A 
ATOM     29  Cl  UNL A   1      38.428  19.991  25.020  1.00  0.00    -0.084 Cl
ATOM     30  C   UNL A   1      40.101  22.801  27.256  1.00  0.00     0.042 A 
ATOM     31  Cl  UNL A   1      41.516  22.924  28.224  1.00  0.00    -0.084 Cl
ENDBRANCH  23  24
ENDBRANCH  20  23
ENDBRANCH  13  16
ENDBRANCH   7  12
ENDBRANCH   3   6
ENDBRANCH   1   2
BRANCH   1  32
ATOM     32  C   UNL A   1      33.284  28.370  26.376  1.00  0.00     0.042 C 
BRANCH  32  33
ATOM     33  C   UNL A   1      34.312  28.911  27.347  1.00  0.00     0.118 C 
BRANCH  33  34
ATOM     34  N   UNL A   1      34.116  30.319  27.669  1.00  0.00    -0.352 N 
ATOM     35  C   UNL A   1      34.978  31.154  28.359  1.00  0.00     0.251 C 
ATOM     36  H   UNL A   1      33.274  30.724  27.359  1.00  0.00     0.163 HD
ATOM     37  O   UNL A   1      34.566  32.172  28.891  1.00  0.00    -0.269 OA
BRANCH  35  38
ATOM     38  C   UNL A   1      36.409  30.794  28.441  1.00  0.00     0.039 A 
ATOM     39  C   UNL A   1      37.301  31.549  29.206  1.00  0.00     0.014 A 
ATOM     40  C   UNL A   1      36.858  29.686  27.727  1.00  0.00     0.014 A 
ATOM     41  C   UNL A   1      38.631  31.142  29.276  1.00  0.00     0.010 A 
ATOM     42  C   UNL A   1      38.114  29.183  27.940  1.00  0.00     0.010 A 
ATOM     43  C   UNL A   1      39.026  29.946  28.650  1.00  0.00    -0.014 A 
BRANCH  43  44
ATOM     44  C   UNL A   1      40.369  29.415  28.834  1.00  0.00     0.031 A 
ATOM     45  C   UNL A   1      40.694  29.115  30.251  1.00  0.00     0.074 A 
ATOM     46  C   UNL A   1      41.180  29.048  27.817  1.00  0.00     0.049 A 
ATOM     47  N   UNL A   1      41.565  29.719  30.985  1.00  0.00    -0.248 NA
ATOM     48  C   UNL A   1      39.850  28.157  30.987  1.00  0.00     0.031 C 
ATOM     49  C   UNL A   1      40.891  29.014  26.380  1.00  0.00     0.029 A 
ATOM     50  N   UNL A   1      42.435  28.522  27.872  1.00  0.00    -0.354 N 
ATOM     51  C   UNL A   1      41.536  29.076  32.214  1.00  0.00     0.074 A 
ATOM     52  C   UNL A   1      40.347  28.264  32.221  1.00  0.00     0.031 C 
ATOM     53  C   UNL A   1      41.827  28.275  25.744  1.00  0.00     0.029 A 
ATOM     54  C   UNL A   1      42.863  27.918  26.694  1.00  0.00     0.049 A 
ATOM     55  H   UNL A   1      42.993  28.566  28.681  1.00  0.00     0.167 HD
ATOM     56  C   UNL A   1      42.646  29.063  33.001  1.00  0.00     0.037 A 
ATOM     57  C   UNL A   1      43.971  27.148  26.535  1.00  0.00     0.037 A 
ATOM     58  C   UNL A   1      43.563  30.113  32.623  1.00  0.00     0.049 A 
ATOM     59  C   UNL A   1      44.891  27.472  27.658  1.00  0.00     0.074 A 
ATOM     60  C   UNL A   1      43.440  31.485  32.476  1.00  0.00     0.029 A 
ATOM     61  N   UNL A   1      44.694  29.774  31.918  1.00  0.00    -0.354 N 
ATOM     62  N   UNL A   1      45.493  28.624  27.784  1.00  0.00    -0.248 NA
ATOM     63  C   UNL A   1      44.738  26.707  28.888  1.00  0.00     0.031 C 
ATOM     64  C   UNL A   1      44.159  31.791  31.282  1.00  0.00     0.029 A 
ATOM     65  C   UNL A   1      44.762  30.616  30.836  1.00  0.00     0.049 A 
ATOM     66  H   UNL A   1      45.334  29.062  32.148  1.00  0.00     0.167 HD
ATOM     67  C   UNL A   1      45.375  28.929  29.130  1.00  0.00     0.074 A 
ATOM     68  C   UNL A   1      44.962  27.682  29.773  1.00  0.00     0.031 C 
ATOM     69  C   UNL A   1      45.317  30.223  29.563  1.00  0.00     0.037 A 
BRANCH  56  70
ATOM     70  C   UNL A   1      43.072  27.866  33.813  1.00  0.00     0.064 A 
ATOM     71  C   UNL A   1      43.318  28.028  35.190  1.00  0.00     0.173 A 
ATOM     72  C   UNL A   1      43.545  26.660  33.248  1.00  0.00     0.173 A 
ATOM     73  F   UNL A   1      42.937  29.148  35.824  1.00  0.00    -0.203 F 
ATOM     74  C   UNL A   1      44.052  27.092  35.922  1.00  0.00     0.198 A 
ATOM     75  C   UNL A   1      44.228  25.703  33.995  1.00  0.00     0.198 A 
ATOM     76  F   UNL A   1      43.478  26.408  31.936  1.00  0.00    -0.203 F 
ATOM     77  F   UNL A   1      44.378  27.353  37.195  1.00  0.00    -0.200 F 
ATOM     78  C   UNL A   1      44.511  25.933  35.323  1.00  0.00     0.200 A 
ATOM     79  F   UNL A   1      44.684  24.600  33.386  1.00  0.00    -0.200 F 
ATOM     80  F   UNL A   1      45.269  25.066  36.005  1.00  0.00    -0.200 F 
ENDBRANCH  56  70
BRANCH  57  81
ATOM     81  C   UNL A   1      44.149  25.942  25.682  1.00  0.00     0.064 A 
ATOM     82  C   UNL A   1      45.417  25.589  25.182  1.00  0.00     0.173 A 
ATOM     83  C   UNL A   1      43.147  24.956  25.573  1.00  0.00     0.173 A 
ATOM     84  F   UNL A   1      46.444  26.445  25.280  1.00  0.00    -0.203 F 
ATOM     85  C   UNL A   1      45.672  24.321  24.644  1.00  0.00     0.198 A 
ATOM     86  C   UNL A   1      43.401  23.695  25.028  1.00  0.00     0.198 A 
ATOM     87  F   UNL A   1      41.923  25.157  26.078  1.00  0.00    -0.203 F 
ATOM     88  F   UNL A   1      46.910  24.001  24.243  1.00  0.00    -0.200 F 
ATOM     89  C   UNL A   1      44.666  23.372  24.578  1.00  0.00     0.200 A 
ATOM     90  F   UNL A   1      42.425  22.775  25.001  1.00  0.00    -0.200 F 
ATOM     91  F   UNL A   1      44.925  22.138  24.124  1.00  0.00    -0.200 F 
ENDBRANCH  57  81
BRANCH  69  92
ATOM     92  C   UNL A   1      45.638  31.326  28.590  1.00  0.00     0.064 A 
ATOM     93  C   UNL A   1      46.936  31.794  28.312  1.00  0.00     0.173 A 
ATOM     94  C   UNL A   1      44.596  31.826  27.797  1.00  0.00     0.173 A 
ATOM     95  F   UNL A   1      48.004  31.295  28.945  1.00  0.00    -0.203 F 
ATOM     96  C   UNL A   1      47.164  32.750  27.321  1.00  0.00     0.198 A 
ATOM     97  C   UNL A   1      44.832  32.748  26.781  1.00  0.00     0.198 A 
ATOM     98  F   UNL A   1      43.342  31.379  27.976  1.00  0.00    -0.203 F 
ATOM     99  F   UNL A   1      48.410  33.191  27.087  1.00  0.00    -0.200 F 
ATOM    100  C   UNL A   1      46.113  33.219  26.551  1.00  0.00     0.200 A 
ATOM    101  F   UNL A   1      43.818  33.158  26.006  1.00  0.00    -0.200 F 
ATOM    102  F   UNL A   1      46.338  34.106  25.572  1.00  0.00    -0.200 F 
ENDBRANCH  69  92
ENDBRANCH  43  44
ENDBRANCH  35  38
ENDBRANCH  33  34
ENDBRANCH  32  33
ENDBRANCH   1  32
TORSDOF 14
ENDMDL
MODEL 3
REMARK VINA RESULT:     -12.8      3.475      8.783
REMARK SMILES Cc1nn(Cc2ccc(Cl)cc2Cl)c(C)c1NC(=O)c1c(C(=O)NCCCNC(=O)c2ccc(-c3c4nc(c(-c5c(F)c(F)c(F)c(F)c5F)c5ccc([nH]5)c(-c5c(F)c(F)c(F)c(F)c5F)c5nc(c(-c6c(F)c(F)c(F)c(F)c6F)c6ccc3[nH]6)C=C5)C=C4)cc2)cnn1C
REMARK SMILES IDX 25 1 24 2 22 3 23 4 21 6 20 7 96 8 94 9 95 10 97 11 18 12
REMARK SMILES IDX 17 13 19 15 16 16 1 17 2 18 3 19 4 20 14 21 15 22 5 23 6 24
REMARK SMILES IDX 7 25 12 26 8 27 11 28 13 29 9 30 10 31 26 32 27 33 28 34
REMARK SMILES IDX 29 35 30 37 31 38 32 39 93 40 33 41 92 42 34 43 35 44 36 45
REMARK SMILES IDX 86 46 37 47 91 48 85 49 87 50 38 51 90 52 84 53 83 54 39 56
REMARK SMILES IDX 71 57 51 58 70 59 52 60 55 61 69 62 88 63 53 64 54 65 68 67
REMARK SMILES IDX 89 68 56 69 40 70 41 71 49 72 42 73 43 74 47 75 50 76 44 77
REMARK SMILES IDX 45 78 48 79 46 80 72 81 73 82 81 83 74 84 75 85 79 86 82 87
REMARK SMILES IDX 76 88 77 89 80 90 78 91 57 92 58 93 66 94 59 95 60 96 64 97
REMARK SMILES IDX 67 98 61 99 62 100 65 101 63 102
REMARK H PARENT 24 5 17 14 28 36 87 55 55 66
REMARK Flexibility Score: inf
ROOT
ATOM      1  C   UNL A   1      32.754  29.891  27.628  1.00  0.00     0.118 C 
ENDROOT
BRANCH   1   2
ATOM      2  N   UNL A   1      32.141  28.564  27.646  1.00  0.00    -0.352 N 
ATOM      3  C   UNL A   1      31.728  27.700  26.649  1.00  0.00     0.255 C 
ATOM      4  O   UNL A   1      31.501  26.540  26.993  1.00  0.00    -0.269 OA
ATOM      5  H   UNL A   1      31.992  28.214  28.553  1.00  0.00     0.163 HD
BRANCH   3   6
ATOM      6  C   UNL A   1      31.515  28.140  25.278  1.00  0.00     0.090 A 
ATOM      7  C   UNL A   1      30.693  27.516  24.327  1.00  0.00     0.138 A 
ATOM      8  N   UNL A   1      30.766  28.308  23.202  1.00  0.00    -0.262 N 
ATOM      9  C   UNL A   1      32.100  29.202  24.553  1.00  0.00     0.149 A 
ATOM     10  N   UNL A   1      31.600  29.351  23.330  1.00  0.00    -0.180 NA
ATOM     11  C   UNL A   1      29.964  28.234  22.001  1.00  0.00     0.174 C 
BRANCH   7  12
ATOM     12  C   UNL A   1      29.940  26.281  24.343  1.00  0.00     0.274 C 
ATOM     13  N   UNL A   1      30.520  25.040  24.242  1.00  0.00    -0.317 N 
ATOM     14  H   UNL A   1      29.872  24.306  24.139  1.00  0.00     0.170 HD
ATOM     15  O   UNL A   1      28.710  26.300  24.453  1.00  0.00    -0.267 OA
BRANCH  13  16
ATOM     16  C   UNL A   1      31.834  24.625  24.259  1.00  0.00     0.085 A 
ATOM     17  C   UNL A   1      32.562  25.358  21.844  1.00  0.00     0.071 C 
ATOM     18  C   UNL A   1      32.786  24.833  23.216  1.00  0.00     0.083 A 
ATOM     19  N   UNL A   1      34.023  24.493  23.605  1.00  0.00    -0.175 NA
ATOM     20  N   UNL A   1      33.841  24.031  24.857  1.00  0.00    -0.263 N 
ATOM     21  C   UNL A   1      32.516  23.858  25.178  1.00  0.00     0.060 A 
ATOM     22  C   UNL A   1      32.084  22.972  26.281  1.00  0.00     0.069 C 
BRANCH  20  23
ATOM     23  C   UNL A   1      34.965  24.015  25.787  1.00  0.00     0.181 C 
BRANCH  23  24
ATOM     24  C   UNL A   1      35.898  22.853  25.580  1.00  0.00    -0.008 A 
ATOM     25  C   UNL A   1      35.341  21.624  25.182  1.00  0.00     0.009 A 
ATOM     26  C   UNL A   1      37.291  22.928  25.756  1.00  0.00     0.047 A 
ATOM     27  C   UNL A   1      36.147  20.502  24.991  1.00  0.00     0.021 A 
ATOM     28  C   UNL A   1      38.093  21.797  25.594  1.00  0.00     0.041 A 
ATOM     29  Cl  UNL A   1      38.116  24.398  26.130  1.00  0.00    -0.084 Cl
ATOM     30  C   UNL A   1      37.517  20.591  25.214  1.00  0.00     0.042 A 
ATOM     31  Cl  UNL A   1      38.510  19.203  25.009  1.00  0.00    -0.084 Cl
ENDBRANCH  23  24
ENDBRANCH  20  23
ENDBRANCH  13  16
ENDBRANCH   7  12
ENDBRANCH   3   6
ENDBRANCH   1   2
BRANCH   1  32
ATOM     32  C   UNL A   1      34.284  29.945  27.620  1.00  0.00     0.042 C 
BRANCH  32  33
ATOM     33  C   UNL A   1      34.881  31.335  27.574  1.00  0.00     0.118 C 
BRANCH  33  34
ATOM     34  N   UNL A   1      34.610  32.119  28.772  1.00  0.00    -0.352 N 
ATOM     35  C   UNL A   1      35.134  31.930  30.040  1.00  0.00     0.251 C 
ATOM     36  H   UNL A   1      33.983  32.871  28.669  1.00  0.00     0.163 HD
ATOM     37  O   UNL A   1      34.569  32.383  31.021  1.00  0.00    -0.269 OA
BRANCH  35  38
ATOM     38  C   UNL A   1      36.393  31.170  30.186  1.00  0.00     0.039 A 
ATOM     39  C   UNL A   1      36.382  29.810  30.507  1.00  0.00     0.014 A 
ATOM     40  C   UNL A   1      37.600  31.840  30.008  1.00  0.00     0.014 A 
ATOM     41  C   UNL A   1      37.596  29.135  30.596  1.00  0.00     0.010 A 
ATOM     42  C   UNL A   1      38.776  31.144  29.915  1.00  0.00     0.010 A 
ATOM     43  C   UNL A   1      38.791  29.809  30.284  1.00  0.00    -0.014 A 
BRANCH  43  44
ATOM     44  C   UNL A   1      40.057  29.093  30.216  1.00  0.00     0.031 A 
ATOM     45  C   UNL A   1      40.687  28.885  31.543  1.00  0.00     0.074 A 
ATOM     46  C   UNL A   1      40.530  28.505  29.095  1.00  0.00     0.049 A 
ATOM     47  N   UNL A   1      41.786  29.414  31.964  1.00  0.00    -0.248 NA
ATOM     48  C   UNL A   1      39.941  28.150  32.579  1.00  0.00     0.031 C 
ATOM     49  C   UNL A   1      39.886  28.376  27.784  1.00  0.00     0.029 A 
ATOM     50  N   UNL A   1      41.680  27.795  28.923  1.00  0.00    -0.354 N 
ATOM     51  C   UNL A   1      41.986  28.907  33.240  1.00  0.00     0.074 A 
ATOM     52  C   UNL A   1      40.742  28.297  33.636  1.00  0.00     0.031 C 
ATOM     53  C   UNL A   1      40.528  27.440  27.051  1.00  0.00     0.029 A 
ATOM     54  C   UNL A   1      41.715  27.018  27.769  1.00  0.00     0.049 A 
ATOM     55  H   UNL A   1      42.425  27.829  29.565  1.00  0.00     0.167 HD
ATOM     56  C   UNL A   1      43.247  28.795  33.739  1.00  0.00     0.037 A 
ATOM     57  C   UNL A   1      42.638  26.071  27.458  1.00  0.00     0.037 A 
ATOM     58  C   UNL A   1      44.166  29.645  33.018  1.00  0.00     0.049 A 
ATOM     59  C   UNL A   1      43.846  26.354  28.279  1.00  0.00     0.074 A 
ATOM     60  C   UNL A   1      44.188  30.998  32.722  1.00  0.00     0.029 A 
ATOM     61  N   UNL A   1      45.030  29.064  32.119  1.00  0.00    -0.354 N 
ATOM     62  N   UNL A   1      44.603  27.403  28.104  1.00  0.00    -0.248 NA
ATOM     63  C   UNL A   1      43.911  25.747  29.601  1.00  0.00     0.031 C 
ATOM     64  C   UNL A   1      44.616  31.068  31.362  1.00  0.00     0.029 A 
ATOM     65  C   UNL A   1      44.930  29.775  30.948  1.00  0.00     0.049 A 
ATOM     66  H   UNL A   1      45.609  28.286  32.285  1.00  0.00     0.167 HD
ATOM     67  C   UNL A   1      44.870  27.854  29.388  1.00  0.00     0.074 A 
ATOM     68  C   UNL A   1      44.475  26.756  30.270  1.00  0.00     0.031 C 
ATOM     69  C   UNL A   1      45.091  29.176  29.645  1.00  0.00     0.037 A 
BRANCH  56  70
ATOM     70  C   UNL A   1      43.706  27.631  34.580  1.00  0.00     0.064 A 
ATOM     71  C   UNL A   1      43.533  26.324  34.087  1.00  0.00     0.173 A 
ATOM     72  C   UNL A   1      44.014  27.727  35.956  1.00  0.00     0.173 A 
ATOM     73  F   UNL A   1      43.211  26.116  32.801  1.00  0.00    -0.203 F 
ATOM     74  C   UNL A   1      43.583  25.208  34.926  1.00  0.00     0.198 A 
ATOM     75  C   UNL A   1      44.118  26.608  36.778  1.00  0.00     0.198 A 
ATOM     76  F   UNL A   1      44.106  28.902  36.590  1.00  0.00    -0.203 F 
ATOM     77  F   UNL A   1      43.278  23.997  34.440  1.00  0.00    -0.200 F 
ATOM     78  C   UNL A   1      43.870  25.352  36.272  1.00  0.00     0.200 A 
ATOM     79  F   UNL A   1      44.373  26.775  38.083  1.00  0.00    -0.200 F 
ATOM     80  F   UNL A   1      43.856  24.292  37.089  1.00  0.00    -0.200 F 
ENDBRANCH  56  70
BRANCH  57  81
ATOM     81  C   UNL A   1      42.438  24.774  26.757  1.00  0.00     0.064 A 
ATOM     82  C   UNL A   1      43.265  24.397  25.682  1.00  0.00     0.173 A 
ATOM     83  C   UNL A   1      41.627  23.756  27.298  1.00  0.00     0.173 A 
ATOM     84  F   UNL A   1      44.102  25.286  25.129  1.00  0.00    -0.203 F 
ATOM     85  C   UNL A   1      43.303  23.080  25.206  1.00  0.00     0.198 A 
ATOM     86  C   UNL A   1      41.660  22.445  26.817  1.00  0.00     0.198 A 
ATOM     87  F   UNL A   1      40.853  23.984  28.367  1.00  0.00    -0.203 F 
ATOM     88  F   UNL A   1      44.156  22.747  24.227  1.00  0.00    -0.200 F 
ATOM     89  C   UNL A   1      42.509  22.103  25.783  1.00  0.00     0.200 A 
ATOM     90  F   UNL A   1      40.911  21.502  27.407  1.00  0.00    -0.200 F 
ATOM     91  F   UNL A   1      42.593  20.830  25.372  1.00  0.00    -0.200 F 
ENDBRANCH  57  81
BRANCH  69  92
ATOM     92  C   UNL A   1      45.295  30.114  28.485  1.00  0.00     0.064 A 
ATOM     93  C   UNL A   1      44.258  30.762  27.788  1.00  0.00     0.173 A 
ATOM     94  C   UNL A   1      46.608  30.486  28.165  1.00  0.00     0.173 A 
ATOM     95  F   UNL A   1      42.974  30.549  28.101  1.00  0.00    -0.203 F 
ATOM     96  C   UNL A   1      44.530  31.697  26.789  1.00  0.00     0.198 A 
ATOM     97  C   UNL A   1      46.876  31.450  27.197  1.00  0.00     0.198 A 
ATOM     98  F   UNL A   1      47.641  29.945  28.830  1.00  0.00    -0.203 F 
ATOM     99  F   UNL A   1      43.522  32.288  26.129  1.00  0.00    -0.200 F 
ATOM    100  C   UNL A   1      45.839  32.046  26.500  1.00  0.00     0.200 A 
ATOM    101  F   UNL A   1      48.142  31.820  26.960  1.00  0.00    -0.200 F 
ATOM    102  F   UNL A   1      46.099  32.974  25.570  1.00  0.00    -0.200 F 
ENDBRANCH  69  92
ENDBRANCH  43  44
ENDBRANCH  35  38
ENDBRANCH  33  34
ENDBRANCH  32  33
ENDBRANCH   1  32
TORSDOF 14
ENDMDL
