MODEL 1
REMARK VINA RESULT:     -11.0      0.000      0.000
REMARK SMILES CCCCCCCCNC(=O)Oc1cccc(-c2ccc([C@@H](C)C(=O)NCCCNC(=O)c3ccc(-c4c5nc(c(-c6c(F)c(F)c(F)c(F)c6F)c6ccc([nH]6)c(-c6c(F)c(F)c(F)c(F)c6F)c6nc(c(-c7c(F)c(F)c(F)c(F)c7F)c7ccc4[nH]7)C=C6)C=C5)cc3)cc2F)c1
REMARK SMILES IDX 13 1 14 2 15 3 16 4 17 5 99 6 12 7 10 8 9 9 11 11 8 12 7 13
REMARK SMILES IDX 6 14 5 15 4 16 3 17 2 18 1 19 18 20 19 21 97 22 20 23 96 24
REMARK SMILES IDX 98 25 21 26 22 27 23 28 24 29 25 30 26 31 27 33 28 34 29 35
REMARK SMILES IDX 30 36 31 37 32 39 33 40 34 41 95 42 35 43 94 44 36 45 37 46
REMARK SMILES IDX 38 47 88 48 39 49 93 50 87 51 89 52 40 53 92 54 86 55 85 56
REMARK SMILES IDX 41 58 73 59 53 60 72 61 54 62 57 63 71 64 90 65 55 66 56 67
REMARK SMILES IDX 70 69 91 70 58 71 42 72 43 73 51 74 44 75 45 76 49 77 52 78
REMARK SMILES IDX 46 79 47 80 50 81 48 82 74 83 75 84 83 85 76 86 77 87 81 88
REMARK SMILES IDX 84 89 78 90 79 91 82 92 80 93 59 94 60 95 68 96 61 97 62 98
REMARK SMILES IDX 66 99 69 100 63 101 64 102 67 103 65 104
REMARK H PARENT 9 10 26 32 30 38 89 57 57 68
REMARK Flexibility Score: inf
ROOT
ATOM      1  C   UNL A   1      33.184  22.122  23.411  1.00  0.00     0.133 A 
ATOM      2  C   UNL A   1      32.656  20.870  23.704  1.00  0.00     0.047 A 
ATOM      3  C   UNL A   1      33.394  19.995  24.487  1.00  0.00     0.004 A 
ATOM      4  C   UNL A   1      34.644  20.386  24.978  1.00  0.00     0.009 A 
ATOM      5  C   UNL A   1      35.202  21.650  24.683  1.00  0.00    -0.012 A 
ATOM      6  C   UNL A   1      34.435  22.519  23.890  1.00  0.00     0.056 A 
ENDROOT
BRANCH   1   7
ATOM      7  O   UNL A   1      32.341  23.016  22.736  1.00  0.00    -0.410 OA
BRANCH   7   8
ATOM      8  C   UNL A   1      32.868  23.766  21.698  1.00  0.00     0.412 C 
ATOM      9  N   UNL A   1      32.571  25.097  21.815  1.00  0.00    -0.321 N 
ATOM     10  H   UNL A   1      32.904  25.691  21.102  1.00  0.00     0.167 HD
ATOM     11  O   UNL A   1      33.518  23.340  20.753  1.00  0.00    -0.224 OA
BRANCH   9  12
ATOM     12  C   UNL A   1      31.817  25.719  22.885  1.00  0.00     0.119 C 
BRANCH  12  13
ATOM     13  C   UNL A   1      32.415  27.062  23.301  1.00  0.00     0.021 C 
BRANCH  13  14
ATOM     14  C   UNL A   1      33.597  26.962  24.274  1.00  0.00     0.002 C 
BRANCH  14  15
ATOM     15  C   UNL A   1      33.861  25.561  24.836  1.00  0.00     0.000 C 
BRANCH  15  16
ATOM     16  C   UNL A   1      33.250  25.292  26.215  1.00  0.00    -0.000 C 
BRANCH  16  17
ATOM     17  C   UNL A   1      32.006  24.397  26.211  1.00  0.00    -0.000 C 
BRANCH  17  18
ATOM     18  C   UNL A   1      32.175  23.041  26.902  1.00  0.00    -0.003 C 
ATOM     19  C   UNL A   1      33.538  22.860  27.552  1.00  0.00     0.004 C 
ENDBRANCH  17  18
ENDBRANCH  16  17
ENDBRANCH  15  16
ENDBRANCH  14  15
ENDBRANCH  13  14
ENDBRANCH  12  13
ENDBRANCH   9  12
ENDBRANCH   7   8
ENDBRANCH   1   7
BRANCH   5  20
ATOM     20  C   UNL A   1      36.550  22.022  25.173  1.00  0.00     0.018 A 
ATOM     21  C   UNL A   1      36.786  23.301  25.708  1.00  0.00     0.012 A 
ATOM     22  C   UNL A   1      37.647  21.147  25.153  1.00  0.00     0.131 A 
ATOM     23  C   UNL A   1      38.045  23.682  26.189  1.00  0.00     0.005 A 
ATOM     24  C   UNL A   1      38.892  21.504  25.683  1.00  0.00     0.044 A 
ATOM     25  F   UNL A   1      37.536  19.925  24.609  1.00  0.00    -0.206 F 
ATOM     26  C   UNL A   1      39.107  22.778  26.225  1.00  0.00    -0.033 A 
BRANCH  26  27
ATOM     27  C   UNL A   1      40.451  23.115  26.849  1.00  0.00     0.105 C 
ATOM     28  C   UNL A   1      40.481  24.376  27.712  1.00  0.00     0.023 C 
BRANCH  27  29
ATOM     29  C   UNL A   1      41.160  21.901  27.471  1.00  0.00     0.227 C 
ATOM     30  O   UNL A   1      40.829  21.507  28.596  1.00  0.00    -0.274 OA
ATOM     31  N   UNL A   1      42.152  21.198  26.861  1.00  0.00    -0.356 N 
ATOM     32  H   UNL A   1      42.461  20.418  27.375  1.00  0.00     0.163 HD
BRANCH  31  33
ATOM     33  C   UNL A   1      42.843  21.377  25.598  1.00  0.00     0.117 C 
BRANCH  33  34
ATOM     34  C   UNL A   1      43.938  22.439  25.677  1.00  0.00     0.042 C 
BRANCH  34  35
ATOM     35  C   UNL A   1      43.516  23.811  25.161  1.00  0.00     0.118 C 
BRANCH  35  36
ATOM     36  N   UNL A   1      44.656  24.638  24.785  1.00  0.00    -0.352 N 
ATOM     37  C   UNL A   1      45.096  25.844  25.271  1.00  0.00     0.251 C 
ATOM     38  H   UNL A   1      45.205  24.267  24.057  1.00  0.00     0.163 HD
ATOM     39  O   UNL A   1      45.962  26.456  24.649  1.00  0.00    -0.269 OA
BRANCH  37  40
ATOM     40  C   UNL A   1      44.540  26.433  26.512  1.00  0.00     0.039 A 
ATOM     41  C   UNL A   1      44.564  27.824  26.661  1.00  0.00     0.014 A 
ATOM     42  C   UNL A   1      44.054  25.637  27.553  1.00  0.00     0.014 A 
ATOM     43  C   UNL A   1      44.033  28.417  27.809  1.00  0.00     0.010 A 
ATOM     44  C   UNL A   1      43.461  26.231  28.668  1.00  0.00     0.010 A 
ATOM     45  C   UNL A   1      43.438  27.627  28.805  1.00  0.00    -0.014 A 
BRANCH  45  46
ATOM     46  C   UNL A   1      42.756  28.242  29.973  1.00  0.00     0.031 A 
ATOM     47  C   UNL A   1      41.397  28.866  29.827  1.00  0.00     0.074 A 
ATOM     48  C   UNL A   1      43.403  28.306  31.152  1.00  0.00     0.049 A 
ATOM     49  N   UNL A   1      40.689  29.525  30.711  1.00  0.00    -0.248 NA
ATOM     50  C   UNL A   1      40.755  28.753  28.509  1.00  0.00     0.031 C 
ATOM     51  C   UNL A   1      44.745  27.779  31.408  1.00  0.00     0.029 A 
ATOM     52  N   UNL A   1      43.030  28.858  32.352  1.00  0.00    -0.354 N 
ATOM     53  C   UNL A   1      39.530  29.917  30.054  1.00  0.00     0.074 A 
ATOM     54  C   UNL A   1      39.646  29.458  28.686  1.00  0.00     0.031 C 
ATOM     55  C   UNL A   1      45.078  28.024  32.685  1.00  0.00     0.029 A 
ATOM     56  C   UNL A   1      43.993  28.760  33.326  1.00  0.00     0.049 A 
ATOM     57  H   UNL A   1      42.154  29.285  32.501  1.00  0.00     0.167 HD
ATOM     58  C   UNL A   1      38.461  30.583  30.552  1.00  0.00     0.037 A 
ATOM     59  C   UNL A   1      44.010  29.225  34.590  1.00  0.00     0.037 A 
ATOM     60  C   UNL A   1      38.341  31.021  31.920  1.00  0.00     0.049 A 
ATOM     61  C   UNL A   1      42.818  29.978  35.112  1.00  0.00     0.074 A 
ATOM     62  C   UNL A   1      37.266  31.637  32.538  1.00  0.00     0.029 A 
ATOM     63  N   UNL A   1      39.336  30.897  32.879  1.00  0.00    -0.354 N 
ATOM     64  N   UNL A   1      41.697  30.277  34.503  1.00  0.00    -0.248 NA
ATOM     65  C   UNL A   1      42.893  30.457  36.499  1.00  0.00     0.031 C 
ATOM     66  C   UNL A   1      37.627  31.928  33.857  1.00  0.00     0.029 A 
ATOM     67  C   UNL A   1      38.911  31.453  34.075  1.00  0.00     0.049 A 
ATOM     68  H   UNL A   1      40.214  30.478  32.731  1.00  0.00     0.167 HD
ATOM     69  C   UNL A   1      40.929  30.964  35.432  1.00  0.00     0.074 A 
ATOM     70  C   UNL A   1      41.702  31.018  36.655  1.00  0.00     0.031 C 
ATOM     71  C   UNL A   1      39.696  31.506  35.283  1.00  0.00     0.037 A 
BRANCH  58  72
ATOM     72  C   UNL A   1      37.328  30.883  29.614  1.00  0.00     0.064 A 
ATOM     73  C   UNL A   1      37.171  32.152  29.035  1.00  0.00     0.173 A 
ATOM     74  C   UNL A   1      36.417  29.879  29.252  1.00  0.00     0.173 A 
ATOM     75  F   UNL A   1      38.010  33.149  29.353  1.00  0.00    -0.203 F 
ATOM     76  C   UNL A   1      36.129  32.410  28.148  1.00  0.00     0.198 A 
ATOM     77  C   UNL A   1      35.393  30.134  28.343  1.00  0.00     0.198 A 
ATOM     78  F   UNL A   1      36.527  28.647  29.770  1.00  0.00    -0.203 F 
ATOM     79  F   UNL A   1      35.973  33.641  27.638  1.00  0.00    -0.200 F 
ATOM     80  C   UNL A   1      35.245  31.400  27.797  1.00  0.00     0.200 A 
ATOM     81  F   UNL A   1      34.548  29.154  27.995  1.00  0.00    -0.200 F 
ATOM     82  F   UNL A   1      34.249  31.648  26.936  1.00  0.00    -0.200 F 
ENDBRANCH  58  72
BRANCH  59  83
ATOM     83  C   UNL A   1      45.197  28.983  35.450  1.00  0.00     0.064 A 
ATOM     84  C   UNL A   1      45.273  27.844  36.263  1.00  0.00     0.173 A 
ATOM     85  C   UNL A   1      46.279  29.874  35.472  1.00  0.00     0.173 A 
ATOM     86  F   UNL A   1      44.253  26.974  36.292  1.00  0.00    -0.203 F 
ATOM     87  C   UNL A   1      46.380  27.614  37.077  1.00  0.00     0.198 A 
ATOM     88  C   UNL A   1      47.399  29.629  36.264  1.00  0.00     0.198 A 
ATOM     89  F   UNL A   1      46.256  30.979  34.712  1.00  0.00    -0.203 F 
ATOM     90  F   UNL A   1      46.410  26.538  37.876  1.00  0.00    -0.200 F 
ATOM     91  C   UNL A   1      47.445  28.502  37.072  1.00  0.00     0.200 A 
ATOM     92  F   UNL A   1      48.432  30.483  36.247  1.00  0.00    -0.200 F 
ATOM     93  F   UNL A   1      48.513  28.277  37.848  1.00  0.00    -0.200 F 
ENDBRANCH  59  83
BRANCH  71  94
ATOM     94  C   UNL A   1      39.103  32.197  36.476  1.00  0.00     0.064 A 
ATOM     95  C   UNL A   1      39.458  33.512  36.810  1.00  0.00     0.173 A 
ATOM     96  C   UNL A   1      38.146  31.550  37.272  1.00  0.00     0.173 A 
ATOM     97  F   UNL A   1      40.382  34.166  36.091  1.00  0.00    -0.203 F 
ATOM     98  C   UNL A   1      38.892  34.147  37.913  1.00  0.00     0.198 A 
ATOM     99  C   UNL A   1      37.561  32.198  38.357  1.00  0.00     0.198 A 
ATOM    100  F   UNL A   1      37.769  30.295  36.992  1.00  0.00    -0.203 F 
ATOM    101  F   UNL A   1      39.280  35.387  38.241  1.00  0.00    -0.200 F 
ATOM    102  C   UNL A   1      37.940  33.492  38.680  1.00  0.00     0.200 A 
ATOM    103  F   UNL A   1      36.634  31.570  39.091  1.00  0.00    -0.200 F 
ATOM    104  F   UNL A   1      37.392  34.107  39.737  1.00  0.00    -0.200 F 
ENDBRANCH  71  94
ENDBRANCH  45  46
ENDBRANCH  37  40
ENDBRANCH  35  36
ENDBRANCH  34  35
ENDBRANCH  33  34
ENDBRANCH  31  33
ENDBRANCH  27  29
ENDBRANCH  26  27
ENDBRANCH   5  20
TORSDOF 21
ENDMDL
MODEL 2
REMARK VINA RESULT:     -10.9      4.612      8.480
REMARK SMILES CCCCCCCCNC(=O)Oc1cccc(-c2ccc([C@@H](C)C(=O)NCCCNC(=O)c3ccc(-c4c5nc(c(-c6c(F)c(F)c(F)c(F)c6F)c6ccc([nH]6)c(-c6c(F)c(F)c(F)c(F)c6F)c6nc(c(-c7c(F)c(F)c(F)c(F)c7F)c7ccc4[nH]7)C=C6)C=C5)cc3)cc2F)c1
REMARK SMILES IDX 13 1 14 2 15 3 16 4 17 5 99 6 12 7 10 8 9 9 11 11 8 12 7 13
REMARK SMILES IDX 6 14 5 15 4 16 3 17 2 18 1 19 18 20 19 21 97 22 20 23 96 24
REMARK SMILES IDX 98 25 21 26 22 27 23 28 24 29 25 30 26 31 27 33 28 34 29 35
REMARK SMILES IDX 30 36 31 37 32 39 33 40 34 41 95 42 35 43 94 44 36 45 37 46
REMARK SMILES IDX 38 47 88 48 39 49 93 50 87 51 89 52 40 53 92 54 86 55 85 56
REMARK SMILES IDX 41 58 73 59 53 60 72 61 54 62 57 63 71 64 90 65 55 66 56 67
REMARK SMILES IDX 70 69 91 70 58 71 42 72 43 73 51 74 44 75 45 76 49 77 52 78
REMARK SMILES IDX 46 79 47 80 50 81 48 82 74 83 75 84 83 85 76 86 77 87 81 88
REMARK SMILES IDX 84 89 78 90 79 91 82 92 80 93 59 94 60 95 68 96 61 97 62 98
REMARK SMILES IDX 66 99 69 100 63 101 64 102 67 103 65 104
REMARK H PARENT 9 10 26 32 30 38 89 57 57 68
REMARK Flexibility Score: inf
ROOT
ATOM      1  C   UNL A   1      37.162  29.775  30.475  1.00  0.00     0.133 A 
ATOM      2  C   UNL A   1      37.055  30.833  29.579  1.00  0.00     0.047 A 
ATOM      3  C   UNL A   1      37.780  30.790  28.398  1.00  0.00     0.004 A 
ATOM      4  C   UNL A   1      38.592  29.686  28.120  1.00  0.00     0.009 A 
ATOM      5  C   UNL A   1      38.723  28.607  29.022  1.00  0.00    -0.012 A 
ATOM      6  C   UNL A   1      37.977  28.672  30.210  1.00  0.00     0.056 A 
ENDROOT
BRANCH   1   7
ATOM      7  O   UNL A   1      36.305  29.803  31.584  1.00  0.00    -0.410 OA
BRANCH   7   8
ATOM      8  C   UNL A   1      36.175  30.987  32.289  1.00  0.00     0.412 C 
ATOM      9  N   UNL A   1      37.057  31.072  33.333  1.00  0.00    -0.321 N 
ATOM     10  H   UNL A   1      37.012  31.884  33.888  1.00  0.00     0.167 HD
ATOM     11  O   UNL A   1      35.373  31.883  32.061  1.00  0.00    -0.224 OA
BRANCH   9  12
ATOM     12  C   UNL A   1      38.052  30.084  33.699  1.00  0.00     0.119 C 
BRANCH  12  13
ATOM     13  C   UNL A   1      39.475  30.615  33.530  1.00  0.00     0.021 C 
BRANCH  13  14
ATOM     14  C   UNL A   1      40.215  30.080  32.297  1.00  0.00     0.002 C 
BRANCH  14  15
ATOM     15  C   UNL A   1      40.629  31.143  31.274  1.00  0.00     0.000 C 
BRANCH  15  16
ATOM     16  C   UNL A   1      39.947  32.505  31.444  1.00  0.00    -0.000 C 
BRANCH  16  17
ATOM     17  C   UNL A   1      40.071  33.448  30.243  1.00  0.00    -0.000 C 
BRANCH  17  18
ATOM     18  C   UNL A   1      38.823  34.282  29.936  1.00  0.00    -0.003 C 
ATOM     19  C   UNL A   1      37.772  34.223  31.034  1.00  0.00     0.004 C 
ENDBRANCH  17  18
ENDBRANCH  16  17
ENDBRANCH  15  16
ENDBRANCH  14  15
ENDBRANCH  13  14
ENDBRANCH  12  13
ENDBRANCH   9  12
ENDBRANCH   7   8
ENDBRANCH   1   7
BRANCH   5  20
ATOM     20  C   UNL A   1      39.629  27.472  28.727  1.00  0.00     0.018 A 
ATOM     21  C   UNL A   1      39.123  26.280  28.179  1.00  0.00     0.012 A 
ATOM     22  C   UNL A   1      41.013  27.511  28.954  1.00  0.00     0.131 A 
ATOM     23  C   UNL A   1      39.952  25.192  27.880  1.00  0.00     0.005 A 
ATOM     24  C   UNL A   1      41.853  26.448  28.605  1.00  0.00     0.044 A 
ATOM     25  F   UNL A   1      41.582  28.583  29.528  1.00  0.00    -0.206 F 
ATOM     26  C   UNL A   1      41.336  25.271  28.047  1.00  0.00    -0.033 A 
BRANCH  26  27
ATOM     27  C   UNL A   1      42.280  24.160  27.621  1.00  0.00     0.105 C 
ATOM     28  C   UNL A   1      41.965  22.774  28.185  1.00  0.00     0.023 C 
BRANCH  27  29
ATOM     29  C   UNL A   1      42.611  24.177  26.121  1.00  0.00     0.227 C 
ATOM     30  O   UNL A   1      42.065  25.005  25.381  1.00  0.00    -0.274 OA
ATOM     31  N   UNL A   1      43.489  23.329  25.520  1.00  0.00    -0.356 N 
ATOM     32  H   UNL A   1      43.623  23.509  24.562  1.00  0.00     0.163 HD
BRANCH  31  33
ATOM     33  C   UNL A   1      44.265  22.210  26.020  1.00  0.00     0.117 C 
BRANCH  33  34
ATOM     34  C   UNL A   1      45.770  22.457  25.932  1.00  0.00     0.042 C 
BRANCH  34  35
ATOM     35  C   UNL A   1      46.198  23.857  26.359  1.00  0.00     0.118 C 
BRANCH  35  36
ATOM     36  N   UNL A   1      46.770  24.622  25.257  1.00  0.00    -0.352 N 
ATOM     37  C   UNL A   1      46.787  25.972  25.008  1.00  0.00     0.251 C 
ATOM     38  H   UNL A   1      47.220  24.076  24.574  1.00  0.00     0.163 HD
ATOM     39  O   UNL A   1      47.144  26.369  23.902  1.00  0.00    -0.269 OA
BRANCH  37  40
ATOM     40  C   UNL A   1      46.372  26.959  26.034  1.00  0.00     0.039 A 
ATOM     41  C   UNL A   1      45.014  27.285  26.135  1.00  0.00     0.014 A 
ATOM     42  C   UNL A   1      47.299  27.608  26.853  1.00  0.00     0.014 A 
ATOM     43  C   UNL A   1      44.582  28.197  27.101  1.00  0.00     0.010 A 
ATOM     44  C   UNL A   1      46.861  28.464  27.863  1.00  0.00     0.010 A 
ATOM     45  C   UNL A   1      45.497  28.762  28.003  1.00  0.00    -0.014 A 
BRANCH  45  46
ATOM     46  C   UNL A   1      45.043  29.635  29.117  1.00  0.00     0.031 A 
ATOM     47  C   UNL A   1      44.655  29.046  30.444  1.00  0.00     0.074 A 
ATOM     48  C   UNL A   1      44.908  30.957  28.902  1.00  0.00     0.049 A 
ATOM     49  N   UNL A   1      44.154  29.640  31.498  1.00  0.00    -0.248 NA
ATOM     50  C   UNL A   1      44.833  27.595  30.601  1.00  0.00     0.031 C 
ATOM     51  C   UNL A   1      45.207  31.642  27.643  1.00  0.00     0.029 A 
ATOM     52  N   UNL A   1      44.464  31.960  29.727  1.00  0.00    -0.354 N 
ATOM     53  C   UNL A   1      43.943  28.636  32.435  1.00  0.00     0.074 A 
ATOM     54  C   UNL A   1      44.333  27.389  31.811  1.00  0.00     0.031 C 
ATOM     55  C   UNL A   1      44.950  32.952  27.783  1.00  0.00     0.029 A 
ATOM     56  C   UNL A   1      44.429  33.194  29.124  1.00  0.00     0.049 A 
ATOM     57  H   UNL A   1      44.197  31.810  30.664  1.00  0.00     0.167 HD
ATOM     58  C   UNL A   1      43.483  28.749  33.705  1.00  0.00     0.037 A 
ATOM     59  C   UNL A   1      44.007  34.384  29.592  1.00  0.00     0.037 A 
ATOM     60  C   UNL A   1      43.116  29.995  34.328  1.00  0.00     0.049 A 
ATOM     61  C   UNL A   1      43.484  34.478  30.999  1.00  0.00     0.074 A 
ATOM     62  C   UNL A   1      42.711  30.221  35.633  1.00  0.00     0.029 A 
ATOM     63  N   UNL A   1      43.099  31.225  33.687  1.00  0.00    -0.354 N 
ATOM     64  N   UNL A   1      43.361  33.534  31.900  1.00  0.00    -0.248 NA
ATOM     65  C   UNL A   1      43.043  35.804  31.453  1.00  0.00     0.031 C 
ATOM     66  C   UNL A   1      42.404  31.579  35.768  1.00  0.00     0.029 A 
ATOM     67  C   UNL A   1      42.661  32.208  34.560  1.00  0.00     0.049 A 
ATOM     68  H   UNL A   1      43.359  31.377  32.749  1.00  0.00     0.167 HD
ATOM     69  C   UNL A   1      42.843  34.151  33.029  1.00  0.00     0.074 A 
ATOM     70  C   UNL A   1      42.697  35.556  32.709  1.00  0.00     0.031 C 
ATOM     71  C   UNL A   1      42.514  33.602  34.224  1.00  0.00     0.037 A 
BRANCH  58  72
ATOM     72  C   UNL A   1      43.351  27.491  34.512  1.00  0.00     0.064 A 
ATOM     73  C   UNL A   1      44.436  26.956  35.221  1.00  0.00     0.173 A 
ATOM     74  C   UNL A   1      42.112  26.838  34.617  1.00  0.00     0.173 A 
ATOM     75  F   UNL A   1      45.644  27.536  35.149  1.00  0.00    -0.203 F 
ATOM     76  C   UNL A   1      44.294  25.799  35.984  1.00  0.00     0.198 A 
ATOM     77  C   UNL A   1      41.968  25.699  35.404  1.00  0.00     0.198 A 
ATOM     78  F   UNL A   1      41.040  27.313  33.966  1.00  0.00    -0.203 F 
ATOM     79  F   UNL A   1      45.355  25.282  36.621  1.00  0.00    -0.200 F 
ATOM     80  C   UNL A   1      43.058  25.176  36.081  1.00  0.00     0.200 A 
ATOM     81  F   UNL A   1      40.771  25.105  35.506  1.00  0.00    -0.200 F 
ATOM     82  F   UNL A   1      42.921  24.069  36.824  1.00  0.00    -0.200 F 
ENDBRANCH  58  72
BRANCH  59  83
ATOM     83  C   UNL A   1      44.071  35.585  28.719  1.00  0.00     0.064 A 
ATOM     84  C   UNL A   1      42.940  36.023  28.018  1.00  0.00     0.173 A 
ATOM     85  C   UNL A   1      45.256  36.321  28.573  1.00  0.00     0.173 A 
ATOM     86  F   UNL A   1      41.790  35.338  28.108  1.00  0.00    -0.203 F 
ATOM     87  C   UNL A   1      42.994  37.144  27.192  1.00  0.00     0.198 A 
ATOM     88  C   UNL A   1      45.303  37.459  27.770  1.00  0.00     0.198 A 
ATOM     89  F   UNL A   1      46.367  35.943  29.222  1.00  0.00    -0.203 F 
ATOM     90  F   UNL A   1      41.908  37.518  26.502  1.00  0.00    -0.200 F 
ATOM     91  C   UNL A   1      44.173  37.865  27.075  1.00  0.00     0.200 A 
ATOM     92  F   UNL A   1      46.439  38.161  27.669  1.00  0.00    -0.200 F 
ATOM     93  F   UNL A   1      44.223  38.948  26.287  1.00  0.00    -0.200 F 
ENDBRANCH  59  83
BRANCH  71  94
ATOM     94  C   UNL A   1      41.971  34.524  35.275  1.00  0.00     0.064 A 
ATOM     95  C   UNL A   1      42.822  35.300  36.077  1.00  0.00     0.173 A 
ATOM     96  C   UNL A   1      40.587  34.659  35.461  1.00  0.00     0.173 A 
ATOM     97  F   UNL A   1      44.153  35.193  35.950  1.00  0.00    -0.203 F 
ATOM     98  C   UNL A   1      42.307  36.162  37.042  1.00  0.00     0.198 A 
ATOM     99  C   UNL A   1      40.075  35.543  36.408  1.00  0.00     0.198 A 
ATOM    100  F   UNL A   1      39.732  33.943  34.718  1.00  0.00    -0.203 F 
ATOM    101  F   UNL A   1      43.138  36.859  37.828  1.00  0.00    -0.200 F 
ATOM    102  C   UNL A   1      40.934  36.287  37.201  1.00  0.00     0.200 A 
ATOM    103  F   UNL A   1      38.750  35.671  36.553  1.00  0.00    -0.200 F 
ATOM    104  F   UNL A   1      40.440  37.121  38.126  1.00  0.00    -0.200 F 
ENDBRANCH  71  94
ENDBRANCH  45  46
ENDBRANCH  37  40
ENDBRANCH  35  36
ENDBRANCH  34  35
ENDBRANCH  33  34
ENDBRANCH  31  33
ENDBRANCH  27  29
ENDBRANCH  26  27
ENDBRANCH   5  20
TORSDOF 21
ENDMDL
MODEL 3
REMARK VINA RESULT:     -10.9      4.649      7.006
REMARK SMILES CCCCCCCCNC(=O)Oc1cccc(-c2ccc([C@@H](C)C(=O)NCCCNC(=O)c3ccc(-c4c5nc(c(-c6c(F)c(F)c(F)c(F)c6F)c6ccc([nH]6)c(-c6c(F)c(F)c(F)c(F)c6F)c6nc(c(-c7c(F)c(F)c(F)c(F)c7F)c7ccc4[nH]7)C=C6)C=C5)cc3)cc2F)c1
REMARK SMILES IDX 13 1 14 2 15 3 16 4 17 5 99 6 12 7 10 8 9 9 11 11 8 12 7 13
REMARK SMILES IDX 6 14 5 15 4 16 3 17 2 18 1 19 18 20 19 21 97 22 20 23 96 24
REMARK SMILES IDX 98 25 21 26 22 27 23 28 24 29 25 30 26 31 27 33 28 34 29 35
REMARK SMILES IDX 30 36 31 37 32 39 33 40 34 41 95 42 35 43 94 44 36 45 37 46
REMARK SMILES IDX 38 47 88 48 39 49 93 50 87 51 89 52 40 53 92 54 86 55 85 56
REMARK SMILES IDX 41 58 73 59 53 60 72 61 54 62 57 63 71 64 90 65 55 66 56 67
REMARK SMILES IDX 70 69 91 70 58 71 42 72 43 73 51 74 44 75 45 76 49 77 52 78
REMARK SMILES IDX 46 79 47 80 50 81 48 82 74 83 75 84 83 85 76 86 77 87 81 88
REMARK SMILES IDX 84 89 78 90 79 91 82 92 80 93 59 94 60 95 68 96 61 97 62 98
REMARK SMILES IDX 66 99 69 100 63 101 64 102 67 103 65 104
REMARK H PARENT 9 10 26 32 30 38 89 57 57 68
REMARK Flexibility Score: inf
ROOT
ATOM      1  C   UNL A   1      37.074  29.636  30.243  1.00  0.00     0.133 A 
ATOM      2  C   UNL A   1      36.790  30.546  29.229  1.00  0.00     0.047 A 
ATOM      3  C   UNL A   1      37.474  30.447  28.026  1.00  0.00     0.004 A 
ATOM      4  C   UNL A   1      38.422  29.435  27.846  1.00  0.00     0.009 A 
ATOM      5  C   UNL A   1      38.732  28.509  28.866  1.00  0.00    -0.012 A 
ATOM      6  C   UNL A   1      38.025  28.627  30.074  1.00  0.00     0.056 A 
ENDROOT
BRANCH   1   7
ATOM      7  O   UNL A   1      36.260  29.693  31.382  1.00  0.00    -0.410 OA
BRANCH   7   8
ATOM      8  C   UNL A   1      36.230  30.866  32.116  1.00  0.00     0.412 C 
ATOM      9  N   UNL A   1      37.046  30.816  33.214  1.00  0.00    -0.321 N 
ATOM     10  H   UNL A   1      37.064  31.614  33.791  1.00  0.00     0.167 HD
ATOM     11  O   UNL A   1      35.559  31.860  31.867  1.00  0.00    -0.224 OA
BRANCH   9  12
ATOM     12  C   UNL A   1      37.887  29.703  33.608  1.00  0.00     0.119 C 
BRANCH  12  13
ATOM     13  C   UNL A   1      39.368  30.079  33.612  1.00  0.00     0.021 C 
BRANCH  13  14
ATOM     14  C   UNL A   1      40.178  29.495  32.448  1.00  0.00     0.002 C 
BRANCH  14  15
ATOM     15  C   UNL A   1      40.649  30.515  31.405  1.00  0.00     0.000 C 
BRANCH  15  16
ATOM     16  C   UNL A   1      39.841  31.816  31.364  1.00  0.00    -0.000 C 
BRANCH  16  17
ATOM     17  C   UNL A   1      40.071  32.684  30.121  1.00  0.00    -0.000 C 
BRANCH  17  18
ATOM     18  C   UNL A   1      39.139  33.892  29.987  1.00  0.00    -0.003 C 
ATOM     19  C   UNL A   1      38.845  34.578  31.312  1.00  0.00     0.004 C 
ENDBRANCH  17  18
ENDBRANCH  16  17
ENDBRANCH  15  16
ENDBRANCH  14  15
ENDBRANCH  13  14
ENDBRANCH  12  13
ENDBRANCH   9  12
ENDBRANCH   7   8
ENDBRANCH   1   7
BRANCH   5  20
ATOM     20  C   UNL A   1      39.777  27.477  28.668  1.00  0.00     0.018 A 
ATOM     21  C   UNL A   1      39.428  26.118  28.581  1.00  0.00     0.012 A 
ATOM     22  C   UNL A   1      41.142  27.776  28.542  1.00  0.00     0.131 A 
ATOM     23  C   UNL A   1      40.389  25.118  28.385  1.00  0.00     0.005 A 
ATOM     24  C   UNL A   1      42.098  26.786  28.290  1.00  0.00     0.044 A 
ATOM     25  F   UNL A   1      41.580  29.038  28.668  1.00  0.00    -0.206 F 
ATOM     26  C   UNL A   1      41.734  25.437  28.193  1.00  0.00    -0.033 A 
BRANCH  26  27
ATOM     27  C   UNL A   1      42.786  24.393  27.857  1.00  0.00     0.105 C 
ATOM     28  C   UNL A   1      42.736  23.113  28.690  1.00  0.00     0.023 C 
BRANCH  27  29
ATOM     29  C   UNL A   1      42.962  24.165  26.348  1.00  0.00     0.227 C 
ATOM     30  O   UNL A   1      41.970  23.963  25.637  1.00  0.00    -0.274 OA
ATOM     31  N   UNL A   1      44.163  24.170  25.708  1.00  0.00    -0.356 N 
ATOM     32  H   UNL A   1      44.094  24.058  24.732  1.00  0.00     0.163 HD
BRANCH  31  33
ATOM     33  C   UNL A   1      45.526  24.307  26.186  1.00  0.00     0.117 C 
BRANCH  33  34
ATOM     34  C   UNL A   1      46.553  24.205  25.060  1.00  0.00     0.042 C 
BRANCH  34  35
ATOM     35  C   UNL A   1      47.761  25.119  25.233  1.00  0.00     0.118 C 
BRANCH  35  36
ATOM     36  N   UNL A   1      47.784  26.199  24.254  1.00  0.00    -0.352 N 
ATOM     37  C   UNL A   1      47.193  27.438  24.262  1.00  0.00     0.251 C 
ATOM     38  H   UNL A   1      48.315  26.005  23.448  1.00  0.00     0.163 HD
ATOM     39  O   UNL A   1      47.179  28.097  23.225  1.00  0.00    -0.269 OA
BRANCH  37  40
ATOM     40  C   UNL A   1      46.559  27.991  25.482  1.00  0.00     0.039 A 
ATOM     41  C   UNL A   1      47.382  28.546  26.469  1.00  0.00     0.014 A 
ATOM     42  C   UNL A   1      45.180  27.918  25.695  1.00  0.00     0.014 A 
ATOM     43  C   UNL A   1      46.820  29.093  27.625  1.00  0.00     0.010 A 
ATOM     44  C   UNL A   1      44.613  28.527  26.815  1.00  0.00     0.010 A 
ATOM     45  C   UNL A   1      45.426  29.126  27.789  1.00  0.00    -0.014 A 
BRANCH  45  46
ATOM     46  C   UNL A   1      44.802  29.815  28.948  1.00  0.00     0.031 A 
ATOM     47  C   UNL A   1      44.508  31.288  28.899  1.00  0.00     0.074 A 
ATOM     48  C   UNL A   1      44.573  29.120  30.079  1.00  0.00     0.049 A 
ATOM     49  N   UNL A   1      44.050  32.073  29.843  1.00  0.00    -0.248 NA
ATOM     50  C   UNL A   1      44.785  31.975  27.629  1.00  0.00     0.031 C 
ATOM     51  C   UNL A   1      44.859  27.697  30.267  1.00  0.00     0.029 A 
ATOM     52  N   UNL A   1      44.066  29.519  31.291  1.00  0.00    -0.354 N 
ATOM     53  C   UNL A   1      43.997  33.344  29.287  1.00  0.00     0.074 A 
ATOM     54  C   UNL A   1      44.509  33.235  27.937  1.00  0.00     0.031 C 
ATOM     55  C   UNL A   1      44.514  27.339  31.514  1.00  0.00     0.029 A 
ATOM     56  C   UNL A   1      44.022  28.514  32.226  1.00  0.00     0.049 A 
ATOM     57  H   UNL A   1      43.762  30.438  31.473  1.00  0.00     0.167 HD
ATOM     58  C   UNL A   1      43.548  34.493  29.847  1.00  0.00     0.037 A 
ATOM     59  C   UNL A   1      43.646  28.538  33.519  1.00  0.00     0.037 A 
ATOM     60  C   UNL A   1      43.021  34.593  31.185  1.00  0.00     0.049 A 
ATOM     61  C   UNL A   1      43.167  29.831  34.121  1.00  0.00     0.074 A 
ATOM     62  C   UNL A   1      42.472  35.696  31.816  1.00  0.00     0.029 A 
ATOM     63  N   UNL A   1      42.987  33.551  32.101  1.00  0.00    -0.354 N 
ATOM     64  N   UNL A   1      43.053  31.011  33.562  1.00  0.00    -0.248 NA
ATOM     65  C   UNL A   1      42.766  29.794  35.534  1.00  0.00     0.031 C 
ATOM     66  C   UNL A   1      42.149  35.335  33.128  1.00  0.00     0.029 A 
ATOM     67  C   UNL A   1      42.455  33.994  33.301  1.00  0.00     0.049 A 
ATOM     68  H   UNL A   1      43.297  32.634  31.924  1.00  0.00     0.167 HD
ATOM     69  C   UNL A   1      42.554  31.852  34.547  1.00  0.00     0.074 A 
ATOM     70  C   UNL A   1      42.366  31.042  35.733  1.00  0.00     0.031 C 
ATOM     71  C   UNL A   1      42.281  33.177  34.476  1.00  0.00     0.037 A 
BRANCH  58  72
ATOM     72  C   UNL A   1      43.603  35.742  29.016  1.00  0.00     0.064 A 
ATOM     73  C   UNL A   1      44.753  36.545  28.974  1.00  0.00     0.173 A 
ATOM     74  C   UNL A   1      42.513  36.114  28.215  1.00  0.00     0.173 A 
ATOM     75  F   UNL A   1      45.820  36.238  29.727  1.00  0.00    -0.203 F 
ATOM     76  C   UNL A   1      44.799  37.689  28.181  1.00  0.00     0.198 A 
ATOM     77  C   UNL A   1      42.574  37.243  27.402  1.00  0.00     0.198 A 
ATOM     78  F   UNL A   1      41.393  35.376  28.211  1.00  0.00    -0.203 F 
ATOM     79  F   UNL A   1      45.892  38.464  28.189  1.00  0.00    -0.200 F 
ATOM     80  C   UNL A   1      43.713  38.033  27.390  1.00  0.00     0.200 A 
ATOM     81  F   UNL A   1      41.528  37.567  26.628  1.00  0.00    -0.200 F 
ATOM     82  F   UNL A   1      43.763  39.128  26.620  1.00  0.00    -0.200 F 
ENDBRANCH  58  72
BRANCH  59  83
ATOM     83  C   UNL A   1      43.699  27.293  34.327  1.00  0.00     0.064 A 
ATOM     84  C   UNL A   1      42.548  26.518  34.528  1.00  0.00     0.173 A 
ATOM     85  C   UNL A   1      44.896  26.847  34.906  1.00  0.00     0.173 A 
ATOM     86  F   UNL A   1      41.376  26.916  34.012  1.00  0.00    -0.203 F 
ATOM     87  C   UNL A   1      42.589  25.353  35.290  1.00  0.00     0.198 A 
ATOM     88  C   UNL A   1      44.943  25.666  35.644  1.00  0.00     0.198 A 
ATOM     89  F   UNL A   1      46.025  27.552  34.744  1.00  0.00    -0.203 F 
ATOM     90  F   UNL A   1      41.466  24.652  35.500  1.00  0.00    -0.200 F 
ATOM     91  C   UNL A   1      43.787  24.924  35.841  1.00  0.00     0.200 A 
ATOM     92  F   UNL A   1      46.104  25.247  36.164  1.00  0.00    -0.200 F 
ATOM     93  F   UNL A   1      43.828  23.798  36.567  1.00  0.00    -0.200 F 
ENDBRANCH  59  83
BRANCH  71  94
ATOM     94  C   UNL A   1      41.741  33.833  35.713  1.00  0.00     0.064 A 
ATOM     95  C   UNL A   1      42.585  34.496  36.617  1.00  0.00     0.173 A 
ATOM     96  C   UNL A   1      40.364  33.826  35.981  1.00  0.00     0.173 A 
ATOM     97  F   UNL A   1      43.911  34.514  36.414  1.00  0.00    -0.203 F 
ATOM     98  C   UNL A   1      42.071  35.111  37.756  1.00  0.00     0.198 A 
ATOM     99  C   UNL A   1      39.851  34.466  37.106  1.00  0.00     0.198 A 
ATOM    100  F   UNL A   1      39.515  33.209  35.147  1.00  0.00    -0.203 F 
ATOM    101  F   UNL A   1      42.900  35.699  38.628  1.00  0.00    -0.200 F 
ATOM    102  C   UNL A   1      40.705  35.101  37.995  1.00  0.00     0.200 A 
ATOM    103  F   UNL A   1      38.531  34.466  37.331  1.00  0.00    -0.200 F 
ATOM    104  F   UNL A   1      40.212  35.698  39.089  1.00  0.00    -0.200 F 
ENDBRANCH  71  94
ENDBRANCH  45  46
ENDBRANCH  37  40
ENDBRANCH  35  36
ENDBRANCH  34  35
ENDBRANCH  33  34
ENDBRANCH  31  33
ENDBRANCH  27  29
ENDBRANCH  26  27
ENDBRANCH   5  20
TORSDOF 21
ENDMDL
