MODEL 1
REMARK VINA RESULT:     -13.3      0.000      0.000
REMARK SMILES O=C(NCCCNC(=O)c1ccc(-c2c3nc(c(-c4c(F)c(F)c(F)c(F)c4F)c4ccc([nH]4)c(-c4c(F)c(F)c(F)c(F)c4F)c4nc(c(-c5c(F)c(F)c(F)c(F)c5F)c5ccc2[nH]5)C=C4)C=C3)cc1)C1=Cc2ccc(Cl)c(Cl)c2O[C@@H]1C(F)(F)F
REMARK SMILES IDX 5 1 4 2 3 3 1 4 2 5 73 7 74 8 84 9 75 10 83 11 76 12 82 13
REMARK SMILES IDX 77 14 80 15 78 16 81 17 79 18 85 19 86 20 87 21 88 22 6 23
REMARK SMILES IDX 7 24 8 25 9 27 10 28 11 29 72 30 12 31 71 32 13 33 14 34
REMARK SMILES IDX 15 35 65 36 16 37 70 38 64 39 66 40 17 41 69 42 63 43 62 44
REMARK SMILES IDX 18 46 50 47 30 48 49 49 31 50 34 51 48 52 67 53 32 54 33 55
REMARK SMILES IDX 47 57 68 58 35 59 19 60 20 61 28 62 21 63 22 64 26 65 29 66
REMARK SMILES IDX 23 67 24 68 27 69 25 70 51 71 52 72 60 73 53 74 54 75 58 76
REMARK SMILES IDX 61 77 55 78 56 79 59 80 57 81 36 82 37 83 45 84 38 85 39 86
REMARK SMILES IDX 43 87 46 88 40 89 41 90 44 91 42 92
REMARK H PARENT 3 6 7 26 66 45 34 56
REMARK Flexibility Score: inf
ROOT
ATOM      1  C   UNL A   1      31.821  28.441  25.881  1.00  0.00     0.042 C 
ENDROOT
BRANCH   1   2
ATOM      2  C   UNL A   1      32.175  27.210  26.707  1.00  0.00     0.118 C 
BRANCH   2   3
ATOM      3  N   UNL A   1      31.089  26.231  26.778  1.00  0.00    -0.352 N 
ATOM      4  O   UNL A   1      30.141  24.169  26.753  1.00  0.00    -0.270 OA
ATOM      5  C   UNL A   1      31.076  24.895  26.450  1.00  0.00     0.251 C 
ATOM      6  H   UNL A   1      30.233  26.583  27.113  1.00  0.00     0.163 HD
BRANCH   5   7
ATOM      7  C   UNL A   1      32.268  24.366  25.764  1.00  0.00     0.067 C 
ATOM      8  C   UNL A   1      32.968  23.423  26.406  1.00  0.00     0.025 C 
ATOM      9  C   UNL A   1      32.371  24.597  24.291  1.00  0.00     0.314 C 
ATOM     10  C   UNL A   1      33.260  22.253  25.570  1.00  0.00     0.019 A 
ATOM     11  O   UNL A   1      32.437  23.357  23.548  1.00  0.00    -0.474 OA
ATOM     12  C   UNL A   1      33.539  21.056  26.238  1.00  0.00     0.013 A 
ATOM     13  C   UNL A   1      32.833  22.222  24.223  1.00  0.00     0.148 A 
ATOM     14  C   UNL A   1      33.284  19.837  25.614  1.00  0.00     0.023 A 
ATOM     15  C   UNL A   1      32.597  20.989  23.591  1.00  0.00     0.102 A 
ATOM     16  C   UNL A   1      32.790  19.801  24.307  1.00  0.00     0.063 A 
ATOM     17  Cl  UNL A   1      31.901  20.972  22.000  1.00  0.00    -0.079 Cl
ATOM     18  Cl  UNL A   1      32.347  18.253  23.676  1.00  0.00    -0.083 Cl
BRANCH   9  19
ATOM     19  C   UNL A   1      33.564  25.504  23.948  1.00  0.00     0.429 C 
ATOM     20  F   UNL A   1      34.350  24.939  23.001  1.00  0.00    -0.167 F 
ATOM     21  F   UNL A   1      33.163  26.702  23.462  1.00  0.00    -0.167 F 
ATOM     22  F   UNL A   1      34.346  25.748  25.027  1.00  0.00    -0.167 F 
ENDBRANCH   9  19
ENDBRANCH   5   7
ENDBRANCH   2   3
ENDBRANCH   1   2
BRANCH   1  23
ATOM     23  C   UNL A   1      32.958  29.456  25.840  1.00  0.00     0.118 C 
BRANCH  23  24
ATOM     24  N   UNL A   1      32.584  30.782  26.325  1.00  0.00    -0.352 N 
ATOM     25  C   UNL A   1      33.246  31.655  27.168  1.00  0.00     0.251 C 
ATOM     26  H   UNL A   1      31.715  31.108  25.997  1.00  0.00     0.163 HD
ATOM     27  O   UNL A   1      32.715  32.696  27.511  1.00  0.00    -0.269 OA
BRANCH  25  28
ATOM     28  C   UNL A   1      34.586  31.304  27.692  1.00  0.00     0.039 A 
ATOM     29  C   UNL A   1      35.564  32.300  27.793  1.00  0.00     0.014 A 
ATOM     30  C   UNL A   1      34.869  30.009  28.118  1.00  0.00     0.014 A 
ATOM     31  C   UNL A   1      36.777  32.020  28.432  1.00  0.00     0.010 A 
ATOM     32  C   UNL A   1      36.016  29.768  28.862  1.00  0.00     0.010 A 
ATOM     33  C   UNL A   1      36.985  30.769  29.032  1.00  0.00    -0.014 A 
BRANCH  33  34
ATOM     34  C   UNL A   1      38.197  30.451  29.833  1.00  0.00     0.031 A 
ATOM     35  C   UNL A   1      39.225  29.504  29.272  1.00  0.00     0.074 A 
ATOM     36  C   UNL A   1      38.311  30.897  31.100  1.00  0.00     0.049 A 
ATOM     37  N   UNL A   1      40.220  28.905  29.874  1.00  0.00    -0.248 NA
ATOM     38  C   UNL A   1      39.071  29.135  27.856  1.00  0.00     0.031 C 
ATOM     39  C   UNL A   1      37.361  31.774  31.784  1.00  0.00     0.029 A 
ATOM     40  N   UNL A   1      39.271  30.648  32.051  1.00  0.00    -0.354 N 
ATOM     41  C   UNL A   1      40.770  28.050  28.927  1.00  0.00     0.074 A 
ATOM     42  C   UNL A   1      39.967  28.168  27.730  1.00  0.00     0.031 C 
ATOM     43  C   UNL A   1      37.794  32.009  33.034  1.00  0.00     0.029 A 
ATOM     44  C   UNL A   1      39.025  31.259  33.258  1.00  0.00     0.049 A 
ATOM     45  H   UNL A   1      40.061  30.084  31.885  1.00  0.00     0.167 HD
ATOM     46  C   UNL A   1      41.864  27.259  29.035  1.00  0.00     0.037 A 
ATOM     47  C   UNL A   1      39.709  31.207  34.417  1.00  0.00     0.037 A 
ATOM     48  C   UNL A   1      42.705  27.208  30.200  1.00  0.00     0.049 A 
ATOM     49  C   UNL A   1      40.951  30.362  34.498  1.00  0.00     0.074 A 
ATOM     50  C   UNL A   1      43.886  26.513  30.383  1.00  0.00     0.029 A 
ATOM     51  N   UNL A   1      42.458  27.899  31.378  1.00  0.00    -0.354 N 
ATOM     52  N   UNL A   1      41.490  29.596  33.580  1.00  0.00    -0.248 NA
ATOM     53  C   UNL A   1      41.681  30.374  35.773  1.00  0.00     0.031 C 
ATOM     54  C   UNL A   1      44.340  26.759  31.682  1.00  0.00     0.029 A 
ATOM     55  C   UNL A   1      43.462  27.639  32.295  1.00  0.00     0.049 A 
ATOM     56  H   UNL A   1      41.684  28.486  31.539  1.00  0.00     0.167 HD
ATOM     57  C   UNL A   1      42.635  29.060  34.154  1.00  0.00     0.074 A 
ATOM     58  C   UNL A   1      42.718  29.595  35.497  1.00  0.00     0.031 C 
ATOM     59  C   UNL A   1      43.535  28.200  33.619  1.00  0.00     0.037 A 
BRANCH  46  60
ATOM     60  C   UNL A   1      42.220  26.399  27.857  1.00  0.00     0.064 A 
ATOM     61  C   UNL A   1      41.619  25.150  27.647  1.00  0.00     0.173 A 
ATOM     62  C   UNL A   1      43.163  26.839  26.915  1.00  0.00     0.173 A 
ATOM     63  F   UNL A   1      40.720  24.677  28.524  1.00  0.00    -0.203 F 
ATOM     64  C   UNL A   1      41.974  24.355  26.560  1.00  0.00     0.198 A 
ATOM     65  C   UNL A   1      43.492  26.057  25.811  1.00  0.00     0.198 A 
ATOM     66  F   UNL A   1      43.766  28.028  27.064  1.00  0.00    -0.203 F 
ATOM     67  F   UNL A   1      41.431  23.139  26.415  1.00  0.00    -0.200 F 
ATOM     68  C   UNL A   1      42.905  24.812  25.639  1.00  0.00     0.200 A 
ATOM     69  F   UNL A   1      44.383  26.505  24.914  1.00  0.00    -0.200 F 
ATOM     70  F   UNL A   1      43.244  24.048  24.592  1.00  0.00    -0.200 F 
ENDBRANCH  46  60
BRANCH  47  71
ATOM     71  C   UNL A   1      39.250  31.999  35.589  1.00  0.00     0.064 A 
ATOM     72  C   UNL A   1      39.660  33.329  35.756  1.00  0.00     0.173 A 
ATOM     73  C   UNL A   1      38.397  31.453  36.559  1.00  0.00     0.173 A 
ATOM     74  F   UNL A   1      40.490  33.889  34.864  1.00  0.00    -0.203 F 
ATOM     75  C   UNL A   1      39.252  34.076  36.858  1.00  0.00     0.198 A 
ATOM     76  C   UNL A   1      37.968  32.210  37.648  1.00  0.00     0.198 A 
ATOM     77  F   UNL A   1      37.969  30.187  36.442  1.00  0.00    -0.203 F 
ATOM     78  F   UNL A   1      39.693  35.332  37.015  1.00  0.00    -0.200 F 
ATOM     79  C   UNL A   1      38.402  33.518  37.801  1.00  0.00     0.200 A 
ATOM     80  F   UNL A   1      37.134  31.672  38.548  1.00  0.00    -0.200 F 
ATOM     81  F   UNL A   1      38.006  34.239  38.859  1.00  0.00    -0.200 F 
ENDBRANCH  47  71
BRANCH  59  82
ATOM     82  C   UNL A   1      44.711  27.817  34.465  1.00  0.00     0.064 A 
ATOM     83  C   UNL A   1      45.893  28.572  34.465  1.00  0.00     0.173 A 
ATOM     84  C   UNL A   1      44.629  26.718  35.334  1.00  0.00     0.173 A 
ATOM     85  F   UNL A   1      46.023  29.622  33.642  1.00  0.00    -0.203 F 
ATOM     86  C   UNL A   1      46.957  28.231  35.295  1.00  0.00     0.198 A 
ATOM     87  C   UNL A   1      45.685  26.396  36.181  1.00  0.00     0.198 A 
ATOM     88  F   UNL A   1      43.516  25.969  35.373  1.00  0.00    -0.203 F 
ATOM     89  F   UNL A   1      48.090  28.944  35.256  1.00  0.00    -0.200 F 
ATOM     90  C   UNL A   1      46.849  27.149  36.158  1.00  0.00     0.200 A 
ATOM     91  F   UNL A   1      45.573  25.358  37.022  1.00  0.00    -0.200 F 
ATOM     92  F   UNL A   1      47.870  26.830  36.966  1.00  0.00    -0.200 F 
ENDBRANCH  59  82
ENDBRANCH  33  34
ENDBRANCH  25  28
ENDBRANCH  23  24
ENDBRANCH   1  23
TORSDOF 11
ENDMDL
MODEL 2
REMARK VINA RESULT:     -13.3      5.329      9.467
REMARK SMILES O=C(NCCCNC(=O)c1ccc(-c2c3nc(c(-c4c(F)c(F)c(F)c(F)c4F)c4ccc([nH]4)c(-c4c(F)c(F)c(F)c(F)c4F)c4nc(c(-c5c(F)c(F)c(F)c(F)c5F)c5ccc2[nH]5)C=C4)C=C3)cc1)C1=Cc2ccc(Cl)c(Cl)c2O[C@@H]1C(F)(F)F
REMARK SMILES IDX 5 1 4 2 3 3 1 4 2 5 73 7 74 8 84 9 75 10 83 11 76 12 82 13
REMARK SMILES IDX 77 14 80 15 78 16 81 17 79 18 85 19 86 20 87 21 88 22 6 23
REMARK SMILES IDX 7 24 8 25 9 27 10 28 11 29 72 30 12 31 71 32 13 33 14 34
REMARK SMILES IDX 15 35 65 36 16 37 70 38 64 39 66 40 17 41 69 42 63 43 62 44
REMARK SMILES IDX 18 46 50 47 30 48 49 49 31 50 34 51 48 52 67 53 32 54 33 55
REMARK SMILES IDX 47 57 68 58 35 59 19 60 20 61 28 62 21 63 22 64 26 65 29 66
REMARK SMILES IDX 23 67 24 68 27 69 25 70 51 71 52 72 60 73 53 74 54 75 58 76
REMARK SMILES IDX 61 77 55 78 56 79 59 80 57 81 36 82 37 83 45 84 38 85 39 86
REMARK SMILES IDX 43 87 46 88 40 89 41 90 44 91 42 92
REMARK H PARENT 3 6 7 26 66 45 34 56
REMARK Flexibility Score: inf
ROOT
ATOM      1  C   UNL A   1      41.684  21.820  26.086  1.00  0.00     0.042 C 
ENDROOT
BRANCH   1   2
ATOM      2  C   UNL A   1      42.970  21.827  26.903  1.00  0.00     0.118 C 
BRANCH   2   3
ATOM      3  N   UNL A   1      44.126  21.314  26.165  1.00  0.00    -0.352 N 
ATOM      4  O   UNL A   1      46.257  21.298  25.385  1.00  0.00    -0.270 OA
ATOM      5  C   UNL A   1      45.312  21.928  25.836  1.00  0.00     0.251 C 
ATOM      6  H   UNL A   1      44.042  20.383  25.856  1.00  0.00     0.163 HD
BRANCH   5   7
ATOM      7  C   UNL A   1      45.411  23.374  26.103  1.00  0.00     0.067 C 
ATOM      8  C   UNL A   1      46.119  23.744  27.176  1.00  0.00     0.025 C 
ATOM      9  C   UNL A   1      45.088  24.302  24.977  1.00  0.00     0.314 C 
ATOM     10  C   UNL A   1      47.099  24.798  26.883  1.00  0.00     0.019 A 
ATOM     11  O   UNL A   1      46.208  25.151  24.632  1.00  0.00    -0.474 OA
ATOM     12  C   UNL A   1      48.180  24.912  27.763  1.00  0.00     0.013 A 
ATOM     13  C   UNL A   1      47.195  25.330  25.578  1.00  0.00     0.148 A 
ATOM     14  C   UNL A   1      49.387  25.445  27.313  1.00  0.00     0.023 A 
ATOM     15  C   UNL A   1      48.409  25.885  25.135  1.00  0.00     0.102 A 
ATOM     16  C   UNL A   1      49.511  25.905  25.999  1.00  0.00     0.063 A 
ATOM     17  Cl  UNL A   1      48.564  26.369  23.475  1.00  0.00    -0.079 Cl
ATOM     18  Cl  UNL A   1      51.087  26.393  25.483  1.00  0.00    -0.083 Cl
BRANCH   9  19
ATOM     19  C   UNL A   1      43.840  25.145  25.286  1.00  0.00     0.429 C 
ATOM     20  F   UNL A   1      42.780  24.739  24.546  1.00  0.00    -0.167 F 
ATOM     21  F   UNL A   1      43.472  25.043  26.585  1.00  0.00    -0.167 F 
ATOM     22  F   UNL A   1      44.034  26.459  25.024  1.00  0.00    -0.167 F 
ENDBRANCH   9  19
ENDBRANCH   5   7
ENDBRANCH   2   3
ENDBRANCH   1   2
BRANCH   1  23
ATOM     23  C   UNL A   1      40.447  21.632  26.958  1.00  0.00     0.118 C 
BRANCH  23  24
ATOM     24  N   UNL A   1      39.211  22.107  26.341  1.00  0.00    -0.352 N 
ATOM     25  C   UNL A   1      38.640  23.366  26.316  1.00  0.00     0.251 C 
ATOM     26  H   UNL A   1      38.700  21.415  25.863  1.00  0.00     0.163 HD
ATOM     27  O   UNL A   1      37.548  23.532  25.802  1.00  0.00    -0.269 OA
BRANCH  25  28
ATOM     28  C   UNL A   1      39.334  24.506  26.957  1.00  0.00     0.039 A 
ATOM     29  C   UNL A   1      40.056  25.402  26.162  1.00  0.00     0.014 A 
ATOM     30  C   UNL A   1      39.244  24.715  28.331  1.00  0.00     0.014 A 
ATOM     31  C   UNL A   1      40.582  26.568  26.731  1.00  0.00     0.010 A 
ATOM     32  C   UNL A   1      39.653  25.928  28.867  1.00  0.00     0.010 A 
ATOM     33  C   UNL A   1      40.326  26.872  28.076  1.00  0.00    -0.014 A 
BRANCH  33  34
ATOM     34  C   UNL A   1      40.747  28.152  28.706  1.00  0.00     0.031 A 
ATOM     35  C   UNL A   1      42.174  28.318  29.158  1.00  0.00     0.074 A 
ATOM     36  C   UNL A   1      39.834  29.102  28.994  1.00  0.00     0.049 A 
ATOM     37  N   UNL A   1      42.701  29.232  29.932  1.00  0.00    -0.248 NA
ATOM     38  C   UNL A   1      43.122  27.276  28.728  1.00  0.00     0.031 C 
ATOM     39  C   UNL A   1      38.410  29.044  28.663  1.00  0.00     0.029 A 
ATOM     40  N   UNL A   1      39.968  30.297  29.658  1.00  0.00    -0.354 N 
ATOM     41  C   UNL A   1      44.021  28.842  30.125  1.00  0.00     0.074 A 
ATOM     42  C   UNL A   1      44.199  27.584  29.433  1.00  0.00     0.031 C 
ATOM     43  C   UNL A   1      37.807  30.160  29.103  1.00  0.00     0.029 A 
ATOM     44  C   UNL A   1      38.788  30.990  29.793  1.00  0.00     0.049 A 
ATOM     45  H   UNL A   1      40.828  30.626  30.006  1.00  0.00     0.167 HD
ATOM     46  C   UNL A   1      45.003  29.488  30.795  1.00  0.00     0.037 A 
ATOM     47  C   UNL A   1      38.528  32.156  30.416  1.00  0.00     0.037 A 
ATOM     48  C   UNL A   1      44.841  30.777  31.412  1.00  0.00     0.049 A 
ATOM     49  C   UNL A   1      39.648  32.882  31.109  1.00  0.00     0.074 A 
ATOM     50  C   UNL A   1      45.793  31.562  32.035  1.00  0.00     0.029 A 
ATOM     51  N   UNL A   1      43.644  31.477  31.464  1.00  0.00    -0.354 N 
ATOM     52  N   UNL A   1      40.904  32.529  31.243  1.00  0.00    -0.248 NA
ATOM     53  C   UNL A   1      39.317  34.169  31.737  1.00  0.00     0.031 C 
ATOM     54  C   UNL A   1      45.166  32.726  32.492  1.00  0.00     0.029 A 
ATOM     55  C   UNL A   1      43.833  32.683  32.117  1.00  0.00     0.049 A 
ATOM     56  H   UNL A   1      42.788  31.164  31.092  1.00  0.00     0.167 HD
ATOM     57  C   UNL A   1      41.518  33.560  31.942  1.00  0.00     0.074 A 
ATOM     58  C   UNL A   1      40.499  34.557  32.196  1.00  0.00     0.031 C 
ATOM     59  C   UNL A   1      42.808  33.670  32.339  1.00  0.00     0.037 A 
BRANCH  46  60
ATOM     60  C   UNL A   1      46.345  28.818  30.881  1.00  0.00     0.064 A 
ATOM     61  C   UNL A   1      47.299  28.944  29.861  1.00  0.00     0.173 A 
ATOM     62  C   UNL A   1      46.688  28.055  32.008  1.00  0.00     0.173 A 
ATOM     63  F   UNL A   1      47.016  29.652  28.756  1.00  0.00    -0.203 F 
ATOM     64  C   UNL A   1      48.531  28.301  29.946  1.00  0.00     0.198 A 
ATOM     65  C   UNL A   1      47.933  27.442  32.106  1.00  0.00     0.198 A 
ATOM     66  F   UNL A   1      45.816  27.906  33.016  1.00  0.00    -0.203 F 
ATOM     67  F   UNL A   1      49.401  28.386  28.931  1.00  0.00    -0.200 F 
ATOM     68  C   UNL A   1      48.850  27.556  31.071  1.00  0.00     0.200 A 
ATOM     69  F   UNL A   1      48.246  26.731  33.200  1.00  0.00    -0.200 F 
ATOM     70  F   UNL A   1      50.037  26.941  31.154  1.00  0.00    -0.200 F 
ENDBRANCH  46  60
BRANCH  47  71
ATOM     71  C   UNL A   1      37.153  32.723  30.389  1.00  0.00     0.064 A 
ATOM     72  C   UNL A   1      36.736  33.530  29.322  1.00  0.00     0.173 A 
ATOM     73  C   UNL A   1      36.233  32.473  31.417  1.00  0.00     0.173 A 
ATOM     74  F   UNL A   1      37.586  33.812  28.324  1.00  0.00    -0.203 F 
ATOM     75  C   UNL A   1      35.457  34.083  29.294  1.00  0.00     0.198 A 
ATOM     76  C   UNL A   1      34.946  33.005  31.376  1.00  0.00     0.198 A 
ATOM     77  F   UNL A   1      36.581  31.700  32.457  1.00  0.00    -0.203 F 
ATOM     78  F   UNL A   1      35.098  34.885  28.282  1.00  0.00    -0.200 F 
ATOM     79  C   UNL A   1      34.561  33.816  30.318  1.00  0.00     0.200 A 
ATOM     80  F   UNL A   1      34.078  32.732  32.359  1.00  0.00    -0.200 F 
ATOM     81  F   UNL A   1      33.330  34.343  30.288  1.00  0.00    -0.200 F 
ENDBRANCH  47  71
BRANCH  59  82
ATOM     82  C   UNL A   1      43.206  34.928  33.051  1.00  0.00     0.064 A 
ATOM     83  C   UNL A   1      43.558  36.088  32.348  1.00  0.00     0.173 A 
ATOM     84  C   UNL A   1      43.172  34.988  34.452  1.00  0.00     0.173 A 
ATOM     85  F   UNL A   1      43.619  36.075  31.009  1.00  0.00    -0.203 F 
ATOM     86  C   UNL A   1      43.876  37.263  33.025  1.00  0.00     0.198 A 
ATOM     87  C   UNL A   1      43.465  36.171  35.125  1.00  0.00     0.198 A 
ATOM     88  F   UNL A   1      42.835  33.904  35.168  1.00  0.00    -0.203 F 
ATOM     89  F   UNL A   1      44.243  38.352  32.337  1.00  0.00    -0.200 F 
ATOM     90  C   UNL A   1      43.821  37.305  34.411  1.00  0.00     0.200 A 
ATOM     91  F   UNL A   1      43.398  36.213  36.463  1.00  0.00    -0.200 F 
ATOM     92  F   UNL A   1      44.114  38.441  35.061  1.00  0.00    -0.200 F 
ENDBRANCH  59  82
ENDBRANCH  33  34
ENDBRANCH  25  28
ENDBRANCH  23  24
ENDBRANCH   1  23
TORSDOF 11
ENDMDL
MODEL 3
REMARK VINA RESULT:     -13.2      5.205     10.293
REMARK SMILES O=C(NCCCNC(=O)c1ccc(-c2c3nc(c(-c4c(F)c(F)c(F)c(F)c4F)c4ccc([nH]4)c(-c4c(F)c(F)c(F)c(F)c4F)c4nc(c(-c5c(F)c(F)c(F)c(F)c5F)c5ccc2[nH]5)C=C4)C=C3)cc1)C1=Cc2ccc(Cl)c(Cl)c2O[C@@H]1C(F)(F)F
REMARK SMILES IDX 5 1 4 2 3 3 1 4 2 5 73 7 74 8 84 9 75 10 83 11 76 12 82 13
REMARK SMILES IDX 77 14 80 15 78 16 81 17 79 18 85 19 86 20 87 21 88 22 6 23
REMARK SMILES IDX 7 24 8 25 9 27 10 28 11 29 72 30 12 31 71 32 13 33 14 34
REMARK SMILES IDX 15 35 65 36 16 37 70 38 64 39 66 40 17 41 69 42 63 43 62 44
REMARK SMILES IDX 18 46 50 47 30 48 49 49 31 50 34 51 48 52 67 53 32 54 33 55
REMARK SMILES IDX 47 57 68 58 35 59 19 60 20 61 28 62 21 63 22 64 26 65 29 66
REMARK SMILES IDX 23 67 24 68 27 69 25 70 51 71 52 72 60 73 53 74 54 75 58 76
REMARK SMILES IDX 61 77 55 78 56 79 59 80 57 81 36 82 37 83 45 84 38 85 39 86
REMARK SMILES IDX 43 87 46 88 40 89 41 90 44 91 42 92
REMARK H PARENT 3 6 7 26 66 45 34 56
REMARK Flexibility Score: inf
ROOT
ATOM      1  C   UNL A   1      34.277  33.512  28.089  1.00  0.00     0.042 C 
ENDROOT
BRANCH   1   2
ATOM      2  C   UNL A   1      34.891  34.572  28.995  1.00  0.00     0.118 C 
BRANCH   2   3
ATOM      3  N   UNL A   1      36.354  34.528  29.027  1.00  0.00    -0.352 N 
ATOM      4  O   UNL A   1      38.400  33.900  29.781  1.00  0.00    -0.270 OA
ATOM      5  C   UNL A   1      37.205  34.042  29.993  1.00  0.00     0.251 C 
ATOM      6  H   UNL A   1      36.799  34.904  28.234  1.00  0.00     0.163 HD
BRANCH   5   7
ATOM      7  C   UNL A   1      36.601  33.648  31.278  1.00  0.00     0.067 C 
ATOM      8  C   UNL A   1      36.383  32.342  31.469  1.00  0.00     0.025 C 
ATOM      9  C   UNL A   1      36.661  34.639  32.396  1.00  0.00     0.314 C 
ATOM     10  C   UNL A   1      36.890  31.857  32.759  1.00  0.00     0.019 A 
ATOM     11  O   UNL A   1      37.376  34.123  33.543  1.00  0.00    -0.474 OA
ATOM     12  C   UNL A   1      37.151  30.486  32.856  1.00  0.00     0.013 A 
ATOM     13  C   UNL A   1      37.506  32.755  33.659  1.00  0.00     0.148 A 
ATOM     14  C   UNL A   1      38.103  30.024  33.761  1.00  0.00     0.023 A 
ATOM     15  C   UNL A   1      38.452  32.281  34.585  1.00  0.00     0.102 A 
ATOM     16  C   UNL A   1      38.772  30.917  34.604  1.00  0.00     0.063 A 
ATOM     17  Cl  UNL A   1      39.331  33.420  35.558  1.00  0.00    -0.079 Cl
ATOM     18  Cl  UNL A   1      40.052  30.276  35.573  1.00  0.00    -0.083 Cl
BRANCH   9  19
ATOM     19  C   UNL A   1      35.256  35.116  32.797  1.00  0.00     0.429 C 
ATOM     20  F   UNL A   1      34.297  34.423  32.137  1.00  0.00    -0.167 F 
ATOM     21  F   UNL A   1      35.024  34.943  34.120  1.00  0.00    -0.167 F 
ATOM     22  F   UNL A   1      35.065  36.428  32.522  1.00  0.00    -0.167 F 
ENDBRANCH   9  19
ENDBRANCH   5   7
ENDBRANCH   2   3
ENDBRANCH   1   2
BRANCH   1  23
ATOM     23  C   UNL A   1      34.060  32.189  28.813  1.00  0.00     0.118 C 
BRANCH  23  24
ATOM     24  N   UNL A   1      33.785  31.064  27.922  1.00  0.00    -0.352 N 
ATOM     25  C   UNL A   1      34.581  30.001  27.538  1.00  0.00     0.251 C 
ATOM     26  H   UNL A   1      32.883  31.065  27.529  1.00  0.00     0.163 HD
ATOM     27  O   UNL A   1      34.177  29.202  26.712  1.00  0.00    -0.269 OA
BRANCH  25  28
ATOM     28  C   UNL A   1      35.945  29.858  28.096  1.00  0.00     0.039 A 
ATOM     29  C   UNL A   1      36.106  29.340  29.386  1.00  0.00     0.014 A 
ATOM     30  C   UNL A   1      37.065  30.196  27.340  1.00  0.00     0.014 A 
ATOM     31  C   UNL A   1      37.389  29.051  29.863  1.00  0.00     0.010 A 
ATOM     32  C   UNL A   1      38.323  29.792  27.762  1.00  0.00     0.010 A 
ATOM     33  C   UNL A   1      38.504  29.212  29.028  1.00  0.00    -0.014 A 
BRANCH  33  34
ATOM     34  C   UNL A   1      39.877  28.806  29.430  1.00  0.00     0.031 A 
ATOM     35  C   UNL A   1      40.707  29.739  30.271  1.00  0.00     0.074 A 
ATOM     36  C   UNL A   1      40.425  27.676  28.936  1.00  0.00     0.049 A 
ATOM     37  N   UNL A   1      41.988  29.704  30.535  1.00  0.00    -0.248 NA
ATOM     38  C   UNL A   1      40.009  30.903  30.839  1.00  0.00     0.031 C 
ATOM     39  C   UNL A   1      39.750  26.712  28.066  1.00  0.00     0.029 A 
ATOM     40  N   UNL A   1      41.690  27.161  29.078  1.00  0.00    -0.354 N 
ATOM     41  C   UNL A   1      42.254  30.866  31.249  1.00  0.00     0.074 A 
ATOM     42  C   UNL A   1      41.016  31.610  31.329  1.00  0.00     0.031 C 
ATOM     43  C   UNL A   1      40.598  25.714  27.770  1.00  0.00     0.029 A 
ATOM     44  C   UNL A   1      41.892  25.991  28.385  1.00  0.00     0.049 A 
ATOM     45  H   UNL A   1      42.388  27.591  29.623  1.00  0.00     0.167 HD
ATOM     46  C   UNL A   1      43.419  31.265  31.811  1.00  0.00     0.037 A 
ATOM     47  C   UNL A   1      42.999  25.236  28.252  1.00  0.00     0.037 A 
ATOM     48  C   UNL A   1      44.626  30.483  31.797  1.00  0.00     0.049 A 
ATOM     49  C   UNL A   1      44.269  25.673  28.930  1.00  0.00     0.074 A 
ATOM     50  C   UNL A   1      45.834  30.750  32.413  1.00  0.00     0.029 A 
ATOM     51  N   UNL A   1      44.767  29.268  31.143  1.00  0.00    -0.354 N 
ATOM     52  N   UNL A   1      44.497  26.749  29.644  1.00  0.00    -0.248 NA
ATOM     53  C   UNL A   1      45.436  24.791  28.786  1.00  0.00     0.031 C 
ATOM     54  C   UNL A   1      46.718  29.709  32.108  1.00  0.00     0.029 A 
ATOM     55  C   UNL A   1      46.047  28.776  31.335  1.00  0.00     0.049 A 
ATOM     56  H   UNL A   1      44.062  28.822  30.620  1.00  0.00     0.167 HD
ATOM     57  C   UNL A   1      45.819  26.660  30.058  1.00  0.00     0.074 A 
ATOM     58  C   UNL A   1      46.341  25.419  29.523  1.00  0.00     0.031 C 
ATOM     59  C   UNL A   1      46.537  27.528  30.811  1.00  0.00     0.037 A 
BRANCH  46  60
ATOM     60  C   UNL A   1      43.439  32.599  32.502  1.00  0.00     0.064 A 
ATOM     61  C   UNL A   1      43.131  32.728  33.864  1.00  0.00     0.173 A 
ATOM     62  C   UNL A   1      43.789  33.760  31.796  1.00  0.00     0.173 A 
ATOM     63  F   UNL A   1      42.778  31.651  34.581  1.00  0.00    -0.203 F 
ATOM     64  C   UNL A   1      43.135  33.974  34.486  1.00  0.00     0.198 A 
ATOM     65  C   UNL A   1      43.825  35.000  32.428  1.00  0.00     0.198 A 
ATOM     66  F   UNL A   1      44.097  33.694  30.492  1.00  0.00    -0.203 F 
ATOM     67  F   UNL A   1      42.777  34.080  35.772  1.00  0.00    -0.200 F 
ATOM     68  C   UNL A   1      43.488  35.108  33.770  1.00  0.00     0.200 A 
ATOM     69  F   UNL A   1      44.178  36.094  31.738  1.00  0.00    -0.200 F 
ATOM     70  F   UNL A   1      43.495  36.306  34.370  1.00  0.00    -0.200 F 
ENDBRANCH  46  60
BRANCH  47  71
ATOM     71  C   UNL A   1      42.951  23.975  27.466  1.00  0.00     0.064 A 
ATOM     72  C   UNL A   1      42.547  22.774  28.067  1.00  0.00     0.173 A 
ATOM     73  C   UNL A   1      43.301  23.938  26.108  1.00  0.00     0.173 A 
ATOM     74  F   UNL A   1      42.219  22.755  29.368  1.00  0.00    -0.203 F 
ATOM     75  C   UNL A   1      42.514  21.582  27.347  1.00  0.00     0.198 A 
ATOM     76  C   UNL A   1      43.243  22.751  25.382  1.00  0.00     0.198 A 
ATOM     77  F   UNL A   1      43.686  25.061  25.484  1.00  0.00    -0.203 F 
ATOM     78  F   UNL A   1      42.164  20.442  27.958  1.00  0.00    -0.200 F 
ATOM     79  C   UNL A   1      42.857  21.572  26.003  1.00  0.00     0.200 A 
ATOM     80  F   UNL A   1      43.560  22.748  24.080  1.00  0.00    -0.200 F 
ATOM     81  F   UNL A   1      42.821  20.426  25.310  1.00  0.00    -0.200 F 
ENDBRANCH  47  71
BRANCH  59  82
ATOM     82  C   UNL A   1      47.950  27.150  31.140  1.00  0.00     0.064 A 
ATOM     83  C   UNL A   1      48.252  26.312  32.223  1.00  0.00     0.173 A 
ATOM     84  C   UNL A   1      49.006  27.582  30.324  1.00  0.00     0.173 A 
ATOM     85  F   UNL A   1      47.278  25.886  33.039  1.00  0.00    -0.203 F 
ATOM     86  C   UNL A   1      49.565  25.931  32.484  1.00  0.00     0.198 A 
ATOM     87  C   UNL A   1      50.314  27.177  30.573  1.00  0.00     0.198 A 
ATOM     88  F   UNL A   1      48.765  28.381  29.273  1.00  0.00    -0.203 F 
ATOM     89  F   UNL A   1      49.838  25.157  33.543  1.00  0.00    -0.200 F 
ATOM     90  C   UNL A   1      50.593  26.356  31.655  1.00  0.00     0.200 A 
ATOM     91  F   UNL A   1      51.303  27.580  29.763  1.00  0.00    -0.200 F 
ATOM     92  F   UNL A   1      51.855  25.977  31.900  1.00  0.00    -0.200 F 
ENDBRANCH  59  82
ENDBRANCH  33  34
ENDBRANCH  25  28
ENDBRANCH  23  24
ENDBRANCH   1  23
TORSDOF 11
ENDMDL
