MODEL 1
REMARK VINA RESULT:     -12.3      0.000      0.000
REMARK SMILES CCOc1ccc(-c2cc(Cl)cc3c2O[C@H](C(F)(F)F)C(C(=O)NCCCNC(=O)c2ccc(-c4c5nc(c(-c6c(F)c(F)c(F)c(F)c6F)c6ccc([nH]6)c(-c6c(F)c(F)c(F)c(F)c6F)c6nc(c(-c7c(F)c(F)c(F)c(F)c7F)c7ccc4[nH]7)C=C6)C=C5)cc2)=C3)cc1
REMARK SMILES IDX 25 1 24 2 22 3 23 4 21 6 8 7 9 8 14 9 10 10 13 11 15 12
REMARK SMILES IDX 11 13 12 14 94 15 16 16 7 17 4 18 5 19 96 20 6 21 95 22 3 23
REMARK SMILES IDX 2 24 1 25 17 26 18 27 19 28 20 29 26 30 27 31 28 32 29 33
REMARK SMILES IDX 30 35 31 36 32 37 93 38 33 39 92 40 34 41 35 42 36 43 86 44
REMARK SMILES IDX 37 45 91 46 85 47 87 48 38 49 90 50 84 51 83 52 39 54 71 55
REMARK SMILES IDX 51 56 70 57 52 58 55 59 69 60 88 61 53 62 54 63 68 65 89 66
REMARK SMILES IDX 56 67 40 68 41 69 49 70 42 71 43 72 47 73 50 74 44 75 45 76
REMARK SMILES IDX 48 77 46 78 72 79 73 80 81 81 74 82 75 83 79 84 82 85 76 86
REMARK SMILES IDX 77 87 80 88 78 89 57 90 58 91 66 92 59 93 60 94 64 95 67 96
REMARK SMILES IDX 61 97 62 98 65 99 63 100
REMARK H PARENT 24 5 28 34 87 53 55 64
REMARK Flexibility Score: inf
ROOT
ATOM      1  C   UNL A   1      30.938  31.857  26.484  1.00  0.00     0.118 C 
ENDROOT
BRANCH   1   2
ATOM      2  N   UNL A   1      31.131  30.791  25.520  1.00  0.00    -0.352 N 
ATOM      3  C   UNL A   1      32.250  30.035  25.380  1.00  0.00     0.251 C 
ATOM      4  O   UNL A   1      32.689  29.787  24.264  1.00  0.00    -0.270 OA
ATOM      5  H   UNL A   1      30.381  30.597  24.912  1.00  0.00     0.163 HD
BRANCH   3   6
ATOM      6  C   UNL A   1      32.803  29.419  26.621  1.00  0.00     0.067 C 
ATOM      7  C   UNL A   1      33.237  25.571  25.355  1.00  0.00     0.026 A 
ATOM      8  C   UNL A   1      32.050  25.185  24.684  1.00  0.00     0.033 A 
ATOM      9  C   UNL A   1      33.177  26.756  26.107  1.00  0.00     0.135 A 
ATOM     10  C   UNL A   1      30.840  25.850  24.874  1.00  0.00     0.042 A 
ATOM     11  C   UNL A   1      31.921  27.350  26.375  1.00  0.00     0.019 A 
ATOM     12  O   UNL A   1      34.310  27.399  26.583  1.00  0.00    -0.475 OA
ATOM     13  Cl  UNL A   1      29.442  25.334  24.015  1.00  0.00    -0.084 Cl
ATOM     14  C   UNL A   1      30.752  26.898  25.771  1.00  0.00     0.032 A 
ATOM     15  C   UNL A   1      31.907  28.587  27.190  1.00  0.00     0.025 C 
ATOM     16  C   UNL A   1      34.223  28.881  26.479  1.00  0.00     0.314 C 
BRANCH   7  17
ATOM     17  C   UNL A   1      34.327  24.566  25.364  1.00  0.00    -0.014 A 
ATOM     18  C   UNL A   1      35.632  22.062  25.206  1.00  0.00     0.119 A 
ATOM     19  C   UNL A   1      35.578  22.889  24.089  1.00  0.00     0.047 A 
ATOM     20  C   UNL A   1      35.159  22.528  26.428  1.00  0.00     0.047 A 
ATOM     21  C   UNL A   1      34.938  24.134  24.168  1.00  0.00     0.013 A 
ATOM     22  C   UNL A   1      34.516  23.771  26.507  1.00  0.00     0.013 A 
BRANCH  18  23
ATOM     23  O   UNL A   1      36.224  20.837  25.074  1.00  0.00    -0.494 OA
BRANCH  23  24
ATOM     24  C   UNL A   1      37.591  20.893  24.634  1.00  0.00     0.226 C 
ATOM     25  C   UNL A   1      38.482  21.527  25.690  1.00  0.00     0.049 C 
ENDBRANCH  23  24
ENDBRANCH  18  23
ENDBRANCH   7  17
BRANCH  16  26
ATOM     26  C   UNL A   1      35.124  29.581  27.519  1.00  0.00     0.429 C 
ATOM     27  F   UNL A   1      36.194  30.189  26.962  1.00  0.00    -0.167 F 
ATOM     28  F   UNL A   1      34.433  30.518  28.211  1.00  0.00    -0.167 F 
ATOM     29  F   UNL A   1      35.614  28.714  28.447  1.00  0.00    -0.167 F 
ENDBRANCH  16  26
ENDBRANCH   3   6
ENDBRANCH   1   2
BRANCH   1  30
ATOM     30  C   UNL A   1      32.060  32.890  26.353  1.00  0.00     0.042 C 
BRANCH  30  31
ATOM     31  C   UNL A   1      32.744  33.261  27.669  1.00  0.00     0.118 C 
BRANCH  31  32
ATOM     32  N   UNL A   1      32.528  34.648  28.056  1.00  0.00    -0.352 N 
ATOM     33  C   UNL A   1      33.152  35.383  29.033  1.00  0.00     0.251 C 
ATOM     34  H   UNL A   1      31.835  35.126  27.546  1.00  0.00     0.163 HD
ATOM     35  O   UNL A   1      32.746  36.507  29.318  1.00  0.00    -0.269 OA
BRANCH  33  36
ATOM     36  C   UNL A   1      34.295  34.805  29.768  1.00  0.00     0.039 A 
ATOM     37  C   UNL A   1      34.085  34.302  31.054  1.00  0.00     0.014 A 
ATOM     38  C   UNL A   1      35.561  34.731  29.179  1.00  0.00     0.014 A 
ATOM     39  C   UNL A   1      35.122  33.642  31.715  1.00  0.00     0.010 A 
ATOM     40  C   UNL A   1      36.573  34.014  29.812  1.00  0.00     0.010 A 
ATOM     41  C   UNL A   1      36.359  33.448  31.079  1.00  0.00    -0.014 A 
BRANCH  41  42
ATOM     42  C   UNL A   1      37.429  32.622  31.699  1.00  0.00     0.031 A 
ATOM     43  C   UNL A   1      37.974  32.980  33.053  1.00  0.00     0.074 A 
ATOM     44  C   UNL A   1      37.978  31.611  30.995  1.00  0.00     0.049 A 
ATOM     45  N   UNL A   1      38.987  32.462  33.701  1.00  0.00    -0.248 NA
ATOM     46  C   UNL A   1      37.311  34.086  33.762  1.00  0.00     0.031 C 
ATOM     47  C   UNL A   1      37.575  31.200  29.649  1.00  0.00     0.029 A 
ATOM     48  N   UNL A   1      39.011  30.759  31.304  1.00  0.00    -0.354 N 
ATOM     49  C   UNL A   1      39.100  33.194  34.875  1.00  0.00     0.074 A 
ATOM     50  C   UNL A   1      38.074  34.214  34.839  1.00  0.00     0.031 C 
ATOM     51  C   UNL A   1      38.348  30.178  29.250  1.00  0.00     0.029 A 
ATOM     52  C   UNL A   1      39.328  29.887  30.292  1.00  0.00     0.049 A 
ATOM     53  H   UNL A   1      39.478  30.773  32.170  1.00  0.00     0.167 HD
ATOM     54  C   UNL A   1      39.972  33.019  35.896  1.00  0.00     0.037 A 
ATOM     55  C   UNL A   1      40.311  28.971  30.202  1.00  0.00     0.037 A 
ATOM     56  C   UNL A   1      40.961  31.974  35.949  1.00  0.00     0.049 A 
ATOM     57  C   UNL A   1      41.254  28.790  31.362  1.00  0.00     0.074 A 
ATOM     58  C   UNL A   1      41.822  31.657  36.984  1.00  0.00     0.029 A 
ATOM     59  N   UNL A   1      41.224  31.082  34.921  1.00  0.00    -0.354 N 
ATOM     60  N   UNL A   1      41.292  29.431  32.504  1.00  0.00    -0.248 NA
ATOM     61  C   UNL A   1      42.287  27.754  31.222  1.00  0.00     0.031 C 
ATOM     62  C   UNL A   1      42.642  30.605  36.565  1.00  0.00     0.029 A 
ATOM     63  C   UNL A   1      42.256  30.233  35.288  1.00  0.00     0.049 A 
ATOM     64  H   UNL A   1      40.749  31.055  34.060  1.00  0.00     0.167 HD
ATOM     65  C   UNL A   1      42.333  28.862  33.226  1.00  0.00     0.074 A 
ATOM     66  C   UNL A   1      42.888  27.809  32.401  1.00  0.00     0.031 C 
ATOM     67  C   UNL A   1      42.791  29.184  34.460  1.00  0.00     0.037 A 
BRANCH  54  68
ATOM     68  C   UNL A   1      39.903  33.974  37.052  1.00  0.00     0.064 A 
ATOM     69  C   UNL A   1      40.612  35.183  37.052  1.00  0.00     0.173 A 
ATOM     70  C   UNL A   1      39.053  33.709  38.137  1.00  0.00     0.173 A 
ATOM     71  F   UNL A   1      41.444  35.480  36.042  1.00  0.00    -0.203 F 
ATOM     72  C   UNL A   1      40.486  36.086  38.105  1.00  0.00     0.198 A 
ATOM     73  C   UNL A   1      38.908  34.626  39.174  1.00  0.00     0.198 A 
ATOM     74  F   UNL A   1      38.348  32.569  38.181  1.00  0.00    -0.203 F 
ATOM     75  F   UNL A   1      41.197  37.222  38.100  1.00  0.00    -0.200 F 
ATOM     76  C   UNL A   1      39.627  35.813  39.159  1.00  0.00     0.200 A 
ATOM     77  F   UNL A   1      38.067  34.366  40.185  1.00  0.00    -0.200 F 
ATOM     78  F   UNL A   1      39.493  36.691  40.162  1.00  0.00    -0.200 F 
ENDBRANCH  54  68
BRANCH  55  79
ATOM     79  C   UNL A   1      40.468  28.157  28.967  1.00  0.00     0.064 A 
ATOM     80  C   UNL A   1      41.267  28.601  27.904  1.00  0.00     0.173 A 
ATOM     81  C   UNL A   1      39.795  26.936  28.809  1.00  0.00     0.173 A 
ATOM     82  F   UNL A   1      41.914  29.773  27.998  1.00  0.00    -0.203 F 
ATOM     83  C   UNL A   1      41.363  27.873  26.720  1.00  0.00     0.198 A 
ATOM     84  C   UNL A   1      39.917  26.192  27.637  1.00  0.00     0.198 A 
ATOM     85  F   UNL A   1      39.022  26.462  29.797  1.00  0.00    -0.203 F 
ATOM     86  F   UNL A   1      42.086  28.351  25.698  1.00  0.00    -0.200 F 
ATOM     87  C   UNL A   1      40.691  26.667  26.589  1.00  0.00     0.200 A 
ATOM     88  F   UNL A   1      39.278  25.020  27.521  1.00  0.00    -0.200 F 
ATOM     89  F   UNL A   1      40.780  25.967  25.449  1.00  0.00    -0.200 F 
ENDBRANCH  55  79
BRANCH  67  90
ATOM     90  C   UNL A   1      43.928  28.371  35.006  1.00  0.00     0.064 A 
ATOM     91  C   UNL A   1      45.263  28.770  34.843  1.00  0.00     0.173 A 
ATOM     92  C   UNL A   1      43.677  27.200  35.737  1.00  0.00     0.173 A 
ATOM     93  F   UNL A   1      45.557  29.874  34.137  1.00  0.00    -0.203 F 
ATOM     94  C   UNL A   1      46.306  28.013  35.370  1.00  0.00     0.198 A 
ATOM     95  C   UNL A   1      44.720  26.462  36.290  1.00  0.00     0.198 A 
ATOM     96  F   UNL A   1      42.417  26.779  35.928  1.00  0.00    -0.203 F 
ATOM     97  F   UNL A   1      47.575  28.387  35.161  1.00  0.00    -0.200 F 
ATOM     98  C   UNL A   1      46.033  26.866  36.100  1.00  0.00     0.200 A 
ATOM     99  F   UNL A   1      44.454  25.362  37.007  1.00  0.00    -0.200 F 
ATOM    100  F   UNL A   1      47.038  26.143  36.614  1.00  0.00    -0.200 F 
ENDBRANCH  67  90
ENDBRANCH  41  42
ENDBRANCH  33  36
ENDBRANCH  31  32
ENDBRANCH  30  31
ENDBRANCH   1  30
TORSDOF 14
ENDMDL
MODEL 2
REMARK VINA RESULT:     -12.3      0.489      7.131
REMARK SMILES CCOc1ccc(-c2cc(Cl)cc3c2O[C@H](C(F)(F)F)C(C(=O)NCCCNC(=O)c2ccc(-c4c5nc(c(-c6c(F)c(F)c(F)c(F)c6F)c6ccc([nH]6)c(-c6c(F)c(F)c(F)c(F)c6F)c6nc(c(-c7c(F)c(F)c(F)c(F)c7F)c7ccc4[nH]7)C=C6)C=C5)cc2)=C3)cc1
REMARK SMILES IDX 25 1 24 2 22 3 23 4 21 6 8 7 9 8 14 9 10 10 13 11 15 12
REMARK SMILES IDX 11 13 12 14 94 15 16 16 7 17 4 18 5 19 96 20 6 21 95 22 3 23
REMARK SMILES IDX 2 24 1 25 17 26 18 27 19 28 20 29 26 30 27 31 28 32 29 33
REMARK SMILES IDX 30 35 31 36 32 37 93 38 33 39 92 40 34 41 35 42 36 43 86 44
REMARK SMILES IDX 37 45 91 46 85 47 87 48 38 49 90 50 84 51 83 52 39 54 71 55
REMARK SMILES IDX 51 56 70 57 52 58 55 59 69 60 88 61 53 62 54 63 68 65 89 66
REMARK SMILES IDX 56 67 40 68 41 69 49 70 42 71 43 72 47 73 50 74 44 75 45 76
REMARK SMILES IDX 48 77 46 78 72 79 73 80 81 81 74 82 75 83 79 84 82 85 76 86
REMARK SMILES IDX 77 87 80 88 78 89 57 90 58 91 66 92 59 93 60 94 64 95 67 96
REMARK SMILES IDX 61 97 62 98 65 99 63 100
REMARK H PARENT 24 5 28 34 87 53 55 64
REMARK Flexibility Score: inf
ROOT
ATOM      1  C   UNL A   1      31.009  31.795  26.184  1.00  0.00     0.118 C 
ENDROOT
BRANCH   1   2
ATOM      2  N   UNL A   1      31.231  30.721  25.236  1.00  0.00    -0.352 N 
ATOM      3  C   UNL A   1      32.335  29.934  25.168  1.00  0.00     0.251 C 
ATOM      4  O   UNL A   1      32.835  29.669  24.081  1.00  0.00    -0.270 OA
ATOM      5  H   UNL A   1      30.515  30.546  24.583  1.00  0.00     0.163 HD
BRANCH   3   6
ATOM      6  C   UNL A   1      32.792  29.306  26.442  1.00  0.00     0.067 C 
ATOM      7  C   UNL A   1      33.230  25.450  25.202  1.00  0.00     0.026 A 
ATOM      8  C   UNL A   1      32.082  25.089  24.454  1.00  0.00     0.033 A 
ATOM      9  C   UNL A   1      33.145  26.636  25.950  1.00  0.00     0.135 A 
ATOM     10  C   UNL A   1      30.875  25.779  24.565  1.00  0.00     0.042 A 
ATOM     11  C   UNL A   1      31.886  27.256  26.135  1.00  0.00     0.019 A 
ATOM     12  O   UNL A   1      34.257  27.256  26.500  1.00  0.00    -0.475 OA
ATOM     13  Cl  UNL A   1      29.527  25.292  23.616  1.00  0.00    -0.084 Cl
ATOM     14  C   UNL A   1      30.751  26.828  25.455  1.00  0.00     0.032 A 
ATOM     15  C   UNL A   1      31.844  28.493  26.949  1.00  0.00     0.025 C 
ATOM     16  C   UNL A   1      34.207  28.739  26.393  1.00  0.00     0.314 C 
BRANCH   7  17
ATOM     17  C   UNL A   1      34.296  24.423  25.282  1.00  0.00    -0.014 A 
ATOM     18  C   UNL A   1      35.557  21.893  25.206  1.00  0.00     0.119 A 
ATOM     19  C   UNL A   1      35.595  22.722  24.089  1.00  0.00     0.047 A 
ATOM     20  C   UNL A   1      35.013  22.368  26.394  1.00  0.00     0.047 A 
ATOM     21  C   UNL A   1      34.976  23.980  24.128  1.00  0.00     0.013 A 
ATOM     22  C   UNL A   1      34.391  23.623  26.433  1.00  0.00     0.013 A 
BRANCH  18  23
ATOM     23  O   UNL A   1      36.131  20.655  25.111  1.00  0.00    -0.494 OA
BRANCH  23  24
ATOM     24  C   UNL A   1      37.557  20.686  24.934  1.00  0.00     0.226 C 
ATOM     25  C   UNL A   1      38.149  19.288  25.006  1.00  0.00     0.049 C 
ENDBRANCH  23  24
ENDBRANCH  18  23
ENDBRANCH   7  17
BRANCH  16  26
ATOM     26  C   UNL A   1      35.053  29.420  27.491  1.00  0.00     0.429 C 
ATOM     27  F   UNL A   1      35.265  30.733  27.251  1.00  0.00    -0.167 F 
ATOM     28  F   UNL A   1      34.454  29.316  28.702  1.00  0.00    -0.167 F 
ATOM     29  F   UNL A   1      36.280  28.850  27.627  1.00  0.00    -0.167 F 
ENDBRANCH  16  26
ENDBRANCH   3   6
ENDBRANCH   1   2
BRANCH   1  30
ATOM     30  C   UNL A   1      32.110  31.791  27.248  1.00  0.00     0.042 C 
BRANCH  30  31
ATOM     31  C   UNL A   1      33.119  32.934  27.129  1.00  0.00     0.118 C 
BRANCH  31  32
ATOM     32  N   UNL A   1      32.609  34.203  27.627  1.00  0.00    -0.352 N 
ATOM     33  C   UNL A   1      33.017  34.937  28.712  1.00  0.00     0.251 C 
ATOM     34  H   UNL A   1      31.864  34.591  27.112  1.00  0.00     0.163 HD
ATOM     35  O   UNL A   1      32.379  35.923  29.070  1.00  0.00    -0.269 OA
BRANCH  33  36
ATOM     36  C   UNL A   1      34.210  34.515  29.475  1.00  0.00     0.039 A 
ATOM     37  C   UNL A   1      34.033  33.896  30.715  1.00  0.00     0.014 A 
ATOM     38  C   UNL A   1      35.494  34.701  28.956  1.00  0.00     0.014 A 
ATOM     39  C   UNL A   1      35.139  33.381  31.393  1.00  0.00     0.010 A 
ATOM     40  C   UNL A   1      36.587  34.126  29.600  1.00  0.00     0.010 A 
ATOM     41  C   UNL A   1      36.418  33.447  30.817  1.00  0.00    -0.014 A 
BRANCH  41  42
ATOM     42  C   UNL A   1      37.587  32.777  31.446  1.00  0.00     0.031 A 
ATOM     43  C   UNL A   1      38.259  31.621  30.759  1.00  0.00     0.074 A 
ATOM     44  C   UNL A   1      37.978  33.148  32.683  1.00  0.00     0.049 A 
ATOM     45  N   UNL A   1      39.206  30.832  31.202  1.00  0.00    -0.248 NA
ATOM     46  C   UNL A   1      37.785  31.289  29.407  1.00  0.00     0.031 C 
ATOM     47  C   UNL A   1      37.370  34.218  33.477  1.00  0.00     0.029 A 
ATOM     48  N   UNL A   1      38.962  32.649  33.501  1.00  0.00    -0.354 N 
ATOM     49  C   UNL A   1      39.420  29.898  30.198  1.00  0.00     0.074 A 
ATOM     50  C   UNL A   1      38.483  30.195  29.136  1.00  0.00     0.031 C 
ATOM     51  C   UNL A   1      37.995  34.296  34.662  1.00  0.00     0.029 A 
ATOM     52  C   UNL A   1      39.017  33.257  34.731  1.00  0.00     0.049 A 
ATOM     53  H   UNL A   1      39.571  31.925  33.230  1.00  0.00     0.167 HD
ATOM     54  C   UNL A   1      40.326  28.892  30.163  1.00  0.00     0.037 A 
ATOM     55  C   UNL A   1      39.788  32.993  35.804  1.00  0.00     0.037 A 
ATOM     56  C   UNL A   1      41.287  28.628  31.202  1.00  0.00     0.049 A 
ATOM     57  C   UNL A   1      40.798  31.879  35.726  1.00  0.00     0.074 A 
ATOM     58  C   UNL A   1      42.309  27.696  31.212  1.00  0.00     0.029 A 
ATOM     59  N   UNL A   1      41.340  29.294  32.417  1.00  0.00    -0.354 N 
ATOM     60  N   UNL A   1      41.050  31.060  34.735  1.00  0.00    -0.248 NA
ATOM     61  C   UNL A   1      41.635  31.658  36.914  1.00  0.00     0.031 C 
ATOM     62  C   UNL A   1      42.949  27.761  32.453  1.00  0.00     0.029 A 
ATOM     63  C   UNL A   1      42.360  28.770  33.196  1.00  0.00     0.049 A 
ATOM     64  H   UNL A   1      40.743  30.029  32.686  1.00  0.00     0.167 HD
ATOM     65  C   UNL A   1      42.086  30.243  35.169  1.00  0.00     0.074 A 
ATOM     66  C   UNL A   1      42.432  30.680  36.506  1.00  0.00     0.031 C 
ATOM     67  C   UNL A   1      42.696  29.222  34.521  1.00  0.00     0.037 A 
BRANCH  54  68
ATOM     68  C   UNL A   1      40.335  27.995  28.960  1.00  0.00     0.064 A 
ATOM     69  C   UNL A   1      41.092  28.298  27.820  1.00  0.00     0.173 A 
ATOM     70  C   UNL A   1      39.639  26.777  28.983  1.00  0.00     0.173 A 
ATOM     71  F   UNL A   1      41.769  29.454  27.745  1.00  0.00    -0.203 F 
ATOM     72  C   UNL A   1      41.139  27.421  26.738  1.00  0.00     0.198 A 
ATOM     73  C   UNL A   1      39.709  25.890  27.911  1.00  0.00     0.198 A 
ATOM     74  F   UNL A   1      38.905  26.437  30.053  1.00  0.00    -0.203 F 
ATOM     75  F   UNL A   1      41.843  27.745  25.645  1.00  0.00    -0.200 F 
ATOM     76  C   UNL A   1      40.457  26.215  26.789  1.00  0.00     0.200 A 
ATOM     77  F   UNL A   1      39.061  24.719  27.968  1.00  0.00    -0.200 F 
ATOM     78  F   UNL A   1      40.517  25.365  25.755  1.00  0.00    -0.200 F 
ENDBRANCH  54  68
BRANCH  55  79
ATOM     79  C   UNL A   1      39.634  33.788  37.052  1.00  0.00     0.064 A 
ATOM     80  C   UNL A   1      38.806  33.345  38.094  1.00  0.00     0.173 A 
ATOM     81  C   UNL A   1      40.284  35.020  37.216  1.00  0.00     0.173 A 
ATOM     82  F   UNL A   1      38.147  32.183  37.976  1.00  0.00    -0.203 F 
ATOM     83  C   UNL A   1      38.609  34.119  39.235  1.00  0.00     0.198 A 
ATOM     84  C   UNL A   1      40.112  35.777  38.372  1.00  0.00     0.198 A 
ATOM     85  F   UNL A   1      41.092  35.487  36.252  1.00  0.00    -0.203 F 
ATOM     86  F   UNL A   1      37.765  33.700  40.188  1.00  0.00    -0.200 F 
ATOM     87  C   UNL A   1      39.265  35.333  39.376  1.00  0.00     0.200 A 
ATOM     88  F   UNL A   1      40.759  36.943  38.509  1.00  0.00    -0.200 F 
ATOM     89  F   UNL A   1      39.073  36.079  40.472  1.00  0.00    -0.200 F 
ENDBRANCH  55  79
BRANCH  67  90
ATOM     90  C   UNL A   1      43.818  28.525  35.234  1.00  0.00     0.064 A 
ATOM     91  C   UNL A   1      43.592  27.397  36.036  1.00  0.00     0.173 A 
ATOM     92  C   UNL A   1      45.141  28.968  35.080  1.00  0.00     0.173 A 
ATOM     93  F   UNL A   1      42.343  26.945  36.229  1.00  0.00    -0.203 F 
ATOM     94  C   UNL A   1      44.646  26.753  36.679  1.00  0.00     0.198 A 
ATOM     95  C   UNL A   1      46.196  28.302  35.698  1.00  0.00     0.198 A 
ATOM     96  F   UNL A   1      45.411  30.038  34.318  1.00  0.00    -0.203 F 
ATOM     97  F   UNL A   1      44.401  25.706  37.478  1.00  0.00    -0.200 F 
ATOM     98  C   UNL A   1      45.947  27.200  36.502  1.00  0.00     0.200 A 
ATOM     99  F   UNL A   1      47.453  28.728  35.515  1.00  0.00    -0.200 F 
ATOM    100  F   UNL A   1      46.961  26.573  37.114  1.00  0.00    -0.200 F 
ENDBRANCH  67  90
ENDBRANCH  41  42
ENDBRANCH  33  36
ENDBRANCH  31  32
ENDBRANCH  30  31
ENDBRANCH   1  30
TORSDOF 14
ENDMDL
MODEL 3
REMARK VINA RESULT:     -12.1      4.319      8.725
REMARK SMILES CCOc1ccc(-c2cc(Cl)cc3c2O[C@H](C(F)(F)F)C(C(=O)NCCCNC(=O)c2ccc(-c4c5nc(c(-c6c(F)c(F)c(F)c(F)c6F)c6ccc([nH]6)c(-c6c(F)c(F)c(F)c(F)c6F)c6nc(c(-c7c(F)c(F)c(F)c(F)c7F)c7ccc4[nH]7)C=C6)C=C5)cc2)=C3)cc1
REMARK SMILES IDX 25 1 24 2 22 3 23 4 21 6 8 7 9 8 14 9 10 10 13 11 15 12
REMARK SMILES IDX 11 13 12 14 94 15 16 16 7 17 4 18 5 19 96 20 6 21 95 22 3 23
REMARK SMILES IDX 2 24 1 25 17 26 18 27 19 28 20 29 26 30 27 31 28 32 29 33
REMARK SMILES IDX 30 35 31 36 32 37 93 38 33 39 92 40 34 41 35 42 36 43 86 44
REMARK SMILES IDX 37 45 91 46 85 47 87 48 38 49 90 50 84 51 83 52 39 54 71 55
REMARK SMILES IDX 51 56 70 57 52 58 55 59 69 60 88 61 53 62 54 63 68 65 89 66
REMARK SMILES IDX 56 67 40 68 41 69 49 70 42 71 43 72 47 73 50 74 44 75 45 76
REMARK SMILES IDX 48 77 46 78 72 79 73 80 81 81 74 82 75 83 79 84 82 85 76 86
REMARK SMILES IDX 77 87 80 88 78 89 57 90 58 91 66 92 59 93 60 94 64 95 67 96
REMARK SMILES IDX 61 97 62 98 65 99 63 100
REMARK H PARENT 24 5 28 34 87 53 55 64
REMARK Flexibility Score: inf
ROOT
ATOM      1  C   UNL A   1      35.829  34.189  28.896  1.00  0.00     0.118 C 
ENDROOT
BRANCH   1   2
ATOM      2  N   UNL A   1      36.875  33.560  29.679  1.00  0.00    -0.352 N 
ATOM      3  C   UNL A   1      37.092  33.737  31.008  1.00  0.00     0.251 C 
ATOM      4  O   UNL A   1      38.232  33.892  31.429  1.00  0.00    -0.270 OA
ATOM      5  H   UNL A   1      37.484  32.949  29.204  1.00  0.00     0.163 HD
BRANCH   3   6
ATOM      6  C   UNL A   1      35.912  33.581  31.907  1.00  0.00     0.067 C 
ATOM      7  C   UNL A   1      37.805  32.569  35.370  1.00  0.00     0.026 A 
ATOM      8  C   UNL A   1      38.774  31.577  35.076  1.00  0.00     0.033 A 
ATOM      9  C   UNL A   1      36.861  32.841  34.367  1.00  0.00     0.135 A 
ATOM     10  C   UNL A   1      38.712  30.797  33.922  1.00  0.00     0.042 A 
ATOM     11  C   UNL A   1      36.748  31.970  33.258  1.00  0.00     0.019 A 
ATOM     12  O   UNL A   1      36.039  33.959  34.396  1.00  0.00    -0.475 OA
ATOM     13  Cl  UNL A   1      39.929  29.620  33.624  1.00  0.00    -0.084 Cl
ATOM     14  C   UNL A   1      37.662  30.945  33.036  1.00  0.00     0.032 A 
ATOM     15  C   UNL A   1      35.723  32.287  32.238  1.00  0.00     0.025 C 
ATOM     16  C   UNL A   1      35.859  34.582  33.057  1.00  0.00     0.314 C 
BRANCH   7  17
ATOM     17  C   UNL A   1      37.770  33.038  36.777  1.00  0.00    -0.014 A 
ATOM     18  C   UNL A   1      38.537  33.401  39.474  1.00  0.00     0.119 A 
ATOM     19  C   UNL A   1      38.866  34.361  38.523  1.00  0.00     0.047 A 
ATOM     20  C   UNL A   1      37.719  32.335  39.117  1.00  0.00     0.047 A 
ATOM     21  C   UNL A   1      38.481  34.186  37.186  1.00  0.00     0.013 A 
ATOM     22  C   UNL A   1      37.336  32.156  37.781  1.00  0.00     0.013 A 
BRANCH  18  23
ATOM     23  O   UNL A   1      38.973  33.588  40.757  1.00  0.00    -0.494 OA
BRANCH  23  24
ATOM     24  C   UNL A   1      39.142  32.369  41.499  1.00  0.00     0.226 C 
ATOM     25  C   UNL A   1      40.613  32.077  41.747  1.00  0.00     0.049 C 
ENDBRANCH  23  24
ENDBRANCH  18  23
ENDBRANCH   7  17
BRANCH  16  26
ATOM     26  C   UNL A   1      34.535  35.370  32.966  1.00  0.00     0.429 C 
ATOM     27  F   UNL A   1      34.432  36.333  33.908  1.00  0.00    -0.167 F 
ATOM     28  F   UNL A   1      34.403  35.964  31.756  1.00  0.00    -0.167 F 
ATOM     29  F   UNL A   1      33.445  34.570  33.113  1.00  0.00    -0.167 F 
ENDBRANCH  16  26
ENDBRANCH   3   6
ENDBRANCH   1   2
BRANCH   1  30
ATOM     30  C   UNL A   1      35.114  33.140  28.040  1.00  0.00     0.042 C 
BRANCH  30  31
ATOM     31  C   UNL A   1      34.208  32.187  28.819  1.00  0.00     0.118 C 
BRANCH  31  32
ATOM     32  N   UNL A   1      33.803  31.021  28.048  1.00  0.00    -0.352 N 
ATOM     33  C   UNL A   1      34.552  29.945  27.642  1.00  0.00     0.251 C 
ATOM     34  H   UNL A   1      32.856  31.002  27.777  1.00  0.00     0.163 HD
ATOM     35  O   UNL A   1      34.078  29.113  26.874  1.00  0.00    -0.269 OA
BRANCH  33  36
ATOM     36  C   UNL A   1      35.948  29.809  28.105  1.00  0.00     0.039 A 
ATOM     37  C   UNL A   1      36.187  29.367  29.408  1.00  0.00     0.014 A 
ATOM     38  C   UNL A   1      37.016  30.085  27.247  1.00  0.00     0.014 A 
ATOM     39  C   UNL A   1      37.496  29.115  29.823  1.00  0.00     0.010 A 
ATOM     40  C   UNL A   1      38.315  29.768  27.640  1.00  0.00     0.010 A 
ATOM     41  C   UNL A   1      38.565  29.265  28.926  1.00  0.00    -0.014 A 
BRANCH  41  42
ATOM     42  C   UNL A   1      39.949  28.862  29.295  1.00  0.00     0.031 A 
ATOM     43  C   UNL A   1      40.842  29.815  30.038  1.00  0.00     0.074 A 
ATOM     44  C   UNL A   1      40.430  27.677  28.869  1.00  0.00     0.049 A 
ATOM     45  N   UNL A   1      42.112  29.697  30.337  1.00  0.00    -0.248 NA
ATOM     46  C   UNL A   1      40.238  31.081  30.480  1.00  0.00     0.031 C 
ATOM     47  C   UNL A   1      39.679  26.688  28.092  1.00  0.00     0.029 A 
ATOM     48  N   UNL A   1      41.674  27.111  29.008  1.00  0.00    -0.354 N 
ATOM     49  C   UNL A   1      42.463  30.879  30.973  1.00  0.00     0.074 A 
ATOM     50  C   UNL A   1      41.283  31.718  30.991  1.00  0.00     0.031 C 
ATOM     51  C   UNL A   1      40.475  25.641  27.825  1.00  0.00     0.029 A 
ATOM     52  C   UNL A   1      41.802  25.899  28.375  1.00  0.00     0.049 A 
ATOM     53  H   UNL A   1      42.404  27.534  29.515  1.00  0.00     0.167 HD
ATOM     54  C   UNL A   1      43.658  31.226  31.507  1.00  0.00     0.037 A 
ATOM     55  C   UNL A   1      42.874  25.096  28.232  1.00  0.00     0.037 A 
ATOM     56  C   UNL A   1      44.817  30.371  31.528  1.00  0.00     0.049 A 
ATOM     57  C   UNL A   1      44.185  25.502  28.852  1.00  0.00     0.074 A 
ATOM     58  C   UNL A   1      46.040  30.596  32.133  1.00  0.00     0.029 A 
ATOM     59  N   UNL A   1      44.895  29.132  30.913  1.00  0.00    -0.354 N 
ATOM     60  N   UNL A   1      44.478  26.585  29.529  1.00  0.00    -0.248 NA
ATOM     61  C   UNL A   1      45.311  24.572  28.692  1.00  0.00     0.031 C 
ATOM     62  C   UNL A   1      46.878  29.515  31.841  1.00  0.00     0.029 A 
ATOM     63  C   UNL A   1      46.159  28.593  31.098  1.00  0.00     0.049 A 
ATOM     64  H   UNL A   1      44.163  28.698  30.418  1.00  0.00     0.167 HD
ATOM     65  C   UNL A   1      45.811  26.456  29.895  1.00  0.00     0.074 A 
ATOM     66  C   UNL A   1      46.264  25.179  29.384  1.00  0.00     0.031 C 
ATOM     67  C   UNL A   1      46.592  27.318  30.590  1.00  0.00     0.037 A 
BRANCH  54  68
ATOM     68  C   UNL A   1      43.786  32.589  32.121  1.00  0.00     0.064 A 
ATOM     69  C   UNL A   1      44.202  33.699  31.372  1.00  0.00     0.173 A 
ATOM     70  C   UNL A   1      43.410  32.800  33.456  1.00  0.00     0.173 A 
ATOM     71  F   UNL A   1      44.580  33.549  30.094  1.00  0.00    -0.203 F 
ATOM     72  C   UNL A   1      44.253  34.969  31.943  1.00  0.00     0.198 A 
ATOM     73  C   UNL A   1      43.436  34.075  34.016  1.00  0.00     0.198 A 
ATOM     74  F   UNL A   1      42.998  31.772  34.214  1.00  0.00    -0.203 F 
ATOM     75  F   UNL A   1      44.685  36.010  31.218  1.00  0.00    -0.200 F 
ATOM     76  C   UNL A   1      43.860  35.158  33.259  1.00  0.00     0.200 A 
ATOM     77  F   UNL A   1      43.042  34.258  35.284  1.00  0.00    -0.200 F 
ATOM     78  F   UNL A   1      43.893  36.383  33.801  1.00  0.00    -0.200 F 
ENDBRANCH  54  68
BRANCH  55  79
ATOM     79  C   UNL A   1      42.764  23.827  27.462  1.00  0.00     0.064 A 
ATOM     80  C   UNL A   1      42.317  22.646  28.072  1.00  0.00     0.173 A 
ATOM     81  C   UNL A   1      43.134  23.761  26.110  1.00  0.00     0.173 A 
ATOM     82  F   UNL A   1      41.972  22.653  29.368  1.00  0.00    -0.203 F 
ATOM     83  C   UNL A   1      42.276  21.444  27.371  1.00  0.00     0.198 A 
ATOM     84  C   UNL A   1      43.061  22.565  25.401  1.00  0.00     0.198 A 
ATOM     85  F   UNL A   1      43.562  24.863  25.476  1.00  0.00    -0.203 F 
ATOM     86  F   UNL A   1      41.903  20.319  27.996  1.00  0.00    -0.200 F 
ATOM     87  C   UNL A   1      42.644  21.404  26.035  1.00  0.00     0.200 A 
ATOM     88  F   UNL A   1      43.403  22.535  24.106  1.00  0.00    -0.200 F 
ATOM     89  F   UNL A   1      42.607  20.247  25.360  1.00  0.00    -0.200 F 
ENDBRANCH  55  79
BRANCH  67  90
ATOM     90  C   UNL A   1      48.006  26.898  30.866  1.00  0.00     0.064 A 
ATOM     91  C   UNL A   1      48.331  26.078  31.956  1.00  0.00     0.173 A 
ATOM     92  C   UNL A   1      49.043  27.288  30.004  1.00  0.00     0.173 A 
ATOM     93  F   UNL A   1      47.378  25.692  32.819  1.00  0.00    -0.203 F 
ATOM     94  C   UNL A   1      49.646  25.685  32.189  1.00  0.00     0.198 A 
ATOM     95  C   UNL A   1      50.352  26.867  30.221  1.00  0.00     0.198 A 
ATOM     96  F   UNL A   1      48.783  28.066  28.942  1.00  0.00    -0.203 F 
ATOM     97  F   UNL A   1      49.941  24.941  33.263  1.00  0.00    -0.200 F 
ATOM     98  C   UNL A   1      50.653  26.071  31.316  1.00  0.00     0.200 A 
ATOM     99  F   UNL A   1      51.321  27.230  29.370  1.00  0.00    -0.200 F 
ATOM    100  F   UNL A   1      51.917  25.684  31.537  1.00  0.00    -0.200 F 
ENDBRANCH  67  90
ENDBRANCH  41  42
ENDBRANCH  33  36
ENDBRANCH  31  32
ENDBRANCH  30  31
ENDBRANCH   1  30
TORSDOF 14
ENDMDL
