MODEL 1
REMARK VINA RESULT:     -12.7      0.000      0.000
REMARK SMILES O=C(CCc1cncc([C@@H]2CN(c3ccccc3)CCO2)n1)NCCCNC(=O)c1ccc(-c2c3nc(c(-c4c(F)c(F)c(F)c(F)c4F)c4ccc([nH]4)c(-c4c(F)c(F)c(F)c(F)c4F)c4nc(c(-c5c(F)c(F)c(F)c(F)c5F)c5ccc2[nH]5)C=C4)C=C3)cc1
REMARK SMILES IDX 24 1 23 2 1 3 2 4 3 6 4 7 5 8 6 9 22 10 7 11 9 12 8 13 10 14
REMARK SMILES IDX 11 15 21 16 12 17 20 18 19 19 13 20 14 21 18 22 15 23 17 24
REMARK SMILES IDX 16 25 25 26 26 27 27 28 28 29 29 31 30 32 31 33 92 34 32 35
REMARK SMILES IDX 91 36 33 37 34 38 35 39 85 40 36 41 90 42 84 43 86 44 37 45
REMARK SMILES IDX 89 46 83 47 82 48 38 50 70 51 50 52 69 53 51 54 54 55 68 56
REMARK SMILES IDX 87 57 52 58 53 59 67 61 88 62 55 63 39 64 40 65 48 66 41 67
REMARK SMILES IDX 42 68 46 69 49 70 43 71 44 72 47 73 45 74 71 75 72 76 80 77
REMARK SMILES IDX 73 78 74 79 78 80 81 81 75 82 76 83 79 84 77 85 56 86 57 87
REMARK SMILES IDX 65 88 58 89 59 90 63 91 66 92 60 93 61 94 64 95 62 96
REMARK H PARENT 23 5 27 30 86 49 54 60
REMARK Flexibility Score: inf
ROOT
ATOM      1  C   UNL A   1      31.288  30.805  25.674  1.00  0.00     0.117 C 
ENDROOT
BRANCH   1   2
ATOM      2  N   UNL A   1      32.405  29.898  25.534  1.00  0.00    -0.356 N 
ATOM      3  O   UNL A   1      31.433  28.115  26.612  1.00  0.00    -0.275 OA
ATOM      4  C   UNL A   1      32.356  28.590  25.959  1.00  0.00     0.220 C 
ATOM      5  H   UNL A   1      33.234  30.229  25.118  1.00  0.00     0.163 HD
BRANCH   4   6
ATOM      6  C   UNL A   1      33.563  27.766  25.558  1.00  0.00     0.106 C 
BRANCH   6   7
ATOM      7  C   UNL A   1      33.871  27.884  24.065  1.00  0.00     0.068 C 
BRANCH   7   8
ATOM      8  C   UNL A   1      33.717  26.584  23.318  1.00  0.00     0.060 A 
ATOM      9  C   UNL A   1      33.371  26.565  21.973  1.00  0.00     0.134 A 
ATOM     10  N   UNL A   1      33.858  25.431  24.020  1.00  0.00    -0.252 NA
ATOM     11  N   UNL A   1      33.153  25.419  21.292  1.00  0.00    -0.261 NA
ATOM     12  C   UNL A   1      33.708  24.261  23.336  1.00  0.00     0.090 A 
ATOM     13  C   UNL A   1      33.353  24.275  21.992  1.00  0.00     0.137 A 
BRANCH  12  14
ATOM     14  C   UNL A   1      33.958  22.940  24.040  1.00  0.00     0.188 C 
ATOM     15  C   UNL A   1      32.684  22.063  24.082  1.00  0.00     0.155 C 
ATOM     16  O   UNL A   1      34.447  23.205  25.377  1.00  0.00    -0.368 OA
ATOM     17  N   UNL A   1      32.897  20.840  24.875  1.00  0.00    -0.366 N 
ATOM     18  C   UNL A   1      34.729  21.971  26.067  1.00  0.00     0.182 C 
ATOM     19  C   UNL A   1      33.478  21.084  26.203  1.00  0.00     0.145 C 
BRANCH  17  20
ATOM     20  C   UNL A   1      33.140  19.621  24.268  1.00  0.00     0.037 A 
ATOM     21  C   UNL A   1      34.247  18.860  24.666  1.00  0.00     0.026 A 
ATOM     22  C   UNL A   1      32.326  19.097  23.260  1.00  0.00     0.026 A 
ATOM     23  C   UNL A   1      34.514  17.610  24.098  1.00  0.00     0.002 A 
ATOM     24  C   UNL A   1      32.592  17.854  22.676  1.00  0.00     0.002 A 
ATOM     25  C   UNL A   1      33.684  17.106  23.101  1.00  0.00     0.000 A 
ENDBRANCH  17  20
ENDBRANCH  12  14
ENDBRANCH   7   8
ENDBRANCH   6   7
ENDBRANCH   4   6
ENDBRANCH   1   2
BRANCH   1  26
ATOM     26  C   UNL A   1      31.404  31.717  26.891  1.00  0.00     0.042 C 
BRANCH  26  27
ATOM     27  C   UNL A   1      32.598  32.669  26.906  1.00  0.00     0.118 C 
BRANCH  27  28
ATOM     28  N   UNL A   1      32.305  33.973  27.476  1.00  0.00    -0.352 N 
ATOM     29  C   UNL A   1      32.977  34.675  28.441  1.00  0.00     0.251 C 
ATOM     30  H   UNL A   1      31.505  34.419  27.114  1.00  0.00     0.163 HD
ATOM     31  O   UNL A   1      32.596  35.798  28.767  1.00  0.00    -0.269 OA
BRANCH  29  32
ATOM     32  C   UNL A   1      34.163  34.089  29.093  1.00  0.00     0.039 A 
ATOM     33  C   UNL A   1      33.992  33.115  30.082  1.00  0.00     0.014 A 
ATOM     34  C   UNL A   1      35.443  34.535  28.754  1.00  0.00     0.014 A 
ATOM     35  C   UNL A   1      35.110  32.559  30.709  1.00  0.00     0.010 A 
ATOM     36  C   UNL A   1      36.558  33.951  29.350  1.00  0.00     0.010 A 
ATOM     37  C   UNL A   1      36.402  32.966  30.340  1.00  0.00    -0.014 A 
BRANCH  37  38
ATOM     38  C   UNL A   1      37.610  32.409  30.999  1.00  0.00     0.031 A 
ATOM     39  C   UNL A   1      38.392  31.321  30.318  1.00  0.00     0.074 A 
ATOM     40  C   UNL A   1      37.957  32.820  32.232  1.00  0.00     0.049 A 
ATOM     41  N   UNL A   1      39.392  30.607  30.772  1.00  0.00    -0.248 NA
ATOM     42  C   UNL A   1      37.976  30.973  28.951  1.00  0.00     0.031 C 
ATOM     43  C   UNL A   1      37.263  33.849  33.006  1.00  0.00     0.029 A 
ATOM     44  N   UNL A   1      38.971  32.405  33.060  1.00  0.00    -0.354 N 
ATOM     45  C   UNL A   1      39.704  29.710  29.760  1.00  0.00     0.074 A 
ATOM     46  C   UNL A   1      38.772  29.949  28.679  1.00  0.00     0.031 C 
ATOM     47  C   UNL A   1      37.872  33.987  34.195  1.00  0.00     0.029 A 
ATOM     48  C   UNL A   1      38.977  33.036  34.279  1.00  0.00     0.049 A 
ATOM     49  H   UNL A   1      39.629  31.720  32.803  1.00  0.00     0.167 HD
ATOM     50  C   UNL A   1      40.687  28.778  29.731  1.00  0.00     0.037 A 
ATOM     51  C   UNL A   1      39.778  32.856  35.347  1.00  0.00     0.037 A 
ATOM     52  C   UNL A   1      41.633  28.563  30.794  1.00  0.00     0.049 A 
ATOM     53  C   UNL A   1      40.876  31.830  35.281  1.00  0.00     0.074 A 
ATOM     54  C   UNL A   1      42.694  27.674  30.843  1.00  0.00     0.029 A 
ATOM     55  N   UNL A   1      41.635  29.253  31.997  1.00  0.00    -0.354 N 
ATOM     56  N   UNL A   1      41.184  31.010  34.307  1.00  0.00    -0.248 NA
ATOM     57  C   UNL A   1      41.743  31.712  36.463  1.00  0.00     0.031 C 
ATOM     58  C   UNL A   1      43.321  27.808  32.087  1.00  0.00     0.029 A 
ATOM     59  C   UNL A   1      42.673  28.805  32.798  1.00  0.00     0.049 A 
ATOM     60  H   UNL A   1      40.993  29.957  32.246  1.00  0.00     0.167 HD
ATOM     61  C   UNL A   1      42.289  30.294  34.745  1.00  0.00     0.074 A 
ATOM     62  C   UNL A   1      42.608  30.786  36.070  1.00  0.00     0.031 C 
ATOM     63  C   UNL A   1      42.978  29.315  34.109  1.00  0.00     0.037 A 
BRANCH  50  64
ATOM     64  C   UNL A   1      40.785  27.915  28.508  1.00  0.00     0.064 A 
ATOM     65  C   UNL A   1      40.103  26.692  28.414  1.00  0.00     0.173 A 
ATOM     66  C   UNL A   1      41.549  28.327  27.405  1.00  0.00     0.173 A 
ATOM     67  F   UNL A   1      39.372  26.247  29.448  1.00  0.00    -0.203 F 
ATOM     68  C   UNL A   1      40.206  25.902  27.273  1.00  0.00     0.198 A 
ATOM     69  C   UNL A   1      41.627  27.547  26.255  1.00  0.00     0.198 A 
ATOM     70  F   UNL A   1      42.217  29.490  27.442  1.00  0.00    -0.203 F 
ATOM     71  F   UNL A   1      39.582  24.715  27.224  1.00  0.00    -0.200 F 
ATOM     72  C   UNL A   1      40.961  26.331  26.193  1.00  0.00     0.200 A 
ATOM     73  F   UNL A   1      42.350  27.967  25.208  1.00  0.00    -0.200 F 
ATOM     74  F   UNL A   1      41.055  25.570  25.094  1.00  0.00    -0.200 F 
ENDBRANCH  50  64
BRANCH  51  75
ATOM     75  C   UNL A   1      39.584  33.686  36.563  1.00  0.00     0.064 A 
ATOM     76  C   UNL A   1      38.737  33.259  37.593  1.00  0.00     0.173 A 
ATOM     77  C   UNL A   1      40.243  34.914  36.722  1.00  0.00     0.173 A 
ATOM     78  F   UNL A   1      38.069  32.102  37.474  1.00  0.00    -0.203 F 
ATOM     79  C   UNL A   1      38.545  34.034  38.735  1.00  0.00     0.198 A 
ATOM     80  C   UNL A   1      40.068  35.677  37.874  1.00  0.00     0.198 A 
ATOM     81  F   UNL A   1      41.065  35.364  35.764  1.00  0.00    -0.203 F 
ATOM     82  F   UNL A   1      37.701  33.620  39.689  1.00  0.00    -0.200 F 
ATOM     83  C   UNL A   1      39.215  35.240  38.877  1.00  0.00     0.200 A 
ATOM     84  F   UNL A   1      40.725  36.837  38.013  1.00  0.00    -0.200 F 
ATOM     85  F   UNL A   1      39.035  35.983  39.978  1.00  0.00    -0.200 F 
ENDBRANCH  51  75
BRANCH  63  86
ATOM     86  C   UNL A   1      44.162  28.736  34.825  1.00  0.00     0.064 A 
ATOM     87  C   UNL A   1      44.045  27.596  35.631  1.00  0.00     0.173 A 
ATOM     88  C   UNL A   1      45.432  29.314  34.678  1.00  0.00     0.173 A 
ATOM     89  F   UNL A   1      42.848  27.019  35.814  1.00  0.00    -0.203 F 
ATOM     90  C   UNL A   1      45.155  27.066  36.284  1.00  0.00     0.198 A 
ATOM     91  C   UNL A   1      46.543  28.768  35.312  1.00  0.00     0.198 A 
ATOM     92  F   UNL A   1      45.594  30.404  33.914  1.00  0.00    -0.203 F 
ATOM     93  F   UNL A   1      45.014  25.999  37.083  1.00  0.00    -0.200 F 
ATOM     94  C   UNL A   1      46.403  27.648  36.119  1.00  0.00     0.200 A 
ATOM     95  F   UNL A   1      47.749  29.327  35.146  1.00  0.00    -0.200 F 
ATOM     96  F   UNL A   1      47.471  27.135  36.746  1.00  0.00    -0.200 F 
ENDBRANCH  63  86
ENDBRANCH  37  38
ENDBRANCH  29  32
ENDBRANCH  27  28
ENDBRANCH  26  27
ENDBRANCH   1  26
TORSDOF 14
ENDMDL
MODEL 2
REMARK VINA RESULT:     -12.6      5.254     11.099
REMARK SMILES O=C(CCc1cncc([C@@H]2CN(c3ccccc3)CCO2)n1)NCCCNC(=O)c1ccc(-c2c3nc(c(-c4c(F)c(F)c(F)c(F)c4F)c4ccc([nH]4)c(-c4c(F)c(F)c(F)c(F)c4F)c4nc(c(-c5c(F)c(F)c(F)c(F)c5F)c5ccc2[nH]5)C=C4)C=C3)cc1
REMARK SMILES IDX 24 1 23 2 1 3 2 4 3 6 4 7 5 8 6 9 22 10 7 11 9 12 8 13 10 14
REMARK SMILES IDX 11 15 21 16 12 17 20 18 19 19 13 20 14 21 18 22 15 23 17 24
REMARK SMILES IDX 16 25 25 26 26 27 27 28 28 29 29 31 30 32 31 33 92 34 32 35
REMARK SMILES IDX 91 36 33 37 34 38 35 39 85 40 36 41 90 42 84 43 86 44 37 45
REMARK SMILES IDX 89 46 83 47 82 48 38 50 70 51 50 52 69 53 51 54 54 55 68 56
REMARK SMILES IDX 87 57 52 58 53 59 67 61 88 62 55 63 39 64 40 65 48 66 41 67
REMARK SMILES IDX 42 68 46 69 49 70 43 71 44 72 47 73 45 74 71 75 72 76 80 77
REMARK SMILES IDX 73 78 74 79 78 80 81 81 75 82 76 83 79 84 77 85 56 86 57 87
REMARK SMILES IDX 65 88 58 89 59 90 63 91 66 92 60 93 61 94 64 95 62 96
REMARK H PARENT 23 5 27 30 86 49 54 60
REMARK Flexibility Score: inf
ROOT
ATOM      1  C   UNL A   1      36.946  20.773  24.513  1.00  0.00     0.117 C 
ENDROOT
BRANCH   1   2
ATOM      2  N   UNL A   1      36.132  21.363  25.553  1.00  0.00    -0.356 N 
ATOM      3  O   UNL A   1      34.225  20.157  25.109  1.00  0.00    -0.275 OA
ATOM      4  C   UNL A   1      34.845  20.949  25.811  1.00  0.00     0.220 C 
ATOM      5  H   UNL A   1      36.513  22.089  26.098  1.00  0.00     0.163 HD
BRANCH   4   6
ATOM      6  C   UNL A   1      34.234  21.570  27.050  1.00  0.00     0.106 C 
BRANCH   6   7
ATOM      7  C   UNL A   1      34.306  23.098  27.024  1.00  0.00     0.068 C 
BRANCH   7   8
ATOM      8  C   UNL A   1      32.976  23.753  26.751  1.00  0.00     0.060 A 
ATOM      9  C   UNL A   1      31.793  23.203  27.229  1.00  0.00     0.134 A 
ATOM     10  N   UNL A   1      32.965  24.859  25.964  1.00  0.00    -0.252 NA
ATOM     11  N   UNL A   1      30.579  23.722  26.942  1.00  0.00    -0.261 NA
ATOM     12  C   UNL A   1      31.755  25.437  25.718  1.00  0.00     0.090 A 
ATOM     13  C   UNL A   1      30.588  24.859  26.203  1.00  0.00     0.137 A 
BRANCH  12  14
ATOM     14  C   UNL A   1      31.688  26.735  24.934  1.00  0.00     0.188 C 
ATOM     15  C   UNL A   1      31.031  26.535  23.549  1.00  0.00     0.155 C 
ATOM     16  O   UNL A   1      33.026  27.273  24.799  1.00  0.00    -0.368 OA
ATOM     17  N   UNL A   1      31.082  27.768  22.743  1.00  0.00    -0.366 N 
ATOM     18  C   UNL A   1      32.998  28.527  24.088  1.00  0.00     0.182 C 
ATOM     19  C   UNL A   1      32.418  28.376  22.669  1.00  0.00     0.145 C 
BRANCH  17  20
ATOM     20  C   UNL A   1      29.979  28.592  22.617  1.00  0.00     0.037 A 
ATOM     21  C   UNL A   1      28.729  28.146  23.068  1.00  0.00     0.026 A 
ATOM     22  C   UNL A   1      30.042  29.870  22.055  1.00  0.00     0.026 A 
ATOM     23  C   UNL A   1      27.593  28.957  22.985  1.00  0.00     0.002 A 
ATOM     24  C   UNL A   1      28.909  30.683  21.955  1.00  0.00     0.002 A 
ATOM     25  C   UNL A   1      27.683  30.229  22.427  1.00  0.00     0.000 A 
ENDBRANCH  17  20
ENDBRANCH  12  14
ENDBRANCH   7   8
ENDBRANCH   6   7
ENDBRANCH   4   6
ENDBRANCH   1   2
BRANCH   1  26
ATOM     26  C   UNL A   1      37.858  19.661  25.023  1.00  0.00     0.042 C 
BRANCH  26  27
ATOM     27  C   UNL A   1      39.095  20.110  25.798  1.00  0.00     0.118 C 
BRANCH  27  28
ATOM     28  N   UNL A   1      40.178  19.141  25.791  1.00  0.00    -0.352 N 
ATOM     29  C   UNL A   1      41.504  19.311  26.091  1.00  0.00     0.251 C 
ATOM     30  H   UNL A   1      39.920  18.226  25.533  1.00  0.00     0.163 HD
ATOM     31  O   UNL A   1      42.270  18.349  26.069  1.00  0.00    -0.269 OA
BRANCH  29  32
ATOM     32  C   UNL A   1      42.019  20.647  26.443  1.00  0.00     0.039 A 
ATOM     33  C   UNL A   1      42.206  20.978  27.788  1.00  0.00     0.014 A 
ATOM     34  C   UNL A   1      42.277  21.585  25.441  1.00  0.00     0.014 A 
ATOM     35  C   UNL A   1      42.688  22.244  28.131  1.00  0.00     0.010 A 
ATOM     36  C   UNL A   1      42.797  22.832  25.781  1.00  0.00     0.010 A 
ATOM     37  C   UNL A   1      42.997  23.177  27.128  1.00  0.00    -0.014 A 
BRANCH  37  38
ATOM     38  C   UNL A   1      43.494  24.536  27.458  1.00  0.00     0.031 A 
ATOM     39  C   UNL A   1      42.538  25.570  27.984  1.00  0.00     0.074 A 
ATOM     40  C   UNL A   1      44.775  24.864  27.212  1.00  0.00     0.049 A 
ATOM     41  N   UNL A   1      42.732  26.845  28.208  1.00  0.00    -0.248 NA
ATOM     42  C   UNL A   1      41.172  25.109  28.276  1.00  0.00     0.031 C 
ATOM     43  C   UNL A   1      45.792  23.959  26.678  1.00  0.00     0.029 A 
ATOM     44  N   UNL A   1      45.435  26.060  27.361  1.00  0.00    -0.354 N 
ATOM     45  C   UNL A   1      41.509  27.343  28.637  1.00  0.00     0.074 A 
ATOM     46  C   UNL A   1      40.572  26.240  28.617  1.00  0.00     0.031 C 
ATOM     47  C   UNL A   1      46.949  24.629  26.545  1.00  0.00     0.029 A 
ATOM     48  C   UNL A   1      46.746  26.017  26.954  1.00  0.00     0.049 A 
ATOM     49  H   UNL A   1      45.009  26.868  27.724  1.00  0.00     0.167 HD
ATOM     50  C   UNL A   1      41.199  28.604  29.023  1.00  0.00     0.037 A 
ATOM     51  C   UNL A   1      47.674  26.992  26.906  1.00  0.00     0.037 A 
ATOM     52  C   UNL A   1      42.141  29.692  29.072  1.00  0.00     0.049 A 
ATOM     53  C   UNL A   1      47.311  28.379  27.361  1.00  0.00     0.074 A 
ATOM     54  C   UNL A   1      41.935  30.996  29.491  1.00  0.00     0.029 A 
ATOM     55  N   UNL A   1      43.472  29.599  28.693  1.00  0.00    -0.354 N 
ATOM     56  N   UNL A   1      46.161  28.832  27.797  1.00  0.00    -0.248 NA
ATOM     57  C   UNL A   1      48.379  29.388  27.325  1.00  0.00     0.031 C 
ATOM     58  C   UNL A   1      43.136  31.698  29.340  1.00  0.00     0.029 A 
ATOM     59  C   UNL A   1      44.099  30.823  28.863  1.00  0.00     0.049 A 
ATOM     60  H   UNL A   1      43.907  28.783  28.355  1.00  0.00     0.167 HD
ATOM     61  C   UNL A   1      46.369  30.169  28.106  1.00  0.00     0.074 A 
ATOM     62  C   UNL A   1      47.761  30.452  27.821  1.00  0.00     0.031 C 
ATOM     63  C   UNL A   1      45.486  31.081  28.581  1.00  0.00     0.037 A 
BRANCH  50  64
ATOM     64  C   UNL A   1      39.779  28.875  29.419  1.00  0.00     0.064 A 
ATOM     65  C   UNL A   1      38.833  29.338  28.492  1.00  0.00     0.173 A 
ATOM     66  C   UNL A   1      39.350  28.646  30.735  1.00  0.00     0.173 A 
ATOM     67  F   UNL A   1      39.196  29.587  27.224  1.00  0.00    -0.203 F 
ATOM     68  C   UNL A   1      37.517  29.587  28.875  1.00  0.00     0.198 A 
ATOM     69  C   UNL A   1      38.028  28.871  31.108  1.00  0.00     0.198 A 
ATOM     70  F   UNL A   1      40.214  28.201  31.659  1.00  0.00    -0.203 F 
ATOM     71  F   UNL A   1      36.642  30.073  27.983  1.00  0.00    -0.200 F 
ATOM     72  C   UNL A   1      37.114  29.348  30.180  1.00  0.00     0.200 A 
ATOM     73  F   UNL A   1      37.637  28.630  32.368  1.00  0.00    -0.200 F 
ATOM     74  F   UNL A   1      35.847  29.585  30.545  1.00  0.00    -0.200 F 
ENDBRANCH  50  64
BRANCH  51  75
ATOM     75  C   UNL A   1      49.046  26.683  26.430  1.00  0.00     0.064 A 
ATOM     76  C   UNL A   1      49.411  26.920  25.098  1.00  0.00     0.173 A 
ATOM     77  C   UNL A   1      50.017  26.153  27.292  1.00  0.00     0.173 A 
ATOM     78  F   UNL A   1      48.509  27.404  24.233  1.00  0.00    -0.203 F 
ATOM     79  C   UNL A   1      50.694  26.626  24.642  1.00  0.00     0.198 A 
ATOM     80  C   UNL A   1      51.306  25.882  26.839  1.00  0.00     0.198 A 
ATOM     81  F   UNL A   1      49.715  25.911  28.575  1.00  0.00    -0.203 F 
ATOM     82  F   UNL A   1      51.007  26.829  23.355  1.00  0.00    -0.200 F 
ATOM     83  C   UNL A   1      51.642  26.114  25.514  1.00  0.00     0.200 A 
ATOM     84  F   UNL A   1      52.223  25.396  27.687  1.00  0.00    -0.200 F 
ATOM     85  F   UNL A   1      52.878  25.837  25.075  1.00  0.00    -0.200 F 
ENDBRANCH  51  75
BRANCH  63  86
ATOM     86  C   UNL A   1      46.009  32.460  28.854  1.00  0.00     0.064 A 
ATOM     87  C   UNL A   1      46.566  32.801  30.094  1.00  0.00     0.173 A 
ATOM     88  C   UNL A   1      45.977  33.441  27.852  1.00  0.00     0.173 A 
ATOM     89  F   UNL A   1      46.603  31.899  31.087  1.00  0.00    -0.203 F 
ATOM     90  C   UNL A   1      47.053  34.083  30.330  1.00  0.00     0.198 A 
ATOM     91  C   UNL A   1      46.487  34.716  28.083  1.00  0.00     0.198 A 
ATOM     92  F   UNL A   1      45.457  33.161  26.648  1.00  0.00    -0.203 F 
ATOM     93  F   UNL A   1      47.544  34.400  31.536  1.00  0.00    -0.200 F 
ATOM     94  C   UNL A   1      47.019  35.037  29.323  1.00  0.00     0.200 A 
ATOM     95  F   UNL A   1      46.459  35.634  27.108  1.00  0.00    -0.200 F 
ATOM     96  F   UNL A   1      47.490  36.271  29.551  1.00  0.00    -0.200 F 
ENDBRANCH  63  86
ENDBRANCH  37  38
ENDBRANCH  29  32
ENDBRANCH  27  28
ENDBRANCH  26  27
ENDBRANCH   1  26
TORSDOF 14
ENDMDL
MODEL 3
REMARK VINA RESULT:     -12.6      2.072      7.809
REMARK SMILES O=C(CCc1cncc([C@@H]2CN(c3ccccc3)CCO2)n1)NCCCNC(=O)c1ccc(-c2c3nc(c(-c4c(F)c(F)c(F)c(F)c4F)c4ccc([nH]4)c(-c4c(F)c(F)c(F)c(F)c4F)c4nc(c(-c5c(F)c(F)c(F)c(F)c5F)c5ccc2[nH]5)C=C4)C=C3)cc1
REMARK SMILES IDX 24 1 23 2 1 3 2 4 3 6 4 7 5 8 6 9 22 10 7 11 9 12 8 13 10 14
REMARK SMILES IDX 11 15 21 16 12 17 20 18 19 19 13 20 14 21 18 22 15 23 17 24
REMARK SMILES IDX 16 25 25 26 26 27 27 28 28 29 29 31 30 32 31 33 92 34 32 35
REMARK SMILES IDX 91 36 33 37 34 38 35 39 85 40 36 41 90 42 84 43 86 44 37 45
REMARK SMILES IDX 89 46 83 47 82 48 38 50 70 51 50 52 69 53 51 54 54 55 68 56
REMARK SMILES IDX 87 57 52 58 53 59 67 61 88 62 55 63 39 64 40 65 48 66 41 67
REMARK SMILES IDX 42 68 46 69 49 70 43 71 44 72 47 73 45 74 71 75 72 76 80 77
REMARK SMILES IDX 73 78 74 79 78 80 81 81 75 82 76 83 79 84 77 85 56 86 57 87
REMARK SMILES IDX 65 88 58 89 59 90 63 91 66 92 60 93 61 94 64 95 62 96
REMARK H PARENT 23 5 27 30 86 49 54 60
REMARK Flexibility Score: inf
ROOT
ATOM      1  C   UNL A   1      34.224  33.794  28.827  1.00  0.00     0.117 C 
ENDROOT
BRANCH   1   2
ATOM      2  N   UNL A   1      33.912  32.501  28.259  1.00  0.00    -0.356 N 
ATOM      3  O   UNL A   1      36.078  31.888  27.796  1.00  0.00    -0.275 OA
ATOM      4  C   UNL A   1      34.884  31.617  27.851  1.00  0.00     0.220 C 
ATOM      5  H   UNL A   1      32.967  32.244  28.161  1.00  0.00     0.163 HD
BRANCH   4   6
ATOM      6  C   UNL A   1      34.351  30.255  27.453  1.00  0.00     0.106 C 
BRANCH   6   7
ATOM      7  C   UNL A   1      32.833  30.263  27.268  1.00  0.00     0.068 C 
BRANCH   7   8
ATOM      8  C   UNL A   1      32.339  29.185  26.337  1.00  0.00     0.060 A 
ATOM      9  C   UNL A   1      31.494  29.483  25.276  1.00  0.00     0.134 A 
ATOM     10  N   UNL A   1      32.691  27.903  26.611  1.00  0.00    -0.252 NA
ATOM     11  N   UNL A   1      30.974  28.534  24.468  1.00  0.00    -0.261 NA
ATOM     12  C   UNL A   1      32.232  26.936  25.767  1.00  0.00     0.090 A 
ATOM     13  C   UNL A   1      31.381  27.265  24.719  1.00  0.00     0.137 A 
BRANCH  12  14
ATOM     14  C   UNL A   1      32.677  25.498  25.959  1.00  0.00     0.188 C 
ATOM     15  C   UNL A   1      32.907  24.784  24.606  1.00  0.00     0.155 C 
ATOM     16  O   UNL A   1      31.685  24.798  26.749  1.00  0.00    -0.368 OA
ATOM     17  N   UNL A   1      33.217  23.356  24.794  1.00  0.00    -0.366 N 
ATOM     18  C   UNL A   1      32.092  23.435  26.981  1.00  0.00     0.182 C 
ATOM     19  C   UNL A   1      32.267  22.651  25.668  1.00  0.00     0.145 C 
BRANCH  17  20
ATOM     20  C   UNL A   1      34.515  22.884  24.721  1.00  0.00     0.037 A 
ATOM     21  C   UNL A   1      35.242  23.048  23.534  1.00  0.00     0.026 A 
ATOM     22  C   UNL A   1      35.153  22.242  25.785  1.00  0.00     0.026 A 
ATOM     23  C   UNL A   1      36.566  22.611  23.426  1.00  0.00     0.002 A 
ATOM     24  C   UNL A   1      36.472  21.789  25.682  1.00  0.00     0.002 A 
ATOM     25  C   UNL A   1      37.183  21.980  24.502  1.00  0.00     0.000 A 
ENDBRANCH  17  20
ENDBRANCH  12  14
ENDBRANCH   7   8
ENDBRANCH   6   7
ENDBRANCH   4   6
ENDBRANCH   1   2
BRANCH   1  26
ATOM     26  C   UNL A   1      33.027  34.741  28.859  1.00  0.00     0.042 C 
BRANCH  26  27
ATOM     27  C   UNL A   1      33.268  36.104  29.503  1.00  0.00     0.118 C 
BRANCH  27  28
ATOM     28  N   UNL A   1      32.439  36.359  30.669  1.00  0.00    -0.352 N 
ATOM     29  C   UNL A   1      32.629  35.986  31.973  1.00  0.00     0.251 C 
ATOM     30  H   UNL A   1      31.619  36.877  30.496  1.00  0.00     0.163 HD
ATOM     31  O   UNL A   1      31.828  36.336  32.839  1.00  0.00    -0.269 OA
BRANCH  29  32
ATOM     32  C   UNL A   1      33.795  35.165  32.348  1.00  0.00     0.039 A 
ATOM     33  C   UNL A   1      33.597  33.853  32.788  1.00  0.00     0.014 A 
ATOM     34  C   UNL A   1      35.080  35.710  32.302  1.00  0.00     0.014 A 
ATOM     35  C   UNL A   1      34.697  33.070  33.151  1.00  0.00     0.010 A 
ATOM     36  C   UNL A   1      36.178  34.916  32.624  1.00  0.00     0.010 A 
ATOM     37  C   UNL A   1      35.996  33.593  33.061  1.00  0.00    -0.014 A 
BRANCH  37  38
ATOM     38  C   UNL A   1      37.184  32.795  33.455  1.00  0.00     0.031 A 
ATOM     39  C   UNL A   1      37.878  33.088  34.756  1.00  0.00     0.074 A 
ATOM     40  C   UNL A   1      37.684  31.869  32.616  1.00  0.00     0.049 A 
ATOM     41  N   UNL A   1      39.001  32.605  35.227  1.00  0.00    -0.248 NA
ATOM     42  C   UNL A   1      37.232  34.074  35.635  1.00  0.00     0.031 C 
ATOM     43  C   UNL A   1      37.117  31.513  31.316  1.00  0.00     0.029 A 
ATOM     44  N   UNL A   1      38.798  31.073  32.726  1.00  0.00    -0.354 N 
ATOM     45  C   UNL A   1      39.208  33.249  36.439  1.00  0.00     0.074 A 
ATOM     46  C   UNL A   1      38.112  34.176  36.620  1.00  0.00     0.031 C 
ATOM     47  C   UNL A   1      37.885  30.568  30.748  1.00  0.00     0.029 A 
ATOM     48  C   UNL A   1      39.012  30.276  31.629  1.00  0.00     0.049 A 
ATOM     49  H   UNL A   1      39.385  31.074  33.516  1.00  0.00     0.167 HD
ATOM     50  C   UNL A   1      40.218  33.075  37.326  1.00  0.00     0.037 A 
ATOM     51  C   UNL A   1      40.014  29.416  31.362  1.00  0.00     0.037 A 
ATOM     52  C   UNL A   1      41.291  32.130  37.158  1.00  0.00     0.049 A 
ATOM     53  C   UNL A   1      41.111  29.224  32.373  1.00  0.00     0.074 A 
ATOM     54  C   UNL A   1      42.337  31.847  38.021  1.00  0.00     0.029 A 
ATOM     55  N   UNL A   1      41.450  31.308  36.053  1.00  0.00    -0.354 N 
ATOM     56  N   UNL A   1      41.281  29.813  33.531  1.00  0.00    -0.248 NA
ATOM     57  C   UNL A   1      42.152  28.240  32.041  1.00  0.00     0.031 C 
ATOM     58  C   UNL A   1      43.144  30.871  37.424  1.00  0.00     0.029 A 
ATOM     59  C   UNL A   1      42.581  30.521  36.207  1.00  0.00     0.049 A 
ATOM     60  H   UNL A   1      40.848  31.286  35.274  1.00  0.00     0.167 HD
ATOM     61  C   UNL A   1      42.431  29.260  34.076  1.00  0.00     0.074 A 
ATOM     62  C   UNL A   1      42.912  28.277  33.127  1.00  0.00     0.031 C 
ATOM     63  C   UNL A   1      43.036  29.543  35.255  1.00  0.00     0.037 A 
BRANCH  50  64
ATOM     64  C   UNL A   1      40.211  33.931  38.557  1.00  0.00     0.064 A 
ATOM     65  C   UNL A   1      40.893  35.155  38.605  1.00  0.00     0.173 A 
ATOM     66  C   UNL A   1      39.491  33.535  39.695  1.00  0.00     0.173 A 
ATOM     67  F   UNL A   1      41.608  35.571  37.549  1.00  0.00    -0.203 F 
ATOM     68  C   UNL A   1      40.879  35.938  39.757  1.00  0.00     0.198 A 
ATOM     69  C   UNL A   1      39.457  34.333  40.835  1.00  0.00     0.198 A 
ATOM     70  F   UNL A   1      38.818  32.375  39.699  1.00  0.00    -0.203 F 
ATOM     71  F   UNL A   1      41.577  37.083  39.796  1.00  0.00    -0.200 F 
ATOM     72  C   UNL A   1      40.156  35.530  40.868  1.00  0.00     0.200 A 
ATOM     73  F   UNL A   1      38.750  33.942  41.905  1.00  0.00    -0.200 F 
ATOM     74  F   UNL A   1      40.141  36.288  41.973  1.00  0.00    -0.200 F 
ENDBRANCH  50  64
BRANCH  51  75
ATOM     75  C   UNL A   1      40.011  28.652  30.089  1.00  0.00     0.064 A 
ATOM     76  C   UNL A   1      40.612  29.178  28.937  1.00  0.00     0.173 A 
ATOM     77  C   UNL A   1      39.416  27.385  29.998  1.00  0.00     0.173 A 
ATOM     78  F   UNL A   1      41.173  30.394  28.972  1.00  0.00    -0.203 F 
ATOM     79  C   UNL A   1      40.608  28.470  27.737  1.00  0.00     0.198 A 
ATOM     80  C   UNL A   1      39.433  26.669  28.803  1.00  0.00     0.198 A 
ATOM     81  F   UNL A   1      38.829  26.840  31.073  1.00  0.00    -0.203 F 
ATOM     82  F   UNL A   1      41.158  29.010  26.642  1.00  0.00    -0.200 F 
ATOM     83  C   UNL A   1      40.024  27.214  27.673  1.00  0.00     0.200 A 
ATOM     84  F   UNL A   1      38.876  25.451  28.746  1.00  0.00    -0.200 F 
ATOM     85  F   UNL A   1      40.025  26.531  26.519  1.00  0.00    -0.200 F 
ENDBRANCH  51  75
BRANCH  63  86
ATOM     86  C   UNL A   1      44.265  28.755  35.599  1.00  0.00     0.064 A 
ATOM     87  C   UNL A   1      44.189  27.557  36.322  1.00  0.00     0.173 A 
ATOM     88  C   UNL A   1      45.529  29.190  35.174  1.00  0.00     0.173 A 
ATOM     89  F   UNL A   1      43.003  27.110  36.763  1.00  0.00    -0.203 F 
ATOM     90  C   UNL A   1      45.338  26.833  36.628  1.00  0.00     0.198 A 
ATOM     91  C   UNL A   1      46.674  28.452  35.460  1.00  0.00     0.198 A 
ATOM     92  F   UNL A   1      45.652  30.329  34.475  1.00  0.00    -0.203 F 
ATOM     93  F   UNL A   1      45.248  25.711  37.355  1.00  0.00    -0.200 F 
ATOM     94  C   UNL A   1      46.578  27.278  36.191  1.00  0.00     0.200 A 
ATOM     95  F   UNL A   1      47.869  28.879  35.032  1.00  0.00    -0.200 F 
ATOM     96  F   UNL A   1      47.683  26.578  36.485  1.00  0.00    -0.200 F 
ENDBRANCH  63  86
ENDBRANCH  37  38
ENDBRANCH  29  32
ENDBRANCH  27  28
ENDBRANCH  26  27
ENDBRANCH   1  26
TORSDOF 14
ENDMDL
