MODEL 1
REMARK VINA RESULT:      -9.8      0.000      0.000
REMARK SMILES COc1cc(OC)cc(-c2ccc([C@@H](C)C(=O)NCCCNC(=O)c3ccc(-c4c5nc(c(-c6c(F)c(F)c(F)c(F)c6F)c6ccc([nH]6)c(-c6c(F)c(F)c(F)c(F)c6F)c6nc(c(-c7c(F)c(F)c(F)c(F)c7F)c7ccc4[nH]7)C=C6)C=C5)cc3)cc2F)c1
REMARK SMILES IDX 19 1 18 2 16 3 17 4 14 6 15 7 13 8 10 9 11 10 89 11 12 12
REMARK SMILES IDX 88 13 90 14 9 15 3 16 4 17 91 18 5 19 8 20 2 21 1 22 6 23
REMARK SMILES IDX 7 24 20 25 21 26 22 27 23 28 24 30 25 31 26 32 87 33 27 34
REMARK SMILES IDX 86 35 28 36 29 37 30 38 80 39 31 40 85 41 79 42 81 43 32 44
REMARK SMILES IDX 84 45 78 46 77 47 33 49 65 50 45 51 64 52 46 53 49 54 63 55
REMARK SMILES IDX 82 56 47 57 48 58 62 60 83 61 50 62 34 63 35 64 43 65 36 66
REMARK SMILES IDX 37 67 41 68 44 69 38 70 39 71 42 72 40 73 66 74 67 75 75 76
REMARK SMILES IDX 68 77 69 78 73 79 76 80 70 81 71 82 74 83 72 84 51 85 52 86
REMARK SMILES IDX 60 87 53 88 54 89 58 90 61 91 55 92 56 93 59 94 57 95
REMARK H PARENT 18 5 22 29 81 48 49 59
REMARK Flexibility Score: inf
ROOT
ATOM      1  C   UNL A   1      34.983  34.053  30.987  1.00  0.00     0.117 C 
ENDROOT
BRANCH   1   2
ATOM      2  N   UNL A   1      36.388  34.365  31.168  1.00  0.00    -0.356 N 
ATOM      3  C   UNL A   1      37.258  34.105  32.181  1.00  0.00     0.227 C 
ATOM      4  O   UNL A   1      38.395  34.578  32.055  1.00  0.00    -0.274 OA
ATOM      5  H   UNL A   1      36.787  34.858  30.416  1.00  0.00     0.163 HD
BRANCH   3   6
ATOM      6  C   UNL A   1      36.907  33.290  33.435  1.00  0.00     0.105 C 
ATOM      7  C   UNL A   1      36.399  34.122  34.613  1.00  0.00     0.023 C 
BRANCH   6   8
ATOM      8  C   UNL A   1      37.948  32.234  33.770  1.00  0.00    -0.033 A 
ATOM      9  C   UNL A   1      39.947  30.235  34.232  1.00  0.00     0.018 A 
ATOM     10  C   UNL A   1      40.053  31.531  34.767  1.00  0.00     0.012 A 
ATOM     11  C   UNL A   1      38.800  29.967  33.473  1.00  0.00     0.131 A 
ATOM     12  C   UNL A   1      39.059  32.498  34.572  1.00  0.00     0.005 A 
ATOM     13  C   UNL A   1      37.828  30.944  33.229  1.00  0.00     0.044 A 
ATOM     14  F   UNL A   1      38.594  28.744  32.958  1.00  0.00    -0.206 F 
BRANCH   9  15
ATOM     15  C   UNL A   1      41.001  29.227  34.499  1.00  0.00    -0.008 A 
ATOM     16  C   UNL A   1      42.307  27.828  36.019  1.00  0.00     0.123 A 
ATOM     17  C   UNL A   1      42.997  27.291  34.932  1.00  0.00     0.092 A 
ATOM     18  C   UNL A   1      41.315  28.791  35.801  1.00  0.00     0.055 A 
ATOM     19  C   UNL A   1      42.705  27.693  33.632  1.00  0.00     0.123 A 
ATOM     20  C   UNL A   1      41.721  28.660  33.427  1.00  0.00     0.055 A 
BRANCH  16  21
ATOM     21  O   UNL A   1      42.714  27.361  37.238  1.00  0.00    -0.497 OA
ATOM     22  C   UNL A   1      42.664  25.953  37.430  1.00  0.00     0.278 C 
ENDBRANCH  16  21
BRANCH  19  23
ATOM     23  O   UNL A   1      43.436  27.079  32.653  1.00  0.00    -0.497 OA
ATOM     24  C   UNL A   1      44.153  25.907  33.024  1.00  0.00     0.278 C 
ENDBRANCH  19  23
ENDBRANCH   9  15
ENDBRANCH   6   8
ENDBRANCH   3   6
ENDBRANCH   1   2
BRANCH   1  25
ATOM     25  C   UNL A   1      34.769  32.671  30.375  1.00  0.00     0.042 C 
BRANCH  25  26
ATOM     26  C   UNL A   1      34.656  32.674  28.856  1.00  0.00     0.118 C 
BRANCH  26  27
ATOM     27  N   UNL A   1      34.028  31.463  28.346  1.00  0.00    -0.352 N 
ATOM     28  C   UNL A   1      34.566  30.247  28.003  1.00  0.00     0.251 C 
ATOM     29  H   UNL A   1      33.053  31.527  28.229  1.00  0.00     0.163 HD
ATOM     30  O   UNL A   1      33.866  29.439  27.398  1.00  0.00    -0.269 OA
BRANCH  28  31
ATOM     31  C   UNL A   1      35.967  29.892  28.333  1.00  0.00     0.039 A 
ATOM     32  C   UNL A   1      36.948  30.058  27.349  1.00  0.00     0.014 A 
ATOM     33  C   UNL A   1      36.316  29.328  29.563  1.00  0.00     0.014 A 
ATOM     34  C   UNL A   1      38.275  29.703  27.611  1.00  0.00     0.010 A 
ATOM     35  C   UNL A   1      37.651  29.051  29.853  1.00  0.00     0.010 A 
ATOM     36  C   UNL A   1      38.642  29.217  28.874  1.00  0.00    -0.014 A 
BRANCH  36  37
ATOM     37  C   UNL A   1      40.046  28.837  29.179  1.00  0.00     0.031 A 
ATOM     38  C   UNL A   1      40.930  29.778  29.952  1.00  0.00     0.074 A 
ATOM     39  C   UNL A   1      40.545  27.677  28.712  1.00  0.00     0.049 A 
ATOM     40  N   UNL A   1      42.201  29.670  30.248  1.00  0.00    -0.248 NA
ATOM     41  C   UNL A   1      40.308  31.022  30.432  1.00  0.00     0.031 C 
ATOM     42  C   UNL A   1      39.805  26.698  27.914  1.00  0.00     0.029 A 
ATOM     43  N   UNL A   1      41.798  27.130  28.832  1.00  0.00    -0.354 N 
ATOM     44  C   UNL A   1      42.533  30.838  30.923  1.00  0.00     0.074 A 
ATOM     45  C   UNL A   1      41.345  31.662  30.952  1.00  0.00     0.031 C 
ATOM     46  C   UNL A   1      40.610  25.662  27.634  1.00  0.00     0.029 A 
ATOM     47  C   UNL A   1      41.931  25.916  28.201  1.00  0.00     0.049 A 
ATOM     48  H   UNL A   1      42.532  27.565  29.324  1.00  0.00     0.167 HD
ATOM     49  C   UNL A   1      43.715  31.183  31.486  1.00  0.00     0.037 A 
ATOM     50  C   UNL A   1      42.999  25.104  28.091  1.00  0.00     0.037 A 
ATOM     51  C   UNL A   1      44.886  30.346  31.491  1.00  0.00     0.049 A 
ATOM     52  C   UNL A   1      44.296  25.502  28.742  1.00  0.00     0.074 A 
ATOM     53  C   UNL A   1      46.114  30.578  32.086  1.00  0.00     0.029 A 
ATOM     54  N   UNL A   1      44.971  29.108  30.869  1.00  0.00    -0.354 N 
ATOM     55  N   UNL A   1      44.583  26.583  29.426  1.00  0.00    -0.248 NA
ATOM     56  C   UNL A   1      45.418  24.559  28.611  1.00  0.00     0.031 C 
ATOM     57  C   UNL A   1      46.954  29.497  31.795  1.00  0.00     0.029 A 
ATOM     58  C   UNL A   1      46.235  28.572  31.056  1.00  0.00     0.049 A 
ATOM     59  H   UNL A   1      44.241  28.675  30.369  1.00  0.00     0.167 HD
ATOM     60  C   UNL A   1      45.902  26.439  29.832  1.00  0.00     0.074 A 
ATOM     61  C   UNL A   1      46.358  25.160  29.326  1.00  0.00     0.031 C 
ATOM     62  C   UNL A   1      46.668  27.291  30.557  1.00  0.00     0.037 A 
BRANCH  49  63
ATOM     63  C   UNL A   1      43.799  32.527  32.151  1.00  0.00     0.064 A 
ATOM     64  C   UNL A   1      43.600  32.679  33.533  1.00  0.00     0.173 A 
ATOM     65  C   UNL A   1      44.105  33.674  31.404  1.00  0.00     0.173 A 
ATOM     66  F   UNL A   1      43.293  31.615  34.290  1.00  0.00    -0.203 F 
ATOM     67  C   UNL A   1      43.669  33.933  34.134  1.00  0.00     0.198 A 
ATOM     68  C   UNL A   1      44.203  34.923  32.013  1.00  0.00     0.198 A 
ATOM     69  F   UNL A   1      44.311  33.585  30.081  1.00  0.00    -0.203 F 
ATOM     70  F   UNL A   1      43.420  34.060  35.444  1.00  0.00    -0.200 F 
ATOM     71  C   UNL A   1      43.975  35.053  33.376  1.00  0.00     0.200 A 
ATOM     72  F   UNL A   1      44.511  36.002  31.282  1.00  0.00    -0.200 F 
ATOM     73  F   UNL A   1      44.043  36.258  33.956  1.00  0.00    -0.200 F 
ENDBRANCH  49  63
BRANCH  50  74
ATOM     74  C   UNL A   1      42.875  23.815  27.365  1.00  0.00     0.064 A 
ATOM     75  C   UNL A   1      42.392  22.671  28.016  1.00  0.00     0.173 A 
ATOM     76  C   UNL A   1      43.225  23.699  26.013  1.00  0.00     0.173 A 
ATOM     77  F   UNL A   1      42.063  22.729  29.315  1.00  0.00    -0.203 F 
ATOM     78  C   UNL A   1      42.278  21.456  27.345  1.00  0.00     0.198 A 
ATOM     79  C   UNL A   1      43.087  22.488  25.337  1.00  0.00     0.198 A 
ATOM     80  F   UNL A   1      43.689  24.766  25.346  1.00  0.00    -0.203 F 
ATOM     81  F   UNL A   1      41.850  20.369  28.001  1.00  0.00    -0.200 F 
ATOM     82  C   UNL A   1      42.620  21.366  26.005  1.00  0.00     0.200 A 
ATOM     83  F   UNL A   1      43.408  22.409  24.038  1.00  0.00    -0.200 F 
ATOM     84  F   UNL A   1      42.504  20.198  25.358  1.00  0.00    -0.200 F 
ENDBRANCH  50  74
BRANCH  62  85
ATOM     85  C   UNL A   1      48.064  26.850  30.884  1.00  0.00     0.064 A 
ATOM     86  C   UNL A   1      48.333  26.009  31.973  1.00  0.00     0.173 A 
ATOM     87  C   UNL A   1      49.139  27.241  30.072  1.00  0.00     0.173 A 
ATOM     88  F   UNL A   1      47.341  25.619  32.787  1.00  0.00    -0.203 F 
ATOM     89  C   UNL A   1      49.633  25.595  32.252  1.00  0.00     0.198 A 
ATOM     90  C   UNL A   1      50.433  26.804  30.338  1.00  0.00     0.198 A 
ATOM     91  F   UNL A   1      48.932  28.040  29.014  1.00  0.00    -0.203 F 
ATOM     92  F   UNL A   1      49.875  24.828  33.324  1.00  0.00    -0.200 F 
ATOM     93  C   UNL A   1      50.680  25.987  31.431  1.00  0.00     0.200 A 
ATOM     94  F   UNL A   1      51.442  27.174  29.537  1.00  0.00    -0.200 F 
ATOM     95  F   UNL A   1      51.930  25.583  31.698  1.00  0.00    -0.200 F 
ENDBRANCH  62  85
ENDBRANCH  36  37
ENDBRANCH  28  31
ENDBRANCH  26  27
ENDBRANCH  25  26
ENDBRANCH   1  25
TORSDOF 14
ENDMDL
MODEL 2
REMARK VINA RESULT:      -9.6      0.443      1.609
REMARK SMILES COc1cc(OC)cc(-c2ccc([C@@H](C)C(=O)NCCCNC(=O)c3ccc(-c4c5nc(c(-c6c(F)c(F)c(F)c(F)c6F)c6ccc([nH]6)c(-c6c(F)c(F)c(F)c(F)c6F)c6nc(c(-c7c(F)c(F)c(F)c(F)c7F)c7ccc4[nH]7)C=C6)C=C5)cc3)cc2F)c1
REMARK SMILES IDX 19 1 18 2 16 3 17 4 14 6 15 7 13 8 10 9 11 10 89 11 12 12
REMARK SMILES IDX 88 13 90 14 9 15 3 16 4 17 91 18 5 19 8 20 2 21 1 22 6 23
REMARK SMILES IDX 7 24 20 25 21 26 22 27 23 28 24 30 25 31 26 32 87 33 27 34
REMARK SMILES IDX 86 35 28 36 29 37 30 38 80 39 31 40 85 41 79 42 81 43 32 44
REMARK SMILES IDX 84 45 78 46 77 47 33 49 65 50 45 51 64 52 46 53 49 54 63 55
REMARK SMILES IDX 82 56 47 57 48 58 62 60 83 61 50 62 34 63 35 64 43 65 36 66
REMARK SMILES IDX 37 67 41 68 44 69 38 70 39 71 42 72 40 73 66 74 67 75 75 76
REMARK SMILES IDX 68 77 69 78 73 79 76 80 70 81 71 82 74 83 72 84 51 85 52 86
REMARK SMILES IDX 60 87 53 88 54 89 58 90 61 91 55 92 56 93 59 94 57 95
REMARK H PARENT 18 5 22 29 81 48 49 59
REMARK Flexibility Score: inf
ROOT
ATOM      1  C   UNL A   1      36.620  33.108  29.976  1.00  0.00     0.117 C 
ENDROOT
BRANCH   1   2
ATOM      2  N   UNL A   1      36.945  34.134  30.948  1.00  0.00    -0.356 N 
ATOM      3  C   UNL A   1      36.857  34.168  32.305  1.00  0.00     0.227 C 
ATOM      4  O   UNL A   1      37.156  35.243  32.842  1.00  0.00    -0.274 OA
ATOM      5  H   UNL A   1      37.295  34.964  30.550  1.00  0.00     0.163 HD
BRANCH   3   6
ATOM      6  C   UNL A   1      36.412  32.981  33.172  1.00  0.00     0.105 C 
ATOM      7  C   UNL A   1      35.482  33.351  34.329  1.00  0.00     0.023 C 
BRANCH   6   8
ATOM      8  C   UNL A   1      37.551  32.034  33.515  1.00  0.00    -0.033 A 
ATOM      9  C   UNL A   1      39.724  30.229  33.991  1.00  0.00     0.018 A 
ATOM     10  C   UNL A   1      39.764  31.569  34.414  1.00  0.00     0.012 A 
ATOM     11  C   UNL A   1      38.554  29.816  33.338  1.00  0.00     0.131 A 
ATOM     12  C   UNL A   1      38.687  32.442  34.214  1.00  0.00     0.005 A 
ATOM     13  C   UNL A   1      37.497  30.698  33.087  1.00  0.00     0.044 A 
ATOM     14  F   UNL A   1      38.411  28.543  32.936  1.00  0.00    -0.206 F 
BRANCH   9  15
ATOM     15  C   UNL A   1      40.868  29.325  34.261  1.00  0.00    -0.008 A 
ATOM     16  C   UNL A   1      42.652  27.831  33.517  1.00  0.00     0.123 A 
ATOM     17  C   UNL A   1      43.047  27.641  34.842  1.00  0.00     0.092 A 
ATOM     18  C   UNL A   1      41.568  28.668  33.231  1.00  0.00     0.055 A 
ATOM     19  C   UNL A   1      42.382  28.283  35.883  1.00  0.00     0.123 A 
ATOM     20  C   UNL A   1      41.297  29.108  35.587  1.00  0.00     0.055 A 
BRANCH  16  21
ATOM     21  O   UNL A   1      43.378  27.120  32.601  1.00  0.00    -0.497 OA
ATOM     22  C   UNL A   1      44.033  25.951  33.075  1.00  0.00     0.278 C 
ENDBRANCH  16  21
BRANCH  19  23
ATOM     23  O   UNL A   1      42.876  28.032  37.133  1.00  0.00    -0.497 OA
ATOM     24  C   UNL A   1      43.672  26.864  37.288  1.00  0.00     0.278 C 
ENDBRANCH  19  23
ENDBRANCH   9  15
ENDBRANCH   6   8
ENDBRANCH   3   6
ENDBRANCH   1   2
BRANCH   1  25
ATOM     25  C   UNL A   1      35.115  32.971  29.756  1.00  0.00     0.042 C 
BRANCH  25  26
ATOM     26  C   UNL A   1      34.710  32.842  28.293  1.00  0.00     0.118 C 
BRANCH  26  27
ATOM     27  N   UNL A   1      34.036  31.581  28.016  1.00  0.00    -0.352 N 
ATOM     28  C   UNL A   1      34.532  30.308  27.877  1.00  0.00     0.251 C 
ATOM     29  H   UNL A   1      33.060  31.655  27.911  1.00  0.00     0.163 HD
ATOM     30  O   UNL A   1      33.794  29.429  27.438  1.00  0.00    -0.269 OA
BRANCH  28  31
ATOM     31  C   UNL A   1      35.931  29.972  28.233  1.00  0.00     0.039 A 
ATOM     32  C   UNL A   1      36.927  30.142  27.263  1.00  0.00     0.014 A 
ATOM     33  C   UNL A   1      36.268  29.423  29.473  1.00  0.00     0.014 A 
ATOM     34  C   UNL A   1      38.252  29.804  27.549  1.00  0.00     0.010 A 
ATOM     35  C   UNL A   1      37.601  29.164  29.786  1.00  0.00     0.010 A 
ATOM     36  C   UNL A   1      38.605  29.333  28.822  1.00  0.00    -0.014 A 
BRANCH  36  37
ATOM     37  C   UNL A   1      40.009  28.972  29.152  1.00  0.00     0.031 A 
ATOM     38  C   UNL A   1      40.865  29.924  29.944  1.00  0.00     0.074 A 
ATOM     39  C   UNL A   1      40.532  27.820  28.693  1.00  0.00     0.049 A 
ATOM     40  N   UNL A   1      42.131  29.833  30.263  1.00  0.00    -0.248 NA
ATOM     41  C   UNL A   1      40.216  31.158  30.415  1.00  0.00     0.031 C 
ATOM     42  C   UNL A   1      39.821  26.833  27.879  1.00  0.00     0.029 A 
ATOM     43  N   UNL A   1      41.790  27.290  28.835  1.00  0.00    -0.354 N 
ATOM     44  C   UNL A   1      42.434  31.003  30.947  1.00  0.00     0.074 A 
ATOM     45  C   UNL A   1      41.234  31.811  30.956  1.00  0.00     0.031 C 
ATOM     46  C   UNL A   1      40.646  25.809  27.612  1.00  0.00     0.029 A 
ATOM     47  C   UNL A   1      41.952  26.080  28.205  1.00  0.00     0.049 A 
ATOM     48  H   UNL A   1      42.508  27.735  29.341  1.00  0.00     0.167 HD
ATOM     49  C   UNL A   1      43.601  31.364  31.533  1.00  0.00     0.037 A 
ATOM     50  C   UNL A   1      43.034  25.284  28.113  1.00  0.00     0.037 A 
ATOM     51  C   UNL A   1      44.783  30.543  31.558  1.00  0.00     0.049 A 
ATOM     52  C   UNL A   1      44.312  25.698  28.789  1.00  0.00     0.074 A 
ATOM     53  C   UNL A   1      45.995  30.792  32.177  1.00  0.00     0.029 A 
ATOM     54  N   UNL A   1      44.897  29.308  30.935  1.00  0.00    -0.354 N 
ATOM     55  N   UNL A   1      44.571  26.781  29.480  1.00  0.00    -0.248 NA
ATOM     56  C   UNL A   1      45.449  24.772  28.677  1.00  0.00     0.031 C 
ATOM     57  C   UNL A   1      46.856  29.723  31.899  1.00  0.00     0.029 A 
ATOM     58  C   UNL A   1      46.164  28.789  31.145  1.00  0.00     0.049 A 
ATOM     59  H   UNL A   1      44.182  28.867  30.421  1.00  0.00     0.167 HD
ATOM     60  C   UNL A   1      45.885  26.655  29.910  1.00  0.00     0.074 A 
ATOM     61  C   UNL A   1      46.367  25.384  29.411  1.00  0.00     0.031 C 
ATOM     62  C   UNL A   1      46.625  27.516  30.651  1.00  0.00     0.037 A 
BRANCH  49  63
ATOM     63  C   UNL A   1      43.653  32.707  32.203  1.00  0.00     0.064 A 
ATOM     64  C   UNL A   1      43.398  32.857  33.575  1.00  0.00     0.173 A 
ATOM     65  C   UNL A   1      43.984  33.856  31.469  1.00  0.00     0.173 A 
ATOM     66  F   UNL A   1      43.065  31.791  34.319  1.00  0.00    -0.203 F 
ATOM     67  C   UNL A   1      43.438  34.110  34.180  1.00  0.00     0.198 A 
ATOM     68  C   UNL A   1      44.053  35.105  32.084  1.00  0.00     0.198 A 
ATOM     69  F   UNL A   1      44.243  33.770  30.156  1.00  0.00    -0.203 F 
ATOM     70  F   UNL A   1      43.137  34.235  35.479  1.00  0.00    -0.200 F 
ATOM     71  C   UNL A   1      43.771  35.233  33.436  1.00  0.00     0.200 A 
ATOM     72  F   UNL A   1      44.386  36.186  31.366  1.00  0.00    -0.200 F 
ATOM     73  F   UNL A   1      43.811  36.437  34.019  1.00  0.00    -0.200 F 
ENDBRANCH  49  63
BRANCH  50  74
ATOM     74  C   UNL A   1      42.941  23.995  27.382  1.00  0.00     0.064 A 
ATOM     75  C   UNL A   1      43.277  23.916  26.023  1.00  0.00     0.173 A 
ATOM     76  C   UNL A   1      42.527  22.818  28.022  1.00  0.00     0.173 A 
ATOM     77  F   UNL A   1      43.659  25.021  25.364  1.00  0.00    -0.203 F 
ATOM     78  C   UNL A   1      43.186  22.713  25.328  1.00  0.00     0.198 A 
ATOM     79  C   UNL A   1      42.462  21.609  27.330  1.00  0.00     0.198 A 
ATOM     80  F   UNL A   1      42.200  22.840  29.322  1.00  0.00    -0.203 F 
ATOM     81  F   UNL A   1      43.476  22.675  24.020  1.00  0.00    -0.200 F 
ATOM     82  C   UNL A   1      42.785  21.560  25.982  1.00  0.00     0.200 A 
ATOM     83  F   UNL A   1      42.084  20.494  27.970  1.00  0.00    -0.200 F 
ATOM     84  F   UNL A   1      42.705  20.401  25.314  1.00  0.00    -0.200 F 
ENDBRANCH  50  74
BRANCH  62  85
ATOM     85  C   UNL A   1      48.020  27.094  31.004  1.00  0.00     0.064 A 
ATOM     86  C   UNL A   1      48.283  26.272  32.109  1.00  0.00     0.173 A 
ATOM     87  C   UNL A   1      49.102  27.483  30.201  1.00  0.00     0.173 A 
ATOM     88  F   UNL A   1      47.283  25.884  32.915  1.00  0.00    -0.203 F 
ATOM     89  C   UNL A   1      49.582  25.875  32.412  1.00  0.00     0.198 A 
ATOM     90  C   UNL A   1      50.397  27.064  30.491  1.00  0.00     0.198 A 
ATOM     91  F   UNL A   1      48.901  28.265  29.128  1.00  0.00    -0.203 F 
ATOM     92  F   UNL A   1      49.817  25.126  33.498  1.00  0.00    -0.200 F 
ATOM     93  C   UNL A   1      50.637  26.265  31.599  1.00  0.00     0.200 A 
ATOM     94  F   UNL A   1      51.413  27.431  29.698  1.00  0.00    -0.200 F 
ATOM     95  F   UNL A   1      51.887  25.878  31.888  1.00  0.00    -0.200 F 
ENDBRANCH  62  85
ENDBRANCH  36  37
ENDBRANCH  28  31
ENDBRANCH  26  27
ENDBRANCH  25  26
ENDBRANCH   1  25
TORSDOF 14
ENDMDL
MODEL 3
REMARK VINA RESULT:      -9.5      0.279      2.230
REMARK SMILES COc1cc(OC)cc(-c2ccc([C@@H](C)C(=O)NCCCNC(=O)c3ccc(-c4c5nc(c(-c6c(F)c(F)c(F)c(F)c6F)c6ccc([nH]6)c(-c6c(F)c(F)c(F)c(F)c6F)c6nc(c(-c7c(F)c(F)c(F)c(F)c7F)c7ccc4[nH]7)C=C6)C=C5)cc3)cc2F)c1
REMARK SMILES IDX 19 1 18 2 16 3 17 4 14 6 15 7 13 8 10 9 11 10 89 11 12 12
REMARK SMILES IDX 88 13 90 14 9 15 3 16 4 17 91 18 5 19 8 20 2 21 1 22 6 23
REMARK SMILES IDX 7 24 20 25 21 26 22 27 23 28 24 30 25 31 26 32 87 33 27 34
REMARK SMILES IDX 86 35 28 36 29 37 30 38 80 39 31 40 85 41 79 42 81 43 32 44
REMARK SMILES IDX 84 45 78 46 77 47 33 49 65 50 45 51 64 52 46 53 49 54 63 55
REMARK SMILES IDX 82 56 47 57 48 58 62 60 83 61 50 62 34 63 35 64 43 65 36 66
REMARK SMILES IDX 37 67 41 68 44 69 38 70 39 71 42 72 40 73 66 74 67 75 75 76
REMARK SMILES IDX 68 77 69 78 73 79 76 80 70 81 71 82 74 83 72 84 51 85 52 86
REMARK SMILES IDX 60 87 53 88 54 89 58 90 61 91 55 92 56 93 59 94 57 95
REMARK H PARENT 18 5 22 29 81 48 49 59
REMARK Flexibility Score: inf
ROOT
ATOM      1  C   UNL A   1      35.139  32.906  30.899  1.00  0.00     0.117 C 
ENDROOT
BRANCH   1   2
ATOM      2  N   UNL A   1      36.308  33.690  31.246  1.00  0.00    -0.356 N 
ATOM      3  C   UNL A   1      37.030  33.797  32.395  1.00  0.00     0.227 C 
ATOM      4  O   UNL A   1      37.950  34.625  32.383  1.00  0.00    -0.274 OA
ATOM      5  H   UNL A   1      36.645  34.252  30.511  1.00  0.00     0.163 HD
BRANCH   3   6
ATOM      6  C   UNL A   1      36.759  32.975  33.664  1.00  0.00     0.105 C 
ATOM      7  C   UNL A   1      36.284  33.796  34.864  1.00  0.00     0.023 C 
BRANCH   6   8
ATOM      8  C   UNL A   1      37.843  31.948  33.951  1.00  0.00    -0.033 A 
ATOM      9  C   UNL A   1      39.926  30.018  34.324  1.00  0.00     0.018 A 
ATOM     10  C   UNL A   1      39.962  31.280  34.943  1.00  0.00     0.012 A 
ATOM     11  C   UNL A   1      38.807  29.747  33.526  1.00  0.00     0.131 A 
ATOM     12  C   UNL A   1      38.926  32.210  34.791  1.00  0.00     0.005 A 
ATOM     13  C   UNL A   1      37.794  30.692  33.326  1.00  0.00     0.044 A 
ATOM     14  F   UNL A   1      38.668  28.552  32.929  1.00  0.00    -0.206 F 
BRANCH   9  15
ATOM     15  C   UNL A   1      41.023  29.044  34.546  1.00  0.00    -0.008 A 
ATOM     16  C   UNL A   1      42.746  27.520  33.725  1.00  0.00     0.123 A 
ATOM     17  C   UNL A   1      43.111  27.224  35.038  1.00  0.00     0.092 A 
ATOM     18  C   UNL A   1      41.707  28.425  33.483  1.00  0.00     0.055 A 
ATOM     19  C   UNL A   1      42.463  27.826  36.112  1.00  0.00     0.123 A 
ATOM     20  C   UNL A   1      41.421  28.720  35.859  1.00  0.00     0.055 A 
BRANCH  16  21
ATOM     21  O   UNL A   1      43.452  26.838  32.771  1.00  0.00    -0.497 OA
ATOM     22  C   UNL A   1      44.180  25.699  33.210  1.00  0.00     0.278 C 
ENDBRANCH  16  21
BRANCH  19  23
ATOM     23  O   UNL A   1      42.925  27.470  37.348  1.00  0.00    -0.497 OA
ATOM     24  C   UNL A   1      43.465  26.160  37.481  1.00  0.00     0.278 C 
ENDBRANCH  19  23
ENDBRANCH   9  15
ENDBRANCH   6   8
ENDBRANCH   3   6
ENDBRANCH   1   2
BRANCH   1  25
ATOM     25  C   UNL A   1      34.404  33.465  29.684  1.00  0.00     0.042 C 
BRANCH  25  26
ATOM     26  C   UNL A   1      34.806  32.822  28.363  1.00  0.00     0.118 C 
BRANCH  26  27
ATOM     27  N   UNL A   1      34.097  31.574  28.118  1.00  0.00    -0.352 N 
ATOM     28  C   UNL A   1      34.557  30.286  27.999  1.00  0.00     0.251 C 
ATOM     29  H   UNL A   1      33.122  31.672  28.022  1.00  0.00     0.163 HD
ATOM     30  O   UNL A   1      33.791  29.419  27.584  1.00  0.00    -0.269 OA
BRANCH  28  31
ATOM     31  C   UNL A   1      35.951  29.920  28.346  1.00  0.00     0.039 A 
ATOM     32  C   UNL A   1      36.944  30.070  27.370  1.00  0.00     0.014 A 
ATOM     33  C   UNL A   1      36.283  29.362  29.583  1.00  0.00     0.014 A 
ATOM     34  C   UNL A   1      38.264  29.704  27.648  1.00  0.00     0.010 A 
ATOM     35  C   UNL A   1      37.612  29.074  29.888  1.00  0.00     0.010 A 
ATOM     36  C   UNL A   1      38.613  29.223  28.918  1.00  0.00    -0.014 A 
BRANCH  36  37
ATOM     37  C   UNL A   1      40.011  28.833  29.241  1.00  0.00     0.031 A 
ATOM     38  C   UNL A   1      40.891  29.764  30.031  1.00  0.00     0.074 A 
ATOM     39  C   UNL A   1      40.509  27.672  28.775  1.00  0.00     0.049 A 
ATOM     40  N   UNL A   1      42.157  29.646  30.343  1.00  0.00    -0.248 NA
ATOM     41  C   UNL A   1      40.271  31.010  30.509  1.00  0.00     0.031 C 
ATOM     42  C   UNL A   1      39.773  26.702  27.962  1.00  0.00     0.029 A 
ATOM     43  N   UNL A   1      41.756  27.115  28.909  1.00  0.00    -0.354 N 
ATOM     44  C   UNL A   1      42.487  30.808  31.029  1.00  0.00     0.074 A 
ATOM     45  C   UNL A   1      41.304  31.639  31.046  1.00  0.00     0.031 C 
ATOM     46  C   UNL A   1      40.575  25.662  27.687  1.00  0.00     0.029 A 
ATOM     47  C   UNL A   1      41.890  25.904  28.274  1.00  0.00     0.049 A 
ATOM     48  H   UNL A   1      42.486  27.543  29.413  1.00  0.00     0.167 HD
ATOM     49  C   UNL A   1      43.664  31.142  31.610  1.00  0.00     0.037 A 
ATOM     50  C   UNL A   1      42.954  25.086  28.174  1.00  0.00     0.037 A 
ATOM     51  C   UNL A   1      44.829  30.297  31.626  1.00  0.00     0.049 A 
ATOM     52  C   UNL A   1      44.244  25.471  28.845  1.00  0.00     0.074 A 
ATOM     53  C   UNL A   1      46.050  30.518  32.240  1.00  0.00     0.029 A 
ATOM     54  N   UNL A   1      44.915  29.062  30.999  1.00  0.00    -0.354 N 
ATOM     55  N   UNL A   1      44.528  26.547  29.538  1.00  0.00    -0.248 NA
ATOM     56  C   UNL A   1      45.361  24.522  28.724  1.00  0.00     0.031 C 
ATOM     57  C   UNL A   1      46.887  29.433  31.954  1.00  0.00     0.029 A 
ATOM     58  C   UNL A   1      46.172  28.516  31.200  1.00  0.00     0.049 A 
ATOM     59  H   UNL A   1      44.188  28.637  30.487  1.00  0.00     0.167 HD
ATOM     60  C   UNL A   1      45.842  26.392  29.961  1.00  0.00     0.074 A 
ATOM     61  C   UNL A   1      46.295  25.113  29.455  1.00  0.00     0.031 C 
ATOM     62  C   UNL A   1      46.603  27.235  30.701  1.00  0.00     0.037 A 
BRANCH  49  63
ATOM     63  C   UNL A   1      43.748  32.482  32.284  1.00  0.00     0.064 A 
ATOM     64  C   UNL A   1      44.029  33.653  31.561  1.00  0.00     0.173 A 
ATOM     65  C   UNL A   1      43.523  32.602  33.663  1.00  0.00     0.173 A 
ATOM     66  F   UNL A   1      44.264  33.591  30.242  1.00  0.00    -0.203 F 
ATOM     67  C   UNL A   1      44.115  34.887  32.201  1.00  0.00     0.198 A 
ATOM     68  C   UNL A   1      43.580  33.842  34.295  1.00  0.00     0.198 A 
ATOM     69  F   UNL A   1      43.244  31.516  34.400  1.00  0.00    -0.203 F 
ATOM     70  F   UNL A   1      44.439  35.981  31.499  1.00  0.00    -0.200 F 
ATOM     71  C   UNL A   1      43.885  34.982  33.566  1.00  0.00     0.200 A 
ATOM     72  F   UNL A   1      43.346  33.934  35.611  1.00  0.00    -0.200 F 
ATOM     73  F   UNL A   1      43.967  36.169  34.178  1.00  0.00    -0.200 F 
ENDBRANCH  49  63
BRANCH  50  74
ATOM     74  C   UNL A   1      42.831  23.801  27.440  1.00  0.00     0.064 A 
ATOM     75  C   UNL A   1      43.204  23.709  26.092  1.00  0.00     0.173 A 
ATOM     76  C   UNL A   1      42.350  22.642  28.066  1.00  0.00     0.173 A 
ATOM     77  F   UNL A   1      43.650  24.797  25.445  1.00  0.00    -0.203 F 
ATOM     78  C   UNL A   1      43.085  22.510  25.393  1.00  0.00     0.198 A 
ATOM     79  C   UNL A   1      42.256  21.438  27.372  1.00  0.00     0.198 A 
ATOM     80  F   UNL A   1      41.985  22.679  29.356  1.00  0.00    -0.203 F 
ATOM     81  F   UNL A   1      43.412  22.459  24.094  1.00  0.00    -0.200 F 
ATOM     82  C   UNL A   1      42.617  21.374  26.034  1.00  0.00     0.200 A 
ATOM     83  F   UNL A   1      41.814  20.338  27.999  1.00  0.00    -0.200 F 
ATOM     84  F   UNL A   1      42.510  20.219  25.363  1.00  0.00    -0.200 F 
ENDBRANCH  50  74
BRANCH  62  85
ATOM     85  C   UNL A   1      47.991  26.783  31.045  1.00  0.00     0.064 A 
ATOM     86  C   UNL A   1      49.099  27.154  30.270  1.00  0.00     0.173 A 
ATOM     87  C   UNL A   1      48.219  26.002  32.188  1.00  0.00     0.173 A 
ATOM     88  F   UNL A   1      48.931  27.888  29.160  1.00  0.00    -0.203 F 
ATOM     89  C   UNL A   1      50.383  26.740  30.613  1.00  0.00     0.198 A 
ATOM     90  C   UNL A   1      49.507  25.611  32.544  1.00  0.00     0.198 A 
ATOM     91  F   UNL A   1      47.192  25.627  32.966  1.00  0.00    -0.203 F 
ATOM     92  F   UNL A   1      51.423  27.068  29.835  1.00  0.00    -0.200 F 
ATOM     93  C   UNL A   1      50.586  25.975  31.753  1.00  0.00     0.200 A 
ATOM     94  F   UNL A   1      49.703  24.883  33.651  1.00  0.00    -0.200 F 
ATOM     95  F   UNL A   1      51.823  25.581  32.086  1.00  0.00    -0.200 F 
ENDBRANCH  62  85
ENDBRANCH  36  37
ENDBRANCH  28  31
ENDBRANCH  26  27
ENDBRANCH  25  26
ENDBRANCH   1  25
TORSDOF 14
ENDMDL
