MODEL 1
REMARK VINA RESULT:     -12.0      0.000      0.000
REMARK SMILES CCC(CC)(NC(=O)c1cc([N+](=O)[O-])c[nH]1)C(=O)NCCCNC(=O)c1ccc(-c2c3nc(c(-c4c(F)c(F)c(F)c(F)c4F)c4ccc([nH]4)c(-c4c(F)c(F)c(F)c(F)c4F)c4nc(c(-c5c(F)c(F)c(F)c(F)c5F)c5ccc2[nH]5)C=C4)C=C3)cc1
REMARK SMILES IDX 20 1 19 2 17 3 18 4 3 6 2 7 1 8 4 9 5 10 6 11 7 12 8 14 9 15
REMARK SMILES IDX 10 16 16 17 11 18 15 19 12 21 13 22 14 23 21 24 22 25 23 26
REMARK SMILES IDX 24 27 25 29 26 30 27 31 88 32 28 33 87 34 29 35 30 36 31 37
REMARK SMILES IDX 81 38 32 39 86 40 80 41 82 42 33 43 85 44 79 45 78 46 34 48
REMARK SMILES IDX 66 49 46 50 65 51 47 52 50 53 64 54 83 55 48 56 49 57 63 59
REMARK SMILES IDX 84 60 51 61 35 62 36 63 44 64 37 65 38 66 42 67 45 68 39 69
REMARK SMILES IDX 40 70 43 71 41 72 67 73 68 74 76 75 69 76 70 77 74 78 77 79
REMARK SMILES IDX 71 80 72 81 75 82 73 83 52 84 53 85 61 86 54 87 55 88 59 89
REMARK SMILES IDX 62 90 56 91 57 92 60 93 58 94
REMARK H PARENT 19 5 6 13 16 20 23 28 82 47 50 58
REMARK Flexibility Score: inf
ROOT
ATOM      1  C   UNL A   1      33.608  27.051  24.840  1.00  0.00     0.117 C 
ENDROOT
BRANCH   1   2
ATOM      2  N   UNL A   1      33.935  25.928  25.712  1.00  0.00    -0.354 N 
ATOM      3  C   UNL A   1      33.290  24.757  26.041  1.00  0.00     0.245 C 
ATOM      4  O   UNL A   1      33.945  23.945  26.701  1.00  0.00    -0.272 OA
ATOM      5  H   UNL A   1      34.804  26.029  26.163  1.00  0.00     0.163 HD
BRANCH   3   6
ATOM      6  C   UNL A   1      31.868  24.413  25.517  1.00  0.00     0.118 C 
BRANCH   6   7
ATOM      7  C   UNL A   1      30.819  25.560  25.667  1.00  0.00     0.035 C 
ATOM      8  C   UNL A   1      30.038  26.002  24.435  1.00  0.00     0.007 C 
ENDBRANCH   6   7
BRANCH   6   9
ATOM      9  C   UNL A   1      31.453  23.183  26.398  1.00  0.00     0.035 C 
ATOM     10  C   UNL A   1      30.022  23.124  26.907  1.00  0.00     0.007 C 
ENDBRANCH   6   9
BRANCH   6  11
ATOM     11  N   UNL A   1      31.915  24.075  24.069  1.00  0.00    -0.336 N 
ATOM     12  C   UNL A   1      32.665  23.123  23.401  1.00  0.00     0.268 C 
ATOM     13  H   UNL A   1      31.320  24.613  23.498  1.00  0.00     0.165 HD
ATOM     14  O   UNL A   1      33.027  23.435  22.264  1.00  0.00    -0.268 OA
BRANCH  12  15
ATOM     15  C   UNL A   1      32.989  21.800  23.923  1.00  0.00     0.111 A 
ATOM     16  C   UNL A   1      32.389  20.555  23.868  1.00  0.00     0.119 A 
ATOM     17  N   UNL A   1      34.217  21.563  24.536  1.00  0.00    -0.351 N 
ATOM     18  C   UNL A   1      33.251  19.567  24.406  1.00  0.00     0.287 A 
ATOM     19  C   UNL A   1      34.384  20.228  24.821  1.00  0.00     0.169 A 
ATOM     20  H   UNL A   1      34.880  22.261  24.739  1.00  0.00     0.166 HD
BRANCH  18  21
ATOM     21  N   UNL A   1      33.004  18.147  24.435  1.00  0.00     0.064 N 
ATOM     22  O   UNL A   1      31.988  17.755  25.021  1.00  0.00    -0.258 OA
ATOM     23  O   UNL A   1      33.868  17.423  23.919  1.00  0.00    -0.258 OA
ENDBRANCH  18  21
ENDBRANCH  12  15
ENDBRANCH   6  11
ENDBRANCH   3   6
ENDBRANCH   1   2
BRANCH   1  24
ATOM     24  C   UNL A   1      33.826  28.467  25.389  1.00  0.00     0.042 C 
BRANCH  24  25
ATOM     25  C   UNL A   1      34.598  28.592  26.701  1.00  0.00     0.118 C 
BRANCH  25  26
ATOM     26  N   UNL A   1      34.882  29.965  27.062  1.00  0.00    -0.352 N 
ATOM     27  C   UNL A   1      35.956  30.511  27.720  1.00  0.00     0.251 C 
ATOM     28  H   UNL A   1      34.192  30.613  26.792  1.00  0.00     0.163 HD
ATOM     29  O   UNL A   1      35.867  31.683  28.087  1.00  0.00    -0.269 OA
BRANCH  27  30
ATOM     30  C   UNL A   1      37.193  29.753  28.037  1.00  0.00     0.039 A 
ATOM     31  C   UNL A   1      38.209  29.757  27.069  1.00  0.00     0.014 A 
ATOM     32  C   UNL A   1      37.348  28.960  29.180  1.00  0.00     0.014 A 
ATOM     33  C   UNL A   1      39.379  29.025  27.264  1.00  0.00     0.010 A 
ATOM     34  C   UNL A   1      38.526  28.228  29.384  1.00  0.00     0.010 A 
ATOM     35  C   UNL A   1      39.553  28.276  28.433  1.00  0.00    -0.014 A 
BRANCH  35  36
ATOM     36  C   UNL A   1      40.899  27.698  28.702  1.00  0.00     0.031 A 
ATOM     37  C   UNL A   1      41.021  26.249  28.192  1.00  0.00     0.074 A 
ATOM     38  C   UNL A   1      41.799  28.460  29.395  1.00  0.00     0.049 A 
ATOM     39  N   UNL A   1      41.781  25.275  28.599  1.00  0.00    -0.248 NA
ATOM     40  C   UNL A   1      40.112  25.796  27.104  1.00  0.00     0.031 C 
ATOM     41  C   UNL A   1      41.565  29.861  29.794  1.00  0.00     0.029 A 
ATOM     42  N   UNL A   1      43.064  28.233  29.913  1.00  0.00    -0.354 N 
ATOM     43  C   UNL A   1      41.569  24.175  27.735  1.00  0.00     0.074 A 
ATOM     44  C   UNL A   1      40.463  24.525  26.898  1.00  0.00     0.031 C 
ATOM     45  C   UNL A   1      42.592  30.328  30.535  1.00  0.00     0.029 A 
ATOM     46  C   UNL A   1      43.600  29.296  30.692  1.00  0.00     0.049 A 
ATOM     47  H   UNL A   1      43.556  27.396  29.754  1.00  0.00     0.167 HD
ATOM     48  C   UNL A   1      42.392  23.085  27.687  1.00  0.00     0.037 A 
ATOM     49  C   UNL A   1      44.744  29.333  31.448  1.00  0.00     0.037 A 
ATOM     50  C   UNL A   1      43.400  23.188  28.684  1.00  0.00     0.049 A 
ATOM     51  C   UNL A   1      45.422  28.052  31.206  1.00  0.00     0.074 A 
ATOM     52  C   UNL A   1      43.390  23.023  30.042  1.00  0.00     0.029 A 
ATOM     53  N   UNL A   1      44.580  23.778  28.315  1.00  0.00    -0.354 N 
ATOM     54  N   UNL A   1      46.096  27.757  30.136  1.00  0.00    -0.248 NA
ATOM     55  C   UNL A   1      45.305  26.996  32.221  1.00  0.00     0.031 C 
ATOM     56  C   UNL A   1      44.393  23.900  30.502  1.00  0.00     0.029 A 
ATOM     57  C   UNL A   1      45.052  24.464  29.403  1.00  0.00     0.049 A 
ATOM     58  H   UNL A   1      45.009  23.720  27.430  1.00  0.00     0.167 HD
ATOM     59  C   UNL A   1      46.197  26.389  30.228  1.00  0.00     0.074 A 
ATOM     60  C   UNL A   1      46.012  26.047  31.617  1.00  0.00     0.031 C 
ATOM     61  C   UNL A   1      45.868  25.628  29.156  1.00  0.00     0.037 A 
BRANCH  48  62
ATOM     62  C   UNL A   1      42.553  21.976  26.678  1.00  0.00     0.064 A 
ATOM     63  C   UNL A   1      42.034  20.693  27.000  1.00  0.00     0.173 A 
ATOM     64  C   UNL A   1      43.475  22.016  25.626  1.00  0.00     0.173 A 
ATOM     65  F   UNL A   1      41.101  20.548  27.955  1.00  0.00    -0.203 F 
ATOM     66  C   UNL A   1      42.520  19.526  26.415  1.00  0.00     0.198 A 
ATOM     67  C   UNL A   1      43.922  20.844  25.004  1.00  0.00     0.198 A 
ATOM     68  F   UNL A   1      44.040  23.168  25.241  1.00  0.00    -0.203 F 
ATOM     69  F   UNL A   1      42.106  18.331  26.861  1.00  0.00    -0.200 F 
ATOM     70  C   UNL A   1      43.482  19.602  25.429  1.00  0.00     0.200 A 
ATOM     71  F   UNL A   1      44.847  20.921  24.035  1.00  0.00    -0.200 F 
ATOM     72  F   UNL A   1      44.007  18.482  24.913  1.00  0.00    -0.200 F 
ENDBRANCH  48  62
BRANCH  49  73
ATOM     73  C   UNL A   1      45.413  30.247  32.465  1.00  0.00     0.064 A 
ATOM     74  C   UNL A   1      44.917  30.583  33.730  1.00  0.00     0.173 A 
ATOM     75  C   UNL A   1      46.696  30.815  32.188  1.00  0.00     0.173 A 
ATOM     76  F   UNL A   1      43.675  30.254  34.096  1.00  0.00    -0.203 F 
ATOM     77  C   UNL A   1      45.679  31.307  34.670  1.00  0.00     0.198 A 
ATOM     78  C   UNL A   1      47.469  31.495  33.130  1.00  0.00     0.198 A 
ATOM     79  F   UNL A   1      47.260  30.737  30.975  1.00  0.00    -0.203 F 
ATOM     80  F   UNL A   1      45.157  31.589  35.872  1.00  0.00    -0.200 F 
ATOM     81  C   UNL A   1      46.966  31.727  34.384  1.00  0.00     0.200 A 
ATOM     82  F   UNL A   1      48.704  31.905  32.806  1.00  0.00    -0.200 F 
ATOM     83  F   UNL A   1      47.708  32.364  35.301  1.00  0.00    -0.200 F 
ENDBRANCH  49  73
BRANCH  61  84
ATOM     84  C   UNL A   1      46.027  26.343  27.834  1.00  0.00     0.064 A 
ATOM     85  C   UNL A   1      47.312  26.627  27.351  1.00  0.00     0.173 A 
ATOM     86  C   UNL A   1      44.953  26.863  27.093  1.00  0.00     0.173 A 
ATOM     87  F   UNL A   1      48.388  26.161  28.002  1.00  0.00    -0.203 F 
ATOM     88  C   UNL A   1      47.506  27.387  26.195  1.00  0.00     0.198 A 
ATOM     89  C   UNL A   1      45.142  27.611  25.931  1.00  0.00     0.198 A 
ATOM     90  F   UNL A   1      43.696  26.654  27.484  1.00  0.00    -0.203 F 
ATOM     91  F   UNL A   1      48.751  27.637  25.763  1.00  0.00    -0.200 F 
ATOM     92  C   UNL A   1      46.423  27.878  25.485  1.00  0.00     0.200 A 
ATOM     93  F   UNL A   1      44.084  28.061  25.240  1.00  0.00    -0.200 F 
ATOM     94  F   UNL A   1      46.612  28.591  24.365  1.00  0.00    -0.200 F 
ENDBRANCH  61  84
ENDBRANCH  35  36
ENDBRANCH  27  30
ENDBRANCH  25  26
ENDBRANCH  24  25
ENDBRANCH   1  24
TORSDOF 15
ENDMDL
MODEL 2
REMARK VINA RESULT:     -11.8      2.447      4.111
REMARK SMILES CCC(CC)(NC(=O)c1cc([N+](=O)[O-])c[nH]1)C(=O)NCCCNC(=O)c1ccc(-c2c3nc(c(-c4c(F)c(F)c(F)c(F)c4F)c4ccc([nH]4)c(-c4c(F)c(F)c(F)c(F)c4F)c4nc(c(-c5c(F)c(F)c(F)c(F)c5F)c5ccc2[nH]5)C=C4)C=C3)cc1
REMARK SMILES IDX 20 1 19 2 17 3 18 4 3 6 2 7 1 8 4 9 5 10 6 11 7 12 8 14 9 15
REMARK SMILES IDX 10 16 16 17 11 18 15 19 12 21 13 22 14 23 21 24 22 25 23 26
REMARK SMILES IDX 24 27 25 29 26 30 27 31 88 32 28 33 87 34 29 35 30 36 31 37
REMARK SMILES IDX 81 38 32 39 86 40 80 41 82 42 33 43 85 44 79 45 78 46 34 48
REMARK SMILES IDX 66 49 46 50 65 51 47 52 50 53 64 54 83 55 48 56 49 57 63 59
REMARK SMILES IDX 84 60 51 61 35 62 36 63 44 64 37 65 38 66 42 67 45 68 39 69
REMARK SMILES IDX 40 70 43 71 41 72 67 73 68 74 76 75 69 76 70 77 74 78 77 79
REMARK SMILES IDX 71 80 72 81 75 82 73 83 52 84 53 85 61 86 54 87 55 88 59 89
REMARK SMILES IDX 62 90 56 91 57 92 60 93 58 94
REMARK H PARENT 19 5 6 13 16 20 23 28 82 47 50 58
REMARK Flexibility Score: inf
ROOT
ATOM      1  C   UNL A   1      32.387  27.435  27.253  1.00  0.00     0.117 C 
ENDROOT
BRANCH   1   2
ATOM      2  N   UNL A   1      31.107  26.995  26.707  1.00  0.00    -0.354 N 
ATOM      3  C   UNL A   1      30.746  26.217  25.631  1.00  0.00     0.245 C 
ATOM      4  O   UNL A   1      29.552  25.912  25.559  1.00  0.00    -0.272 OA
ATOM      5  H   UNL A   1      30.334  27.327  27.219  1.00  0.00     0.163 HD
BRANCH   3   6
ATOM      6  C   UNL A   1      31.787  25.647  24.628  1.00  0.00     0.118 C 
BRANCH   6   7
ATOM      7  C   UNL A   1      31.178  24.840  23.439  1.00  0.00     0.035 C 
ATOM      8  C   UNL A   1      31.153  23.319  23.523  1.00  0.00     0.007 C 
ENDBRANCH   6   7
BRANCH   6   9
ATOM      9  C   UNL A   1      32.666  24.707  25.525  1.00  0.00     0.035 C 
ATOM     10  C   UNL A   1      34.177  24.836  25.421  1.00  0.00     0.007 C 
ENDBRANCH   6   9
BRANCH   6  11
ATOM     11  N   UNL A   1      32.584  26.749  24.022  1.00  0.00    -0.336 N 
ATOM     12  C   UNL A   1      32.191  27.766  23.170  1.00  0.00     0.268 C 
ATOM     13  H   UNL A   1      33.537  26.754  24.265  1.00  0.00     0.165 HD
ATOM     14  O   UNL A   1      33.031  28.115  22.338  1.00  0.00    -0.268 OA
BRANCH  12  15
ATOM     15  C   UNL A   1      30.910  28.461  23.237  1.00  0.00     0.111 A 
ATOM     16  C   UNL A   1      30.471  29.648  23.795  1.00  0.00     0.119 A 
ATOM     17  N   UNL A   1      29.815  27.997  22.512  1.00  0.00    -0.351 N 
ATOM     18  C   UNL A   1      29.141  29.923  23.388  1.00  0.00     0.287 A 
ATOM     19  C   UNL A   1      28.755  28.870  22.592  1.00  0.00     0.169 A 
ATOM     20  H   UNL A   1      29.801  27.152  22.007  1.00  0.00     0.166 HD
BRANCH  18  21
ATOM     21  N   UNL A   1      28.386  31.112  23.697  1.00  0.00     0.064 N 
ATOM     22  O   UNL A   1      27.159  31.002  23.793  1.00  0.00    -0.258 OA
ATOM     23  O   UNL A   1      29.028  32.170  23.782  1.00  0.00    -0.258 OA
ENDBRANCH  18  21
ENDBRANCH  12  15
ENDBRANCH   6  11
ENDBRANCH   3   6
ENDBRANCH   1   2
BRANCH   1  24
ATOM     24  C   UNL A   1      33.010  28.709  26.668  1.00  0.00     0.042 C 
BRANCH  24  25
ATOM     25  C   UNL A   1      34.512  28.902  26.866  1.00  0.00     0.118 C 
BRANCH  25  26
ATOM     26  N   UNL A   1      34.876  30.278  27.130  1.00  0.00    -0.352 N 
ATOM     27  C   UNL A   1      35.971  30.805  27.769  1.00  0.00     0.251 C 
ATOM     28  H   UNL A   1      34.234  30.946  26.796  1.00  0.00     0.163 HD
ATOM     29  O   UNL A   1      35.951  32.005  28.046  1.00  0.00    -0.269 OA
BRANCH  27  30
ATOM     30  C   UNL A   1      37.152  29.998  28.169  1.00  0.00     0.039 A 
ATOM     31  C   UNL A   1      38.250  29.999  27.296  1.00  0.00     0.014 A 
ATOM     32  C   UNL A   1      37.180  29.166  29.294  1.00  0.00     0.014 A 
ATOM     33  C   UNL A   1      39.376  29.223  27.569  1.00  0.00     0.010 A 
ATOM     34  C   UNL A   1      38.312  28.390  29.577  1.00  0.00     0.010 A 
ATOM     35  C   UNL A   1      39.422  28.433  28.724  1.00  0.00    -0.014 A 
BRANCH  35  36
ATOM     36  C   UNL A   1      40.720  27.804  29.091  1.00  0.00     0.031 A 
ATOM     37  C   UNL A   1      40.984  26.510  28.297  1.00  0.00     0.074 A 
ATOM     38  C   UNL A   1      41.455  28.383  30.089  1.00  0.00     0.049 A 
ATOM     39  N   UNL A   1      41.696  25.465  28.602  1.00  0.00    -0.248 NA
ATOM     40  C   UNL A   1      40.297  26.323  26.990  1.00  0.00     0.031 C 
ATOM     41  C   UNL A   1      41.103  29.656  30.746  1.00  0.00     0.029 A 
ATOM     42  N   UNL A   1      42.617  28.038  30.761  1.00  0.00    -0.354 N 
ATOM     43  C   UNL A   1      41.681  24.594  27.488  1.00  0.00     0.074 A 
ATOM     44  C   UNL A   1      40.726  25.131  26.568  1.00  0.00     0.031 C 
ATOM     45  C   UNL A   1      41.966  29.936  31.746  1.00  0.00     0.029 A 
ATOM     46  C   UNL A   1      42.968  28.891  31.844  1.00  0.00     0.049 A 
ATOM     47  H   UNL A   1      43.161  27.257  30.508  1.00  0.00     0.167 HD
ATOM     48  C   UNL A   1      42.539  23.541  27.344  1.00  0.00     0.037 A 
ATOM     49  C   UNL A   1      43.959  28.749  32.782  1.00  0.00     0.037 A 
ATOM     50  C   UNL A   1      43.352  23.408  28.502  1.00  0.00     0.049 A 
ATOM     51  C   UNL A   1      44.717  27.555  32.380  1.00  0.00     0.074 A 
ATOM     52  C   UNL A   1      43.110  22.936  29.763  1.00  0.00     0.029 A 
ATOM     53  N   UNL A   1      44.556  24.063  28.494  1.00  0.00    -0.354 N 
ATOM     54  N   UNL A   1      45.579  27.511  31.410  1.00  0.00    -0.248 NA
ATOM     55  C   UNL A   1      44.463  26.295  33.093  1.00  0.00     0.031 C 
ATOM     56  C   UNL A   1      43.984  23.680  30.582  1.00  0.00     0.029 A 
ATOM     57  C   UNL A   1      44.803  24.479  29.776  1.00  0.00     0.049 A 
ATOM     58  H   UNL A   1      45.135  24.208  27.711  1.00  0.00     0.167 HD
ATOM     59  C   UNL A   1      45.714  26.158  31.207  1.00  0.00     0.074 A 
ATOM     60  C   UNL A   1      45.300  25.507  32.426  1.00  0.00     0.031 C 
ATOM     61  C   UNL A   1      45.606  25.665  29.949  1.00  0.00     0.037 A 
BRANCH  48  62
ATOM     62  C   UNL A   1      42.917  22.692  26.156  1.00  0.00     0.064 A 
ATOM     63  C   UNL A   1      42.853  21.279  26.291  1.00  0.00     0.173 A 
ATOM     64  C   UNL A   1      43.658  23.170  25.068  1.00  0.00     0.173 A 
ATOM     65  F   UNL A   1      42.123  20.713  27.265  1.00  0.00    -0.203 F 
ATOM     66  C   UNL A   1      43.603  20.422  25.489  1.00  0.00     0.198 A 
ATOM     67  C   UNL A   1      44.369  22.300  24.232  1.00  0.00     0.198 A 
ATOM     68  F   UNL A   1      43.797  24.483  24.846  1.00  0.00    -0.203 F 
ATOM     69  F   UNL A   1      43.627  19.107  25.754  1.00  0.00    -0.200 F 
ATOM     70  C   UNL A   1      44.378  20.936  24.471  1.00  0.00     0.200 A 
ATOM     71  F   UNL A   1      45.110  22.801  23.234  1.00  0.00    -0.200 F 
ATOM     72  F   UNL A   1      45.159  20.125  23.743  1.00  0.00    -0.200 F 
ENDBRANCH  48  62
BRANCH  49  73
ATOM     73  C   UNL A   1      44.405  29.403  34.082  1.00  0.00     0.064 A 
ATOM     74  C   UNL A   1      45.650  29.992  34.329  1.00  0.00     0.173 A 
ATOM     75  C   UNL A   1      43.499  29.502  35.184  1.00  0.00     0.173 A 
ATOM     76  F   UNL A   1      46.658  29.868  33.462  1.00  0.00    -0.203 F 
ATOM     77  C   UNL A   1      45.919  30.717  35.508  1.00  0.00     0.198 A 
ATOM     78  C   UNL A   1      43.748  30.254  36.334  1.00  0.00     0.198 A 
ATOM     79  F   UNL A   1      42.322  28.863  35.196  1.00  0.00    -0.203 F 
ATOM     80  F   UNL A   1      47.127  31.271  35.686  1.00  0.00    -0.200 F 
ATOM     81  C   UNL A   1      44.958  30.880  36.490  1.00  0.00     0.200 A 
ATOM     82  F   UNL A   1      42.796  30.369  37.272  1.00  0.00    -0.200 F 
ATOM     83  F   UNL A   1      45.199  31.617  37.582  1.00  0.00    -0.200 F 
ENDBRANCH  49  73
BRANCH  61  84
ATOM     84  C   UNL A   1      45.968  26.664  28.874  1.00  0.00     0.064 A 
ATOM     85  C   UNL A   1      47.313  26.998  28.664  1.00  0.00     0.173 A 
ATOM     86  C   UNL A   1      45.021  27.389  28.132  1.00  0.00     0.173 A 
ATOM     87  F   UNL A   1      48.275  26.346  29.334  1.00  0.00    -0.203 F 
ATOM     88  C   UNL A   1      47.685  28.000  27.765  1.00  0.00     0.198 A 
ATOM     89  C   UNL A   1      45.390  28.381  27.223  1.00  0.00     0.198 A 
ATOM     90  F   UNL A   1      43.719  27.149  28.276  1.00  0.00    -0.203 F 
ATOM     91  F   UNL A   1      48.983  28.290  27.590  1.00  0.00    -0.200 F 
ATOM     92  C   UNL A   1      46.725  28.690  27.043  1.00  0.00     0.200 A 
ATOM     93  F   UNL A   1      44.451  29.026  26.514  1.00  0.00    -0.200 F 
ATOM     94  F   UNL A   1      47.086  29.638  26.166  1.00  0.00    -0.200 F 
ENDBRANCH  61  84
ENDBRANCH  35  36
ENDBRANCH  27  30
ENDBRANCH  25  26
ENDBRANCH  24  25
ENDBRANCH   1  24
TORSDOF 15
ENDMDL
MODEL 3
REMARK VINA RESULT:     -11.8      1.122      2.051
REMARK SMILES CCC(CC)(NC(=O)c1cc([N+](=O)[O-])c[nH]1)C(=O)NCCCNC(=O)c1ccc(-c2c3nc(c(-c4c(F)c(F)c(F)c(F)c4F)c4ccc([nH]4)c(-c4c(F)c(F)c(F)c(F)c4F)c4nc(c(-c5c(F)c(F)c(F)c(F)c5F)c5ccc2[nH]5)C=C4)C=C3)cc1
REMARK SMILES IDX 20 1 19 2 17 3 18 4 3 6 2 7 1 8 4 9 5 10 6 11 7 12 8 14 9 15
REMARK SMILES IDX 10 16 16 17 11 18 15 19 12 21 13 22 14 23 21 24 22 25 23 26
REMARK SMILES IDX 24 27 25 29 26 30 27 31 88 32 28 33 87 34 29 35 30 36 31 37
REMARK SMILES IDX 81 38 32 39 86 40 80 41 82 42 33 43 85 44 79 45 78 46 34 48
REMARK SMILES IDX 66 49 46 50 65 51 47 52 50 53 64 54 83 55 48 56 49 57 63 59
REMARK SMILES IDX 84 60 51 61 35 62 36 63 44 64 37 65 38 66 42 67 45 68 39 69
REMARK SMILES IDX 40 70 43 71 41 72 67 73 68 74 76 75 69 76 70 77 74 78 77 79
REMARK SMILES IDX 71 80 72 81 75 82 73 83 52 84 53 85 61 86 54 87 55 88 59 89
REMARK SMILES IDX 62 90 56 91 57 92 60 93 58 94
REMARK H PARENT 19 5 6 13 16 20 23 28 82 47 50 58
REMARK Flexibility Score: inf
ROOT
ATOM      1  C   UNL A   1      32.263  28.645  26.150  1.00  0.00     0.117 C 
ENDROOT
BRANCH   1   2
ATOM      2  N   UNL A   1      31.294  27.622  25.774  1.00  0.00    -0.354 N 
ATOM      3  C   UNL A   1      31.199  26.738  24.723  1.00  0.00     0.245 C 
ATOM      4  O   UNL A   1      30.309  25.887  24.810  1.00  0.00    -0.272 OA
ATOM      5  H   UNL A   1      30.545  27.547  26.409  1.00  0.00     0.163 HD
BRANCH   3   6
ATOM      6  C   UNL A   1      32.221  26.724  23.552  1.00  0.00     0.118 C 
BRANCH   6   7
ATOM      7  C   UNL A   1      32.530  28.124  22.935  1.00  0.00     0.035 C 
ATOM      8  C   UNL A   1      33.983  28.569  22.821  1.00  0.00     0.007 C 
ENDBRANCH   6   7
BRANCH   6   9
ATOM      9  C   UNL A   1      31.527  25.805  22.487  1.00  0.00     0.035 C 
ATOM     10  C   UNL A   1      32.243  25.585  21.165  1.00  0.00     0.007 C 
ENDBRANCH   6   9
BRANCH   6  11
ATOM     11  N   UNL A   1      33.525  26.170  24.006  1.00  0.00    -0.336 N 
ATOM     12  C   UNL A   1      33.797  25.062  24.790  1.00  0.00     0.268 C 
ATOM     13  H   UNL A   1      34.317  26.670  23.702  1.00  0.00     0.165 HD
ATOM     14  O   UNL A   1      34.777  25.164  25.531  1.00  0.00    -0.268 OA
BRANCH  12  15
ATOM     15  C   UNL A   1      33.054  23.807  24.746  1.00  0.00     0.111 A 
ATOM     16  C   UNL A   1      33.166  22.631  24.026  1.00  0.00     0.119 A 
ATOM     17  N   UNL A   1      32.048  23.548  25.674  1.00  0.00    -0.351 N 
ATOM     18  C   UNL A   1      32.267  21.657  24.530  1.00  0.00     0.287 A 
ATOM     19  C   UNL A   1      31.577  22.262  25.555  1.00  0.00     0.169 A 
ATOM     20  H   UNL A   1      31.716  24.203  26.330  1.00  0.00     0.166 HD
BRANCH  18  21
ATOM     21  N   UNL A   1      32.164  20.288  24.091  1.00  0.00     0.064 N 
ATOM     22  O   UNL A   1      32.158  19.408  24.959  1.00  0.00    -0.258 OA
ATOM     23  O   UNL A   1      32.152  20.098  22.866  1.00  0.00    -0.258 OA
ENDBRANCH  18  21
ENDBRANCH  12  15
ENDBRANCH   6  11
ENDBRANCH   3   6
ENDBRANCH   1   2
BRANCH   1  24
ATOM     24  C   UNL A   1      33.536  28.189  26.876  1.00  0.00     0.042 C 
BRANCH  24  25
ATOM     25  C   UNL A   1      34.831  28.923  26.536  1.00  0.00     0.118 C 
BRANCH  25  26
ATOM     26  N   UNL A   1      34.991  30.160  27.272  1.00  0.00    -0.352 N 
ATOM     27  C   UNL A   1      35.952  30.545  28.173  1.00  0.00     0.251 C 
ATOM     28  H   UNL A   1      34.296  30.836  27.098  1.00  0.00     0.163 HD
ATOM     29  O   UNL A   1      35.753  31.576  28.818  1.00  0.00    -0.269 OA
BRANCH  27  30
ATOM     30  C   UNL A   1      37.191  29.768  28.429  1.00  0.00     0.039 A 
ATOM     31  C   UNL A   1      38.181  29.801  27.436  1.00  0.00     0.014 A 
ATOM     32  C   UNL A   1      37.370  28.933  29.538  1.00  0.00     0.014 A 
ATOM     33  C   UNL A   1      39.351  29.055  27.573  1.00  0.00     0.010 A 
ATOM     34  C   UNL A   1      38.547  28.186  29.684  1.00  0.00     0.010 A 
ATOM     35  C   UNL A   1      39.550  28.262  28.709  1.00  0.00    -0.014 A 
BRANCH  35  36
ATOM     36  C   UNL A   1      40.898  27.666  28.921  1.00  0.00     0.031 A 
ATOM     37  C   UNL A   1      40.990  26.229  28.373  1.00  0.00     0.074 A 
ATOM     38  C   UNL A   1      41.826  28.403  29.603  1.00  0.00     0.049 A 
ATOM     39  N   UNL A   1      41.753  25.238  28.731  1.00  0.00    -0.248 NA
ATOM     40  C   UNL A   1      40.042  25.811  27.303  1.00  0.00     0.031 C 
ATOM     41  C   UNL A   1      41.619  29.796  30.042  1.00  0.00     0.029 A 
ATOM     42  N   UNL A   1      43.105  28.152  30.075  1.00  0.00    -0.354 N 
ATOM     43  C   UNL A   1      41.503  24.162  27.848  1.00  0.00     0.074 A 
ATOM     44  C   UNL A   1      40.375  24.542  27.056  1.00  0.00     0.031 C 
ATOM     45  C   UNL A   1      42.673  30.235  30.762  1.00  0.00     0.029 A 
ATOM     46  C   UNL A   1      43.676  29.191  30.862  1.00  0.00     0.049 A 
ATOM     47  H   UNL A   1      43.584  27.315  29.881  1.00  0.00     0.167 HD
ATOM     48  C   UNL A   1      42.314  23.066  27.749  1.00  0.00     0.037 A 
ATOM     49  C   UNL A   1      44.843  29.200  31.582  1.00  0.00     0.037 A 
ATOM     50  C   UNL A   1      43.354  23.136  28.715  1.00  0.00     0.049 A 
ATOM     51  C   UNL A   1      45.501  27.919  31.287  1.00  0.00     0.074 A 
ATOM     52  C   UNL A   1      43.385  22.938  30.069  1.00  0.00     0.029 A 
ATOM     53  N   UNL A   1      44.527  23.725  28.323  1.00  0.00    -0.354 N 
ATOM     54  N   UNL A   1      46.138  27.644  30.190  1.00  0.00    -0.248 NA
ATOM     55  C   UNL A   1      45.406  26.840  32.281  1.00  0.00     0.031 C 
ATOM     56  C   UNL A   1      44.411  23.795  30.517  1.00  0.00     0.029 A 
ATOM     57  C   UNL A   1      45.039  24.379  29.412  1.00  0.00     0.049 A 
ATOM     58  H   UNL A   1      44.927  23.684  27.424  1.00  0.00     0.167 HD
ATOM     59  C   UNL A   1      46.229  26.273  30.245  1.00  0.00     0.074 A 
ATOM     60  C   UNL A   1      46.085  25.899  31.632  1.00  0.00     0.031 C 
ATOM     61  C   UNL A   1      45.859  25.542  29.167  1.00  0.00     0.037 A 
BRANCH  48  62
ATOM     62  C   UNL A   1      42.432  21.981  26.709  1.00  0.00     0.064 A 
ATOM     63  C   UNL A   1      41.896  20.700  27.009  1.00  0.00     0.173 A 
ATOM     64  C   UNL A   1      43.332  22.031  25.638  1.00  0.00     0.173 A 
ATOM     65  F   UNL A   1      40.982  20.547  27.981  1.00  0.00    -0.203 F 
ATOM     66  C   UNL A   1      42.348  19.539  26.384  1.00  0.00     0.198 A 
ATOM     67  C   UNL A   1      43.744  20.867  24.976  1.00  0.00     0.198 A 
ATOM     68  F   UNL A   1      43.910  23.182  25.270  1.00  0.00    -0.203 F 
ATOM     69  F   UNL A   1      41.921  18.341  26.809  1.00  0.00    -0.200 F 
ATOM     70  C   UNL A   1      43.289  19.623  25.380  1.00  0.00     0.200 A 
ATOM     71  F   UNL A   1      44.648  20.952  23.990  1.00  0.00    -0.200 F 
ATOM     72  F   UNL A   1      43.782  18.508  24.824  1.00  0.00    -0.200 F 
ENDBRANCH  48  62
BRANCH  49  73
ATOM     73  C   UNL A   1      45.553  30.083  32.599  1.00  0.00     0.064 A 
ATOM     74  C   UNL A   1      46.716  30.830  32.379  1.00  0.00     0.173 A 
ATOM     75  C   UNL A   1      45.008  30.249  33.911  1.00  0.00     0.173 A 
ATOM     76  F   UNL A   1      47.430  30.684  31.260  1.00  0.00    -0.203 F 
ATOM     77  C   UNL A   1      47.213  31.746  33.329  1.00  0.00     0.198 A 
ATOM     78  C   UNL A   1      45.473  31.186  34.836  1.00  0.00     0.198 A 
ATOM     79  F   UNL A   1      43.993  29.500  34.359  1.00  0.00    -0.203 F 
ATOM     80  F   UNL A   1      48.324  32.444  33.059  1.00  0.00    -0.200 F 
ATOM     81  C   UNL A   1      46.571  31.951  34.537  1.00  0.00     0.200 A 
ATOM     82  F   UNL A   1      44.835  31.339  36.006  1.00  0.00    -0.200 F 
ATOM     83  F   UNL A   1      47.014  32.865  35.412  1.00  0.00    -0.200 F 
ENDBRANCH  49  73
BRANCH  61  84
ATOM     84  C   UNL A   1      45.983  26.288  27.858  1.00  0.00     0.064 A 
ATOM     85  C   UNL A   1      47.254  26.554  27.331  1.00  0.00     0.173 A 
ATOM     86  C   UNL A   1      44.893  26.851  27.174  1.00  0.00     0.173 A 
ATOM     87  F   UNL A   1      48.343  26.047  27.927  1.00  0.00    -0.203 F 
ATOM     88  C   UNL A   1      47.421  27.340  26.188  1.00  0.00     0.198 A 
ATOM     89  C   UNL A   1      45.055  27.625  26.025  1.00  0.00     0.198 A 
ATOM     90  F   UNL A   1      43.648  26.662  27.610  1.00  0.00    -0.203 F 
ATOM     91  F   UNL A   1      48.654  27.571  25.713  1.00  0.00    -0.200 F 
ATOM     92  C   UNL A   1      46.323  27.874  25.534  1.00  0.00     0.200 A 
ATOM     93  F   UNL A   1      43.981  28.117  25.389  1.00  0.00    -0.200 F 
ATOM     94  F   UNL A   1      46.485  28.611  24.426  1.00  0.00    -0.200 F 
ENDBRANCH  61  84
ENDBRANCH  35  36
ENDBRANCH  27  30
ENDBRANCH  25  26
ENDBRANCH  24  25
ENDBRANCH   1  24
TORSDOF 15
ENDMDL
