MODEL 1
REMARK VINA RESULT:     -13.6      0.000      0.000
REMARK SMILES C[C@](CC(=O)Nc1sc2c(c1C#N)CCC2)(C(=O)NCCCNC(=O)c1ccc(-c2c3nc(c(-c4c(F)c(F)c(F)c(F)c4F)c4ccc([nH]4)c(-c4c(F)c(F)c(F)c(F)c4F)c4nc(c(-c5c(F)c(F)c(F)c(F)c5F)c5ccc2[nH]5)C=C4)C=C3)cc1)c1ccccc1
REMARK SMILES IDX 20 1 19 2 17 3 18 4 2 6 1 7 89 8 90 9 94 10 91 11 93 12
REMARK SMILES IDX 92 13 3 14 4 15 5 16 6 17 7 19 8 20 11 21 9 22 10 23 16 24
REMARK SMILES IDX 14 25 15 26 12 27 13 28 21 29 22 30 23 31 24 32 25 34 26 35
REMARK SMILES IDX 27 36 88 37 28 38 87 39 29 40 30 41 31 42 81 43 32 44 86 45
REMARK SMILES IDX 80 46 82 47 33 48 85 49 79 50 78 51 34 53 66 54 46 55 65 56
REMARK SMILES IDX 47 57 50 58 64 59 83 60 48 61 49 62 63 64 84 65 51 66 35 67
REMARK SMILES IDX 36 68 44 69 37 70 38 71 42 72 45 73 39 74 40 75 43 76 41 77
REMARK SMILES IDX 67 78 68 79 76 80 69 81 70 82 74 83 77 84 71 85 72 86 75 87
REMARK SMILES IDX 73 88 52 89 53 90 61 91 54 92 55 93 59 94 62 95 56 96 57 97
REMARK SMILES IDX 60 98 58 99
REMARK H PARENT 19 5 6 18 23 33 82 52 50 63
REMARK Flexibility Score: inf
ROOT
ATOM      1  C   UNL A   1      36.824  22.471  25.411  1.00  0.00     0.117 C 
ENDROOT
BRANCH   1   2
ATOM      2  N   UNL A   1      35.833  22.606  26.497  1.00  0.00    -0.355 N 
ATOM      3  C   UNL A   1      34.506  23.056  26.544  1.00  0.00     0.230 C 
ATOM      4  O   UNL A   1      33.968  22.889  27.650  1.00  0.00    -0.274 OA
ATOM      5  H   UNL A   1      36.177  22.320  27.374  1.00  0.00     0.163 HD
BRANCH   3   6
ATOM      6  C   UNL A   1      33.669  23.806  25.359  1.00  0.00     0.080 C 
ATOM      7  C   UNL A   1      34.225  24.809  24.283  1.00  0.00     0.027 C 
BRANCH   6   8
ATOM      8  C   UNL A   1      33.136  22.630  24.447  1.00  0.00    -0.032 A 
ATOM      9  C   UNL A   1      32.713  22.805  23.127  1.00  0.00     0.005 A 
ATOM     10  C   UNL A   1      32.985  21.316  24.981  1.00  0.00     0.005 A 
ATOM     11  C   UNL A   1      32.241  21.708  22.378  1.00  0.00     0.000 A 
ATOM     12  C   UNL A   1      32.579  20.220  24.224  1.00  0.00     0.000 A 
ATOM     13  C   UNL A   1      32.204  20.417  22.911  1.00  0.00     0.000 A 
ENDBRANCH   6   8
BRANCH   6  14
ATOM     14  C   UNL A   1      32.665  24.739  26.003  1.00  0.00     0.121 C 
BRANCH  14  15
ATOM     15  C   UNL A   1      31.157  24.386  25.804  1.00  0.00     0.226 C 
ATOM     16  O   UNL A   1      30.683  23.613  26.658  1.00  0.00    -0.275 OA
ATOM     17  N   UNL A   1      30.210  24.881  24.930  1.00  0.00    -0.317 N 
ATOM     18  H   UNL A   1      29.379  24.354  24.981  1.00  0.00     0.170 HD
BRANCH  17  19
ATOM     19  C   UNL A   1      30.085  25.911  23.992  1.00  0.00     0.114 A 
ATOM     20  S   UNL A   1      28.414  26.487  23.991  1.00  0.00    -0.121 S 
ATOM     21  C   UNL A   1      30.756  26.629  22.997  1.00  0.00     0.090 A 
ATOM     22  C   UNL A   1      28.875  27.904  23.234  1.00  0.00     0.011 A 
ATOM     23  C   UNL A   1      30.186  27.911  22.873  1.00  0.00    -0.014 A 
ATOM     24  C   UNL A   1      28.179  29.140  22.805  1.00  0.00     0.047 C 
ATOM     25  C   UNL A   1      30.586  29.198  22.242  1.00  0.00     0.038 C 
ATOM     26  C   UNL A   1      29.404  30.110  22.669  1.00  0.00     0.010 C 
BRANCH  21  27
ATOM     27  C   UNL A   1      31.812  26.307  22.101  1.00  0.00     0.103 C 
ATOM     28  N   UNL A   1      32.567  25.976  21.265  1.00  0.00    -0.192 NA
ENDBRANCH  21  27
ENDBRANCH  17  19
ENDBRANCH  14  15
ENDBRANCH   6  14
ENDBRANCH   3   6
ENDBRANCH   1   2
BRANCH   1  29
ATOM     29  C   UNL A   1      37.745  21.257  25.169  1.00  0.00     0.042 C 
BRANCH  29  30
ATOM     30  C   UNL A   1      39.056  21.203  25.927  1.00  0.00     0.118 C 
BRANCH  30  31
ATOM     31  N   UNL A   1      39.931  20.018  25.801  1.00  0.00    -0.352 N 
ATOM     32  C   UNL A   1      41.321  19.925  25.997  1.00  0.00     0.251 C 
ATOM     33  H   UNL A   1      39.480  19.181  25.546  1.00  0.00     0.163 HD
ATOM     34  O   UNL A   1      41.922  18.872  25.810  1.00  0.00    -0.269 OA
BRANCH  32  35
ATOM     35  C   UNL A   1      42.072  21.120  26.472  1.00  0.00     0.039 A 
ATOM     36  C   UNL A   1      42.605  22.133  25.674  1.00  0.00     0.014 A 
ATOM     37  C   UNL A   1      42.185  21.232  27.841  1.00  0.00     0.014 A 
ATOM     38  C   UNL A   1      43.066  23.310  26.294  1.00  0.00     0.010 A 
ATOM     39  C   UNL A   1      42.470  22.405  28.451  1.00  0.00     0.010 A 
ATOM     40  C   UNL A   1      42.939  23.450  27.686  1.00  0.00    -0.014 A 
BRANCH  40  41
ATOM     41  C   UNL A   1      42.923  24.719  28.403  1.00  0.00     0.031 A 
ATOM     42  C   UNL A   1      41.679  25.482  28.095  1.00  0.00     0.074 A 
ATOM     43  C   UNL A   1      43.625  24.902  29.547  1.00  0.00     0.049 A 
ATOM     44  N   UNL A   1      41.548  26.497  27.307  1.00  0.00    -0.248 NA
ATOM     45  C   UNL A   1      40.382  24.886  28.493  1.00  0.00     0.031 C 
ATOM     46  C   UNL A   1      44.542  23.954  30.203  1.00  0.00     0.029 A 
ATOM     47  N   UNL A   1      43.565  25.922  30.449  1.00  0.00    -0.354 N 
ATOM     48  C   UNL A   1      40.193  26.819  27.363  1.00  0.00     0.074 A 
ATOM     49  C   UNL A   1      39.527  25.622  27.779  1.00  0.00     0.031 C 
ATOM     50  C   UNL A   1      44.795  24.358  31.469  1.00  0.00     0.029 A 
ATOM     51  C   UNL A   1      44.191  25.662  31.669  1.00  0.00     0.049 A 
ATOM     52  H   UNL A   1      43.115  26.775  30.254  1.00  0.00     0.167 HD
ATOM     53  C   UNL A   1      39.799  28.117  27.516  1.00  0.00     0.037 A 
ATOM     54  C   UNL A   1      44.189  26.472  32.759  1.00  0.00     0.037 A 
ATOM     55  C   UNL A   1      40.942  28.984  27.346  1.00  0.00     0.049 A 
ATOM     56  C   UNL A   1      43.798  27.821  32.284  1.00  0.00     0.074 A 
ATOM     57  C   UNL A   1      41.775  29.351  26.312  1.00  0.00     0.029 A 
ATOM     58  N   UNL A   1      41.612  29.233  28.517  1.00  0.00    -0.354 N 
ATOM     59  N   UNL A   1      44.531  28.539  31.478  1.00  0.00    -0.248 NA
ATOM     60  C   UNL A   1      42.404  28.230  32.390  1.00  0.00     0.031 C 
ATOM     61  C   UNL A   1      43.041  29.635  26.908  1.00  0.00     0.029 A 
ATOM     62  C   UNL A   1      42.932  29.506  28.292  1.00  0.00     0.049 A 
ATOM     63  H   UNL A   1      41.194  29.216  29.409  1.00  0.00     0.167 HD
ATOM     64  C   UNL A   1      43.617  29.184  30.666  1.00  0.00     0.074 A 
ATOM     65  C   UNL A   1      42.346  29.100  31.377  1.00  0.00     0.031 C 
ATOM     66  C   UNL A   1      43.911  29.412  29.352  1.00  0.00     0.037 A 
BRANCH  53  67
ATOM     67  C   UNL A   1      38.596  28.600  28.325  1.00  0.00     0.064 A 
ATOM     68  C   UNL A   1      37.789  29.616  27.766  1.00  0.00     0.173 A 
ATOM     69  C   UNL A   1      38.366  28.354  29.698  1.00  0.00     0.173 A 
ATOM     70  F   UNL A   1      37.906  29.944  26.469  1.00  0.00    -0.203 F 
ATOM     71  C   UNL A   1      36.906  30.380  28.537  1.00  0.00     0.198 A 
ATOM     72  C   UNL A   1      37.451  29.090  30.454  1.00  0.00     0.198 A 
ATOM     73  F   UNL A   1      39.068  27.472  30.411  1.00  0.00    -0.203 F 
ATOM     74  F   UNL A   1      36.258  31.413  27.979  1.00  0.00    -0.200 F 
ATOM     75  C   UNL A   1      36.746  30.123  29.884  1.00  0.00     0.200 A 
ATOM     76  F   UNL A   1      37.327  28.831  31.764  1.00  0.00    -0.200 F 
ATOM     77  F   UNL A   1      35.952  30.892  30.639  1.00  0.00    -0.200 F 
ENDBRANCH  53  67
BRANCH  54  78
ATOM     78  C   UNL A   1      44.280  26.160  34.206  1.00  0.00     0.064 A 
ATOM     79  C   UNL A   1      43.140  25.788  34.943  1.00  0.00     0.173 A 
ATOM     80  C   UNL A   1      45.524  25.919  34.819  1.00  0.00     0.173 A 
ATOM     81  F   UNL A   1      41.917  25.952  34.420  1.00  0.00    -0.203 F 
ATOM     82  C   UNL A   1      43.240  25.167  36.193  1.00  0.00     0.198 A 
ATOM     83  C   UNL A   1      45.622  25.300  36.068  1.00  0.00     0.198 A 
ATOM     84  F   UNL A   1      46.666  26.184  34.168  1.00  0.00    -0.203 F 
ATOM     85  F   UNL A   1      42.133  24.759  36.829  1.00  0.00    -0.200 F 
ATOM     86  C   UNL A   1      44.482  24.908  36.747  1.00  0.00     0.200 A 
ATOM     87  F   UNL A   1      46.830  25.019  36.576  1.00  0.00    -0.200 F 
ATOM     88  F   UNL A   1      44.583  24.243  37.907  1.00  0.00    -0.200 F 
ENDBRANCH  54  78
BRANCH  66  89
ATOM     89  C   UNL A   1      45.362  29.412  28.966  1.00  0.00     0.064 A 
ATOM     90  C   UNL A   1      46.046  28.323  28.404  1.00  0.00     0.173 A 
ATOM     91  C   UNL A   1      46.065  30.616  29.097  1.00  0.00     0.173 A 
ATOM     92  F   UNL A   1      45.425  27.162  28.172  1.00  0.00    -0.203 F 
ATOM     93  C   UNL A   1      47.384  28.425  28.028  1.00  0.00     0.198 A 
ATOM     94  C   UNL A   1      47.389  30.727  28.688  1.00  0.00     0.198 A 
ATOM     95  F   UNL A   1      45.448  31.702  29.590  1.00  0.00    -0.203 F 
ATOM     96  F   UNL A   1      48.020  27.364  27.510  1.00  0.00    -0.200 F 
ATOM     97  C   UNL A   1      48.051  29.630  28.163  1.00  0.00     0.200 A 
ATOM     98  F   UNL A   1      48.014  31.909  28.781  1.00  0.00    -0.200 F 
ATOM     99  F   UNL A   1      49.328  29.741  27.770  1.00  0.00    -0.200 F 
ENDBRANCH  66  89
ENDBRANCH  40  41
ENDBRANCH  32  35
ENDBRANCH  30  31
ENDBRANCH  29  30
ENDBRANCH   1  29
TORSDOF 15
ENDMDL
MODEL 2
REMARK VINA RESULT:     -13.4      3.779      8.911
REMARK SMILES C[C@](CC(=O)Nc1sc2c(c1C#N)CCC2)(C(=O)NCCCNC(=O)c1ccc(-c2c3nc(c(-c4c(F)c(F)c(F)c(F)c4F)c4ccc([nH]4)c(-c4c(F)c(F)c(F)c(F)c4F)c4nc(c(-c5c(F)c(F)c(F)c(F)c5F)c5ccc2[nH]5)C=C4)C=C3)cc1)c1ccccc1
REMARK SMILES IDX 20 1 19 2 17 3 18 4 2 6 1 7 89 8 90 9 94 10 91 11 93 12
REMARK SMILES IDX 92 13 3 14 4 15 5 16 6 17 7 19 8 20 11 21 9 22 10 23 16 24
REMARK SMILES IDX 14 25 15 26 12 27 13 28 21 29 22 30 23 31 24 32 25 34 26 35
REMARK SMILES IDX 27 36 88 37 28 38 87 39 29 40 30 41 31 42 81 43 32 44 86 45
REMARK SMILES IDX 80 46 82 47 33 48 85 49 79 50 78 51 34 53 66 54 46 55 65 56
REMARK SMILES IDX 47 57 50 58 64 59 83 60 48 61 49 62 63 64 84 65 51 66 35 67
REMARK SMILES IDX 36 68 44 69 37 70 38 71 42 72 45 73 39 74 40 75 43 76 41 77
REMARK SMILES IDX 67 78 68 79 76 80 69 81 70 82 74 83 77 84 71 85 72 86 75 87
REMARK SMILES IDX 73 88 52 89 53 90 61 91 54 92 55 93 59 94 62 95 56 96 57 97
REMARK SMILES IDX 60 98 58 99
REMARK H PARENT 19 5 6 18 23 33 82 52 50 63
REMARK Flexibility Score: inf
ROOT
ATOM      1  C   UNL A   1      32.122  30.179  25.620  1.00  0.00     0.117 C 
ENDROOT
BRANCH   1   2
ATOM      2  N   UNL A   1      33.138  29.735  24.645  1.00  0.00    -0.355 N 
ATOM      3  C   UNL A   1      33.523  28.480  24.154  1.00  0.00     0.230 C 
ATOM      4  O   UNL A   1      34.348  28.544  23.230  1.00  0.00    -0.274 OA
ATOM      5  H   UNL A   1      33.654  30.479  24.258  1.00  0.00     0.163 HD
BRANCH   3   6
ATOM      6  C   UNL A   1      33.062  27.014  24.706  1.00  0.00     0.080 C 
ATOM      7  C   UNL A   1      33.101  26.495  26.191  1.00  0.00     0.027 C 
BRANCH   6   8
ATOM      8  C   UNL A   1      31.516  26.940  24.388  1.00  0.00    -0.032 A 
ATOM      9  C   UNL A   1      30.618  26.133  25.091  1.00  0.00     0.005 A 
ATOM     10  C   UNL A   1      30.974  27.656  23.280  1.00  0.00     0.005 A 
ATOM     11  C   UNL A   1      29.252  26.113  24.742  1.00  0.00     0.000 A 
ATOM     12  C   UNL A   1      29.615  27.687  22.973  1.00  0.00     0.000 A 
ATOM     13  C   UNL A   1      28.747  26.909  23.711  1.00  0.00     0.000 A 
ENDBRANCH   6   8
BRANCH   6  14
ATOM     14  C   UNL A   1      33.979  25.970  24.106  1.00  0.00     0.121 C 
BRANCH  14  15
ATOM     15  C   UNL A   1      33.452  25.225  22.838  1.00  0.00     0.226 C 
ATOM     16  O   UNL A   1      33.714  25.784  21.756  1.00  0.00    -0.275 OA
ATOM     17  N   UNL A   1      32.864  23.985  22.684  1.00  0.00    -0.317 N 
ATOM     18  H   UNL A   1      32.537  23.867  21.763  1.00  0.00     0.170 HD
BRANCH  17  19
ATOM     19  C   UNL A   1      32.598  22.848  23.454  1.00  0.00     0.114 A 
ATOM     20  S   UNL A   1      32.120  21.527  22.380  1.00  0.00    -0.121 S 
ATOM     21  C   UNL A   1      32.498  22.359  24.760  1.00  0.00     0.090 A 
ATOM     22  C   UNL A   1      32.440  20.405  23.576  1.00  0.00     0.011 A 
ATOM     23  C   UNL A   1      32.763  20.975  24.768  1.00  0.00    -0.014 A 
ATOM     24  C   UNL A   1      32.396  18.926  23.667  1.00  0.00     0.047 C 
ATOM     25  C   UNL A   1      33.088  19.958  25.805  1.00  0.00     0.038 C 
ATOM     26  C   UNL A   1      33.313  18.703  24.920  1.00  0.00     0.010 C 
BRANCH  21  27
ATOM     27  C   UNL A   1      32.146  22.952  26.003  1.00  0.00     0.103 C 
ATOM     28  N   UNL A   1      31.911  23.303  27.098  1.00  0.00    -0.192 NA
ENDBRANCH  21  27
ENDBRANCH  17  19
ENDBRANCH  14  15
ENDBRANCH   6  14
ENDBRANCH   3   6
ENDBRANCH   1   2
BRANCH   1  29
ATOM     29  C   UNL A   1      32.381  30.552  27.095  1.00  0.00     0.042 C 
BRANCH  29  30
ATOM     30  C   UNL A   1      33.317  31.710  27.377  1.00  0.00     0.118 C 
BRANCH  30  31
ATOM     31  N   UNL A   1      32.764  33.050  27.666  1.00  0.00    -0.352 N 
ATOM     32  C   UNL A   1      33.231  34.018  28.574  1.00  0.00     0.251 C 
ATOM     33  H   UNL A   1      31.961  33.299  27.154  1.00  0.00     0.163 HD
ATOM     34  O   UNL A   1      32.634  35.077  28.739  1.00  0.00    -0.269 OA
BRANCH  32  35
ATOM     35  C   UNL A   1      34.491  33.764  29.325  1.00  0.00     0.039 A 
ATOM     36  C   UNL A   1      34.608  33.087  30.540  1.00  0.00     0.014 A 
ATOM     37  C   UNL A   1      35.640  34.207  28.706  1.00  0.00     0.014 A 
ATOM     38  C   UNL A   1      35.892  32.720  30.988  1.00  0.00     0.010 A 
ATOM     39  C   UNL A   1      36.865  33.733  29.026  1.00  0.00     0.010 A 
ATOM     40  C   UNL A   1      37.009  33.006  30.187  1.00  0.00    -0.014 A 
BRANCH  40  41
ATOM     41  C   UNL A   1      38.291  32.316  30.259  1.00  0.00     0.031 A 
ATOM     42  C   UNL A   1      38.208  30.981  29.599  1.00  0.00     0.074 A 
ATOM     43  C   UNL A   1      39.458  32.991  30.393  1.00  0.00     0.049 A 
ATOM     44  N   UNL A   1      38.119  29.823  30.166  1.00  0.00    -0.248 NA
ATOM     45  C   UNL A   1      37.917  30.940  28.148  1.00  0.00     0.031 C 
ATOM     46  C   UNL A   1      39.646  34.442  30.565  1.00  0.00     0.029 A 
ATOM     47  N   UNL A   1      40.739  32.543  30.267  1.00  0.00    -0.354 N 
ATOM     48  C   UNL A   1      38.057  28.914  29.112  1.00  0.00     0.074 A 
ATOM     49  C   UNL A   1      37.577  29.659  27.986  1.00  0.00     0.031 C 
ATOM     50  C   UNL A   1      40.939  34.769  30.341  1.00  0.00     0.029 A 
ATOM     51  C   UNL A   1      41.702  33.548  30.163  1.00  0.00     0.049 A 
ATOM     52  H   UNL A   1      40.966  31.586  30.251  1.00  0.00     0.167 HD
ATOM     53  C   UNL A   1      38.824  27.785  29.128  1.00  0.00     0.037 A 
ATOM     54  C   UNL A   1      43.029  33.365  29.934  1.00  0.00     0.037 A 
ATOM     55  C   UNL A   1      39.417  27.633  30.437  1.00  0.00     0.049 A 
ATOM     56  C   UNL A   1      43.322  31.946  30.250  1.00  0.00     0.074 A 
ATOM     57  C   UNL A   1      38.972  27.360  31.712  1.00  0.00     0.029 A 
ATOM     58  N   UNL A   1      40.636  28.252  30.554  1.00  0.00    -0.354 N 
ATOM     59  N   UNL A   1      43.236  31.446  31.452  1.00  0.00    -0.248 NA
ATOM     60  C   UNL A   1      43.340  30.972  29.167  1.00  0.00     0.031 C 
ATOM     61  C   UNL A   1      39.878  28.022  32.595  1.00  0.00     0.029 A 
ATOM     62  C   UNL A   1      40.890  28.620  31.845  1.00  0.00     0.049 A 
ATOM     63  H   UNL A   1      41.251  28.411  29.801  1.00  0.00     0.167 HD
ATOM     64  C   UNL A   1      42.754  30.165  31.255  1.00  0.00     0.074 A 
ATOM     65  C   UNL A   1      43.006  29.872  29.850  1.00  0.00     0.031 C 
ATOM     66  C   UNL A   1      41.893  29.613  32.161  1.00  0.00     0.037 A 
BRANCH  53  67
ATOM     67  C   UNL A   1      39.487  27.132  27.916  1.00  0.00     0.064 A 
ATOM     68  C   UNL A   1      39.488  25.721  27.845  1.00  0.00     0.173 A 
ATOM     69  C   UNL A   1      40.357  27.769  27.001  1.00  0.00     0.173 A 
ATOM     70  F   UNL A   1      38.703  24.996  28.657  1.00  0.00    -0.203 F 
ATOM     71  C   UNL A   1      40.356  25.015  27.004  1.00  0.00     0.198 A 
ATOM     72  C   UNL A   1      41.189  27.061  26.133  1.00  0.00     0.198 A 
ATOM     73  F   UNL A   1      40.532  29.091  26.958  1.00  0.00    -0.203 F 
ATOM     74  F   UNL A   1      40.402  23.677  27.068  1.00  0.00    -0.200 F 
ATOM     75  C   UNL A   1      41.214  25.686  26.156  1.00  0.00     0.200 A 
ATOM     76  F   UNL A   1      42.025  27.737  25.331  1.00  0.00    -0.200 F 
ATOM     77  F   UNL A   1      42.091  25.017  25.397  1.00  0.00    -0.200 F 
ENDBRANCH  53  67
BRANCH  54  78
ATOM     78  C   UNL A   1      44.030  34.230  29.265  1.00  0.00     0.064 A 
ATOM     79  C   UNL A   1      45.063  34.847  29.996  1.00  0.00     0.173 A 
ATOM     80  C   UNL A   1      44.180  34.217  27.866  1.00  0.00     0.173 A 
ATOM     81  F   UNL A   1      45.016  34.874  31.335  1.00  0.00    -0.203 F 
ATOM     82  C   UNL A   1      46.198  35.374  29.369  1.00  0.00     0.198 A 
ATOM     83  C   UNL A   1      45.314  34.744  27.241  1.00  0.00     0.198 A 
ATOM     84  F   UNL A   1      43.278  33.598  27.090  1.00  0.00    -0.203 F 
ATOM     85  F   UNL A   1      47.194  35.884  30.107  1.00  0.00    -0.200 F 
ATOM     86  C   UNL A   1      46.331  35.306  27.993  1.00  0.00     0.200 A 
ATOM     87  F   UNL A   1      45.449  34.637  25.912  1.00  0.00    -0.200 F 
ATOM     88  F   UNL A   1      47.452  35.737  27.397  1.00  0.00    -0.200 F 
ENDBRANCH  54  78
BRANCH  66  89
ATOM     89  C   UNL A   1      41.893  30.192  33.546  1.00  0.00     0.064 A 
ATOM     90  C   UNL A   1      40.986  31.155  34.016  1.00  0.00     0.173 A 
ATOM     91  C   UNL A   1      42.812  29.670  34.465  1.00  0.00     0.173 A 
ATOM     92  F   UNL A   1      40.027  31.646  33.224  1.00  0.00    -0.203 F 
ATOM     93  C   UNL A   1      41.026  31.603  35.335  1.00  0.00     0.198 A 
ATOM     94  C   UNL A   1      42.826  30.090  35.790  1.00  0.00     0.198 A 
ATOM     95  F   UNL A   1      43.675  28.717  34.080  1.00  0.00    -0.203 F 
ATOM     96  F   UNL A   1      40.159  32.537  35.755  1.00  0.00    -0.200 F 
ATOM     97  C   UNL A   1      41.941  31.064  36.222  1.00  0.00     0.200 A 
ATOM     98  F   UNL A   1      43.685  29.532  36.653  1.00  0.00    -0.200 F 
ATOM     99  F   UNL A   1      41.958  31.466  37.501  1.00  0.00    -0.200 F 
ENDBRANCH  66  89
ENDBRANCH  40  41
ENDBRANCH  32  35
ENDBRANCH  30  31
ENDBRANCH  29  30
ENDBRANCH   1  29
TORSDOF 15
ENDMDL
MODEL 3
REMARK VINA RESULT:     -13.3      3.063      8.192
REMARK SMILES C[C@](CC(=O)Nc1sc2c(c1C#N)CCC2)(C(=O)NCCCNC(=O)c1ccc(-c2c3nc(c(-c4c(F)c(F)c(F)c(F)c4F)c4ccc([nH]4)c(-c4c(F)c(F)c(F)c(F)c4F)c4nc(c(-c5c(F)c(F)c(F)c(F)c5F)c5ccc2[nH]5)C=C4)C=C3)cc1)c1ccccc1
REMARK SMILES IDX 20 1 19 2 17 3 18 4 2 6 1 7 89 8 90 9 94 10 91 11 93 12
REMARK SMILES IDX 92 13 3 14 4 15 5 16 6 17 7 19 8 20 11 21 9 22 10 23 16 24
REMARK SMILES IDX 14 25 15 26 12 27 13 28 21 29 22 30 23 31 24 32 25 34 26 35
REMARK SMILES IDX 27 36 88 37 28 38 87 39 29 40 30 41 31 42 81 43 32 44 86 45
REMARK SMILES IDX 80 46 82 47 33 48 85 49 79 50 78 51 34 53 66 54 46 55 65 56
REMARK SMILES IDX 47 57 50 58 64 59 83 60 48 61 49 62 63 64 84 65 51 66 35 67
REMARK SMILES IDX 36 68 44 69 37 70 38 71 42 72 45 73 39 74 40 75 43 76 41 77
REMARK SMILES IDX 67 78 68 79 76 80 69 81 70 82 74 83 77 84 71 85 72 86 75 87
REMARK SMILES IDX 73 88 52 89 53 90 61 91 54 92 55 93 59 94 62 95 56 96 57 97
REMARK SMILES IDX 60 98 58 99
REMARK H PARENT 19 5 6 18 23 33 82 52 50 63
REMARK Flexibility Score: inf
ROOT
ATOM      1  C   UNL A   1      32.785  29.706  26.053  1.00  0.00     0.117 C 
ENDROOT
BRANCH   1   2
ATOM      2  N   UNL A   1      33.320  29.750  24.677  1.00  0.00    -0.355 N 
ATOM      3  C   UNL A   1      33.480  28.786  23.671  1.00  0.00     0.230 C 
ATOM      4  O   UNL A   1      33.859  29.262  22.589  1.00  0.00    -0.274 OA
ATOM      5  H   UNL A   1      33.629  30.645  24.410  1.00  0.00     0.163 HD
BRANCH   3   6
ATOM      6  C   UNL A   1      33.293  27.170  23.806  1.00  0.00     0.080 C 
ATOM      7  C   UNL A   1      33.781  26.245  24.981  1.00  0.00     0.027 C 
BRANCH   6   8
ATOM      8  C   UNL A   1      31.729  26.957  23.867  1.00  0.00    -0.032 A 
ATOM      9  C   UNL A   1      31.112  25.961  24.629  1.00  0.00     0.005 A 
ATOM     10  C   UNL A   1      30.862  27.746  23.055  1.00  0.00     0.005 A 
ATOM     11  C   UNL A   1      29.708  25.827  24.627  1.00  0.00     0.000 A 
ATOM     12  C   UNL A   1      29.473  27.657  23.098  1.00  0.00     0.000 A 
ATOM     13  C   UNL A   1      28.891  26.689  23.891  1.00  0.00     0.000 A 
ENDBRANCH   6   8
BRANCH   6  14
ATOM     14  C   UNL A   1      34.075  26.506  22.692  1.00  0.00     0.121 C 
BRANCH  14  15
ATOM     15  C   UNL A   1      33.328  25.402  21.879  1.00  0.00     0.226 C 
ATOM     16  O   UNL A   1      33.031  25.721  20.712  1.00  0.00    -0.275 OA
ATOM     17  N   UNL A   1      33.056  24.080  22.169  1.00  0.00    -0.317 N 
ATOM     18  H   UNL A   1      32.457  23.690  21.491  1.00  0.00     0.170 HD
BRANCH  17  19
ATOM     19  C   UNL A   1      33.381  23.131  23.144  1.00  0.00     0.114 A 
ATOM     20  S   UNL A   1      31.906  22.298  23.649  1.00  0.00    -0.121 S 
ATOM     21  C   UNL A   1      34.417  22.624  23.934  1.00  0.00     0.090 A 
ATOM     22  C   UNL A   1      32.804  21.048  24.299  1.00  0.00     0.011 A 
ATOM     23  C   UNL A   1      34.143  21.284  24.269  1.00  0.00    -0.014 A 
ATOM     24  C   UNL A   1      32.486  19.760  24.961  1.00  0.00     0.047 C 
ATOM     25  C   UNL A   1      34.925  20.139  24.812  1.00  0.00     0.038 C 
ATOM     26  C   UNL A   1      33.855  19.015  24.780  1.00  0.00     0.010 C 
BRANCH  21  27
ATOM     27  C   UNL A   1      35.604  23.191  24.475  1.00  0.00     0.103 C 
ATOM     28  N   UNL A   1      36.486  23.776  24.983  1.00  0.00    -0.192 NA
ENDBRANCH  21  27
ENDBRANCH  17  19
ENDBRANCH  14  15
ENDBRANCH   6  14
ENDBRANCH   3   6
ENDBRANCH   1   2
BRANCH   1  29
ATOM     29  C   UNL A   1      33.443  29.008  27.262  1.00  0.00     0.042 C 
BRANCH  29  30
ATOM     30  C   UNL A   1      34.892  29.333  27.561  1.00  0.00     0.118 C 
BRANCH  30  31
ATOM     31  N   UNL A   1      35.236  30.126  28.760  1.00  0.00    -0.352 N 
ATOM     32  C   UNL A   1      36.453  30.171  29.467  1.00  0.00     0.251 C 
ATOM     33  H   UNL A   1      34.518  30.699  29.112  1.00  0.00     0.163 HD
ATOM     34  O   UNL A   1      36.575  30.849  30.481  1.00  0.00    -0.269 OA
BRANCH  32  35
ATOM     35  C   UNL A   1      37.621  29.405  28.955  1.00  0.00     0.039 A 
ATOM     36  C   UNL A   1      38.327  29.659  27.778  1.00  0.00     0.014 A 
ATOM     37  C   UNL A   1      38.056  28.385  29.774  1.00  0.00     0.014 A 
ATOM     38  C   UNL A   1      39.552  28.998  27.567  1.00  0.00     0.010 A 
ATOM     39  C   UNL A   1      39.298  27.857  29.678  1.00  0.00     0.010 A 
ATOM     40  C   UNL A   1      40.049  28.137  28.559  1.00  0.00    -0.014 A 
BRANCH  40  41
ATOM     41  C   UNL A   1      41.448  27.759  28.716  1.00  0.00     0.031 A 
ATOM     42  C   UNL A   1      41.748  26.518  27.944  1.00  0.00     0.074 A 
ATOM     43  C   UNL A   1      42.402  28.667  29.032  1.00  0.00     0.049 A 
ATOM     44  N   UNL A   1      41.890  25.317  28.402  1.00  0.00    -0.248 NA
ATOM     45  C   UNL A   1      41.604  26.563  26.471  1.00  0.00     0.031 C 
ATOM     46  C   UNL A   1      42.219  30.096  29.341  1.00  0.00     0.029 A 
ATOM     47  N   UNL A   1      43.759  28.543  29.012  1.00  0.00    -0.354 N 
ATOM     48  C   UNL A   1      42.142  24.535  27.277  1.00  0.00     0.074 A 
ATOM     49  C   UNL A   1      41.598  25.263  26.170  1.00  0.00     0.031 C 
ATOM     50  C   UNL A   1      43.410  30.735  29.288  1.00  0.00     0.029 A 
ATOM     51  C   UNL A   1      44.458  29.749  29.097  1.00  0.00     0.049 A 
ATOM     52  H   UNL A   1      44.211  27.672  28.944  1.00  0.00     0.167 HD
ATOM     53  C   UNL A   1      43.153  23.619  27.286  1.00  0.00     0.037 A 
ATOM     54  C   UNL A   1      45.804  29.903  29.002  1.00  0.00     0.037 A 
ATOM     55  C   UNL A   1      43.648  23.471  28.636  1.00  0.00     0.049 A 
ATOM     56  C   UNL A   1      46.401  28.566  29.233  1.00  0.00     0.074 A 
ATOM     57  C   UNL A   1      43.172  22.970  29.827  1.00  0.00     0.029 A 
ATOM     58  N   UNL A   1      44.667  24.339  28.937  1.00  0.00    -0.354 N 
ATOM     59  N   UNL A   1      46.333  27.935  30.373  1.00  0.00    -0.248 NA
ATOM     60  C   UNL A   1      46.749  27.741  28.083  1.00  0.00     0.031 C 
ATOM     61  C   UNL A   1      43.810  23.727  30.856  1.00  0.00     0.029 A 
ATOM     62  C   UNL A   1      44.710  24.618  30.274  1.00  0.00     0.049 A 
ATOM     63  H   UNL A   1      45.290  24.715  28.272  1.00  0.00     0.167 HD
ATOM     64  C   UNL A   1      46.192  26.606  30.021  1.00  0.00     0.074 A 
ATOM     65  C   UNL A   1      46.630  26.528  28.632  1.00  0.00     0.031 C 
ATOM     66  C   UNL A   1      45.413  25.778  30.778  1.00  0.00     0.037 A 
BRANCH  53  67
ATOM     67  C   UNL A   1      44.058  23.268  26.106  1.00  0.00     0.064 A 
ATOM     68  C   UNL A   1      44.132  21.913  25.711  1.00  0.00     0.173 A 
ATOM     69  C   UNL A   1      45.056  24.100  25.548  1.00  0.00     0.173 A 
ATOM     70  F   UNL A   1      43.239  21.020  26.166  1.00  0.00    -0.203 F 
ATOM     71  C   UNL A   1      45.170  21.422  24.911  1.00  0.00     0.198 A 
ATOM     72  C   UNL A   1      46.065  23.613  24.715  1.00  0.00     0.198 A 
ATOM     73  F   UNL A   1      45.181  25.394  25.847  1.00  0.00    -0.203 F 
ATOM     74  F   UNL A   1      45.260  20.107  24.670  1.00  0.00    -0.200 F 
ATOM     75  C   UNL A   1      46.143  22.272  24.422  1.00  0.00     0.200 A 
ATOM     76  F   UNL A   1      47.007  24.456  24.268  1.00  0.00    -0.200 F 
ATOM     77  F   UNL A   1      47.174  21.798  23.711  1.00  0.00    -0.200 F 
ENDBRANCH  53  67
BRANCH  54  78
ATOM     78  C   UNL A   1      46.623  31.041  28.521  1.00  0.00     0.064 A 
ATOM     79  C   UNL A   1      46.329  31.686  27.305  1.00  0.00     0.173 A 
ATOM     80  C   UNL A   1      47.509  31.713  29.383  1.00  0.00     0.173 A 
ATOM     81  F   UNL A   1      45.469  31.132  26.440  1.00  0.00    -0.203 F 
ATOM     82  C   UNL A   1      46.849  32.948  26.994  1.00  0.00     0.198 A 
ATOM     83  C   UNL A   1      48.028  32.972  29.071  1.00  0.00     0.198 A 
ATOM     84  F   UNL A   1      47.801  31.206  30.590  1.00  0.00    -0.203 F 
ATOM     85  F   UNL A   1      46.483  33.562  25.860  1.00  0.00    -0.200 F 
ATOM     86  C   UNL A   1      47.684  33.598  27.885  1.00  0.00     0.200 A 
ATOM     87  F   UNL A   1      48.805  33.609  29.959  1.00  0.00    -0.200 F 
ATOM     88  F   UNL A   1      48.120  34.839  27.626  1.00  0.00    -0.200 F 
ENDBRANCH  54  78
BRANCH  66  89
ATOM     89  C   UNL A   1      45.151  26.191  32.197  1.00  0.00     0.064 A 
ATOM     90  C   UNL A   1      43.998  26.857  32.642  1.00  0.00     0.173 A 
ATOM     91  C   UNL A   1      46.089  25.811  33.165  1.00  0.00     0.173 A 
ATOM     92  F   UNL A   1      43.018  27.185  31.793  1.00  0.00    -0.203 F 
ATOM     93  C   UNL A   1      43.813  27.161  33.990  1.00  0.00     0.198 A 
ATOM     94  C   UNL A   1      45.886  26.081  34.513  1.00  0.00     0.198 A 
ATOM     95  F   UNL A   1      47.191  25.136  32.800  1.00  0.00    -0.203 F 
ATOM     96  F   UNL A   1      42.710  27.813  34.387  1.00  0.00    -0.200 F 
ATOM     97  C   UNL A   1      44.754  26.765  34.924  1.00  0.00     0.200 A 
ATOM     98  F   UNL A   1      46.780  25.657  35.416  1.00  0.00    -0.200 F 
ATOM     99  F   UNL A   1      44.562  27.025  36.225  1.00  0.00    -0.200 F 
ENDBRANCH  66  89
ENDBRANCH  40  41
ENDBRANCH  32  35
ENDBRANCH  30  31
ENDBRANCH  29  30
ENDBRANCH   1  29
TORSDOF 15
ENDMDL
