MODEL 1
REMARK VINA RESULT:     -13.2      0.000      0.000
REMARK SMILES C[C@H](Nc1ccc(C(=O)NCCCNC(=O)c2ccc(-c3c4nc(c(-c5c(F)c(F)c(F)c(F)c5F)c5ccc([nH]5)c(-c5c(F)c(F)c(F)c(F)c5F)c5nc(c(-c6c(F)c(F)c(F)c(F)c6F)c6ccc3[nH]6)C=C5)C=C4)cc2)c(F)c1F)c1ccccc1Cl
REMARK SMILES IDX 11 1 10 2 8 3 9 4 7 6 4 7 5 8 82 9 6 10 80 11 83 12 81 13
REMARK SMILES IDX 3 14 2 16 1 17 84 18 85 19 89 20 86 21 88 22 90 23 87 24
REMARK SMILES IDX 12 25 13 26 14 27 15 28 16 30 17 31 18 32 79 33 19 34 78 35
REMARK SMILES IDX 20 36 21 37 22 38 72 39 23 40 77 41 71 42 73 43 24 44 76 45
REMARK SMILES IDX 70 46 69 47 25 49 57 50 37 51 56 52 38 53 41 54 55 55 74 56
REMARK SMILES IDX 39 57 40 58 54 60 75 61 42 62 26 63 27 64 35 65 28 66 29 67
REMARK SMILES IDX 33 68 36 69 30 70 31 71 34 72 32 73 58 74 59 75 67 76 60 77
REMARK SMILES IDX 61 78 65 79 68 80 62 81 63 82 66 83 64 84 43 85 44 86 52 87
REMARK SMILES IDX 45 88 46 89 50 90 53 91 47 92 48 93 51 94 49 95
REMARK H PARENT 10 5 3 15 14 29 73 48 41 59
REMARK Flexibility Score: inf
ROOT
ATOM      1  C   UNL A   1      31.676  30.562  25.789  1.00  0.00     0.118 C 
ENDROOT
BRANCH   1   2
ATOM      2  N   UNL A   1      30.700  30.548  24.718  1.00  0.00    -0.352 N 
ATOM      3  C   UNL A   1      30.366  29.651  23.742  1.00  0.00     0.254 C 
ATOM      4  O   UNL A   1      29.438  29.995  23.001  1.00  0.00    -0.269 OA
ATOM      5  H   UNL A   1      30.155  31.368  24.685  1.00  0.00     0.163 HD
BRANCH   3   6
ATOM      6  C   UNL A   1      30.984  28.318  23.510  1.00  0.00     0.078 A 
ATOM      7  C   UNL A   1      31.823  25.644  22.971  1.00  0.00     0.074 A 
ATOM      8  C   UNL A   1      30.562  25.896  23.502  1.00  0.00     0.030 A 
ATOM      9  C   UNL A   1      32.663  26.743  22.758  1.00  0.00     0.182 A 
ATOM     10  C   UNL A   1      30.154  27.208  23.776  1.00  0.00     0.019 A 
ATOM     11  C   UNL A   1      32.244  28.056  22.983  1.00  0.00     0.173 A 
ATOM     12  F   UNL A   1      33.889  26.533  22.244  1.00  0.00    -0.201 F 
ATOM     13  F   UNL A   1      33.069  29.024  22.570  1.00  0.00    -0.203 F 
BRANCH   7  14
ATOM     14  N   UNL A   1      32.203  24.389  22.523  1.00  0.00    -0.376 N 
ATOM     15  H   UNL A   1      32.257  24.247  21.550  1.00  0.00     0.161 HD
BRANCH  14  16
ATOM     16  C   UNL A   1      32.532  23.255  23.399  1.00  0.00     0.108 C 
ATOM     17  C   UNL A   1      32.337  21.866  22.766  1.00  0.00     0.036 C 
BRANCH  16  18
ATOM     18  C   UNL A   1      33.982  23.414  23.851  1.00  0.00    -0.007 A 
ATOM     19  C   UNL A   1      35.023  22.939  23.023  1.00  0.00     0.007 A 
ATOM     20  C   UNL A   1      34.337  24.016  25.069  1.00  0.00     0.046 A 
ATOM     21  C   UNL A   1      36.358  23.005  23.424  1.00  0.00     0.000 A 
ATOM     22  C   UNL A   1      35.679  24.086  25.465  1.00  0.00     0.021 A 
ATOM     23  Cl  UNL A   1      33.169  24.704  26.140  1.00  0.00    -0.084 Cl
ATOM     24  C   UNL A   1      36.687  23.569  24.651  1.00  0.00     0.002 A 
ENDBRANCH  16  18
ENDBRANCH  14  16
ENDBRANCH   7  14
ENDBRANCH   3   6
ENDBRANCH   1   2
BRANCH   1  25
ATOM     25  C   UNL A   1      31.431  31.737  26.738  1.00  0.00     0.042 C 
BRANCH  25  26
ATOM     26  C   UNL A   1      32.724  32.418  27.193  1.00  0.00     0.118 C 
BRANCH  26  27
ATOM     27  N   UNL A   1      32.521  33.838  27.471  1.00  0.00    -0.352 N 
ATOM     28  C   UNL A   1      33.061  34.641  28.442  1.00  0.00     0.251 C 
ATOM     29  H   UNL A   1      31.895  34.292  26.861  1.00  0.00     0.163 HD
ATOM     30  O   UNL A   1      32.555  35.731  28.685  1.00  0.00    -0.269 OA
BRANCH  28  31
ATOM     31  C   UNL A   1      34.249  34.201  29.200  1.00  0.00     0.039 A 
ATOM     32  C   UNL A   1      34.073  33.556  30.429  1.00  0.00     0.014 A 
ATOM     33  C   UNL A   1      35.535  34.455  28.719  1.00  0.00     0.014 A 
ATOM     34  C   UNL A   1      35.186  33.091  31.133  1.00  0.00     0.010 A 
ATOM     35  C   UNL A   1      36.639  33.934  29.386  1.00  0.00     0.010 A 
ATOM     36  C   UNL A   1      36.474  33.233  30.590  1.00  0.00    -0.014 A 
BRANCH  36  37
ATOM     37  C   UNL A   1      37.659  32.609  31.228  1.00  0.00     0.031 A 
ATOM     38  C   UNL A   1      38.366  31.462  30.566  1.00  0.00     0.074 A 
ATOM     39  C   UNL A   1      38.030  33.018  32.458  1.00  0.00     0.049 A 
ATOM     40  N   UNL A   1      39.322  30.701  31.032  1.00  0.00    -0.248 NA
ATOM     41  C   UNL A   1      37.924  31.109  29.207  1.00  0.00     0.031 C 
ATOM     42  C   UNL A   1      37.395  34.098  33.214  1.00  0.00     0.029 A 
ATOM     43  N   UNL A   1      39.015  32.560  33.298  1.00  0.00    -0.354 N 
ATOM     44  C   UNL A   1      39.587  29.772  30.034  1.00  0.00     0.074 A 
ATOM     45  C   UNL A   1      38.663  30.039  28.952  1.00  0.00     0.031 C 
ATOM     46  C   UNL A   1      38.013  34.230  34.397  1.00  0.00     0.029 A 
ATOM     47  C   UNL A   1      39.052  33.211  34.506  1.00  0.00     0.049 A 
ATOM     48  H   UNL A   1      39.634  31.834  33.057  1.00  0.00     0.167 HD
ATOM     49  C   UNL A   1      40.528  28.799  30.021  1.00  0.00     0.037 A 
ATOM     50  C   UNL A   1      39.822  33.000  35.590  1.00  0.00     0.037 A 
ATOM     51  C   UNL A   1      41.453  28.554  31.098  1.00  0.00     0.049 A 
ATOM     52  C   UNL A   1      40.849  31.902  35.553  1.00  0.00     0.074 A 
ATOM     53  C   UNL A   1      42.470  27.617  31.162  1.00  0.00     0.029 A 
ATOM     54  N   UNL A   1      41.476  29.251  32.298  1.00  0.00    -0.354 N 
ATOM     55  N   UNL A   1      41.118  31.054  34.589  1.00  0.00    -0.248 NA
ATOM     56  C   UNL A   1      41.686  31.734  36.749  1.00  0.00     0.031 C 
ATOM     57  C   UNL A   1      43.073  27.711  32.419  1.00  0.00     0.029 A 
ATOM     58  C   UNL A   1      42.477  28.751  33.115  1.00  0.00     0.049 A 
ATOM     59  H   UNL A   1      40.870  29.989  32.534  1.00  0.00     0.167 HD
ATOM     60  C   UNL A   1      42.170  30.274  35.048  1.00  0.00     0.074 A 
ATOM     61  C   UNL A   1      42.501  30.760  36.372  1.00  0.00     0.031 C 
ATOM     62  C   UNL A   1      42.804  29.249  34.427  1.00  0.00     0.037 A 
BRANCH  49  63
ATOM     63  C   UNL A   1      40.621  27.922  28.807  1.00  0.00     0.064 A 
ATOM     64  C   UNL A   1      41.409  28.305  27.710  1.00  0.00     0.173 A 
ATOM     65  C   UNL A   1      39.855  26.753  28.686  1.00  0.00     0.173 A 
ATOM     66  F   UNL A   1      42.158  29.417  27.770  1.00  0.00    -0.203 F 
ATOM     67  C   UNL A   1      41.411  27.561  26.532  1.00  0.00     0.198 A 
ATOM     68  C   UNL A   1      39.882  25.995  27.517  1.00  0.00     0.198 A 
ATOM     69  F   UNL A   1      39.093  26.336  29.708  1.00  0.00    -0.203 F 
ATOM     70  F   UNL A   1      42.139  27.970  25.484  1.00  0.00    -0.200 F 
ATOM     71  C   UNL A   1      40.648  26.407  26.437  1.00  0.00     0.200 A 
ATOM     72  F   UNL A   1      39.162  24.868  27.435  1.00  0.00    -0.200 F 
ATOM     73  F   UNL A   1      40.652  25.692  25.304  1.00  0.00    -0.200 F 
ENDBRANCH  49  63
BRANCH  50  74
ATOM     74  C   UNL A   1      39.663  33.866  36.788  1.00  0.00     0.064 A 
ATOM     75  C   UNL A   1      38.843  33.487  37.862  1.00  0.00     0.173 A 
ATOM     76  C   UNL A   1      40.307  35.108  36.867  1.00  0.00     0.173 A 
ATOM     77  F   UNL A   1      38.198  32.312  37.834  1.00  0.00    -0.203 F 
ATOM     78  C   UNL A   1      38.659  34.327  38.958  1.00  0.00     0.198 A 
ATOM     79  C   UNL A   1      40.147  35.933  37.979  1.00  0.00     0.198 A 
ATOM     80  F   UNL A   1      41.115  35.507  35.875  1.00  0.00    -0.203 F 
ATOM     81  F   UNL A   1      37.840  33.957  39.954  1.00  0.00    -0.200 F 
ATOM     82  C   UNL A   1      39.316  35.546  39.020  1.00  0.00     0.200 A 
ATOM     83  F   UNL A   1      40.805  37.099  38.045  1.00  0.00    -0.200 F 
ATOM     84  F   UNL A   1      39.150  36.346  40.082  1.00  0.00    -0.200 F 
ENDBRANCH  50  74
BRANCH  62  85
ATOM     85  C   UNL A   1      43.951  28.604  35.150  1.00  0.00     0.064 A 
ATOM     86  C   UNL A   1      45.267  29.034  34.915  1.00  0.00     0.173 A 
ATOM     87  C   UNL A   1      43.760  27.523  36.022  1.00  0.00     0.173 A 
ATOM     88  F   UNL A   1      45.506  30.056  34.080  1.00  0.00    -0.203 F 
ATOM     89  C   UNL A   1      46.348  28.399  35.520  1.00  0.00     0.198 A 
ATOM     90  C   UNL A   1      44.843  26.914  36.654  1.00  0.00     0.198 A 
ATOM     91  F   UNL A   1      42.522  27.081  36.290  1.00  0.00    -0.203 F 
ATOM     92  F   UNL A   1      47.597  28.805  35.253  1.00  0.00    -0.200 F 
ATOM     93  C   UNL A   1      46.134  27.345  36.393  1.00  0.00     0.200 A 
ATOM     94  F   UNL A   1      44.632  25.913  37.520  1.00  0.00    -0.200 F 
ATOM     95  F   UNL A   1      47.175  26.747  36.991  1.00  0.00    -0.200 F 
ENDBRANCH  62  85
ENDBRANCH  36  37
ENDBRANCH  28  31
ENDBRANCH  26  27
ENDBRANCH  25  26
ENDBRANCH   1  25
TORSDOF 13
ENDMDL
MODEL 2
REMARK VINA RESULT:     -13.2      1.288      1.811
REMARK SMILES C[C@H](Nc1ccc(C(=O)NCCCNC(=O)c2ccc(-c3c4nc(c(-c5c(F)c(F)c(F)c(F)c5F)c5ccc([nH]5)c(-c5c(F)c(F)c(F)c(F)c5F)c5nc(c(-c6c(F)c(F)c(F)c(F)c6F)c6ccc3[nH]6)C=C5)C=C4)cc2)c(F)c1F)c1ccccc1Cl
REMARK SMILES IDX 11 1 10 2 8 3 9 4 7 6 4 7 5 8 82 9 6 10 80 11 83 12 81 13
REMARK SMILES IDX 3 14 2 16 1 17 84 18 85 19 89 20 86 21 88 22 90 23 87 24
REMARK SMILES IDX 12 25 13 26 14 27 15 28 16 30 17 31 18 32 79 33 19 34 78 35
REMARK SMILES IDX 20 36 21 37 22 38 72 39 23 40 77 41 71 42 73 43 24 44 76 45
REMARK SMILES IDX 70 46 69 47 25 49 57 50 37 51 56 52 38 53 41 54 55 55 74 56
REMARK SMILES IDX 39 57 40 58 54 60 75 61 42 62 26 63 27 64 35 65 28 66 29 67
REMARK SMILES IDX 33 68 36 69 30 70 31 71 34 72 32 73 58 74 59 75 67 76 60 77
REMARK SMILES IDX 61 78 65 79 68 80 62 81 63 82 66 83 64 84 43 85 44 86 52 87
REMARK SMILES IDX 45 88 46 89 50 90 53 91 47 92 48 93 51 94 49 95
REMARK H PARENT 10 5 3 15 14 29 73 48 41 59
REMARK Flexibility Score: inf
ROOT
ATOM      1  C   UNL A   1      31.727  30.783  26.022  1.00  0.00     0.118 C 
ENDROOT
BRANCH   1   2
ATOM      2  N   UNL A   1      31.541  29.743  27.015  1.00  0.00    -0.352 N 
ATOM      3  C   UNL A   1      31.725  28.388  27.026  1.00  0.00     0.254 C 
ATOM      4  O   UNL A   1      31.469  27.827  28.096  1.00  0.00    -0.269 OA
ATOM      5  H   UNL A   1      31.208  30.090  27.874  1.00  0.00     0.163 HD
BRANCH   3   6
ATOM      6  C   UNL A   1      32.218  27.549  25.901  1.00  0.00     0.078 A 
ATOM      7  C   UNL A   1      33.337  25.731  24.007  1.00  0.00     0.074 A 
ATOM      8  C   UNL A   1      34.031  26.059  25.168  1.00  0.00     0.030 A 
ATOM      9  C   UNL A   1      32.105  26.360  23.793  1.00  0.00     0.182 A 
ATOM     10  C   UNL A   1      33.485  26.959  26.093  1.00  0.00     0.019 A 
ATOM     11  C   UNL A   1      31.535  27.220  24.734  1.00  0.00     0.173 A 
ATOM     12  F   UNL A   1      31.409  26.065  22.680  1.00  0.00    -0.201 F 
ATOM     13  F   UNL A   1      30.278  27.612  24.501  1.00  0.00    -0.203 F 
BRANCH   7  14
ATOM     14  N   UNL A   1      33.752  24.722  23.154  1.00  0.00    -0.376 N 
ATOM     15  H   UNL A   1      34.334  24.969  22.399  1.00  0.00     0.161 HD
BRANCH  14  16
ATOM     16  C   UNL A   1      33.383  23.305  23.297  1.00  0.00     0.108 C 
ATOM     17  C   UNL A   1      32.902  22.624  22.003  1.00  0.00     0.036 C 
BRANCH  16  18
ATOM     18  C   UNL A   1      34.593  22.556  23.851  1.00  0.00    -0.007 A 
ATOM     19  C   UNL A   1      35.892  23.037  23.576  1.00  0.00     0.007 A 
ATOM     20  C   UNL A   1      34.476  21.394  24.631  1.00  0.00     0.046 A 
ATOM     21  C   UNL A   1      37.027  22.349  24.007  1.00  0.00     0.000 A 
ATOM     22  C   UNL A   1      35.618  20.711  25.068  1.00  0.00     0.021 A 
ATOM     23  Cl  UNL A   1      32.946  20.743  25.103  1.00  0.00    -0.084 Cl
ATOM     24  C   UNL A   1      36.891  21.179  24.744  1.00  0.00     0.002 A 
ENDBRANCH  16  18
ENDBRANCH  14  16
ENDBRANCH   7  14
ENDBRANCH   3   6
ENDBRANCH   1   2
BRANCH   1  25
ATOM     25  C   UNL A   1      31.458  32.165  26.620  1.00  0.00     0.042 C 
BRANCH  25  26
ATOM     26  C   UNL A   1      32.683  32.764  27.316  1.00  0.00     0.118 C 
BRANCH  26  27
ATOM     27  N   UNL A   1      32.494  34.178  27.626  1.00  0.00    -0.352 N 
ATOM     28  C   UNL A   1      33.036  34.951  28.621  1.00  0.00     0.251 C 
ATOM     29  H   UNL A   1      31.879  34.654  27.023  1.00  0.00     0.163 HD
ATOM     30  O   UNL A   1      32.541  36.042  28.886  1.00  0.00    -0.269 OA
BRANCH  28  31
ATOM     31  C   UNL A   1      34.213  34.479  29.378  1.00  0.00     0.039 A 
ATOM     32  C   UNL A   1      34.028  33.925  30.648  1.00  0.00     0.014 A 
ATOM     33  C   UNL A   1      35.499  34.616  28.851  1.00  0.00     0.014 A 
ATOM     34  C   UNL A   1      35.127  33.431  31.354  1.00  0.00     0.010 A 
ATOM     35  C   UNL A   1      36.584  34.063  29.524  1.00  0.00     0.010 A 
ATOM     36  C   UNL A   1      36.406  33.451  30.774  1.00  0.00    -0.014 A 
BRANCH  36  37
ATOM     37  C   UNL A   1      37.564  32.789  31.422  1.00  0.00     0.031 A 
ATOM     38  C   UNL A   1      38.244  31.623  30.762  1.00  0.00     0.074 A 
ATOM     39  C   UNL A   1      37.934  33.181  32.657  1.00  0.00     0.049 A 
ATOM     40  N   UNL A   1      39.171  30.832  31.236  1.00  0.00    -0.248 NA
ATOM     41  C   UNL A   1      37.807  31.290  29.397  1.00  0.00     0.031 C 
ATOM     42  C   UNL A   1      37.324  34.277  33.412  1.00  0.00     0.029 A 
ATOM     43  N   UNL A   1      38.895  32.689  33.507  1.00  0.00    -0.354 N 
ATOM     44  C   UNL A   1      39.419  29.900  30.236  1.00  0.00     0.074 A 
ATOM     45  C   UNL A   1      38.516  30.198  29.146  1.00  0.00     0.031 C 
ATOM     46  C   UNL A   1      37.932  34.384  34.602  1.00  0.00     0.029 A 
ATOM     47  C   UNL A   1      38.937  33.334  34.718  1.00  0.00     0.049 A 
ATOM     48  H   UNL A   1      39.495  31.946  33.269  1.00  0.00     0.167 HD
ATOM     49  C   UNL A   1      40.330  28.898  30.230  1.00  0.00     0.037 A 
ATOM     50  C   UNL A   1      39.689  33.095  35.810  1.00  0.00     0.037 A 
ATOM     51  C   UNL A   1      41.235  28.621  31.316  1.00  0.00     0.049 A 
ATOM     52  C   UNL A   1      40.683  31.966  35.779  1.00  0.00     0.074 A 
ATOM     53  C   UNL A   1      42.222  27.653  31.387  1.00  0.00     0.029 A 
ATOM     54  N   UNL A   1      41.265  29.311  32.519  1.00  0.00    -0.354 N 
ATOM     55  N   UNL A   1      40.936  31.116  34.815  1.00  0.00    -0.248 NA
ATOM     56  C   UNL A   1      41.500  31.768  36.984  1.00  0.00     0.031 C 
ATOM     57  C   UNL A   1      42.814  27.723  32.651  1.00  0.00     0.029 A 
ATOM     58  C   UNL A   1      42.242  28.778  33.345  1.00  0.00     0.049 A 
ATOM     59  H   UNL A   1      40.680  30.067  32.752  1.00  0.00     0.167 HD
ATOM     60  C   UNL A   1      41.959  30.302  35.282  1.00  0.00     0.074 A 
ATOM     61  C   UNL A   1      42.290  30.771  36.612  1.00  0.00     0.031 C 
ATOM     62  C   UNL A   1      42.569  29.261  34.663  1.00  0.00     0.037 A 
BRANCH  49  63
ATOM     63  C   UNL A   1      40.410  28.024  29.013  1.00  0.00     0.064 A 
ATOM     64  C   UNL A   1      41.175  28.416  27.903  1.00  0.00     0.173 A 
ATOM     65  C   UNL A   1      39.654  26.847  28.903  1.00  0.00     0.173 A 
ATOM     66  F   UNL A   1      41.913  29.535  27.951  1.00  0.00    -0.203 F 
ATOM     67  C   UNL A   1      41.163  27.675  26.723  1.00  0.00     0.198 A 
ATOM     68  C   UNL A   1      39.668  26.091  27.733  1.00  0.00     0.198 A 
ATOM     69  F   UNL A   1      38.914  26.422  29.939  1.00  0.00    -0.203 F 
ATOM     70  F   UNL A   1      41.868  28.092  25.664  1.00  0.00    -0.200 F 
ATOM     71  C   UNL A   1      40.411  26.513  26.641  1.00  0.00     0.200 A 
ATOM     72  F   UNL A   1      38.958  24.957  27.662  1.00  0.00    -0.200 F 
ATOM     73  F   UNL A   1      40.402  25.799  25.506  1.00  0.00    -0.200 F 
ENDBRANCH  49  63
BRANCH  50  74
ATOM     74  C   UNL A   1      39.542  33.960  37.010  1.00  0.00     0.064 A 
ATOM     75  C   UNL A   1      38.743  33.575  38.098  1.00  0.00     0.173 A 
ATOM     76  C   UNL A   1      40.178  35.208  37.078  1.00  0.00     0.173 A 
ATOM     77  F   UNL A   1      38.107  32.395  38.080  1.00  0.00    -0.203 F 
ATOM     78  C   UNL A   1      38.571  34.415  39.196  1.00  0.00     0.198 A 
ATOM     79  C   UNL A   1      40.029  36.032  38.192  1.00  0.00     0.198 A 
ATOM     80  F   UNL A   1      40.966  35.612  36.072  1.00  0.00    -0.203 F 
ATOM     81  F   UNL A   1      37.771  34.039  40.205  1.00  0.00    -0.200 F 
ATOM     82  C   UNL A   1      39.218  35.639  39.246  1.00  0.00     0.200 A 
ATOM     83  F   UNL A   1      40.679  37.203  38.246  1.00  0.00    -0.200 F 
ATOM     84  F   UNL A   1      39.064  36.438  40.310  1.00  0.00    -0.200 F 
ENDBRANCH  50  74
BRANCH  62  85
ATOM     85  C   UNL A   1      43.688  28.578  35.396  1.00  0.00     0.064 A 
ATOM     86  C   UNL A   1      43.410  27.562  36.324  1.00  0.00     0.173 A 
ATOM     87  C   UNL A   1      45.025  28.966  35.229  1.00  0.00     0.173 A 
ATOM     88  F   UNL A   1      42.146  27.161  36.530  1.00  0.00    -0.203 F 
ATOM     89  C   UNL A   1      44.428  26.969  37.065  1.00  0.00     0.198 A 
ATOM     90  C   UNL A   1      46.045  28.345  35.947  1.00  0.00     0.198 A 
ATOM     91  F   UNL A   1      45.346  29.924  34.346  1.00  0.00    -0.203 F 
ATOM     92  F   UNL A   1      44.133  26.026  37.970  1.00  0.00    -0.200 F 
ATOM     93  C   UNL A   1      45.744  27.355  36.870  1.00  0.00     0.200 A 
ATOM     94  F   UNL A   1      47.320  28.700  35.737  1.00  0.00    -0.200 F 
ATOM     95  F   UNL A   1      46.726  26.770  37.571  1.00  0.00    -0.200 F 
ENDBRANCH  62  85
ENDBRANCH  36  37
ENDBRANCH  28  31
ENDBRANCH  26  27
ENDBRANCH  25  26
ENDBRANCH   1  25
TORSDOF 13
ENDMDL
MODEL 3
REMARK VINA RESULT:     -13.2      5.881     11.094
REMARK SMILES C[C@H](Nc1ccc(C(=O)NCCCNC(=O)c2ccc(-c3c4nc(c(-c5c(F)c(F)c(F)c(F)c5F)c5ccc([nH]5)c(-c5c(F)c(F)c(F)c(F)c5F)c5nc(c(-c6c(F)c(F)c(F)c(F)c6F)c6ccc3[nH]6)C=C5)C=C4)cc2)c(F)c1F)c1ccccc1Cl
REMARK SMILES IDX 11 1 10 2 8 3 9 4 7 6 4 7 5 8 82 9 6 10 80 11 83 12 81 13
REMARK SMILES IDX 3 14 2 16 1 17 84 18 85 19 89 20 86 21 88 22 90 23 87 24
REMARK SMILES IDX 12 25 13 26 14 27 15 28 16 30 17 31 18 32 79 33 19 34 78 35
REMARK SMILES IDX 20 36 21 37 22 38 72 39 23 40 77 41 71 42 73 43 24 44 76 45
REMARK SMILES IDX 70 46 69 47 25 49 57 50 37 51 56 52 38 53 41 54 55 55 74 56
REMARK SMILES IDX 39 57 40 58 54 60 75 61 42 62 26 63 27 64 35 65 28 66 29 67
REMARK SMILES IDX 33 68 36 69 30 70 31 71 34 72 32 73 58 74 59 75 67 76 60 77
REMARK SMILES IDX 61 78 65 79 68 80 62 81 63 82 66 83 64 84 43 85 44 86 52 87
REMARK SMILES IDX 45 88 46 89 50 90 53 91 47 92 48 93 51 94 49 95
REMARK H PARENT 10 5 3 15 14 29 73 48 41 59
REMARK Flexibility Score: inf
ROOT
ATOM      1  C   UNL A   1      36.550  20.696  25.104  1.00  0.00     0.118 C 
ENDROOT
BRANCH   1   2
ATOM      2  N   UNL A   1      35.467  19.737  25.001  1.00  0.00    -0.352 N 
ATOM      3  C   UNL A   1      34.104  19.834  24.981  1.00  0.00     0.254 C 
ATOM      4  O   UNL A   1      33.499  18.764  24.858  1.00  0.00    -0.269 OA
ATOM      5  H   UNL A   1      35.785  18.808  24.930  1.00  0.00     0.163 HD
BRANCH   3   6
ATOM      6  C   UNL A   1      33.300  21.083  25.064  1.00  0.00     0.078 A 
ATOM      7  C   UNL A   1      31.527  23.317  24.972  1.00  0.00     0.074 A 
ATOM      8  C   UNL A   1      31.757  22.550  23.835  1.00  0.00     0.030 A 
ATOM      9  C   UNL A   1      32.229  22.974  26.134  1.00  0.00     0.182 A 
ATOM     10  C   UNL A   1      32.636  21.459  23.878  1.00  0.00     0.019 A 
ATOM     11  C   UNL A   1      33.067  21.859  26.196  1.00  0.00     0.173 A 
ATOM     12  F   UNL A   1      32.028  23.695  27.251  1.00  0.00    -0.201 F 
ATOM     13  F   UNL A   1      33.535  21.529  27.404  1.00  0.00    -0.203 F 
BRANCH   7  14
ATOM     14  N   UNL A   1      30.543  24.290  25.025  1.00  0.00    -0.376 N 
ATOM     15  H   UNL A   1      29.714  24.078  25.514  1.00  0.00     0.161 HD
BRANCH  14  16
ATOM     16  C   UNL A   1      30.648  25.618  24.402  1.00  0.00     0.108 C 
ATOM     17  C   UNL A   1      29.307  26.340  24.177  1.00  0.00     0.036 C 
BRANCH  16  18
ATOM     18  C   UNL A   1      31.553  26.480  25.280  1.00  0.00    -0.007 A 
ATOM     19  C   UNL A   1      31.028  27.067  26.452  1.00  0.00     0.007 A 
ATOM     20  C   UNL A   1      32.902  26.724  24.972  1.00  0.00     0.046 A 
ATOM     21  C   UNL A   1      31.800  27.913  27.249  1.00  0.00     0.000 A 
ATOM     22  C   UNL A   1      33.675  27.569  25.779  1.00  0.00     0.021 A 
ATOM     23  Cl  UNL A   1      33.688  26.008  23.610  1.00  0.00    -0.084 Cl
ATOM     24  C   UNL A   1      33.122  28.174  26.907  1.00  0.00     0.002 A 
ENDBRANCH  16  18
ENDBRANCH  14  16
ENDBRANCH   7  14
ENDBRANCH   3   6
ENDBRANCH   1   2
BRANCH   1  25
ATOM     25  C   UNL A   1      37.896  20.037  24.799  1.00  0.00     0.042 C 
BRANCH  25  26
ATOM     26  C   UNL A   1      39.006  20.472  25.759  1.00  0.00     0.118 C 
BRANCH  26  27
ATOM     27  N   UNL A   1      39.990  19.413  25.966  1.00  0.00    -0.352 N 
ATOM     28  C   UNL A   1      41.351  19.480  26.120  1.00  0.00     0.251 C 
ATOM     29  H   UNL A   1      39.615  18.503  26.002  1.00  0.00     0.163 HD
ATOM     30  O   UNL A   1      42.031  18.466  26.002  1.00  0.00    -0.269 OA
BRANCH  28  31
ATOM     31  C   UNL A   1      42.006  20.768  26.428  1.00  0.00     0.039 A 
ATOM     32  C   UNL A   1      42.388  21.606  25.376  1.00  0.00     0.014 A 
ATOM     33  C   UNL A   1      42.275  21.131  27.749  1.00  0.00     0.014 A 
ATOM     34  C   UNL A   1      42.964  22.847  25.654  1.00  0.00     0.010 A 
ATOM     35  C   UNL A   1      42.786  22.395  28.028  1.00  0.00     0.010 A 
ATOM     36  C   UNL A   1      43.119  23.271  26.984  1.00  0.00    -0.014 A 
BRANCH  36  37
ATOM     37  C   UNL A   1      43.573  24.644  27.314  1.00  0.00     0.031 A 
ATOM     38  C   UNL A   1      42.604  25.660  27.846  1.00  0.00     0.074 A 
ATOM     39  C   UNL A   1      44.843  24.998  27.034  1.00  0.00     0.049 A 
ATOM     40  N   UNL A   1      42.780  26.939  28.055  1.00  0.00    -0.248 NA
ATOM     41  C   UNL A   1      41.250  25.179  28.164  1.00  0.00     0.031 C 
ATOM     42  C   UNL A   1      45.864  24.106  26.482  1.00  0.00     0.029 A 
ATOM     43  N   UNL A   1      45.487  26.205  27.153  1.00  0.00    -0.354 N 
ATOM     44  C   UNL A   1      41.560  27.418  28.515  1.00  0.00     0.074 A 
ATOM     45  C   UNL A   1      40.639  26.302  28.515  1.00  0.00     0.031 C 
ATOM     46  C   UNL A   1      47.007  24.790  26.324  1.00  0.00     0.029 A 
ATOM     47  C   UNL A   1      46.787  26.179  26.712  1.00  0.00     0.049 A 
ATOM     48  H   UNL A   1      45.057  27.011  27.519  1.00  0.00     0.167 HD
ATOM     49  C   UNL A   1      41.247  28.674  28.913  1.00  0.00     0.037 A 
ATOM     50  C   UNL A   1      47.697  27.166  26.613  1.00  0.00     0.037 A 
ATOM     51  C   UNL A   1      42.177  29.774  28.923  1.00  0.00     0.049 A 
ATOM     52  C   UNL A   1      47.317  28.555  27.049  1.00  0.00     0.074 A 
ATOM     53  C   UNL A   1      41.967  31.075  29.347  1.00  0.00     0.029 A 
ATOM     54  N   UNL A   1      43.494  29.704  28.491  1.00  0.00    -0.354 N 
ATOM     55  N   UNL A   1      46.173  28.989  27.518  1.00  0.00    -0.248 NA
ATOM     56  C   UNL A   1      48.356  29.589  26.950  1.00  0.00     0.031 C 
ATOM     57  C   UNL A   1      43.138  31.804  29.124  1.00  0.00     0.029 A 
ATOM     58  C   UNL A   1      44.101  30.943  28.622  1.00  0.00     0.049 A 
ATOM     59  H   UNL A   1      43.932  28.895  28.143  1.00  0.00     0.167 HD
ATOM     60  C   UNL A   1      46.360  30.336  27.798  1.00  0.00     0.074 A 
ATOM     61  C   UNL A   1      47.735  30.643  27.459  1.00  0.00     0.031 C 
ATOM     62  C   UNL A   1      45.473  31.235  28.291  1.00  0.00     0.037 A 
BRANCH  49  63
ATOM     63  C   UNL A   1      39.846  28.939  29.381  1.00  0.00     0.064 A 
ATOM     64  C   UNL A   1      39.477  28.674  30.710  1.00  0.00     0.173 A 
ATOM     65  C   UNL A   1      38.844  29.360  28.495  1.00  0.00     0.173 A 
ATOM     66  F   UNL A   1      40.395  28.264  31.598  1.00  0.00    -0.203 F 
ATOM     67  C   UNL A   1      38.154  28.802  31.127  1.00  0.00     0.198 A 
ATOM     68  C   UNL A   1      37.527  29.516  28.923  1.00  0.00     0.198 A 
ATOM     69  F   UNL A   1      39.145  29.638  27.218  1.00  0.00    -0.203 F 
ATOM     70  F   UNL A   1      37.819  28.503  32.389  1.00  0.00    -0.200 F 
ATOM     71  C   UNL A   1      37.181  29.224  30.233  1.00  0.00     0.200 A 
ATOM     72  F   UNL A   1      36.592  29.946  28.064  1.00  0.00    -0.200 F 
ATOM     73  F   UNL A   1      35.909  29.348  30.637  1.00  0.00    -0.200 F 
ENDBRANCH  49  63
BRANCH  50  74
ATOM     74  C   UNL A   1      49.059  26.866  26.100  1.00  0.00     0.064 A 
ATOM     75  C   UNL A   1      49.386  27.035  24.745  1.00  0.00     0.173 A 
ATOM     76  C   UNL A   1      50.055  26.371  26.953  1.00  0.00     0.173 A 
ATOM     77  F   UNL A   1      48.469  27.498  23.885  1.00  0.00    -0.203 F 
ATOM     78  C   UNL A   1      50.651  26.703  24.263  1.00  0.00     0.198 A 
ATOM     79  C   UNL A   1      51.329  26.069  26.475  1.00  0.00     0.198 A 
ATOM     80  F   UNL A   1      49.797  26.209  28.259  1.00  0.00    -0.203 F 
ATOM     81  F   UNL A   1      50.925  26.838  22.958  1.00  0.00    -0.200 F 
ATOM     82  C   UNL A   1      51.623  26.226  25.129  1.00  0.00     0.200 A 
ATOM     83  F   UNL A   1      52.273  25.634  27.321  1.00  0.00    -0.200 F 
ATOM     84  F   UNL A   1      52.843  25.921  24.667  1.00  0.00    -0.200 F 
ENDBRANCH  50  74
BRANCH  62  85
ATOM     85  C   UNL A   1      45.966  32.631  28.538  1.00  0.00     0.064 A 
ATOM     86  C   UNL A   1      45.914  33.591  27.515  1.00  0.00     0.173 A 
ATOM     87  C   UNL A   1      46.545  33.005  29.759  1.00  0.00     0.173 A 
ATOM     88  F   UNL A   1      45.380  33.282  26.323  1.00  0.00    -0.203 F 
ATOM     89  C   UNL A   1      46.432  34.869  27.703  1.00  0.00     0.198 A 
ATOM     90  C   UNL A   1      47.030  34.297  29.955  1.00  0.00     0.198 A 
ATOM     91  F   UNL A   1      46.609  32.130  30.774  1.00  0.00    -0.203 F 
ATOM     92  F   UNL A   1      46.402  35.756  26.699  1.00  0.00    -0.200 F 
ATOM     93  C   UNL A   1      46.983  35.222  28.924  1.00  0.00     0.200 A 
ATOM     94  F   UNL A   1      47.537  34.645  31.146  1.00  0.00    -0.200 F 
ATOM     95  F   UNL A   1      47.464  36.460  29.110  1.00  0.00    -0.200 F 
ENDBRANCH  62  85
ENDBRANCH  36  37
ENDBRANCH  28  31
ENDBRANCH  26  27
ENDBRANCH  25  26
ENDBRANCH   1  25
TORSDOF 13
ENDMDL
