MODEL 1
REMARK VINA RESULT:     -13.6      0.000      0.000
REMARK SMILES Cc1cccc(C[N@H+]2CCn3nc(CCC(=O)NCCCNC(=O)c4ccc(-c5c6nc(c(-c7c(F)c(F)c(F)c(F)c7F)c7ccc([nH]7)c(-c7c(F)c(F)c(F)c(F)c7F)c7nc(c(-c8c(F)c(F)c(F)c(F)c8F)c8ccc5[nH]8)C=C7)C=C6)cc4)cc3C2)c1
REMARK SMILES IDX 19 1 18 2 16 3 17 4 15 6 14 7 13 8 8 9 9 10 90 11 10 13
REMARK SMILES IDX 89 14 11 15 88 16 12 17 7 18 6 19 1 20 2 21 3 22 91 23 4 24
REMARK SMILES IDX 5 25 20 26 21 27 22 28 23 29 24 31 25 32 26 33 87 34 27 35
REMARK SMILES IDX 86 36 28 37 29 38 30 39 80 40 31 41 85 42 79 43 81 44 32 45
REMARK SMILES IDX 84 46 78 47 77 48 33 50 65 51 45 52 64 53 46 54 49 55 63 56
REMARK SMILES IDX 82 57 47 58 48 59 62 61 83 62 50 63 34 64 35 65 43 66 36 67
REMARK SMILES IDX 37 68 41 69 44 70 38 71 39 72 42 73 40 74 66 75 67 76 75 77
REMARK SMILES IDX 68 78 69 79 73 80 76 81 70 82 71 83 74 84 72 85 51 86 52 87
REMARK SMILES IDX 60 88 53 89 54 90 58 91 61 92 55 93 56 94 59 95 57 96
REMARK H PARENT 18 5 8 12 22 30 81 49 49 60
REMARK Flexibility Score: inf
ROOT
ATOM      1  C   UNL A   1      33.061  29.954  26.667  1.00  0.00     0.117 C 
ENDROOT
BRANCH   1   2
ATOM      2  N   UNL A   1      31.926  30.200  25.796  1.00  0.00    -0.356 N 
ATOM      3  C   UNL A   1      31.425  29.419  24.795  1.00  0.00     0.220 C 
ATOM      4  O   UNL A   1      30.517  29.878  24.099  1.00  0.00    -0.275 OA
ATOM      5  H   UNL A   1      31.451  31.048  25.949  1.00  0.00     0.163 HD
BRANCH   3   6
ATOM      6  C   UNL A   1      31.935  28.008  24.576  1.00  0.00     0.106 C 
BRANCH   6   7
ATOM      7  C   UNL A   1      31.139  26.962  25.368  1.00  0.00     0.068 C 
BRANCH   7   8
ATOM      8  C   UNL A   1      32.009  25.876  25.921  1.00  0.00     0.063 A 
ATOM      9  N   UNL A   1      34.048  22.091  25.771  1.00  0.00    -0.325 N 
ATOM     10  C   UNL A   1      33.364  21.704  27.011  1.00  0.00     0.286 C 
ATOM     11  C   UNL A   1      34.705  23.386  25.960  1.00  0.00     0.319 C 
ATOM     12  H   UNL A   1      33.323  22.186  25.059  1.00  0.00     0.348 HD
ATOM     13  C   UNL A   1      32.243  22.711  27.355  1.00  0.00     0.206 C 
ATOM     14  C   UNL A   1      33.624  24.382  26.145  1.00  0.00     0.093 A 
ATOM     15  N   UNL A   1      32.516  24.054  26.872  1.00  0.00    -0.258 N 
ATOM     16  C   UNL A   1      33.359  25.604  25.577  1.00  0.00     0.055 A 
ATOM     17  N   UNL A   1      31.526  24.968  26.783  1.00  0.00    -0.177 NA
BRANCH   9  18
ATOM     18  C   UNL A   1      34.899  21.073  25.153  1.00  0.00     0.299 C 
BRANCH  18  19
ATOM     19  C   UNL A   1      34.020  19.987  24.544  1.00  0.00     0.006 A 
ATOM     20  C   UNL A   1      34.024  16.232  23.865  1.00  0.00     0.044 C 
ATOM     21  C   UNL A   1      33.668  17.687  23.813  1.00  0.00    -0.051 A 
ATOM     22  C   UNL A   1      32.614  18.106  22.993  1.00  0.00     0.003 A 
ATOM     23  C   UNL A   1      34.387  18.635  24.558  1.00  0.00     0.013 A 
ATOM     24  C   UNL A   1      32.200  19.432  23.020  1.00  0.00     0.001 A 
ATOM     25  C   UNL A   1      32.864  20.344  23.839  1.00  0.00     0.009 A 
ENDBRANCH  18  19
ENDBRANCH   9  18
ENDBRANCH   7   8
ENDBRANCH   6   7
ENDBRANCH   3   6
ENDBRANCH   1   2
BRANCH   1  26
ATOM     26  C   UNL A   1      33.276  31.109  27.637  1.00  0.00     0.042 C 
BRANCH  26  27
ATOM     27  C   UNL A   1      34.651  31.774  27.550  1.00  0.00     0.118 C 
BRANCH  27  28
ATOM     28  N   UNL A   1      35.124  32.084  28.900  1.00  0.00    -0.352 N 
ATOM     29  C   UNL A   1      35.808  31.377  29.869  1.00  0.00     0.251 C 
ATOM     30  H   UNL A   1      34.905  33.003  29.179  1.00  0.00     0.163 HD
ATOM     31  O   UNL A   1      36.068  31.837  30.960  1.00  0.00    -0.269 OA
BRANCH  29  32
ATOM     32  C   UNL A   1      36.364  30.076  29.495  1.00  0.00     0.039 A 
ATOM     33  C   UNL A   1      36.861  29.337  30.569  1.00  0.00     0.014 A 
ATOM     34  C   UNL A   1      36.773  29.868  28.183  1.00  0.00     0.014 A 
ATOM     35  C   UNL A   1      38.029  28.631  30.377  1.00  0.00     0.010 A 
ATOM     36  C   UNL A   1      37.957  29.196  27.998  1.00  0.00     0.010 A 
ATOM     37  C   UNL A   1      38.627  28.695  29.118  1.00  0.00    -0.014 A 
BRANCH  37  38
ATOM     38  C   UNL A   1      40.039  28.427  28.947  1.00  0.00     0.031 A 
ATOM     39  C   UNL A   1      40.456  27.106  28.475  1.00  0.00     0.074 A 
ATOM     40  C   UNL A   1      40.953  29.371  29.263  1.00  0.00     0.049 A 
ATOM     41  N   UNL A   1      41.517  26.509  28.896  1.00  0.00    -0.248 NA
ATOM     42  C   UNL A   1      39.664  26.324  27.533  1.00  0.00     0.031 C 
ATOM     43  C   UNL A   1      42.386  29.314  29.004  1.00  0.00     0.029 A 
ATOM     44  N   UNL A   1      40.781  30.518  30.063  1.00  0.00    -0.354 N 
ATOM     45  C   UNL A   1      41.685  25.401  28.110  1.00  0.00     0.074 A 
ATOM     46  C   UNL A   1      40.472  25.279  27.332  1.00  0.00     0.031 C 
ATOM     47  C   UNL A   1      43.007  30.167  29.833  1.00  0.00     0.029 A 
ATOM     48  C   UNL A   1      42.008  30.711  30.738  1.00  0.00     0.049 A 
ATOM     49  H   UNL A   1      39.970  31.072  30.137  1.00  0.00     0.167 HD
ATOM     50  C   UNL A   1      42.890  24.771  28.079  1.00  0.00     0.037 A 
ATOM     51  C   UNL A   1      42.096  30.707  32.097  1.00  0.00     0.037 A 
ATOM     52  C   UNL A   1      43.874  25.436  28.920  1.00  0.00     0.049 A 
ATOM     53  C   UNL A   1      42.999  29.634  32.654  1.00  0.00     0.074 A 
ATOM     54  C   UNL A   1      44.815  26.413  28.640  1.00  0.00     0.029 A 
ATOM     55  N   UNL A   1      43.737  25.406  30.303  1.00  0.00    -0.354 N 
ATOM     56  N   UNL A   1      43.415  28.613  31.960  1.00  0.00    -0.248 NA
ATOM     57  C   UNL A   1      43.445  29.582  34.045  1.00  0.00     0.031 C 
ATOM     58  C   UNL A   1      45.215  27.005  29.861  1.00  0.00     0.029 A 
ATOM     59  C   UNL A   1      44.534  26.374  30.886  1.00  0.00     0.049 A 
ATOM     60  H   UNL A   1      43.156  24.784  30.797  1.00  0.00     0.167 HD
ATOM     61  C   UNL A   1      44.101  27.756  32.778  1.00  0.00     0.074 A 
ATOM     62  C   UNL A   1      44.123  28.420  34.067  1.00  0.00     0.031 C 
ATOM     63  C   UNL A   1      44.560  26.554  32.327  1.00  0.00     0.037 A 
BRANCH  50  64
ATOM     64  C   UNL A   1      43.195  23.774  27.005  1.00  0.00     0.064 A 
ATOM     65  C   UNL A   1      42.807  22.427  27.125  1.00  0.00     0.173 A 
ATOM     66  C   UNL A   1      43.951  24.096  25.864  1.00  0.00     0.173 A 
ATOM     67  F   UNL A   1      42.036  22.009  28.136  1.00  0.00    -0.203 F 
ATOM     68  C   UNL A   1      43.232  21.453  26.220  1.00  0.00     0.198 A 
ATOM     69  C   UNL A   1      44.418  23.115  24.988  1.00  0.00     0.198 A 
ATOM     70  F   UNL A   1      44.269  25.372  25.593  1.00  0.00    -0.203 F 
ATOM     71  F   UNL A   1      42.851  20.180  26.389  1.00  0.00    -0.200 F 
ATOM     72  C   UNL A   1      44.066  21.791  25.173  1.00  0.00     0.200 A 
ATOM     73  F   UNL A   1      45.233  23.456  23.978  1.00  0.00    -0.200 F 
ATOM     74  F   UNL A   1      44.525  20.846  24.342  1.00  0.00    -0.200 F 
ENDBRANCH  50  64
BRANCH  51  75
ATOM     75  C   UNL A   1      40.889  31.228  32.781  1.00  0.00     0.064 A 
ATOM     76  C   UNL A   1      40.673  32.618  32.798  1.00  0.00     0.173 A 
ATOM     77  C   UNL A   1      39.808  30.399  33.105  1.00  0.00     0.173 A 
ATOM     78  F   UNL A   1      41.677  33.455  32.493  1.00  0.00    -0.203 F 
ATOM     79  C   UNL A   1      39.409  33.151  33.034  1.00  0.00     0.198 A 
ATOM     80  C   UNL A   1      38.544  30.937  33.345  1.00  0.00     0.198 A 
ATOM     81  F   UNL A   1      39.951  29.066  33.092  1.00  0.00    -0.203 F 
ATOM     82  F   UNL A   1      39.215  34.475  32.951  1.00  0.00    -0.200 F 
ATOM     83  C   UNL A   1      38.339  32.308  33.281  1.00  0.00     0.200 A 
ATOM     84  F   UNL A   1      37.504  30.120  33.571  1.00  0.00    -0.200 F 
ATOM     85  F   UNL A   1      37.107  32.816  33.427  1.00  0.00    -0.200 F 
ENDBRANCH  51  75
BRANCH  63  86
ATOM     86  C   UNL A   1      45.138  25.460  33.179  1.00  0.00     0.064 A 
ATOM     87  C   UNL A   1      46.510  25.172  33.251  1.00  0.00     0.173 A 
ATOM     88  C   UNL A   1      44.311  24.768  34.094  1.00  0.00     0.173 A 
ATOM     89  F   UNL A   1      47.397  25.834  32.497  1.00  0.00    -0.203 F 
ATOM     90  C   UNL A   1      47.013  24.228  34.148  1.00  0.00     0.198 A 
ATOM     91  C   UNL A   1      44.823  23.866  35.023  1.00  0.00     0.198 A 
ATOM     92  F   UNL A   1      42.984  24.970  34.126  1.00  0.00    -0.203 F 
ATOM     93  F   UNL A   1      48.327  23.963  34.162  1.00  0.00    -0.200 F 
ATOM     94  C   UNL A   1      46.175  23.587  35.043  1.00  0.00     0.200 A 
ATOM     95  F   UNL A   1      44.004  23.288  35.913  1.00  0.00    -0.200 F 
ATOM     96  F   UNL A   1      46.671  22.720  35.935  1.00  0.00    -0.200 F 
ENDBRANCH  63  86
ENDBRANCH  37  38
ENDBRANCH  29  32
ENDBRANCH  27  28
ENDBRANCH  26  27
ENDBRANCH   1  26
TORSDOF 14
ENDMDL
MODEL 2
REMARK VINA RESULT:     -13.6      3.491      9.792
REMARK SMILES Cc1cccc(C[N@H+]2CCn3nc(CCC(=O)NCCCNC(=O)c4ccc(-c5c6nc(c(-c7c(F)c(F)c(F)c(F)c7F)c7ccc([nH]7)c(-c7c(F)c(F)c(F)c(F)c7F)c7nc(c(-c8c(F)c(F)c(F)c(F)c8F)c8ccc5[nH]8)C=C7)C=C6)cc4)cc3C2)c1
REMARK SMILES IDX 19 1 18 2 16 3 17 4 15 6 14 7 13 8 8 9 9 10 90 11 10 13
REMARK SMILES IDX 89 14 11 15 88 16 12 17 7 18 6 19 1 20 2 21 3 22 91 23 4 24
REMARK SMILES IDX 5 25 20 26 21 27 22 28 23 29 24 31 25 32 26 33 87 34 27 35
REMARK SMILES IDX 86 36 28 37 29 38 30 39 80 40 31 41 85 42 79 43 81 44 32 45
REMARK SMILES IDX 84 46 78 47 77 48 33 50 65 51 45 52 64 53 46 54 49 55 63 56
REMARK SMILES IDX 82 57 47 58 48 59 62 61 83 62 50 63 34 64 35 65 43 66 36 67
REMARK SMILES IDX 37 68 41 69 44 70 38 71 39 72 42 73 40 74 66 75 67 76 75 77
REMARK SMILES IDX 68 78 69 79 73 80 76 81 70 82 71 83 74 84 72 85 51 86 52 87
REMARK SMILES IDX 60 88 53 89 54 90 58 91 61 92 55 93 56 94 59 95 57 96
REMARK H PARENT 18 5 8 12 22 30 81 49 49 60
REMARK Flexibility Score: inf
ROOT
ATOM      1  C   UNL A   1      37.472  22.710  25.426  1.00  0.00     0.117 C 
ENDROOT
BRANCH   1   2
ATOM      2  N   UNL A   1      36.428  22.350  26.369  1.00  0.00    -0.356 N 
ATOM      3  C   UNL A   1      35.280  21.644  26.154  1.00  0.00     0.220 C 
ATOM      4  O   UNL A   1      34.471  21.555  27.079  1.00  0.00    -0.275 OA
ATOM      5  H   UNL A   1      36.568  22.659  27.293  1.00  0.00     0.163 HD
BRANCH   3   6
ATOM      6  C   UNL A   1      35.029  20.949  24.831  1.00  0.00     0.106 C 
BRANCH   6   7
ATOM      7  C   UNL A   1      33.551  20.979  24.417  1.00  0.00     0.068 C 
BRANCH   7   8
ATOM      8  C   UNL A   1      33.157  22.279  23.790  1.00  0.00     0.063 A 
ATOM      9  N   UNL A   1      33.010  26.571  23.533  1.00  0.00    -0.325 N 
ATOM     10  C   UNL A   1      31.545  26.491  23.473  1.00  0.00     0.286 C 
ATOM     11  C   UNL A   1      33.588  25.693  22.514  1.00  0.00     0.319 C 
ATOM     12  H   UNL A   1      33.280  26.232  24.457  1.00  0.00     0.348 HD
ATOM     13  C   UNL A   1      31.062  25.062  23.809  1.00  0.00     0.206 C 
ATOM     14  C   UNL A   1      33.251  24.307  22.912  1.00  0.00     0.093 A 
ATOM     15  N   UNL A   1      32.025  24.035  23.447  1.00  0.00    -0.258 N 
ATOM     16  C   UNL A   1      33.989  23.156  23.045  1.00  0.00     0.055 A 
ATOM     17  N   UNL A   1      31.927  22.789  23.958  1.00  0.00    -0.177 NA
BRANCH   9  18
ATOM     18  C   UNL A   1      33.587  27.916  23.562  1.00  0.00     0.299 C 
BRANCH  18  19
ATOM     19  C   UNL A   1      33.314  28.550  24.921  1.00  0.00     0.006 A 
ATOM     20  C   UNL A   1      31.405  31.461  26.483  1.00  0.00     0.044 C 
ATOM     21  C   UNL A   1      32.371  30.331  26.295  1.00  0.00    -0.051 A 
ATOM     22  C   UNL A   1      33.225  29.976  27.345  1.00  0.00     0.003 A 
ATOM     23  C   UNL A   1      32.445  29.637  25.076  1.00  0.00     0.013 A 
ATOM     24  C   UNL A   1      34.044  28.861  27.226  1.00  0.00     0.001 A 
ATOM     25  C   UNL A   1      34.036  28.124  26.042  1.00  0.00     0.009 A 
ENDBRANCH  18  19
ENDBRANCH   9  18
ENDBRANCH   7   8
ENDBRANCH   6   7
ENDBRANCH   3   6
ENDBRANCH   1   2
BRANCH   1  26
ATOM     26  C   UNL A   1      38.657  21.757  25.520  1.00  0.00     0.042 C 
BRANCH  26  27
ATOM     27  C   UNL A   1      39.457  21.852  26.820  1.00  0.00     0.118 C 
BRANCH  27  28
ATOM     28  N   UNL A   1      40.758  22.461  26.544  1.00  0.00    -0.352 N 
ATOM     29  C   UNL A   1      41.203  23.758  26.384  1.00  0.00     0.251 C 
ATOM     30  H   UNL A   1      41.479  21.795  26.450  1.00  0.00     0.163 HD
ATOM     31  O   UNL A   1      42.354  24.032  26.116  1.00  0.00    -0.269 OA
BRANCH  29  32
ATOM     32  C   UNL A   1      40.270  24.839  26.703  1.00  0.00     0.039 A 
ATOM     33  C   UNL A   1      40.602  26.068  26.129  1.00  0.00     0.014 A 
ATOM     34  C   UNL A   1      39.463  24.727  27.829  1.00  0.00     0.014 A 
ATOM     35  C   UNL A   1      40.419  27.202  26.890  1.00  0.00     0.010 A 
ATOM     36  C   UNL A   1      39.314  25.851  28.604  1.00  0.00     0.010 A 
ATOM     37  C   UNL A   1      39.904  27.045  28.177  1.00  0.00    -0.014 A 
BRANCH  37  38
ATOM     38  C   UNL A   1      40.128  28.044  29.199  1.00  0.00     0.031 A 
ATOM     39  C   UNL A   1      39.200  29.172  29.301  1.00  0.00     0.074 A 
ATOM     40  C   UNL A   1      41.203  27.955  30.013  1.00  0.00     0.049 A 
ATOM     41  N   UNL A   1      39.574  30.368  29.601  1.00  0.00    -0.248 NA
ATOM     42  C   UNL A   1      37.778  29.046  29.004  1.00  0.00     0.031 C 
ATOM     43  C   UNL A   1      41.482  28.785  31.179  1.00  0.00     0.029 A 
ATOM     44  N   UNL A   1      42.373  27.192  29.831  1.00  0.00    -0.354 N 
ATOM     45  C   UNL A   1      38.434  31.103  29.786  1.00  0.00     0.074 A 
ATOM     46  C   UNL A   1      37.345  30.268  29.328  1.00  0.00     0.031 C 
ATOM     47  C   UNL A   1      42.796  28.725  31.444  1.00  0.00     0.029 A 
ATOM     48  C   UNL A   1      43.426  27.954  30.386  1.00  0.00     0.049 A 
ATOM     49  H   UNL A   1      42.443  26.308  29.403  1.00  0.00     0.167 HD
ATOM     50  C   UNL A   1      38.495  32.291  30.445  1.00  0.00     0.037 A 
ATOM     51  C   UNL A   1      44.492  28.366  29.645  1.00  0.00     0.037 A 
ATOM     52  C   UNL A   1      39.844  32.593  30.898  1.00  0.00     0.049 A 
ATOM     53  C   UNL A   1      44.656  29.864  29.579  1.00  0.00     0.074 A 
ATOM     54  C   UNL A   1      40.493  32.339  32.095  1.00  0.00     0.029 A 
ATOM     55  N   UNL A   1      40.835  32.896  29.971  1.00  0.00    -0.354 N 
ATOM     56  N   UNL A   1      43.721  30.705  29.920  1.00  0.00    -0.248 NA
ATOM     57  C   UNL A   1      45.847  30.534  29.059  1.00  0.00     0.031 C 
ATOM     58  C   UNL A   1      41.887  32.447  31.876  1.00  0.00     0.029 A 
ATOM     59  C   UNL A   1      42.086  32.789  30.551  1.00  0.00     0.049 A 
ATOM     60  H   UNL A   1      40.670  33.152  29.035  1.00  0.00     0.167 HD
ATOM     61  C   UNL A   1      44.124  31.979  29.621  1.00  0.00     0.074 A 
ATOM     62  C   UNL A   1      45.474  31.825  29.115  1.00  0.00     0.031 C 
ATOM     63  C   UNL A   1      43.292  33.046  29.784  1.00  0.00     0.037 A 
BRANCH  50  64
ATOM     64  C   UNL A   1      37.244  32.948  30.939  1.00  0.00     0.064 A 
ATOM     65  C   UNL A   1      36.766  32.724  32.243  1.00  0.00     0.173 A 
ATOM     66  C   UNL A   1      36.434  33.750  30.116  1.00  0.00     0.173 A 
ATOM     67  F   UNL A   1      37.475  32.025  33.138  1.00  0.00    -0.203 F 
ATOM     68  C   UNL A   1      35.518  33.186  32.661  1.00  0.00     0.198 A 
ATOM     69  C   UNL A   1      35.164  34.169  30.517  1.00  0.00     0.198 A 
ATOM     70  F   UNL A   1      36.855  34.123  28.898  1.00  0.00    -0.203 F 
ATOM     71  F   UNL A   1      35.098  32.930  33.907  1.00  0.00    -0.200 F 
ATOM     72  C   UNL A   1      34.702  33.877  31.786  1.00  0.00     0.200 A 
ATOM     73  F   UNL A   1      34.380  34.834  29.656  1.00  0.00    -0.200 F 
ATOM     74  F   UNL A   1      33.478  34.265  32.167  1.00  0.00    -0.200 F 
ENDBRANCH  50  64
BRANCH  51  75
ATOM     75  C   UNL A   1      44.869  27.430  28.559  1.00  0.00     0.064 A 
ATOM     76  C   UNL A   1      44.386  27.677  27.261  1.00  0.00     0.173 A 
ATOM     77  C   UNL A   1      45.933  26.531  28.696  1.00  0.00     0.173 A 
ATOM     78  F   UNL A   1      43.369  28.534  27.077  1.00  0.00    -0.203 F 
ATOM     79  C   UNL A   1      45.003  27.124  26.142  1.00  0.00     0.198 A 
ATOM     80  C   UNL A   1      46.545  25.974  27.572  1.00  0.00     0.198 A 
ATOM     81  F   UNL A   1      46.443  26.266  29.907  1.00  0.00    -0.203 F 
ATOM     82  F   UNL A   1      44.578  27.453  24.913  1.00  0.00    -0.200 F 
ATOM     83  C   UNL A   1      46.099  26.294  26.297  1.00  0.00     0.200 A 
ATOM     84  F   UNL A   1      47.616  25.180  27.721  1.00  0.00    -0.200 F 
ATOM     85  F   UNL A   1      46.743  25.827  25.218  1.00  0.00    -0.200 F 
ENDBRANCH  51  75
BRANCH  63  86
ATOM     86  C   UNL A   1      43.554  34.444  29.301  1.00  0.00     0.064 A 
ATOM     87  C   UNL A   1      43.537  34.816  27.947  1.00  0.00     0.173 A 
ATOM     88  C   UNL A   1      43.669  35.503  30.232  1.00  0.00     0.173 A 
ATOM     89  F   UNL A   1      43.341  33.908  26.981  1.00  0.00    -0.203 F 
ATOM     90  C   UNL A   1      43.665  36.150  27.553  1.00  0.00     0.198 A 
ATOM     91  C   UNL A   1      43.743  36.836  29.837  1.00  0.00     0.198 A 
ATOM     92  F   UNL A   1      43.685  35.269  31.554  1.00  0.00    -0.203 F 
ATOM     93  F   UNL A   1      43.673  36.456  26.248  1.00  0.00    -0.200 F 
ATOM     94  C   UNL A   1      43.753  37.159  28.495  1.00  0.00     0.200 A 
ATOM     95  F   UNL A   1      43.781  37.805  30.762  1.00  0.00    -0.200 F 
ATOM     96  F   UNL A   1      43.825  38.440  28.111  1.00  0.00    -0.200 F 
ENDBRANCH  63  86
ENDBRANCH  37  38
ENDBRANCH  29  32
ENDBRANCH  27  28
ENDBRANCH  26  27
ENDBRANCH   1  26
TORSDOF 14
ENDMDL
MODEL 3
REMARK VINA RESULT:     -13.6      3.710     10.191
REMARK SMILES Cc1cccc(C[N@H+]2CCn3nc(CCC(=O)NCCCNC(=O)c4ccc(-c5c6nc(c(-c7c(F)c(F)c(F)c(F)c7F)c7ccc([nH]7)c(-c7c(F)c(F)c(F)c(F)c7F)c7nc(c(-c8c(F)c(F)c(F)c(F)c8F)c8ccc5[nH]8)C=C7)C=C6)cc4)cc3C2)c1
REMARK SMILES IDX 19 1 18 2 16 3 17 4 15 6 14 7 13 8 8 9 9 10 90 11 10 13
REMARK SMILES IDX 89 14 11 15 88 16 12 17 7 18 6 19 1 20 2 21 3 22 91 23 4 24
REMARK SMILES IDX 5 25 20 26 21 27 22 28 23 29 24 31 25 32 26 33 87 34 27 35
REMARK SMILES IDX 86 36 28 37 29 38 30 39 80 40 31 41 85 42 79 43 81 44 32 45
REMARK SMILES IDX 84 46 78 47 77 48 33 50 65 51 45 52 64 53 46 54 49 55 63 56
REMARK SMILES IDX 82 57 47 58 48 59 62 61 83 62 50 63 34 64 35 65 43 66 36 67
REMARK SMILES IDX 37 68 41 69 44 70 38 71 39 72 42 73 40 74 66 75 67 76 75 77
REMARK SMILES IDX 68 78 69 79 73 80 76 81 70 82 71 83 74 84 72 85 51 86 52 87
REMARK SMILES IDX 60 88 53 89 54 90 58 91 61 92 55 93 56 94 59 95 57 96
REMARK H PARENT 18 5 8 12 22 30 81 49 49 60
REMARK Flexibility Score: inf
ROOT
ATOM      1  C   UNL A   1      37.531  21.063  24.893  1.00  0.00     0.117 C 
ENDROOT
BRANCH   1   2
ATOM      2  N   UNL A   1      37.122  22.104  23.967  1.00  0.00    -0.356 N 
ATOM      3  C   UNL A   1      35.878  22.622  23.750  1.00  0.00     0.220 C 
ATOM      4  O   UNL A   1      35.736  23.424  22.825  1.00  0.00    -0.275 OA
ATOM      5  H   UNL A   1      37.843  22.489  23.418  1.00  0.00     0.163 HD
BRANCH   3   6
ATOM      6  C   UNL A   1      34.715  22.261  24.652  1.00  0.00     0.106 C 
BRANCH   6   7
ATOM      7  C   UNL A   1      33.450  21.890  23.866  1.00  0.00     0.068 C 
BRANCH   7   8
ATOM      8  C   UNL A   1      32.472  23.020  23.784  1.00  0.00     0.063 A 
ATOM      9  N   UNL A   1      31.316  27.161  23.938  1.00  0.00    -0.325 N 
ATOM     10  C   UNL A   1      30.307  26.814  24.946  1.00  0.00     0.286 C 
ATOM     11  C   UNL A   1      31.157  26.293  22.770  1.00  0.00     0.319 C 
ATOM     12  H   UNL A   1      32.225  26.980  24.366  1.00  0.00     0.348 HD
ATOM     13  C   UNL A   1      30.513  25.368  25.451  1.00  0.00     0.206 C 
ATOM     14  C   UNL A   1      31.497  24.922  23.215  1.00  0.00     0.093 A 
ATOM     15  N   UNL A   1      31.110  24.496  24.453  1.00  0.00    -0.258 N 
ATOM     16  C   UNL A   1      32.321  23.944  22.716  1.00  0.00     0.055 A 
ATOM     17  N   UNL A   1      31.663  23.317  24.812  1.00  0.00    -0.177 NA
BRANCH   9  18
ATOM     18  C   UNL A   1      31.449  28.582  23.614  1.00  0.00     0.299 C 
BRANCH  18  19
ATOM     19  C   UNL A   1      32.077  29.310  24.797  1.00  0.00     0.006 A 
ATOM     20  C   UNL A   1      34.976  28.981  27.255  1.00  0.00     0.044 C 
ATOM     21  C   UNL A   1      33.693  29.423  26.620  1.00  0.00    -0.051 A 
ATOM     22  C   UNL A   1      32.913  30.398  27.253  1.00  0.00     0.003 A 
ATOM     23  C   UNL A   1      33.251  28.860  25.411  1.00  0.00     0.013 A 
ATOM     24  C   UNL A   1      31.782  30.898  26.622  1.00  0.00     0.001 A 
ATOM     25  C   UNL A   1      31.410  30.396  25.376  1.00  0.00     0.009 A 
ENDBRANCH  18  19
ENDBRANCH   9  18
ENDBRANCH   7   8
ENDBRANCH   6   7
ENDBRANCH   3   6
ENDBRANCH   1   2
BRANCH   1  26
ATOM     26  C   UNL A   1      38.815  21.442  25.621  1.00  0.00     0.042 C 
BRANCH  26  27
ATOM     27  C   UNL A   1      38.864  22.883  26.132  1.00  0.00     0.118 C 
BRANCH  27  28
ATOM     28  N   UNL A   1      40.251  23.247  26.418  1.00  0.00    -0.352 N 
ATOM     29  C   UNL A   1      40.887  24.418  26.780  1.00  0.00     0.251 C 
ATOM     30  H   UNL A   1      40.872  22.487  26.334  1.00  0.00     0.163 HD
ATOM     31  O   UNL A   1      42.087  24.497  26.933  1.00  0.00    -0.269 OA
BRANCH  29  32
ATOM     32  C   UNL A   1      40.048  25.564  27.135  1.00  0.00     0.039 A 
ATOM     33  C   UNL A   1      40.410  26.755  26.503  1.00  0.00     0.014 A 
ATOM     34  C   UNL A   1      39.323  25.530  28.320  1.00  0.00     0.014 A 
ATOM     35  C   UNL A   1      40.354  27.917  27.242  1.00  0.00     0.010 A 
ATOM     36  C   UNL A   1      39.302  26.680  29.071  1.00  0.00     0.010 A 
ATOM     37  C   UNL A   1      39.929  27.824  28.567  1.00  0.00    -0.014 A 
BRANCH  37  38
ATOM     38  C   UNL A   1      40.290  28.832  29.540  1.00  0.00     0.031 A 
ATOM     39  C   UNL A   1      39.301  29.846  29.908  1.00  0.00     0.074 A 
ATOM     40  C   UNL A   1      41.535  28.856  30.063  1.00  0.00     0.049 A 
ATOM     41  N   UNL A   1      39.606  31.073  30.153  1.00  0.00    -0.248 NA
ATOM     42  C   UNL A   1      37.871  29.563  29.962  1.00  0.00     0.031 C 
ATOM     43  C   UNL A   1      42.003  29.701  31.156  1.00  0.00     0.029 A 
ATOM     44  N   UNL A   1      42.699  28.233  29.573  1.00  0.00    -0.354 N 
ATOM     45  C   UNL A   1      38.475  31.673  30.638  1.00  0.00     0.074 A 
ATOM     46  C   UNL A   1      37.403  30.725  30.428  1.00  0.00     0.031 C 
ATOM     47  C   UNL A   1      43.340  29.787  31.091  1.00  0.00     0.029 A 
ATOM     48  C   UNL A   1      43.769  29.103  29.883  1.00  0.00     0.049 A 
ATOM     49  H   UNL A   1      42.756  27.366  29.108  1.00  0.00     0.167 HD
ATOM     50  C   UNL A   1      38.570  32.854  31.306  1.00  0.00     0.037 A 
ATOM     51  C   UNL A   1      44.569  29.640  28.920  1.00  0.00     0.037 A 
ATOM     52  C   UNL A   1      39.948  33.302  31.427  1.00  0.00     0.049 A 
ATOM     53  C   UNL A   1      44.549  31.148  28.872  1.00  0.00     0.074 A 
ATOM     54  C   UNL A   1      40.896  33.111  32.419  1.00  0.00     0.029 A 
ATOM     55  N   UNL A   1      40.642  33.725  30.299  1.00  0.00    -0.354 N 
ATOM     56  N   UNL A   1      43.643  31.875  29.462  1.00  0.00    -0.248 NA
ATOM     57  C   UNL A   1      45.497  31.953  28.103  1.00  0.00     0.031 C 
ATOM     58  C   UNL A   1      42.172  33.378  31.871  1.00  0.00     0.029 A 
ATOM     59  C   UNL A   1      42.001  33.754  30.551  1.00  0.00     0.049 A 
ATOM     60  H   UNL A   1      40.224  33.969  29.442  1.00  0.00     0.167 HD
ATOM     61  C   UNL A   1      43.821  33.189  29.122  1.00  0.00     0.074 A 
ATOM     62  C   UNL A   1      45.013  33.194  28.297  1.00  0.00     0.031 C 
ATOM     63  C   UNL A   1      42.945  34.153  29.523  1.00  0.00     0.037 A 
BRANCH  50  64
ATOM     64  C   UNL A   1      37.416  33.360  32.115  1.00  0.00     0.064 A 
ATOM     65  C   UNL A   1      36.355  34.063  31.516  1.00  0.00     0.173 A 
ATOM     66  C   UNL A   1      37.362  33.240  33.515  1.00  0.00     0.173 A 
ATOM     67  F   UNL A   1      36.264  34.194  30.187  1.00  0.00    -0.203 F 
ATOM     68  C   UNL A   1      35.365  34.689  32.273  1.00  0.00     0.198 A 
ATOM     69  C   UNL A   1      36.400  33.909  34.274  1.00  0.00     0.198 A 
ATOM     70  F   UNL A   1      38.258  32.488  34.172  1.00  0.00    -0.203 F 
ATOM     71  F   UNL A   1      34.386  35.364  31.656  1.00  0.00    -0.200 F 
ATOM     72  C   UNL A   1      35.408  34.642  33.653  1.00  0.00     0.200 A 
ATOM     73  F   UNL A   1      36.457  33.860  35.614  1.00  0.00    -0.200 F 
ATOM     74  F   UNL A   1      34.493  35.297  34.380  1.00  0.00    -0.200 F 
ENDBRANCH  50  64
BRANCH  51  75
ATOM     75  C   UNL A   1      44.764  28.764  27.740  1.00  0.00     0.064 A 
ATOM     76  C   UNL A   1      45.631  27.663  27.857  1.00  0.00     0.173 A 
ATOM     77  C   UNL A   1      43.885  28.787  26.651  1.00  0.00     0.173 A 
ATOM     78  F   UNL A   1      46.491  27.593  28.885  1.00  0.00    -0.203 F 
ATOM     79  C   UNL A   1      45.554  26.586  26.978  1.00  0.00     0.198 A 
ATOM     80  C   UNL A   1      43.815  27.708  25.769  1.00  0.00     0.198 A 
ATOM     81  F   UNL A   1      43.027  29.805  26.495  1.00  0.00    -0.203 F 
ATOM     82  F   UNL A   1      46.329  25.509  27.170  1.00  0.00    -0.200 F 
ATOM     83  C   UNL A   1      44.628  26.597  25.949  1.00  0.00     0.200 A 
ATOM     84  F   UNL A   1      42.908  27.713  24.781  1.00  0.00    -0.200 F 
ATOM     85  F   UNL A   1      44.498  25.526  25.154  1.00  0.00    -0.200 F 
ENDBRANCH  51  75
BRANCH  63  86
ATOM     86  C   UNL A   1      42.929  35.577  29.043  1.00  0.00     0.064 A 
ATOM     87  C   UNL A   1      42.197  36.014  27.928  1.00  0.00     0.173 A 
ATOM     88  C   UNL A   1      43.538  36.590  29.820  1.00  0.00     0.173 A 
ATOM     89  F   UNL A   1      41.503  35.152  27.173  1.00  0.00    -0.203 F 
ATOM     90  C   UNL A   1      42.114  37.367  27.592  1.00  0.00     0.198 A 
ATOM     91  C   UNL A   1      43.409  37.942  29.512  1.00  0.00     0.198 A 
ATOM     92  F   UNL A   1      44.254  36.293  30.916  1.00  0.00    -0.203 F 
ATOM     93  F   UNL A   1      41.428  37.737  26.501  1.00  0.00    -0.200 F 
ATOM     94  C   UNL A   1      42.705  38.330  28.390  1.00  0.00     0.200 A 
ATOM     95  F   UNL A   1      43.949  38.865  30.320  1.00  0.00    -0.200 F 
ATOM     96  F   UNL A   1      42.580  39.629  28.090  1.00  0.00    -0.200 F 
ENDBRANCH  63  86
ENDBRANCH  37  38
ENDBRANCH  29  32
ENDBRANCH  27  28
ENDBRANCH  26  27
ENDBRANCH   1  26
TORSDOF 14
ENDMDL
