MODEL 1
REMARK VINA RESULT:     -12.3      0.000      0.000
REMARK SMILES C[C@H](c1ccncc1)N1C[C@H](C(=O)NCCCNC(=O)c2ccc(-c3c4nc(c(-c5c(F)c(F)c(F)c(F)c5F)c5ccc([nH]5)c(-c5c(F)c(F)c(F)c(F)c5F)c5nc(c(-c6c(F)c(F)c(F)c(F)c6F)c6ccc3[nH]6)C=C5)C=C4)cc2)CC1=O
REMARK SMILES IDX 16 1 15 2 14 3 12 4 13 5 11 7 9 8 10 9 85 10 84 11 86 12
REMARK SMILES IDX 2 13 1 14 3 15 4 16 8 17 5 18 7 19 6 20 17 21 18 22 19 23
REMARK SMILES IDX 20 25 21 26 22 27 83 28 23 29 82 30 24 31 25 32 26 33 76 34
REMARK SMILES IDX 27 35 81 36 75 37 77 38 28 39 80 40 74 41 73 42 29 44 61 45
REMARK SMILES IDX 41 46 60 47 42 48 45 49 59 50 78 51 43 52 44 53 58 55 79 56
REMARK SMILES IDX 46 57 30 58 31 59 39 60 32 61 33 62 37 63 40 64 34 65 35 66
REMARK SMILES IDX 38 67 36 68 62 69 63 70 71 71 64 72 65 73 69 74 72 75 66 76
REMARK SMILES IDX 67 77 70 78 68 79 47 80 48 81 56 82 49 83 50 84 54 85 57 86
REMARK SMILES IDX 51 87 52 88 55 89 53 90
REMARK H PARENT 14 6 18 24 77 43 45 54
REMARK Flexibility Score: inf
ROOT
ATOM      1  C   UNL A   1      31.422  31.766  26.436  1.00  0.00     0.042 C 
ENDROOT
BRANCH   1   2
ATOM      2  C   UNL A   1      31.612  30.283  26.150  1.00  0.00     0.117 C 
BRANCH   2   3
ATOM      3  N   UNL A   1      31.088  29.908  24.851  1.00  0.00    -0.356 N 
ATOM      4  C   UNL A   1      31.698  29.279  23.809  1.00  0.00     0.225 C 
ATOM      5  O   UNL A   1      31.031  29.061  22.798  1.00  0.00    -0.275 OA
ATOM      6  H   UNL A   1      30.144  30.145  24.698  1.00  0.00     0.163 HD
BRANCH   4   7
ATOM      7  C   UNL A   1      33.161  28.893  23.927  1.00  0.00     0.107 C 
ATOM      8  N   UNL A   1      33.454  26.568  23.758  1.00  0.00    -0.335 N 
ATOM      9  C   UNL A   1      33.328  27.621  24.733  1.00  0.00     0.134 C 
ATOM     10  C   UNL A   1      33.655  27.062  22.481  1.00  0.00     0.223 C 
ATOM     11  C   UNL A   1      33.745  28.567  22.557  1.00  0.00     0.115 C 
ATOM     12  O   UNL A   1      33.784  26.408  21.456  1.00  0.00    -0.275 OA
BRANCH   8  13
ATOM     13  C   UNL A   1      33.234  25.150  24.056  1.00  0.00     0.112 C 
ATOM     14  C   UNL A   1      32.240  24.985  25.209  1.00  0.00     0.036 C 
BRANCH  13  15
ATOM     15  C   UNL A   1      34.528  24.382  24.280  1.00  0.00    -0.023 A 
ATOM     16  C   UNL A   1      35.264  24.469  25.469  1.00  0.00     0.026 A 
ATOM     17  C   UNL A   1      35.030  23.555  23.269  1.00  0.00     0.026 A 
ATOM     18  C   UNL A   1      36.462  23.780  25.576  1.00  0.00     0.111 A 
ATOM     19  C   UNL A   1      36.225  22.882  23.479  1.00  0.00     0.111 A 
ATOM     20  N   UNL A   1      36.959  22.987  24.606  1.00  0.00    -0.265 NA
ENDBRANCH  13  15
ENDBRANCH   8  13
ENDBRANCH   4   7
ENDBRANCH   2   3
ENDBRANCH   1   2
BRANCH   1  21
ATOM     21  C   UNL A   1      32.685  32.482  26.904  1.00  0.00     0.118 C 
BRANCH  21  22
ATOM     22  N   UNL A   1      32.423  33.824  27.404  1.00  0.00    -0.352 N 
ATOM     23  C   UNL A   1      33.002  34.528  28.429  1.00  0.00     0.251 C 
ATOM     24  H   UNL A   1      31.712  34.308  26.926  1.00  0.00     0.163 HD
ATOM     25  O   UNL A   1      32.494  35.586  28.790  1.00  0.00    -0.269 OA
BRANCH  23  26
ATOM     26  C   UNL A   1      34.208  34.023  29.120  1.00  0.00     0.039 A 
ATOM     27  C   UNL A   1      34.041  33.093  30.150  1.00  0.00     0.014 A 
ATOM     28  C   UNL A   1      35.491  34.473  28.796  1.00  0.00     0.014 A 
ATOM     29  C   UNL A   1      35.158  32.568  30.801  1.00  0.00     0.010 A 
ATOM     30  C   UNL A   1      36.609  33.882  29.383  1.00  0.00     0.010 A 
ATOM     31  C   UNL A   1      36.455  32.923  30.393  1.00  0.00    -0.014 A 
BRANCH  31  32
ATOM     32  C   UNL A   1      37.641  32.265  31.001  1.00  0.00     0.031 A 
ATOM     33  C   UNL A   1      38.124  32.647  32.373  1.00  0.00     0.074 A 
ATOM     34  C   UNL A   1      38.304  31.330  30.293  1.00  0.00     0.049 A 
ATOM     35  N   UNL A   1      39.119  32.150  33.067  1.00  0.00    -0.248 NA
ATOM     36  C   UNL A   1      37.414  33.744  33.048  1.00  0.00     0.031 C 
ATOM     37  C   UNL A   1      37.975  30.918  28.926  1.00  0.00     0.029 A 
ATOM     38  N   UNL A   1      39.385  30.551  30.622  1.00  0.00    -0.354 N 
ATOM     39  C   UNL A   1      39.153  32.873  34.253  1.00  0.00     0.074 A 
ATOM     40  C   UNL A   1      38.121  33.882  34.160  1.00  0.00     0.031 C 
ATOM     41  C   UNL A   1      38.806  29.934  28.550  1.00  0.00     0.029 A 
ATOM     42  C   UNL A   1      39.751  29.672  29.631  1.00  0.00     0.049 A 
ATOM     43  H   UNL A   1      39.853  30.616  31.485  1.00  0.00     0.167 HD
ATOM     44  C   UNL A   1      39.956  32.693  35.331  1.00  0.00     0.037 A 
ATOM     45  C   UNL A   1      40.736  28.756  29.597  1.00  0.00     0.037 A 
ATOM     46  C   UNL A   1      40.980  31.683  35.421  1.00  0.00     0.049 A 
ATOM     47  C   UNL A   1      41.613  28.580  30.806  1.00  0.00     0.074 A 
ATOM     48  C   UNL A   1      41.808  31.385  36.490  1.00  0.00     0.029 A 
ATOM     49  N   UNL A   1      41.324  30.811  34.397  1.00  0.00    -0.354 N 
ATOM     50  N   UNL A   1      41.579  29.210  31.955  1.00  0.00    -0.248 NA
ATOM     51  C   UNL A   1      42.658  27.553  30.717  1.00  0.00     0.031 C 
ATOM     52  C   UNL A   1      42.692  30.376  36.093  1.00  0.00     0.029 A 
ATOM     53  C   UNL A   1      42.372  29.995  34.800  1.00  0.00     0.049 A 
ATOM     54  H   UNL A   1      40.889  30.777  33.515  1.00  0.00     0.167 HD
ATOM     55  C   UNL A   1      42.580  28.643  32.732  1.00  0.00     0.074 A 
ATOM     56  C   UNL A   1      43.180  27.594  31.934  1.00  0.00     0.031 C 
ATOM     57  C   UNL A   1      42.971  28.963  33.991  1.00  0.00     0.037 A 
BRANCH  44  58
ATOM     58  C   UNL A   1      39.759  33.611  36.505  1.00  0.00     0.064 A 
ATOM     59  C   UNL A   1      40.380  34.869  36.572  1.00  0.00     0.173 A 
ATOM     60  C   UNL A   1      38.904  33.249  37.559  1.00  0.00     0.173 A 
ATOM     61  F   UNL A   1      41.214  35.262  35.598  1.00  0.00    -0.203 F 
ATOM     62  C   UNL A   1      40.177  35.713  37.661  1.00  0.00     0.198 A 
ATOM     63  C   UNL A   1      38.677  34.111  38.629  1.00  0.00     0.198 A 
ATOM     64  F   UNL A   1      38.279  32.062  37.545  1.00  0.00    -0.203 F 
ATOM     65  F   UNL A   1      40.822  36.886  37.726  1.00  0.00    -0.200 F 
ATOM     66  C   UNL A   1      39.320  35.337  38.684  1.00  0.00     0.200 A 
ATOM     67  F   UNL A   1      37.836  33.753  39.609  1.00  0.00    -0.200 F 
ATOM     68  F   UNL A   1      39.118  36.156  39.726  1.00  0.00    -0.200 F 
ENDBRANCH  44  58
BRANCH  45  69
ATOM     69  C   UNL A   1      40.927  27.913  28.388  1.00  0.00     0.064 A 
ATOM     70  C   UNL A   1      41.745  28.338  27.331  1.00  0.00     0.173 A 
ATOM     71  C   UNL A   1      40.289  26.671  28.257  1.00  0.00     0.173 A 
ATOM     72  F   UNL A   1      42.364  29.527  27.399  1.00  0.00    -0.203 F 
ATOM     73  C   UNL A   1      41.896  27.567  26.180  1.00  0.00     0.198 A 
ATOM     74  C   UNL A   1      40.468  25.884  27.120  1.00  0.00     0.198 A 
ATOM     75  F   UNL A   1      39.502  26.213  29.242  1.00  0.00    -0.203 F 
ATOM     76  F   UNL A   1      42.638  28.024  25.163  1.00  0.00    -0.200 F 
ATOM     77  C   UNL A   1      41.261  26.339  26.078  1.00  0.00     0.200 A 
ATOM     78  F   UNL A   1      39.868  24.690  27.035  1.00  0.00    -0.200 F 
ATOM     79  F   UNL A   1      41.408  25.596  24.973  1.00  0.00    -0.200 F 
ENDBRANCH  45  69
BRANCH  57  80
ATOM     80  C   UNL A   1      44.086  28.147  34.584  1.00  0.00     0.064 A 
ATOM     81  C   UNL A   1      43.839  26.960  35.292  1.00  0.00     0.173 A 
ATOM     82  C   UNL A   1      45.421  28.563  34.453  1.00  0.00     0.173 A 
ATOM     83  F   UNL A   1      42.582  26.523  35.459  1.00  0.00    -0.203 F 
ATOM     84  C   UNL A   1      44.878  26.252  35.890  1.00  0.00     0.198 A 
ATOM     85  C   UNL A   1      46.461  27.830  35.019  1.00  0.00     0.198 A 
ATOM     86  F   UNL A   1      45.717  29.684  33.779  1.00  0.00    -0.203 F 
ATOM     87  F   UNL A   1      44.607  25.166  36.629  1.00  0.00    -0.200 F 
ATOM     88  C   UNL A   1      46.188  26.684  35.750  1.00  0.00     0.200 A 
ATOM     89  F   UNL A   1      47.727  28.241  34.867  1.00  0.00    -0.200 F 
ATOM     90  F   UNL A   1      47.185  26.005  36.332  1.00  0.00    -0.200 F 
ENDBRANCH  57  80
ENDBRANCH  31  32
ENDBRANCH  23  26
ENDBRANCH  21  22
ENDBRANCH   1  21
TORSDOF 12
ENDMDL
MODEL 2
REMARK VINA RESULT:     -12.2      0.077      1.621
REMARK SMILES C[C@H](c1ccncc1)N1C[C@H](C(=O)NCCCNC(=O)c2ccc(-c3c4nc(c(-c5c(F)c(F)c(F)c(F)c5F)c5ccc([nH]5)c(-c5c(F)c(F)c(F)c(F)c5F)c5nc(c(-c6c(F)c(F)c(F)c(F)c6F)c6ccc3[nH]6)C=C5)C=C4)cc2)CC1=O
REMARK SMILES IDX 16 1 15 2 14 3 12 4 13 5 11 7 9 8 10 9 85 10 84 11 86 12
REMARK SMILES IDX 2 13 1 14 3 15 4 16 8 17 5 18 7 19 6 20 17 21 18 22 19 23
REMARK SMILES IDX 20 25 21 26 22 27 83 28 23 29 82 30 24 31 25 32 26 33 76 34
REMARK SMILES IDX 27 35 81 36 75 37 77 38 28 39 80 40 74 41 73 42 29 44 61 45
REMARK SMILES IDX 41 46 60 47 42 48 45 49 59 50 78 51 43 52 44 53 58 55 79 56
REMARK SMILES IDX 46 57 30 58 31 59 39 60 32 61 33 62 37 63 40 64 34 65 35 66
REMARK SMILES IDX 38 67 36 68 62 69 63 70 71 71 64 72 65 73 69 74 72 75 66 76
REMARK SMILES IDX 67 77 70 78 68 79 47 80 48 81 56 82 49 83 50 84 54 85 57 86
REMARK SMILES IDX 51 87 52 88 55 89 53 90
REMARK H PARENT 14 6 18 24 77 43 45 54
REMARK Flexibility Score: inf
ROOT
ATOM      1  C   UNL A   1      31.408  31.743  26.500  1.00  0.00     0.042 C 
ENDROOT
BRANCH   1   2
ATOM      2  C   UNL A   1      31.616  30.269  26.181  1.00  0.00     0.117 C 
BRANCH   2   3
ATOM      3  N   UNL A   1      31.082  29.913  24.880  1.00  0.00    -0.356 N 
ATOM      4  C   UNL A   1      31.684  29.297  23.826  1.00  0.00     0.225 C 
ATOM      5  O   UNL A   1      31.010  29.095  22.817  1.00  0.00    -0.275 OA
ATOM      6  H   UNL A   1      30.138  30.155  24.737  1.00  0.00     0.163 HD
BRANCH   4   7
ATOM      7  C   UNL A   1      33.147  28.906  23.929  1.00  0.00     0.107 C 
ATOM      8  N   UNL A   1      33.428  26.579  23.770  1.00  0.00    -0.335 N 
ATOM      9  C   UNL A   1      33.317  27.638  24.740  1.00  0.00     0.134 C 
ATOM     10  C   UNL A   1      33.617  27.065  22.488  1.00  0.00     0.223 C 
ATOM     11  C   UNL A   1      33.714  28.570  22.555  1.00  0.00     0.115 C 
ATOM     12  O   UNL A   1      33.731  26.406  21.465  1.00  0.00    -0.275 OA
BRANCH   8  13
ATOM     13  C   UNL A   1      33.206  25.164  24.078  1.00  0.00     0.112 C 
ATOM     14  C   UNL A   1      32.215  25.008  25.234  1.00  0.00     0.036 C 
BRANCH  13  15
ATOM     15  C   UNL A   1      34.498  24.394  24.303  1.00  0.00    -0.023 A 
ATOM     16  C   UNL A   1      35.213  24.450  25.507  1.00  0.00     0.026 A 
ATOM     17  C   UNL A   1      35.022  23.598  23.277  1.00  0.00     0.026 A 
ATOM     18  C   UNL A   1      36.412  23.762  25.616  1.00  0.00     0.111 A 
ATOM     19  C   UNL A   1      36.216  22.924  23.490  1.00  0.00     0.111 A 
ATOM     20  N   UNL A   1      36.930  22.999  24.633  1.00  0.00    -0.265 NA
ENDBRANCH  13  15
ENDBRANCH   8  13
ENDBRANCH   4   7
ENDBRANCH   2   3
ENDBRANCH   1   2
BRANCH   1  21
ATOM     21  C   UNL A   1      32.683  32.489  26.880  1.00  0.00     0.118 C 
BRANCH  21  22
ATOM     22  N   UNL A   1      32.426  33.833  27.377  1.00  0.00    -0.352 N 
ATOM     23  C   UNL A   1      33.005  34.535  28.403  1.00  0.00     0.251 C 
ATOM     24  H   UNL A   1      31.719  34.320  26.896  1.00  0.00     0.163 HD
ATOM     25  O   UNL A   1      32.501  35.597  28.762  1.00  0.00    -0.269 OA
BRANCH  23  26
ATOM     26  C   UNL A   1      34.206  34.024  29.101  1.00  0.00     0.039 A 
ATOM     27  C   UNL A   1      34.030  33.092  30.126  1.00  0.00     0.014 A 
ATOM     28  C   UNL A   1      35.491  34.472  28.785  1.00  0.00     0.014 A 
ATOM     29  C   UNL A   1      35.142  32.562  30.783  1.00  0.00     0.010 A 
ATOM     30  C   UNL A   1      36.605  33.876  29.376  1.00  0.00     0.010 A 
ATOM     31  C   UNL A   1      36.442  32.915  30.383  1.00  0.00    -0.014 A 
BRANCH  31  32
ATOM     32  C   UNL A   1      37.623  32.251  30.996  1.00  0.00     0.031 A 
ATOM     33  C   UNL A   1      38.093  32.621  32.376  1.00  0.00     0.074 A 
ATOM     34  C   UNL A   1      38.293  31.323  30.285  1.00  0.00     0.049 A 
ATOM     35  N   UNL A   1      39.081  32.118  33.075  1.00  0.00    -0.248 NA
ATOM     36  C   UNL A   1      37.375  33.711  33.054  1.00  0.00     0.031 C 
ATOM     37  C   UNL A   1      37.977  30.925  28.911  1.00  0.00     0.029 A 
ATOM     38  N   UNL A   1      39.371  30.542  30.617  1.00  0.00    -0.354 N 
ATOM     39  C   UNL A   1      39.104  32.829  34.267  1.00  0.00     0.074 A 
ATOM     40  C   UNL A   1      38.072  33.839  34.174  1.00  0.00     0.031 C 
ATOM     41  C   UNL A   1      38.812  29.944  28.534  1.00  0.00     0.029 A 
ATOM     42  C   UNL A   1      39.747  29.673  29.621  1.00  0.00     0.049 A 
ATOM     43  H   UNL A   1      39.832  30.600  31.484  1.00  0.00     0.167 HD
ATOM     44  C   UNL A   1      39.897  32.640  35.351  1.00  0.00     0.037 A 
ATOM     45  C   UNL A   1      40.733  28.757  29.588  1.00  0.00     0.037 A 
ATOM     46  C   UNL A   1      40.921  31.629  35.441  1.00  0.00     0.049 A 
ATOM     47  C   UNL A   1      41.598  28.571  30.803  1.00  0.00     0.074 A 
ATOM     48  C   UNL A   1      41.739  31.322  36.515  1.00  0.00     0.029 A 
ATOM     49  N   UNL A   1      41.275  30.768  34.412  1.00  0.00    -0.354 N 
ATOM     50  N   UNL A   1      41.553  29.190  31.958  1.00  0.00    -0.248 NA
ATOM     51  C   UNL A   1      42.645  27.544  30.714  1.00  0.00     0.031 C 
ATOM     52  C   UNL A   1      42.627  30.317  36.117  1.00  0.00     0.029 A 
ATOM     53  C   UNL A   1      42.319  29.949  34.817  1.00  0.00     0.049 A 
ATOM     54  H   UNL A   1      40.848  30.741  33.526  1.00  0.00     0.167 HD
ATOM     55  C   UNL A   1      42.547  28.616  32.739  1.00  0.00     0.074 A 
ATOM     56  C   UNL A   1      43.155  27.575  31.936  1.00  0.00     0.031 C 
ATOM     57  C   UNL A   1      42.927  28.924  34.005  1.00  0.00     0.037 A 
BRANCH  44  58
ATOM     58  C   UNL A   1      39.688  33.547  36.532  1.00  0.00     0.064 A 
ATOM     59  C   UNL A   1      38.824  33.202  37.584  1.00  0.00     0.173 A 
ATOM     60  C   UNL A   1      40.392  34.757  36.636  1.00  0.00     0.173 A 
ATOM     61  F   UNL A   1      38.119  32.063  37.533  1.00  0.00    -0.203 F 
ATOM     62  C   UNL A   1      38.651  34.048  38.677  1.00  0.00     0.198 A 
ATOM     63  C   UNL A   1      40.242  35.582  37.747  1.00  0.00     0.198 A 
ATOM     64  F   UNL A   1      41.236  35.133  35.664  1.00  0.00    -0.203 F 
ATOM     65  F   UNL A   1      37.781  33.720  39.644  1.00  0.00    -0.200 F 
ATOM     66  C   UNL A   1      39.365  35.232  38.762  1.00  0.00     0.200 A 
ATOM     67  F   UNL A   1      40.946  36.720  37.835  1.00  0.00    -0.200 F 
ATOM     68  F   UNL A   1      39.206  36.040  39.820  1.00  0.00    -0.200 F 
ENDBRANCH  44  58
BRANCH  45  69
ATOM     69  C   UNL A   1      40.936  27.926  28.372  1.00  0.00     0.064 A 
ATOM     70  C   UNL A   1      40.307  26.681  28.234  1.00  0.00     0.173 A 
ATOM     71  C   UNL A   1      41.771  28.352  27.329  1.00  0.00     0.173 A 
ATOM     72  F   UNL A   1      39.512  26.219  29.212  1.00  0.00    -0.203 F 
ATOM     73  C   UNL A   1      40.526  25.882  27.113  1.00  0.00     0.198 A 
ATOM     74  C   UNL A   1      41.962  27.569  26.192  1.00  0.00     0.198 A 
ATOM     75  F   UNL A   1      42.391  29.539  27.407  1.00  0.00    -0.203 F 
ATOM     76  F   UNL A   1      39.955  24.673  27.034  1.00  0.00    -0.200 F 
ATOM     77  C   UNL A   1      41.349  26.330  26.091  1.00  0.00     0.200 A 
ATOM     78  F   UNL A   1      42.743  28.014  25.199  1.00  0.00    -0.200 F 
ATOM     79  F   UNL A   1      41.556  25.564  25.012  1.00  0.00    -0.200 F 
ENDBRANCH  45  69
BRANCH  57  80
ATOM     80  C   UNL A   1      44.037  28.104  34.600  1.00  0.00     0.064 A 
ATOM     81  C   UNL A   1      43.786  26.896  35.272  1.00  0.00     0.173 A 
ATOM     82  C   UNL A   1      45.370  28.535  34.509  1.00  0.00     0.173 A 
ATOM     83  F   UNL A   1      42.529  26.444  35.399  1.00  0.00    -0.203 F 
ATOM     84  C   UNL A   1      44.818  26.182  35.873  1.00  0.00     0.198 A 
ATOM     85  C   UNL A   1      46.404  27.797  35.077  1.00  0.00     0.198 A 
ATOM     86  F   UNL A   1      45.669  29.675  33.870  1.00  0.00    -0.203 F 
ATOM     87  F   UNL A   1      44.542  25.075  36.578  1.00  0.00    -0.200 F 
ATOM     88  C   UNL A   1      46.127  26.630  35.773  1.00  0.00     0.200 A 
ATOM     89  F   UNL A   1      47.670  28.222  34.964  1.00  0.00    -0.200 F 
ATOM     90  F   UNL A   1      47.118  25.945  36.358  1.00  0.00    -0.200 F 
ENDBRANCH  57  80
ENDBRANCH  31  32
ENDBRANCH  23  26
ENDBRANCH  21  22
ENDBRANCH   1  21
TORSDOF 12
ENDMDL
MODEL 3
REMARK VINA RESULT:     -12.2      5.308     10.717
REMARK SMILES C[C@H](c1ccncc1)N1C[C@H](C(=O)NCCCNC(=O)c2ccc(-c3c4nc(c(-c5c(F)c(F)c(F)c(F)c5F)c5ccc([nH]5)c(-c5c(F)c(F)c(F)c(F)c5F)c5nc(c(-c6c(F)c(F)c(F)c(F)c6F)c6ccc3[nH]6)C=C5)C=C4)cc2)CC1=O
REMARK SMILES IDX 16 1 15 2 14 3 12 4 13 5 11 7 9 8 10 9 85 10 84 11 86 12
REMARK SMILES IDX 2 13 1 14 3 15 4 16 8 17 5 18 7 19 6 20 17 21 18 22 19 23
REMARK SMILES IDX 20 25 21 26 22 27 83 28 23 29 82 30 24 31 25 32 26 33 76 34
REMARK SMILES IDX 27 35 81 36 75 37 77 38 28 39 80 40 74 41 73 42 29 44 61 45
REMARK SMILES IDX 41 46 60 47 42 48 45 49 59 50 78 51 43 52 44 53 58 55 79 56
REMARK SMILES IDX 46 57 30 58 31 59 39 60 32 61 33 62 37 63 40 64 34 65 35 66
REMARK SMILES IDX 38 67 36 68 62 69 63 70 71 71 64 72 65 73 69 74 72 75 66 76
REMARK SMILES IDX 67 77 70 78 68 79 47 80 48 81 56 82 49 83 50 84 54 85 57 86
REMARK SMILES IDX 51 87 52 88 55 89 53 90
REMARK H PARENT 14 6 18 24 77 43 45 54
REMARK Flexibility Score: inf
ROOT
ATOM      1  C   UNL A   1      38.133  19.943  24.955  1.00  0.00     0.042 C 
ENDROOT
BRANCH   1   2
ATOM      2  C   UNL A   1      37.119  21.077  24.897  1.00  0.00     0.117 C 
BRANCH   2   3
ATOM      3  N   UNL A   1      35.754  20.590  24.952  1.00  0.00    -0.356 N 
ATOM      4  C   UNL A   1      34.702  21.018  25.702  1.00  0.00     0.225 C 
ATOM      5  O   UNL A   1      33.625  20.440  25.565  1.00  0.00    -0.275 OA
ATOM      6  H   UNL A   1      35.558  19.832  24.354  1.00  0.00     0.163 HD
BRANCH   4   7
ATOM      7  C   UNL A   1      34.901  22.162  26.679  1.00  0.00     0.107 C 
ATOM      8  N   UNL A   1      33.494  23.976  26.177  1.00  0.00    -0.335 N 
ATOM      9  C   UNL A   1      34.839  23.501  25.973  1.00  0.00     0.134 C 
ATOM     10  C   UNL A   1      32.821  23.236  27.134  1.00  0.00     0.223 C 
ATOM     11  C   UNL A   1      33.768  22.205  27.698  1.00  0.00     0.115 C 
ATOM     12  O   UNL A   1      31.668  23.399  27.506  1.00  0.00    -0.275 OA
BRANCH   8  13
ATOM     13  C   UNL A   1      32.862  25.013  25.358  1.00  0.00     0.112 C 
ATOM     14  C   UNL A   1      33.492  25.062  23.963  1.00  0.00     0.036 C 
BRANCH  13  15
ATOM     15  C   UNL A   1      32.833  26.373  26.038  1.00  0.00    -0.023 A 
ATOM     16  C   UNL A   1      33.949  27.219  26.087  1.00  0.00     0.026 A 
ATOM     17  C   UNL A   1      31.659  26.817  26.657  1.00  0.00     0.026 A 
ATOM     18  C   UNL A   1      33.859  28.421  26.773  1.00  0.00     0.111 A 
ATOM     19  C   UNL A   1      31.657  28.048  27.295  1.00  0.00     0.111 A 
ATOM     20  N   UNL A   1      32.736  28.855  27.379  1.00  0.00    -0.265 NA
ENDBRANCH  13  15
ENDBRANCH   8  13
ENDBRANCH   4   7
ENDBRANCH   2   3
ENDBRANCH   1   2
BRANCH   1  21
ATOM     21  C   UNL A   1      39.155  20.071  26.080  1.00  0.00     0.118 C 
BRANCH  21  22
ATOM     22  N   UNL A   1      40.287  19.169  25.922  1.00  0.00    -0.352 N 
ATOM     23  C   UNL A   1      41.637  19.405  25.983  1.00  0.00     0.251 C 
ATOM     24  H   UNL A   1      40.043  18.233  25.742  1.00  0.00     0.163 HD
ATOM     25  O   UNL A   1      42.416  18.520  25.637  1.00  0.00    -0.269 OA
BRANCH  23  26
ATOM     26  C   UNL A   1      42.167  20.711  26.432  1.00  0.00     0.039 A 
ATOM     27  C   UNL A   1      42.568  21.632  25.461  1.00  0.00     0.014 A 
ATOM     28  C   UNL A   1      42.306  21.027  27.786  1.00  0.00     0.014 A 
ATOM     29  C   UNL A   1      43.041  22.888  25.847  1.00  0.00     0.010 A 
ATOM     30  C   UNL A   1      42.692  22.312  28.169  1.00  0.00     0.010 A 
ATOM     31  C   UNL A   1      43.064  23.257  27.203  1.00  0.00    -0.014 A 
BRANCH  31  32
ATOM     32  C   UNL A   1      43.445  24.638  27.600  1.00  0.00     0.031 A 
ATOM     33  C   UNL A   1      44.886  25.066  27.639  1.00  0.00     0.074 A 
ATOM     34  C   UNL A   1      42.477  25.505  27.953  1.00  0.00     0.049 A 
ATOM     35  N   UNL A   1      45.392  26.240  27.928  1.00  0.00    -0.248 NA
ATOM     36  C   UNL A   1      45.894  24.039  27.337  1.00  0.00     0.031 C 
ATOM     37  C   UNL A   1      41.048  25.192  28.020  1.00  0.00     0.029 A 
ATOM     38  N   UNL A   1      42.543  26.827  28.317  1.00  0.00    -0.354 N 
ATOM     39  C   UNL A   1      46.770  26.091  27.844  1.00  0.00     0.074 A 
ATOM     40  C   UNL A   1      47.025  24.701  27.539  1.00  0.00     0.031 C 
ATOM     41  C   UNL A   1      40.369  26.300  28.357  1.00  0.00     0.029 A 
ATOM     42  C   UNL A   1      41.316  27.390  28.570  1.00  0.00     0.049 A 
ATOM     43  H   UNL A   1      43.389  27.324  28.390  1.00  0.00     0.167 HD
ATOM     44  C   UNL A   1      47.733  27.035  27.984  1.00  0.00     0.037 A 
ATOM     45  C   UNL A   1      40.988  28.645  28.931  1.00  0.00     0.037 A 
ATOM     46  C   UNL A   1      47.474  28.421  28.284  1.00  0.00     0.049 A 
ATOM     47  C   UNL A   1      42.077  29.670  29.081  1.00  0.00     0.074 A 
ATOM     48  C   UNL A   1      48.377  29.465  28.391  1.00  0.00     0.029 A 
ATOM     49  N   UNL A   1      46.218  28.955  28.536  1.00  0.00    -0.354 N 
ATOM     50  N   UNL A   1      43.371  29.538  28.913  1.00  0.00    -0.248 NA
ATOM     51  C   UNL A   1      41.657  31.025  29.458  1.00  0.00     0.031 C 
ATOM     52  C   UNL A   1      47.676  30.616  28.766  1.00  0.00     0.029 A 
ATOM     53  C   UNL A   1      46.326  30.308  28.827  1.00  0.00     0.049 A 
ATOM     54  H   UNL A   1      45.374  28.449  28.511  1.00  0.00     0.167 HD
ATOM     55  C   UNL A   1      43.916  30.794  29.141  1.00  0.00     0.074 A 
ATOM     56  C   UNL A   1      42.807  31.682  29.426  1.00  0.00     0.031 C 
ATOM     57  C   UNL A   1      45.217  31.179  29.122  1.00  0.00     0.037 A 
BRANCH  44  58
ATOM     58  C   UNL A   1      49.162  26.601  27.813  1.00  0.00     0.064 A 
ATOM     59  C   UNL A   1      49.739  26.439  26.543  1.00  0.00     0.173 A 
ATOM     60  C   UNL A   1      49.981  26.384  28.933  1.00  0.00     0.173 A 
ATOM     61  F   UNL A   1      49.000  26.623  25.438  1.00  0.00    -0.203 F 
ATOM     62  C   UNL A   1      51.068  26.047  26.402  1.00  0.00     0.198 A 
ATOM     63  C   UNL A   1      51.319  26.026  28.787  1.00  0.00     0.198 A 
ATOM     64  F   UNL A   1      49.486  26.530  30.171  1.00  0.00    -0.203 F 
ATOM     65  F   UNL A   1      51.579  25.849  25.178  1.00  0.00    -0.200 F 
ATOM     66  C   UNL A   1      51.859  25.850  27.522  1.00  0.00     0.200 A 
ATOM     67  F   UNL A   1      52.087  25.851  29.871  1.00  0.00    -0.200 F 
ATOM     68  F   UNL A   1      53.141  25.484  27.384  1.00  0.00    -0.200 F 
ENDBRANCH  44  58
BRANCH  45  69
ATOM     69  C   UNL A   1      39.563  29.009  29.145  1.00  0.00     0.064 A 
ATOM     70  C   UNL A   1      38.978  28.925  30.417  1.00  0.00     0.173 A 
ATOM     71  C   UNL A   1      38.753  29.439  28.084  1.00  0.00     0.173 A 
ATOM     72  F   UNL A   1      39.705  28.501  31.462  1.00  0.00    -0.203 F 
ATOM     73  C   UNL A   1      37.632  29.228  30.614  1.00  0.00     0.198 A 
ATOM     74  C   UNL A   1      37.416  29.777  28.288  1.00  0.00     0.198 A 
ATOM     75  F   UNL A   1      39.264  29.546  26.849  1.00  0.00    -0.203 F 
ATOM     76  F   UNL A   1      37.086  29.084  31.829  1.00  0.00    -0.200 F 
ATOM     77  C   UNL A   1      36.854  29.659  29.550  1.00  0.00     0.200 A 
ATOM     78  F   UNL A   1      36.674  30.211  27.261  1.00  0.00    -0.200 F 
ATOM     79  F   UNL A   1      35.561  29.955  29.740  1.00  0.00    -0.200 F 
ENDBRANCH  45  69
BRANCH  57  80
ATOM     80  C   UNL A   1      45.500  32.630  29.394  1.00  0.00     0.064 A 
ATOM     81  C   UNL A   1      45.774  33.101  30.688  1.00  0.00     0.173 A 
ATOM     82  C   UNL A   1      45.487  33.568  28.348  1.00  0.00     0.173 A 
ATOM     83  F   UNL A   1      45.787  32.252  31.726  1.00  0.00    -0.203 F 
ATOM     84  C   UNL A   1      45.970  34.458  30.932  1.00  0.00     0.198 A 
ATOM     85  C   UNL A   1      45.722  34.918  28.590  1.00  0.00     0.198 A 
ATOM     86  F   UNL A   1      45.240  33.173  27.090  1.00  0.00    -0.203 F 
ATOM     87  F   UNL A   1      46.149  34.892  32.188  1.00  0.00    -0.200 F 
ATOM     88  C   UNL A   1      45.948  35.365  29.883  1.00  0.00     0.200 A 
ATOM     89  F   UNL A   1      45.718  35.790  27.573  1.00  0.00    -0.200 F 
ATOM     90  F   UNL A   1      46.129  36.670  30.121  1.00  0.00    -0.200 F 
ENDBRANCH  57  80
ENDBRANCH  31  32
ENDBRANCH  23  26
ENDBRANCH  21  22
ENDBRANCH   1  21
TORSDOF 12
ENDMDL
