MODEL 1
REMARK VINA RESULT:     -13.4      0.000      0.000
REMARK SMILES C[C@@H](C(=O)NCCCNC(=O)c1ccc(-c2c3nc(c(-c4c(F)c(F)c(F)c(F)c4F)c4ccc([nH]4)c(-c4c(F)c(F)c(F)c(F)c4F)c4nc(c(-c5c(F)c(F)c(F)c(F)c5F)c5ccc2[nH]5)C=C4)C=C3)cc1)c1ccc(C[C@H]2CCCC2=O)cc1-c1ccc(O)cc1
REMARK SMILES IDX 6 1 5 2 3 3 4 4 2 6 1 7 75 8 76 9 87 10 77 11 86 12 78 13
REMARK SMILES IDX 88 14 89 15 94 16 90 17 93 18 91 19 92 20 79 22 80 23 81 24
REMARK SMILES IDX 84 25 82 26 83 27 85 28 7 29 8 30 9 31 10 32 11 34 12 35
REMARK SMILES IDX 13 36 74 37 14 38 73 39 15 40 16 41 17 42 67 43 18 44 72 45
REMARK SMILES IDX 66 46 68 47 19 48 71 49 65 50 64 51 20 53 52 54 32 55 51 56
REMARK SMILES IDX 33 57 36 58 50 59 69 60 34 61 35 62 49 64 70 65 37 66 21 67
REMARK SMILES IDX 22 68 30 69 23 70 24 71 28 72 31 73 25 74 26 75 29 76 27 77
REMARK SMILES IDX 53 78 54 79 62 80 55 81 56 82 60 83 63 84 57 85 58 86 61 87
REMARK SMILES IDX 59 88 38 89 39 90 47 91 40 92 41 93 45 94 48 95 42 96 43 97
REMARK SMILES IDX 46 98 44 99
REMARK H PARENT 5 5 92 21 9 33 68 52 36 63
REMARK Flexibility Score: inf
ROOT
ATOM      1  C   UNL A   1      31.190  31.231  25.706  1.00  0.00     0.117 C 
ENDROOT
BRANCH   1   2
ATOM      2  N   UNL A   1      32.387  30.444  25.483  1.00  0.00    -0.356 N 
ATOM      3  C   UNL A   1      32.679  29.153  25.820  1.00  0.00     0.227 C 
ATOM      4  O   UNL A   1      33.882  28.890  25.861  1.00  0.00    -0.274 OA
ATOM      5  H   UNL A   1      33.109  30.918  25.011  1.00  0.00     0.163 HD
BRANCH   3   6
ATOM      6  C   UNL A   1      31.551  28.167  26.184  1.00  0.00     0.106 C 
ATOM      7  C   UNL A   1      31.480  28.110  27.713  1.00  0.00     0.023 C 
BRANCH   6   8
ATOM      8  C   UNL A   1      31.611  26.744  25.582  1.00  0.00    -0.028 A 
ATOM      9  C   UNL A   1      32.305  25.710  26.237  1.00  0.00     0.005 A 
ATOM     10  C   UNL A   1      30.911  26.406  24.386  1.00  0.00    -0.014 A 
ATOM     11  C   UNL A   1      32.294  24.394  25.774  1.00  0.00     0.004 A 
ATOM     12  C   UNL A   1      30.945  25.069  23.917  1.00  0.00     0.012 A 
ATOM     13  C   UNL A   1      31.625  24.057  24.603  1.00  0.00    -0.047 A 
BRANCH  10  14
ATOM     14  C   UNL A   1      30.076  27.365  23.633  1.00  0.00    -0.018 A 
ATOM     15  C   UNL A   1      28.671  27.286  23.716  1.00  0.00     0.012 A 
ATOM     16  C   UNL A   1      30.634  28.387  22.850  1.00  0.00     0.012 A 
ATOM     17  C   UNL A   1      27.858  28.232  23.090  1.00  0.00     0.047 A 
ATOM     18  C   UNL A   1      29.822  29.340  22.226  1.00  0.00     0.047 A 
ATOM     19  C   UNL A   1      28.440  29.261  22.364  1.00  0.00     0.115 A 
BRANCH  19  20
ATOM     20  O   UNL A   1      27.611  30.187  21.805  1.00  0.00    -0.508 OA
ATOM     21  H   UNL A   1      27.653  30.360  20.885  1.00  0.00     0.293 HD
ENDBRANCH  19  20
ENDBRANCH  10  14
BRANCH  13  22
ATOM     22  C   UNL A   1      31.619  22.629  24.110  1.00  0.00     0.047 C 
BRANCH  22  23
ATOM     23  C   UNL A   1      32.832  22.180  23.290  1.00  0.00     0.060 C 
ATOM     24  C   UNL A   1      33.543  23.271  22.486  1.00  0.00     0.012 C 
ATOM     25  C   UNL A   1      33.955  21.640  24.146  1.00  0.00     0.136 C 
ATOM     26  C   UNL A   1      34.722  23.729  23.335  1.00  0.00     0.009 C 
ATOM     27  C   UNL A   1      35.197  22.490  24.081  1.00  0.00     0.076 C 
ATOM     28  O   UNL A   1      33.870  20.615  24.814  1.00  0.00    -0.299 OA
ENDBRANCH  22  23
ENDBRANCH  13  22
ENDBRANCH   6   8
ENDBRANCH   3   6
ENDBRANCH   1   2
BRANCH   1  29
ATOM     29  C   UNL A   1      31.293  32.073  26.977  1.00  0.00     0.042 C 
BRANCH  29  30
ATOM     30  C   UNL A   1      32.591  32.862  27.119  1.00  0.00     0.118 C 
BRANCH  30  31
ATOM     31  N   UNL A   1      32.368  34.237  27.537  1.00  0.00    -0.352 N 
ATOM     32  C   UNL A   1      32.965  34.953  28.542  1.00  0.00     0.251 C 
ATOM     33  H   UNL A   1      31.687  34.726  27.022  1.00  0.00     0.163 HD
ATOM     34  O   UNL A   1      32.499  36.045  28.872  1.00  0.00    -0.269 OA
BRANCH  32  35
ATOM     35  C   UNL A   1      34.145  34.417  29.255  1.00  0.00     0.039 A 
ATOM     36  C   UNL A   1      33.953  33.747  30.466  1.00  0.00     0.014 A 
ATOM     37  C   UNL A   1      35.438  34.592  28.752  1.00  0.00     0.014 A 
ATOM     38  C   UNL A   1      35.047  33.195  31.138  1.00  0.00     0.010 A 
ATOM     39  C   UNL A   1      36.518  33.975  29.381  1.00  0.00     0.010 A 
ATOM     40  C   UNL A   1      36.334  33.273  30.583  1.00  0.00    -0.014 A 
BRANCH  40  41
ATOM     41  C   UNL A   1      37.499  32.627  31.244  1.00  0.00     0.031 A 
ATOM     42  C   UNL A   1      38.222  31.494  30.570  1.00  0.00     0.074 A 
ATOM     43  C   UNL A   1      37.867  33.022  32.478  1.00  0.00     0.049 A 
ATOM     44  N   UNL A   1      39.212  30.761  31.015  1.00  0.00    -0.248 NA
ATOM     45  C   UNL A   1      37.755  31.118  29.226  1.00  0.00     0.031 C 
ATOM     46  C   UNL A   1      37.221  34.081  33.255  1.00  0.00     0.029 A 
ATOM     47  N   UNL A   1      38.870  32.571  33.301  1.00  0.00    -0.354 N 
ATOM     48  C   UNL A   1      39.475  29.834  30.015  1.00  0.00     0.074 A 
ATOM     49  C   UNL A   1      38.507  30.060  28.965  1.00  0.00     0.031 C 
ATOM     50  C   UNL A   1      37.855  34.213  34.431  1.00  0.00     0.029 A 
ATOM     51  C   UNL A   1      38.923  33.222  34.511  1.00  0.00     0.049 A 
ATOM     52  H   UNL A   1      39.491  31.850  33.050  1.00  0.00     0.167 HD
ATOM     53  C   UNL A   1      40.451  28.895  29.968  1.00  0.00     0.037 A 
ATOM     54  C   UNL A   1      39.734  33.032  35.569  1.00  0.00     0.037 A 
ATOM     55  C   UNL A   1      41.424  28.685  31.009  1.00  0.00     0.049 A 
ATOM     56  C   UNL A   1      40.797  31.968  35.499  1.00  0.00     0.074 A 
ATOM     57  C   UNL A   1      42.484  27.796  31.031  1.00  0.00     0.029 A 
ATOM     58  N   UNL A   1      41.451  29.370  32.215  1.00  0.00    -0.354 N 
ATOM     59  N   UNL A   1      41.078  31.143  34.522  1.00  0.00    -0.248 NA
ATOM     60  C   UNL A   1      41.656  31.813  36.681  1.00  0.00     0.031 C 
ATOM     61  C   UNL A   1      43.122  27.906  32.271  1.00  0.00     0.029 A 
ATOM     62  C   UNL A   1      42.495  28.905  33.000  1.00  0.00     0.049 A 
ATOM     63  H   UNL A   1      40.821  30.080  32.475  1.00  0.00     0.167 HD
ATOM     64  C   UNL A   1      42.163  30.393  34.955  1.00  0.00     0.074 A 
ATOM     65  C   UNL A   1      42.498  30.872  36.280  1.00  0.00     0.031 C 
ATOM     66  C   UNL A   1      42.823  29.397  34.314  1.00  0.00     0.037 A 
BRANCH  53  67
ATOM     67  C   UNL A   1      40.517  28.021  28.748  1.00  0.00     0.064 A 
ATOM     68  C   UNL A   1      41.302  28.367  27.636  1.00  0.00     0.173 A 
ATOM     69  C   UNL A   1      39.819  26.805  28.702  1.00  0.00     0.173 A 
ATOM     70  F   UNL A   1      41.983  29.522  27.623  1.00  0.00    -0.203 F 
ATOM     71  C   UNL A   1      41.359  27.543  26.515  1.00  0.00     0.198 A 
ATOM     72  C   UNL A   1      39.904  25.969  27.593  1.00  0.00     0.198 A 
ATOM     73  F   UNL A   1      39.059  26.421  29.739  1.00  0.00    -0.203 F 
ATOM     74  F   UNL A   1      42.075  27.920  25.445  1.00  0.00    -0.200 F 
ATOM     75  C   UNL A   1      40.667  26.343  26.496  1.00  0.00     0.200 A 
ATOM     76  F   UNL A   1      39.248  24.801  27.582  1.00  0.00    -0.200 F 
ATOM     77  F   UNL A   1      40.731  25.547  25.419  1.00  0.00    -0.200 F 
ENDBRANCH  53  67
BRANCH  54  78
ATOM     78  C   UNL A   1      39.586  33.883  36.780  1.00  0.00     0.064 A 
ATOM     79  C   UNL A   1      40.221  35.130  36.865  1.00  0.00     0.173 A 
ATOM     80  C   UNL A   1      38.816  33.467  37.876  1.00  0.00     0.173 A 
ATOM     81  F   UNL A   1      40.985  35.563  35.851  1.00  0.00    -0.203 F 
ATOM     82  C   UNL A   1      40.107  35.919  38.007  1.00  0.00     0.198 A 
ATOM     83  C   UNL A   1      38.677  34.270  39.005  1.00  0.00     0.198 A 
ATOM     84  F   UNL A   1      38.184  32.283  37.843  1.00  0.00    -0.203 F 
ATOM     85  F   UNL A   1      40.762  37.086  38.081  1.00  0.00    -0.200 F 
ATOM     86  C   UNL A   1      39.330  35.492  39.074  1.00  0.00     0.200 A 
ATOM     87  F   UNL A   1      37.913  33.861  40.027  1.00  0.00    -0.200 F 
ATOM     88  F   UNL A   1      39.218  36.253  40.171  1.00  0.00    -0.200 F 
ENDBRANCH  54  78
BRANCH  66  89
ATOM     89  C   UNL A   1      43.998  28.782  35.017  1.00  0.00     0.064 A 
ATOM     90  C   UNL A   1      45.300  29.277  34.851  1.00  0.00     0.173 A 
ATOM     91  C   UNL A   1      43.813  27.709  35.903  1.00  0.00     0.173 A 
ATOM     92  F   UNL A   1      45.533  30.291  34.003  1.00  0.00    -0.203 F 
ATOM     93  C   UNL A   1      46.376  28.705  35.525  1.00  0.00     0.198 A 
ATOM     94  C   UNL A   1      44.886  27.162  36.600  1.00  0.00     0.198 A 
ATOM     95  F   UNL A   1      42.587  27.202  36.103  1.00  0.00    -0.203 F 
ATOM     96  F   UNL A   1      47.617  29.163  35.312  1.00  0.00    -0.200 F 
ATOM     97  C   UNL A   1      46.167  27.655  36.405  1.00  0.00     0.200 A 
ATOM     98  F   UNL A   1      44.678  26.155  37.462  1.00  0.00    -0.200 F 
ATOM     99  F   UNL A   1      47.202  27.111  37.061  1.00  0.00    -0.200 F 
ENDBRANCH  66  89
ENDBRANCH  40  41
ENDBRANCH  32  35
ENDBRANCH  30  31
ENDBRANCH  29  30
ENDBRANCH   1  29
TORSDOF 15
ENDMDL
MODEL 2
REMARK VINA RESULT:     -13.4      5.435     11.099
REMARK SMILES C[C@@H](C(=O)NCCCNC(=O)c1ccc(-c2c3nc(c(-c4c(F)c(F)c(F)c(F)c4F)c4ccc([nH]4)c(-c4c(F)c(F)c(F)c(F)c4F)c4nc(c(-c5c(F)c(F)c(F)c(F)c5F)c5ccc2[nH]5)C=C4)C=C3)cc1)c1ccc(C[C@H]2CCCC2=O)cc1-c1ccc(O)cc1
REMARK SMILES IDX 6 1 5 2 3 3 4 4 2 6 1 7 75 8 76 9 87 10 77 11 86 12 78 13
REMARK SMILES IDX 88 14 89 15 94 16 90 17 93 18 91 19 92 20 79 22 80 23 81 24
REMARK SMILES IDX 84 25 82 26 83 27 85 28 7 29 8 30 9 31 10 32 11 34 12 35
REMARK SMILES IDX 13 36 74 37 14 38 73 39 15 40 16 41 17 42 67 43 18 44 72 45
REMARK SMILES IDX 66 46 68 47 19 48 71 49 65 50 64 51 20 53 52 54 32 55 51 56
REMARK SMILES IDX 33 57 36 58 50 59 69 60 34 61 35 62 49 64 70 65 37 66 21 67
REMARK SMILES IDX 22 68 30 69 23 70 24 71 28 72 31 73 25 74 26 75 29 76 27 77
REMARK SMILES IDX 53 78 54 79 62 80 55 81 56 82 60 83 63 84 57 85 58 86 61 87
REMARK SMILES IDX 59 88 38 89 39 90 47 91 40 92 41 93 45 94 48 95 42 96 43 97
REMARK SMILES IDX 46 98 44 99
REMARK H PARENT 5 5 92 21 9 33 68 52 36 63
REMARK Flexibility Score: inf
ROOT
ATOM      1  C   UNL A   1      36.736  19.749  25.027  1.00  0.00     0.117 C 
ENDROOT
BRANCH   1   2
ATOM      2  N   UNL A   1      36.425  20.937  25.799  1.00  0.00    -0.356 N 
ATOM      3  C   UNL A   1      36.017  22.177  25.398  1.00  0.00     0.227 C 
ATOM      4  O   UNL A   1      36.214  23.075  26.218  1.00  0.00    -0.274 OA
ATOM      5  H   UNL A   1      36.524  20.832  26.772  1.00  0.00     0.163 HD
BRANCH   3   6
ATOM      6  C   UNL A   1      35.431  22.388  23.988  1.00  0.00     0.106 C 
ATOM      7  C   UNL A   1      36.541  23.002  23.128  1.00  0.00     0.023 C 
BRANCH   6   8
ATOM      8  C   UNL A   1      34.123  23.202  23.861  1.00  0.00    -0.028 A 
ATOM      9  C   UNL A   1      34.153  24.589  23.630  1.00  0.00     0.005 A 
ATOM     10  C   UNL A   1      32.843  22.573  23.900  1.00  0.00    -0.014 A 
ATOM     11  C   UNL A   1      32.994  25.335  23.411  1.00  0.00     0.004 A 
ATOM     12  C   UNL A   1      31.679  23.360  23.710  1.00  0.00     0.012 A 
ATOM     13  C   UNL A   1      31.742  24.734  23.460  1.00  0.00    -0.047 A 
BRANCH  10  14
ATOM     14  C   UNL A   1      32.655  21.116  24.055  1.00  0.00    -0.018 A 
ATOM     15  C   UNL A   1      32.343  20.326  22.930  1.00  0.00     0.012 A 
ATOM     16  C   UNL A   1      32.809  20.471  25.292  1.00  0.00     0.012 A 
ATOM     17  C   UNL A   1      32.250  18.937  23.028  1.00  0.00     0.047 A 
ATOM     18  C   UNL A   1      32.723  19.078  25.392  1.00  0.00     0.047 A 
ATOM     19  C   UNL A   1      32.458  18.322  24.255  1.00  0.00     0.115 A 
BRANCH  19  20
ATOM     20  O   UNL A   1      32.400  16.961  24.297  1.00  0.00    -0.508 OA
ATOM     21  H   UNL A   1      31.608  16.534  24.560  1.00  0.00     0.293 HD
ENDBRANCH  19  20
ENDBRANCH  10  14
BRANCH  13  22
ATOM     22  C   UNL A   1      30.493  25.550  23.220  1.00  0.00     0.047 C 
BRANCH  22  23
ATOM     23  C   UNL A   1      29.978  26.380  24.401  1.00  0.00     0.060 C 
ATOM     24  C   UNL A   1      30.097  25.732  25.782  1.00  0.00     0.012 C 
ATOM     25  C   UNL A   1      30.743  27.670  24.592  1.00  0.00     0.136 C 
ATOM     26  C   UNL A   1      31.376  26.279  26.403  1.00  0.00     0.009 C 
ATOM     27  C   UNL A   1      31.501  27.709  25.894  1.00  0.00     0.076 C 
ATOM     28  O   UNL A   1      30.740  28.590  23.783  1.00  0.00    -0.299 OA
ENDBRANCH  22  23
ENDBRANCH  13  22
ENDBRANCH   6   8
ENDBRANCH   3   6
ENDBRANCH   1   2
BRANCH   1  29
ATOM     29  C   UNL A   1      38.215  19.691  24.646  1.00  0.00     0.042 C 
BRANCH  29  30
ATOM     30  C   UNL A   1      39.182  20.008  25.783  1.00  0.00     0.118 C 
BRANCH  30  31
ATOM     31  N   UNL A   1      40.231  19.011  25.921  1.00  0.00    -0.352 N 
ATOM     32  C   UNL A   1      41.577  19.179  26.118  1.00  0.00     0.251 C 
ATOM     33  H   UNL A   1      39.930  18.076  25.864  1.00  0.00     0.163 HD
ATOM     34  O   UNL A   1      42.335  18.214  26.011  1.00  0.00    -0.269 OA
BRANCH  32  35
ATOM     35  C   UNL A   1      42.135  20.513  26.432  1.00  0.00     0.039 A 
ATOM     36  C   UNL A   1      42.546  21.335  25.380  1.00  0.00     0.014 A 
ATOM     37  C   UNL A   1      42.277  20.948  27.753  1.00  0.00     0.014 A 
ATOM     38  C   UNL A   1      43.038  22.615  25.647  1.00  0.00     0.010 A 
ATOM     39  C   UNL A   1      42.693  22.252  28.014  1.00  0.00     0.010 A 
ATOM     40  C   UNL A   1      43.081  23.099  26.965  1.00  0.00    -0.014 A 
BRANCH  40  41
ATOM     41  C   UNL A   1      43.528  24.485  27.262  1.00  0.00     0.031 A 
ATOM     42  C   UNL A   1      42.556  25.499  27.797  1.00  0.00     0.074 A 
ATOM     43  C   UNL A   1      44.799  24.846  26.996  1.00  0.00     0.049 A 
ATOM     44  N   UNL A   1      42.739  26.770  28.052  1.00  0.00    -0.248 NA
ATOM     45  C   UNL A   1      41.186  25.027  28.056  1.00  0.00     0.031 C 
ATOM     46  C   UNL A   1      45.828  23.968  26.437  1.00  0.00     0.029 A 
ATOM     47  N   UNL A   1      45.439  26.052  27.148  1.00  0.00    -0.354 N 
ATOM     48  C   UNL A   1      41.510  27.250  28.487  1.00  0.00     0.074 A 
ATOM     49  C   UNL A   1      40.576  26.149  28.410  1.00  0.00     0.031 C 
ATOM     50  C   UNL A   1      46.974  24.656  26.314  1.00  0.00     0.029 A 
ATOM     51  C   UNL A   1      46.752  26.033  26.742  1.00  0.00     0.049 A 
ATOM     52  H   UNL A   1      44.998  26.854  27.512  1.00  0.00     0.167 HD
ATOM     53  C   UNL A   1      41.196  28.490  28.933  1.00  0.00     0.037 A 
ATOM     54  C   UNL A   1      47.668  27.018  26.708  1.00  0.00     0.037 A 
ATOM     55  C   UNL A   1      42.134  29.579  29.025  1.00  0.00     0.049 A 
ATOM     56  C   UNL A   1      47.288  28.394  27.190  1.00  0.00     0.074 A 
ATOM     57  C   UNL A   1      41.927  30.857  29.514  1.00  0.00     0.029 A 
ATOM     58  N   UNL A   1      43.458  29.519  28.613  1.00  0.00    -0.354 N 
ATOM     59  N   UNL A   1      46.143  28.817  27.662  1.00  0.00    -0.248 NA
ATOM     60  C   UNL A   1      48.333  29.426  27.137  1.00  0.00     0.031 C 
ATOM     61  C   UNL A   1      43.109  31.586  29.351  1.00  0.00     0.029 A 
ATOM     62  C   UNL A   1      44.072  30.746  28.814  1.00  0.00     0.049 A 
ATOM     63  H   UNL A   1      43.896  28.723  28.234  1.00  0.00     0.167 HD
ATOM     64  C   UNL A   1      46.334  30.153  27.990  1.00  0.00     0.074 A 
ATOM     65  C   UNL A   1      47.713  30.465  27.676  1.00  0.00     0.031 C 
ATOM     66  C   UNL A   1      45.448  31.041  28.504  1.00  0.00     0.037 A 
BRANCH  53  67
ATOM     67  C   UNL A   1      39.777  28.738  29.359  1.00  0.00     0.064 A 
ATOM     68  C   UNL A   1      39.350  28.493  30.673  1.00  0.00     0.173 A 
ATOM     69  C   UNL A   1      38.842  29.261  28.454  1.00  0.00     0.173 A 
ATOM     70  F   UNL A   1      40.200  27.985  31.577  1.00  0.00    -0.203 F 
ATOM     71  C   UNL A   1      38.032  28.735  31.056  1.00  0.00     0.198 A 
ATOM     72  C   UNL A   1      37.534  29.532  28.848  1.00  0.00     0.198 A 
ATOM     73  F   UNL A   1      39.198  29.521  27.187  1.00  0.00    -0.203 F 
ATOM     74  F   UNL A   1      37.635  28.445  32.303  1.00  0.00    -0.200 F 
ATOM     75  C   UNL A   1      37.128  29.260  30.146  1.00  0.00     0.200 A 
ATOM     76  F   UNL A   1      36.666  30.055  27.972  1.00  0.00    -0.200 F 
ATOM     77  F   UNL A   1      35.863  29.500  30.518  1.00  0.00    -0.200 F 
ENDBRANCH  53  67
BRANCH  54  78
ATOM     78  C   UNL A   1      49.044  26.737  26.218  1.00  0.00     0.064 A 
ATOM     79  C   UNL A   1      49.402  26.998  24.888  1.00  0.00     0.173 A 
ATOM     80  C   UNL A   1      50.025  26.197  27.064  1.00  0.00     0.173 A 
ATOM     81  F   UNL A   1      48.494  27.495  24.036  1.00  0.00    -0.203 F 
ATOM     82  C   UNL A   1      50.682  26.712  24.418  1.00  0.00     0.198 A 
ATOM     83  C   UNL A   1      51.313  25.940  26.600  1.00  0.00     0.198 A 
ATOM     84  F   UNL A   1      49.735  25.933  28.347  1.00  0.00    -0.203 F 
ATOM     85  F   UNL A   1      50.983  26.928  23.130  1.00  0.00    -0.200 F 
ATOM     86  C   UNL A   1      51.638  26.189  25.275  1.00  0.00     0.200 A 
ATOM     87  F   UNL A   1      52.239  25.450  27.436  1.00  0.00    -0.200 F 
ATOM     88  F   UNL A   1      52.870  25.918  24.823  1.00  0.00    -0.200 F 
ENDBRANCH  54  78
BRANCH  66  89
ATOM     89  C   UNL A   1      45.949  32.425  28.798  1.00  0.00     0.064 A 
ATOM     90  C   UNL A   1      45.856  33.460  27.856  1.00  0.00     0.173 A 
ATOM     91  C   UNL A   1      46.491  32.731  30.056  1.00  0.00     0.173 A 
ATOM     92  F   UNL A   1      45.360  33.216  26.633  1.00  0.00    -0.203 F 
ATOM     93  C   UNL A   1      46.310  34.743  28.153  1.00  0.00     0.198 A 
ATOM     94  C   UNL A   1      46.914  34.021  30.361  1.00  0.00     0.198 A 
ATOM     95  F   UNL A   1      46.597  31.779  30.996  1.00  0.00    -0.203 F 
ATOM     96  F   UNL A   1      46.256  35.703  27.220  1.00  0.00    -0.200 F 
ATOM     97  C   UNL A   1      46.830  35.024  29.407  1.00  0.00     0.200 A 
ATOM     98  F   UNL A   1      47.402  34.294  31.579  1.00  0.00    -0.200 F 
ATOM     99  F   UNL A   1      47.257  36.261  29.695  1.00  0.00    -0.200 F 
ENDBRANCH  66  89
ENDBRANCH  40  41
ENDBRANCH  32  35
ENDBRANCH  30  31
ENDBRANCH  29  30
ENDBRANCH   1  29
TORSDOF 15
ENDMDL
MODEL 3
REMARK VINA RESULT:     -13.3      5.268      9.905
REMARK SMILES C[C@@H](C(=O)NCCCNC(=O)c1ccc(-c2c3nc(c(-c4c(F)c(F)c(F)c(F)c4F)c4ccc([nH]4)c(-c4c(F)c(F)c(F)c(F)c4F)c4nc(c(-c5c(F)c(F)c(F)c(F)c5F)c5ccc2[nH]5)C=C4)C=C3)cc1)c1ccc(C[C@H]2CCCC2=O)cc1-c1ccc(O)cc1
REMARK SMILES IDX 6 1 5 2 3 3 4 4 2 6 1 7 75 8 76 9 87 10 77 11 86 12 78 13
REMARK SMILES IDX 88 14 89 15 94 16 90 17 93 18 91 19 92 20 79 22 80 23 81 24
REMARK SMILES IDX 84 25 82 26 83 27 85 28 7 29 8 30 9 31 10 32 11 34 12 35
REMARK SMILES IDX 13 36 74 37 14 38 73 39 15 40 16 41 17 42 67 43 18 44 72 45
REMARK SMILES IDX 66 46 68 47 19 48 71 49 65 50 64 51 20 53 52 54 32 55 51 56
REMARK SMILES IDX 33 57 36 58 50 59 69 60 34 61 35 62 49 64 70 65 37 66 21 67
REMARK SMILES IDX 22 68 30 69 23 70 24 71 28 72 31 73 25 74 26 75 29 76 27 77
REMARK SMILES IDX 53 78 54 79 62 80 55 81 56 82 60 83 63 84 57 85 58 86 61 87
REMARK SMILES IDX 59 88 38 89 39 90 47 91 40 92 41 93 45 94 48 95 42 96 43 97
REMARK SMILES IDX 46 98 44 99
REMARK H PARENT 5 5 92 21 9 33 68 52 36 63
REMARK Flexibility Score: inf
ROOT
ATOM      1  C   UNL A   1      36.688  19.711  24.991  1.00  0.00     0.117 C 
ENDROOT
BRANCH   1   2
ATOM      2  N   UNL A   1      36.386  20.900  25.764  1.00  0.00    -0.356 N 
ATOM      3  C   UNL A   1      35.995  22.146  25.364  1.00  0.00     0.227 C 
ATOM      4  O   UNL A   1      36.198  23.039  26.188  1.00  0.00    -0.274 OA
ATOM      5  H   UNL A   1      36.480  20.791  26.737  1.00  0.00     0.163 HD
BRANCH   3   6
ATOM      6  C   UNL A   1      35.419  22.367  23.951  1.00  0.00     0.106 C 
ATOM      7  C   UNL A   1      36.530  23.001  23.108  1.00  0.00     0.023 C 
BRANCH   6   8
ATOM      8  C   UNL A   1      34.105  23.170  23.823  1.00  0.00    -0.028 A 
ATOM      9  C   UNL A   1      34.124  24.559  23.598  1.00  0.00     0.005 A 
ATOM     10  C   UNL A   1      32.830  22.532  23.855  1.00  0.00    -0.014 A 
ATOM     11  C   UNL A   1      32.960  25.296  23.377  1.00  0.00     0.004 A 
ATOM     12  C   UNL A   1      31.660  23.309  23.663  1.00  0.00     0.012 A 
ATOM     13  C   UNL A   1      31.712  24.685  23.418  1.00  0.00    -0.047 A 
BRANCH  10  14
ATOM     14  C   UNL A   1      32.653  21.072  24.003  1.00  0.00    -0.018 A 
ATOM     15  C   UNL A   1      32.358  20.284  22.873  1.00  0.00     0.012 A 
ATOM     16  C   UNL A   1      32.802  20.424  25.239  1.00  0.00     0.012 A 
ATOM     17  C   UNL A   1      32.276  18.893  22.965  1.00  0.00     0.047 A 
ATOM     18  C   UNL A   1      32.728  19.030  25.334  1.00  0.00     0.047 A 
ATOM     19  C   UNL A   1      32.479  18.276  24.192  1.00  0.00     0.115 A 
BRANCH  19  20
ATOM     20  O   UNL A   1      32.432  16.915  24.229  1.00  0.00    -0.508 OA
ATOM     21  H   UNL A   1      32.916  16.412  23.604  1.00  0.00     0.293 HD
ENDBRANCH  19  20
ENDBRANCH  10  14
BRANCH  13  22
ATOM     22  C   UNL A   1      30.458  25.491  23.177  1.00  0.00     0.047 C 
BRANCH  22  23
ATOM     23  C   UNL A   1      29.960  26.353  24.343  1.00  0.00     0.060 C 
ATOM     24  C   UNL A   1      30.025  25.710  25.730  1.00  0.00     0.012 C 
ATOM     25  C   UNL A   1      30.780  27.608  24.539  1.00  0.00     0.136 C 
ATOM     26  C   UNL A   1      31.317  26.204  26.370  1.00  0.00     0.009 C 
ATOM     27  C   UNL A   1      31.515  27.622  25.854  1.00  0.00     0.076 C 
ATOM     28  O   UNL A   1      30.833  28.521  23.723  1.00  0.00    -0.299 OA
ENDBRANCH  22  23
ENDBRANCH  13  22
ENDBRANCH   6   8
ENDBRANCH   3   6
ENDBRANCH   1   2
BRANCH   1  29
ATOM     29  C   UNL A   1      38.172  19.626  24.635  1.00  0.00     0.042 C 
BRANCH  29  30
ATOM     30  C   UNL A   1      39.123  20.038  25.754  1.00  0.00     0.118 C 
BRANCH  30  31
ATOM     31  N   UNL A   1      40.219  19.099  25.932  1.00  0.00    -0.352 N 
ATOM     32  C   UNL A   1      41.552  19.339  26.147  1.00  0.00     0.251 C 
ATOM     33  H   UNL A   1      39.967  18.148  25.891  1.00  0.00     0.163 HD
ATOM     34  O   UNL A   1      42.359  18.412  26.074  1.00  0.00    -0.269 OA
BRANCH  32  35
ATOM     35  C   UNL A   1      42.035  20.707  26.440  1.00  0.00     0.039 A 
ATOM     36  C   UNL A   1      42.279  21.577  25.375  1.00  0.00     0.014 A 
ATOM     37  C   UNL A   1      42.273  21.127  27.752  1.00  0.00     0.014 A 
ATOM     38  C   UNL A   1      42.696  22.886  25.626  1.00  0.00     0.010 A 
ATOM     39  C   UNL A   1      42.613  22.455  28.006  1.00  0.00     0.010 A 
ATOM     40  C   UNL A   1      42.832  23.347  26.946  1.00  0.00    -0.014 A 
BRANCH  40  41
ATOM     41  C   UNL A   1      43.201  24.758  27.234  1.00  0.00     0.031 A 
ATOM     42  C   UNL A   1      44.602  25.242  26.988  1.00  0.00     0.074 A 
ATOM     43  C   UNL A   1      42.286  25.589  27.774  1.00  0.00     0.049 A 
ATOM     44  N   UNL A   1      45.132  26.414  27.241  1.00  0.00    -0.248 NA
ATOM     45  C   UNL A   1      45.543  24.274  26.403  1.00  0.00     0.031 C 
ATOM     46  C   UNL A   1      40.905  25.229  28.099  1.00  0.00     0.029 A 
ATOM     47  N   UNL A   1      42.385  26.904  28.156  1.00  0.00    -0.354 N 
ATOM     48  C   UNL A   1      46.464  26.317  26.859  1.00  0.00     0.074 A 
ATOM     49  C   UNL A   1      46.676  24.959  26.409  1.00  0.00     0.031 C 
ATOM     50  C   UNL A   1      40.280  26.301  28.610  1.00  0.00     0.029 A 
ATOM     51  C   UNL A   1      41.224  27.410  28.690  1.00  0.00     0.049 A 
ATOM     52  H   UNL A   1      43.209  27.434  28.057  1.00  0.00     0.167 HD
ATOM     53  C   UNL A   1      47.416  27.281  26.861  1.00  0.00     0.037 A 
ATOM     54  C   UNL A   1      40.957  28.628  29.198  1.00  0.00     0.037 A 
ATOM     55  C   UNL A   1      47.195  28.637  27.293  1.00  0.00     0.049 A 
ATOM     56  C   UNL A   1      42.039  29.675  29.208  1.00  0.00     0.074 A 
ATOM     57  C   UNL A   1      48.081  29.700  27.283  1.00  0.00     0.029 A 
ATOM     58  N   UNL A   1      46.004  29.114  27.819  1.00  0.00    -0.354 N 
ATOM     59  N   UNL A   1      43.274  29.592  28.782  1.00  0.00    -0.248 NA
ATOM     60  C   UNL A   1      41.685  30.987  29.767  1.00  0.00     0.031 C 
ATOM     61  C   UNL A   1      47.443  30.807  27.850  1.00  0.00     0.029 A 
ATOM     62  C   UNL A   1      46.140  30.451  28.161  1.00  0.00     0.049 A 
ATOM     63  H   UNL A   1      45.184  28.582  27.934  1.00  0.00     0.167 HD
ATOM     64  C   UNL A   1      43.836  30.844  28.992  1.00  0.00     0.074 A 
ATOM     65  C   UNL A   1      42.801  31.674  29.571  1.00  0.00     0.031 C 
ATOM     66  C   UNL A   1      45.097  31.268  28.729  1.00  0.00     0.037 A 
BRANCH  53  67
ATOM     67  C   UNL A   1      48.788  26.904  26.378  1.00  0.00     0.064 A 
ATOM     68  C   UNL A   1      49.750  26.361  27.245  1.00  0.00     0.173 A 
ATOM     69  C   UNL A   1      49.134  27.052  25.027  1.00  0.00     0.173 A 
ATOM     70  F   UNL A   1      49.474  26.206  28.548  1.00  0.00    -0.203 F 
ATOM     71  C   UNL A   1      51.015  26.010  26.781  1.00  0.00     0.198 A 
ATOM     72  C   UNL A   1      50.389  26.670  24.561  1.00  0.00     0.198 A 
ATOM     73  F   UNL A   1      48.252  27.559  24.153  1.00  0.00    -0.203 F 
ATOM     74  F   UNL A   1      51.934  25.541  27.639  1.00  0.00    -0.200 F 
ATOM     75  C   UNL A   1      51.332  26.157  25.440  1.00  0.00     0.200 A 
ATOM     76  F   UNL A   1      50.688  26.798  23.261  1.00  0.00    -0.200 F 
ATOM     77  F   UNL A   1      52.548  25.810  24.995  1.00  0.00    -0.200 F 
ENDBRANCH  53  67
BRANCH  54  78
ATOM     78  C   UNL A   1      39.598  28.932  29.722  1.00  0.00     0.064 A 
ATOM     79  C   UNL A   1      39.262  28.656  31.054  1.00  0.00     0.173 A 
ATOM     80  C   UNL A   1      38.609  29.497  28.903  1.00  0.00     0.173 A 
ATOM     81  F   UNL A   1      40.167  28.096  31.871  1.00  0.00    -0.203 F 
ATOM     82  C   UNL A   1      37.984  28.915  31.543  1.00  0.00     0.198 A 
ATOM     83  C   UNL A   1      37.340  29.784  29.401  1.00  0.00     0.198 A 
ATOM     84  F   UNL A   1      38.881  29.785  27.621  1.00  0.00    -0.203 F 
ATOM     85  F   UNL A   1      37.676  28.597  32.808  1.00  0.00    -0.200 F 
ATOM     86  C   UNL A   1      37.025  29.485  30.718  1.00  0.00     0.200 A 
ATOM     87  F   UNL A   1      36.422  30.350  28.606  1.00  0.00    -0.200 F 
ATOM     88  F   UNL A   1      35.797  29.737  31.190  1.00  0.00    -0.200 F 
ENDBRANCH  54  78
BRANCH  66  89
ATOM     89  C   UNL A   1      45.419  32.704  29.028  1.00  0.00     0.064 A 
ATOM     90  C   UNL A   1      45.978  33.096  30.253  1.00  0.00     0.173 A 
ATOM     91  C   UNL A   1      45.205  33.695  28.057  1.00  0.00     0.173 A 
ATOM     92  F   UNL A   1      46.188  32.189  31.219  1.00  0.00    -0.203 F 
ATOM     93  C   UNL A   1      46.287  34.430  30.505  1.00  0.00     0.198 A 
ATOM     94  C   UNL A   1      45.545  35.022  28.301  1.00  0.00     0.198 A 
ATOM     95  F   UNL A   1      44.678  33.372  26.867  1.00  0.00    -0.203 F 
ATOM     96  F   UNL A   1      46.774  34.789  31.701  1.00  0.00    -0.200 F 
ATOM     97  C   UNL A   1      46.079  35.390  29.526  1.00  0.00     0.200 A 
ATOM     98  F   UNL A   1      45.356  35.946  27.347  1.00  0.00    -0.200 F 
ATOM     99  F   UNL A   1      46.385  36.673  29.767  1.00  0.00    -0.200 F 
ENDBRANCH  66  89
ENDBRANCH  40  41
ENDBRANCH  32  35
ENDBRANCH  30  31
ENDBRANCH  29  30
ENDBRANCH   1  29
TORSDOF 15
ENDMDL
