MODEL 1
REMARK VINA RESULT:     -13.4      0.000      0.000
REMARK SMILES CN(CC(=O)NCCCNC(=O)c1ccc(-c2c3nc(c(-c4c(F)c(F)c(F)c(F)c4F)c4ccc([nH]4)c(-c4c(F)c(F)c(F)c(F)c4F)c4nc(c(-c5c(F)c(F)c(F)c(F)c5F)c5ccc2[nH]5)C=C4)C=C3)cc1)c1ncc(-c2nnnn2-c2ccccc2)c(-c2ccc(Cl)cc2)n1
REMARK SMILES IDX 7 1 6 2 4 3 5 4 3 6 2 7 1 8 76 9 77 10 99 11 78 12 91 13
REMARK SMILES IDX 79 14 92 15 93 16 98 17 94 18 97 19 95 20 96 21 80 22 81 23
REMARK SMILES IDX 84 24 82 25 83 26 85 27 86 28 90 29 87 30 89 31 88 32 8 33
REMARK SMILES IDX 9 34 10 35 11 36 12 38 13 39 14 40 75 41 15 42 74 43 16 44
REMARK SMILES IDX 17 45 18 46 68 47 19 48 73 49 67 50 69 51 20 52 72 53 66 54
REMARK SMILES IDX 65 55 21 57 53 58 33 59 52 60 34 61 37 62 51 63 70 64 35 65
REMARK SMILES IDX 36 66 50 68 71 69 38 70 22 71 23 72 31 73 24 74 25 75 29 76
REMARK SMILES IDX 32 77 26 78 27 79 30 80 28 81 54 82 55 83 63 84 56 85 57 86
REMARK SMILES IDX 61 87 64 88 58 89 59 90 62 91 60 92 39 93 40 94 48 95 41 96
REMARK SMILES IDX 42 97 46 98 49 99 43 100 44 101 47 102 45 103
REMARK H PARENT 6 5 10 37 69 56 37 67
REMARK Flexibility Score: inf
ROOT
ATOM      1  C   UNL A   1      36.771  20.256  25.055  1.00  0.00     0.117 C 
ENDROOT
BRANCH   1   2
ATOM      2  N   UNL A   1      36.608  21.568  25.646  1.00  0.00    -0.354 N 
ATOM      3  C   UNL A   1      35.454  22.192  26.033  1.00  0.00     0.239 C 
ATOM      4  O   UNL A   1      35.552  23.298  26.573  1.00  0.00    -0.273 OA
ATOM      5  H   UNL A   1      37.438  22.077  25.789  1.00  0.00     0.163 HD
BRANCH   3   6
ATOM      6  C   UNL A   1      34.106  21.468  25.909  1.00  0.00     0.219 C 
BRANCH   6   7
ATOM      7  N   UNL A   1      33.002  22.093  26.645  1.00  0.00    -0.335 N 
ATOM      8  C   UNL A   1      33.010  22.101  28.091  1.00  0.00     0.147 C 
BRANCH   7   9
ATOM      9  C   UNL A   1      32.337  23.120  26.008  1.00  0.00     0.226 A 
ATOM     10  N   UNL A   1      31.505  22.806  25.014  1.00  0.00    -0.221 NA
ATOM     11  N   UNL A   1      32.517  24.386  26.421  1.00  0.00    -0.212 NA
ATOM     12  C   UNL A   1      30.800  23.801  24.449  1.00  0.00     0.129 A 
ATOM     13  C   UNL A   1      31.830  25.384  25.805  1.00  0.00     0.087 A 
ATOM     14  C   UNL A   1      30.890  25.125  24.824  1.00  0.00     0.066 A 
BRANCH  13  15
ATOM     15  C   UNL A   1      32.192  26.738  26.260  1.00  0.00     0.001 A 
ATOM     16  C   UNL A   1      33.514  27.198  26.107  1.00  0.00     0.012 A 
ATOM     17  C   UNL A   1      31.254  27.611  26.838  1.00  0.00     0.012 A 
ATOM     18  C   UNL A   1      33.879  28.492  26.493  1.00  0.00     0.021 A 
ATOM     19  C   UNL A   1      31.617  28.906  27.224  1.00  0.00     0.021 A 
ATOM     20  C   UNL A   1      32.928  29.342  27.046  1.00  0.00     0.041 A 
ATOM     21  Cl  UNL A   1      33.369  30.937  27.514  1.00  0.00    -0.084 Cl
ENDBRANCH  13  15
BRANCH  14  22
ATOM     22  C   UNL A   1      30.038  26.118  24.197  1.00  0.00     0.190 A 
ATOM     23  N   UNL A   1      28.727  26.210  24.309  1.00  0.00    -0.108 NA
ATOM     24  N   UNL A   1      30.488  27.245  23.517  1.00  0.00    -0.193 N 
ATOM     25  N   UNL A   1      28.381  27.435  23.805  1.00  0.00    -0.023 NA
ATOM     26  N   UNL A   1      29.450  28.100  23.393  1.00  0.00    -0.040 NA
BRANCH  24  27
ATOM     27  C   UNL A   1      31.776  27.554  23.017  1.00  0.00     0.069 A 
ATOM     28  C   UNL A   1      32.308  28.830  23.237  1.00  0.00     0.028 A 
ATOM     29  C   UNL A   1      32.517  26.606  22.294  1.00  0.00     0.028 A 
ATOM     30  C   UNL A   1      33.589  29.137  22.774  1.00  0.00     0.002 A 
ATOM     31  C   UNL A   1      33.781  26.935  21.803  1.00  0.00     0.002 A 
ATOM     32  C   UNL A   1      34.321  28.194  22.052  1.00  0.00     0.000 A 
ENDBRANCH  24  27
ENDBRANCH  14  22
ENDBRANCH   7   9
ENDBRANCH   6   7
ENDBRANCH   3   6
ENDBRANCH   1   2
BRANCH   1  33
ATOM     33  C   UNL A   1      38.217  19.972  24.661  1.00  0.00     0.042 C 
BRANCH  33  34
ATOM     34  C   UNL A   1      39.227  20.229  25.777  1.00  0.00     0.118 C 
BRANCH  34  35
ATOM     35  N   UNL A   1      40.216  19.163  25.900  1.00  0.00    -0.352 N 
ATOM     36  C   UNL A   1      41.568  19.219  26.125  1.00  0.00     0.251 C 
ATOM     37  H   UNL A   1      39.854  18.253  25.806  1.00  0.00     0.163 HD
ATOM     38  O   UNL A   1      42.249  18.201  26.003  1.00  0.00    -0.269 OA
BRANCH  36  39
ATOM     39  C   UNL A   1      42.224  20.493  26.488  1.00  0.00     0.039 A 
ATOM     40  C   UNL A   1      42.791  21.270  25.474  1.00  0.00     0.014 A 
ATOM     41  C   UNL A   1      42.297  20.915  27.818  1.00  0.00     0.014 A 
ATOM     42  C   UNL A   1      43.345  22.515  25.781  1.00  0.00     0.010 A 
ATOM     43  C   UNL A   1      42.790  22.184  28.114  1.00  0.00     0.010 A 
ATOM     44  C   UNL A   1      43.297  23.006  27.095  1.00  0.00    -0.014 A 
BRANCH  44  45
ATOM     45  C   UNL A   1      43.702  24.398  27.414  1.00  0.00     0.031 A 
ATOM     46  C   UNL A   1      42.687  25.410  27.859  1.00  0.00     0.074 A 
ATOM     47  C   UNL A   1      44.980  24.769  27.208  1.00  0.00     0.049 A 
ATOM     48  N   UNL A   1      42.835  26.694  28.064  1.00  0.00    -0.248 NA
ATOM     49  C   UNL A   1      41.320  24.918  28.083  1.00  0.00     0.031 C 
ATOM     50  C   UNL A   1      46.053  23.886  26.747  1.00  0.00     0.029 A 
ATOM     51  N   UNL A   1      45.594  25.991  27.341  1.00  0.00    -0.354 N 
ATOM     52  C   UNL A   1      41.582  27.166  28.432  1.00  0.00     0.074 A 
ATOM     53  C   UNL A   1      40.675  26.038  28.378  1.00  0.00     0.031 C 
ATOM     54  C   UNL A   1      47.192  24.588  26.649  1.00  0.00     0.029 A 
ATOM     55  C   UNL A   1      46.922  25.981  26.986  1.00  0.00     0.049 A 
ATOM     56  H   UNL A   1      45.128  26.797  27.660  1.00  0.00     0.167 HD
ATOM     57  C   UNL A   1      41.228  28.422  28.799  1.00  0.00     0.037 A 
ATOM     58  C   UNL A   1      47.815  26.987  26.913  1.00  0.00     0.037 A 
ATOM     59  C   UNL A   1      42.139  29.535  28.861  1.00  0.00     0.049 A 
ATOM     60  C   UNL A   1      47.381  28.381  27.272  1.00  0.00     0.074 A 
ATOM     61  C   UNL A   1      41.889  30.831  29.281  1.00  0.00     0.029 A 
ATOM     62  N   UNL A   1      43.473  29.491  28.481  1.00  0.00    -0.354 N 
ATOM     63  N   UNL A   1      46.211  28.802  27.687  1.00  0.00    -0.248 NA
ATOM     64  C   UNL A   1      48.389  29.442  27.148  1.00  0.00     0.031 C 
ATOM     65  C   UNL A   1      43.054  31.584  29.095  1.00  0.00     0.029 A 
ATOM     66  C   UNL A   1      44.046  30.746  28.613  1.00  0.00     0.049 A 
ATOM     67  H   UNL A   1      43.943  28.686  28.163  1.00  0.00     0.167 HD
ATOM     68  C   UNL A   1      46.345  30.169  27.887  1.00  0.00     0.074 A 
ATOM     69  C   UNL A   1      47.719  30.503  27.575  1.00  0.00     0.031 C 
ATOM     70  C   UNL A   1      45.413  31.067  28.288  1.00  0.00     0.037 A 
BRANCH  57  71
ATOM     71  C   UNL A   1      39.789  28.666  29.153  1.00  0.00     0.064 A 
ATOM     72  C   UNL A   1      39.302  28.456  30.453  1.00  0.00     0.173 A 
ATOM     73  C   UNL A   1      38.895  29.166  28.193  1.00  0.00     0.173 A 
ATOM     74  F   UNL A   1      40.112  27.971  31.407  1.00  0.00    -0.203 F 
ATOM     75  C   UNL A   1      37.970  28.710  30.770  1.00  0.00     0.198 A 
ATOM     76  C   UNL A   1      37.573  29.450  28.522  1.00  0.00     0.198 A 
ATOM     77  F   UNL A   1      39.309  29.392  26.937  1.00  0.00    -0.203 F 
ATOM     78  F   UNL A   1      37.518  28.457  32.005  1.00  0.00    -0.200 F 
ATOM     79  C   UNL A   1      37.110  29.215  29.807  1.00  0.00     0.200 A 
ATOM     80  F   UNL A   1      36.746  29.952  27.594  1.00  0.00    -0.200 F 
ATOM     81  F   UNL A   1      35.830  29.469  30.117  1.00  0.00    -0.200 F 
ENDBRANCH  57  71
BRANCH  58  82
ATOM     82  C   UNL A   1      49.207  26.712  26.468  1.00  0.00     0.064 A 
ATOM     83  C   UNL A   1      49.581  26.876  25.128  1.00  0.00     0.173 A 
ATOM     84  C   UNL A   1      50.189  26.273  27.370  1.00  0.00     0.173 A 
ATOM     85  F   UNL A   1      48.674  27.273  24.224  1.00  0.00    -0.203 F 
ATOM     86  C   UNL A   1      50.878  26.592  24.701  1.00  0.00     0.198 A 
ATOM     87  C   UNL A   1      51.493  26.021  26.949  1.00  0.00     0.198 A 
ATOM     88  F   UNL A   1      49.886  26.105  28.666  1.00  0.00    -0.203 F 
ATOM     89  F   UNL A   1      51.195  26.713  23.406  1.00  0.00    -0.200 F 
ATOM     90  C   UNL A   1      51.834  26.173  25.614  1.00  0.00     0.200 A 
ATOM     91  F   UNL A   1      52.418  25.634  27.838  1.00  0.00    -0.200 F 
ATOM     92  F   UNL A   1      53.082  25.908  25.205  1.00  0.00    -0.200 F 
ENDBRANCH  58  82
BRANCH  70  93
ATOM     93  C   UNL A   1      45.847  32.499  28.417  1.00  0.00     0.064 A 
ATOM     94  C   UNL A   1      46.406  32.991  29.605  1.00  0.00     0.173 A 
ATOM     95  C   UNL A   1      45.746  33.377  27.326  1.00  0.00     0.173 A 
ATOM     96  F   UNL A   1      46.507  32.197  30.682  1.00  0.00    -0.203 F 
ATOM     97  C   UNL A   1      46.828  34.315  29.705  1.00  0.00     0.198 A 
ATOM     98  C   UNL A   1      46.200  34.691  27.420  1.00  0.00     0.198 A 
ATOM     99  F   UNL A   1      45.223  32.958  26.165  1.00  0.00    -0.203 F 
ATOM    100  F   UNL A   1      47.316  34.773  30.866  1.00  0.00    -0.200 F 
ATOM    101  C   UNL A   1      46.734  35.159  28.610  1.00  0.00     0.200 A 
ATOM    102  F   UNL A   1      46.122  35.501  26.355  1.00  0.00    -0.200 F 
ATOM    103  F   UNL A   1      47.153  36.429  28.704  1.00  0.00    -0.200 F 
ENDBRANCH  70  93
ENDBRANCH  44  45
ENDBRANCH  36  39
ENDBRANCH  34  35
ENDBRANCH  33  34
ENDBRANCH   1  33
TORSDOF 15
ENDMDL
MODEL 2
REMARK VINA RESULT:     -12.3      1.119      2.241
REMARK SMILES CN(CC(=O)NCCCNC(=O)c1ccc(-c2c3nc(c(-c4c(F)c(F)c(F)c(F)c4F)c4ccc([nH]4)c(-c4c(F)c(F)c(F)c(F)c4F)c4nc(c(-c5c(F)c(F)c(F)c(F)c5F)c5ccc2[nH]5)C=C4)C=C3)cc1)c1ncc(-c2nnnn2-c2ccccc2)c(-c2ccc(Cl)cc2)n1
REMARK SMILES IDX 7 1 6 2 4 3 5 4 3 6 2 7 1 8 76 9 77 10 99 11 78 12 91 13
REMARK SMILES IDX 79 14 92 15 93 16 98 17 94 18 97 19 95 20 96 21 80 22 81 23
REMARK SMILES IDX 84 24 82 25 83 26 85 27 86 28 90 29 87 30 89 31 88 32 8 33
REMARK SMILES IDX 9 34 10 35 11 36 12 38 13 39 14 40 75 41 15 42 74 43 16 44
REMARK SMILES IDX 17 45 18 46 68 47 19 48 73 49 67 50 69 51 20 52 72 53 66 54
REMARK SMILES IDX 65 55 21 57 53 58 33 59 52 60 34 61 37 62 51 63 70 64 35 65
REMARK SMILES IDX 36 66 50 68 71 69 38 70 22 71 23 72 31 73 24 74 25 75 29 76
REMARK SMILES IDX 32 77 26 78 27 79 30 80 28 81 54 82 55 83 63 84 56 85 57 86
REMARK SMILES IDX 61 87 64 88 58 89 59 90 62 91 60 92 39 93 40 94 48 95 41 96
REMARK SMILES IDX 42 97 46 98 49 99 43 100 44 101 47 102 45 103
REMARK H PARENT 6 5 10 37 69 56 37 67
REMARK Flexibility Score: inf
ROOT
ATOM      1  C   UNL A   1      36.582  21.013  25.282  1.00  0.00     0.117 C 
ENDROOT
BRANCH   1   2
ATOM      2  N   UNL A   1      35.324  20.309  25.151  1.00  0.00    -0.354 N 
ATOM      3  C   UNL A   1      34.147  20.535  25.810  1.00  0.00     0.239 C 
ATOM      4  O   UNL A   1      33.172  19.845  25.498  1.00  0.00    -0.273 OA
ATOM      5  H   UNL A   1      35.314  19.571  24.500  1.00  0.00     0.163 HD
BRANCH   3   6
ATOM      6  C   UNL A   1      34.030  21.697  26.806  1.00  0.00     0.219 C 
BRANCH   6   7
ATOM      7  N   UNL A   1      32.873  22.573  26.596  1.00  0.00    -0.335 N 
ATOM      8  C   UNL A   1      31.866  22.698  27.625  1.00  0.00     0.147 C 
BRANCH   7   9
ATOM      9  C   UNL A   1      33.057  23.650  25.753  1.00  0.00     0.226 A 
ATOM     10  N   UNL A   1      33.274  23.402  24.460  1.00  0.00    -0.221 NA
ATOM     11  N   UNL A   1      32.979  24.899  26.242  1.00  0.00    -0.212 NA
ATOM     12  C   UNL A   1      33.373  24.454  23.629  1.00  0.00     0.129 A 
ATOM     13  C   UNL A   1      33.129  25.949  25.393  1.00  0.00     0.087 A 
ATOM     14  C   UNL A   1      33.275  25.771  24.029  1.00  0.00     0.066 A 
BRANCH  13  15
ATOM     15  C   UNL A   1      33.141  27.265  26.056  1.00  0.00     0.001 A 
ATOM     16  C   UNL A   1      34.368  27.898  26.332  1.00  0.00     0.012 A 
ATOM     17  C   UNL A   1      31.960  27.934  26.418  1.00  0.00     0.012 A 
ATOM     18  C   UNL A   1      34.413  29.165  26.923  1.00  0.00     0.021 A 
ATOM     19  C   UNL A   1      32.001  29.202  27.010  1.00  0.00     0.021 A 
ATOM     20  C   UNL A   1      33.228  29.813  27.256  1.00  0.00     0.041 A 
ATOM     21  Cl  UNL A   1      33.275  31.374  27.977  1.00  0.00    -0.084 Cl
ENDBRANCH  13  15
BRANCH  14  22
ATOM     22  C   UNL A   1      33.330  26.835  23.046  1.00  0.00     0.190 A 
ATOM     23  N   UNL A   1      34.404  27.262  22.410  1.00  0.00    -0.108 NA
ATOM     24  N   UNL A   1      32.223  27.462  22.482  1.00  0.00    -0.193 N 
ATOM     25  N   UNL A   1      33.958  28.056  21.388  1.00  0.00    -0.023 NA
ATOM     26  N   UNL A   1      32.635  28.122  21.377  1.00  0.00    -0.040 NA
BRANCH  24  27
ATOM     27  C   UNL A   1      30.869  27.463  22.893  1.00  0.00     0.069 A 
ATOM     28  C   UNL A   1      30.110  28.630  22.748  1.00  0.00     0.028 A 
ATOM     29  C   UNL A   1      30.284  26.317  23.454  1.00  0.00     0.028 A 
ATOM     30  C   UNL A   1      28.764  28.634  23.121  1.00  0.00     0.002 A 
ATOM     31  C   UNL A   1      28.949  26.343  23.861  1.00  0.00     0.002 A 
ATOM     32  C   UNL A   1      28.187  27.495  23.684  1.00  0.00     0.000 A 
ENDBRANCH  24  27
ENDBRANCH  14  22
ENDBRANCH   7   9
ENDBRANCH   6   7
ENDBRANCH   3   6
ENDBRANCH   1   2
BRANCH   1  33
ATOM     33  C   UNL A   1      37.783  20.116  24.999  1.00  0.00     0.042 C 
BRANCH  33  34
ATOM     34  C   UNL A   1      39.042  20.501  25.773  1.00  0.00     0.118 C 
BRANCH  34  35
ATOM     35  N   UNL A   1      40.000  19.406  25.874  1.00  0.00    -0.352 N 
ATOM     36  C   UNL A   1      41.358  19.420  26.065  1.00  0.00     0.251 C 
ATOM     37  H   UNL A   1      39.608  18.507  25.790  1.00  0.00     0.163 HD
ATOM     38  O   UNL A   1      42.004  18.382  25.928  1.00  0.00    -0.269 OA
BRANCH  36  39
ATOM     39  C   UNL A   1      42.062  20.674  26.409  1.00  0.00     0.039 A 
ATOM     40  C   UNL A   1      42.556  21.473  25.375  1.00  0.00     0.014 A 
ATOM     41  C   UNL A   1      42.250  21.056  27.740  1.00  0.00     0.014 A 
ATOM     42  C   UNL A   1      43.154  22.701  25.670  1.00  0.00     0.010 A 
ATOM     43  C   UNL A   1      42.785  22.308  28.031  1.00  0.00     0.010 A 
ATOM     44  C   UNL A   1      43.220  23.153  26.997  1.00  0.00    -0.014 A 
BRANCH  44  45
ATOM     45  C   UNL A   1      43.672  24.529  27.322  1.00  0.00     0.031 A 
ATOM     46  C   UNL A   1      42.697  25.564  27.803  1.00  0.00     0.074 A 
ATOM     47  C   UNL A   1      44.955  24.868  27.088  1.00  0.00     0.049 A 
ATOM     48  N   UNL A   1      42.887  26.841  28.018  1.00  0.00    -0.248 NA
ATOM     49  C   UNL A   1      41.323  25.108  28.055  1.00  0.00     0.031 C 
ATOM     50  C   UNL A   1      45.991  23.960  26.591  1.00  0.00     0.029 A 
ATOM     51  N   UNL A   1      45.606  26.070  27.220  1.00  0.00    -0.354 N 
ATOM     52  C   UNL A   1      41.657  27.343  28.423  1.00  0.00     0.074 A 
ATOM     53  C   UNL A   1      40.717  26.242  28.379  1.00  0.00     0.031 C 
ATOM     54  C   UNL A   1      47.146  24.631  26.472  1.00  0.00     0.029 A 
ATOM     55  C   UNL A   1      46.924  26.027  26.831  1.00  0.00     0.049 A 
ATOM     56  H   UNL A   1      45.170  26.885  27.559  1.00  0.00     0.167 HD
ATOM     57  C   UNL A   1      41.348  28.604  28.812  1.00  0.00     0.037 A 
ATOM     58  C   UNL A   1      47.843  27.008  26.747  1.00  0.00     0.037 A 
ATOM     59  C   UNL A   1      42.291  29.691  28.864  1.00  0.00     0.049 A 
ATOM     60  C   UNL A   1      47.457  28.410  27.132  1.00  0.00     0.074 A 
ATOM     61  C   UNL A   1      42.088  30.988  29.304  1.00  0.00     0.029 A 
ATOM     62  N   UNL A   1      43.613  29.614  28.450  1.00  0.00    -0.354 N 
ATOM     63  N   UNL A   1      46.310  28.858  27.581  1.00  0.00    -0.248 NA
ATOM     64  C   UNL A   1      48.492  29.444  26.995  1.00  0.00     0.031 C 
ATOM     65  C   UNL A   1      43.268  31.710  29.097  1.00  0.00     0.029 A 
ATOM     66  C   UNL A   1      44.224  30.851  28.582  1.00  0.00     0.049 A 
ATOM     67  H   UNL A   1      44.052  28.800  28.112  1.00  0.00     0.167 HD
ATOM     68  C   UNL A   1      46.488  30.219  27.793  1.00  0.00     0.074 A 
ATOM     69  C   UNL A   1      47.863  30.518  27.450  1.00  0.00     0.031 C 
ATOM     70  C   UNL A   1      45.592  31.138  28.227  1.00  0.00     0.037 A 
BRANCH  57  71
ATOM     71  C   UNL A   1      39.925  28.884  29.205  1.00  0.00     0.064 A 
ATOM     72  C   UNL A   1      38.993  29.396  28.289  1.00  0.00     0.173 A 
ATOM     73  C   UNL A   1      39.474  28.590  30.502  1.00  0.00     0.173 A 
ATOM     74  F   UNL A   1      39.373  29.702  27.039  1.00  0.00    -0.203 F 
ATOM     75  C   UNL A   1      37.672  29.628  28.664  1.00  0.00     0.198 A 
ATOM     76  C   UNL A   1      38.145  28.793  30.862  1.00  0.00     0.198 A 
ATOM     77  F   UNL A   1      40.321  28.093  31.415  1.00  0.00    -0.203 F 
ATOM     78  F   UNL A   1      36.812  30.161  27.785  1.00  0.00    -0.200 F 
ATOM     79  C   UNL A   1      37.248  29.319  29.946  1.00  0.00     0.200 A 
ATOM     80  F   UNL A   1      37.733  28.479  32.099  1.00  0.00    -0.200 F 
ATOM     81  F   UNL A   1      35.973  29.533  30.303  1.00  0.00    -0.200 F 
ENDBRANCH  57  71
BRANCH  58  82
ATOM     82  C   UNL A   1      49.215  26.700  26.265  1.00  0.00     0.064 A 
ATOM     83  C   UNL A   1      50.202  26.240  27.148  1.00  0.00     0.173 A 
ATOM     84  C   UNL A   1      49.572  26.864  24.917  1.00  0.00     0.173 A 
ATOM     85  F   UNL A   1      49.917  26.086  28.449  1.00  0.00    -0.203 F 
ATOM     86  C   UNL A   1      51.498  25.975  26.706  1.00  0.00     0.198 A 
ATOM     87  C   UNL A   1      50.857  26.569  24.471  1.00  0.00     0.198 A 
ATOM     88  F   UNL A   1      48.664  27.297  24.030  1.00  0.00    -0.203 F 
ATOM     89  F   UNL A   1      52.433  25.582  27.580  1.00  0.00    -0.200 F 
ATOM     90  C   UNL A   1      51.822  26.133  25.367  1.00  0.00     0.200 A 
ATOM     91  F   UNL A   1      51.160  26.705  23.173  1.00  0.00    -0.200 F 
ATOM     92  F   UNL A   1      53.065  25.872  24.941  1.00  0.00    -0.200 F 
ENDBRANCH  58  82
BRANCH  70  93
ATOM     93  C   UNL A   1      46.068  32.556  28.360  1.00  0.00     0.064 A 
ATOM     94  C   UNL A   1      46.675  33.016  29.538  1.00  0.00     0.173 A 
ATOM     95  C   UNL A   1      45.960  33.451  27.284  1.00  0.00     0.173 A 
ATOM     96  F   UNL A   1      46.786  32.205  30.602  1.00  0.00    -0.203 F 
ATOM     97  C   UNL A   1      47.137  34.326  29.642  1.00  0.00     0.198 A 
ATOM     98  C   UNL A   1      46.453  34.750  27.381  1.00  0.00     0.198 A 
ATOM     99  F   UNL A   1      45.392  33.061  26.134  1.00  0.00    -0.203 F 
ATOM    100  F   UNL A   1      47.672  34.756  30.793  1.00  0.00    -0.200 F 
ATOM    101  C   UNL A   1      47.034  35.187  28.561  1.00  0.00     0.200 A 
ATOM    102  F   UNL A   1      46.366  35.576  26.330  1.00  0.00    -0.200 F 
ATOM    103  F   UNL A   1      47.491  36.444  28.658  1.00  0.00    -0.200 F 
ENDBRANCH  70  93
ENDBRANCH  44  45
ENDBRANCH  36  39
ENDBRANCH  34  35
ENDBRANCH  33  34
ENDBRANCH   1  33
TORSDOF 15
ENDMDL
MODEL 3
REMARK VINA RESULT:     -12.2      1.760      7.383
REMARK SMILES CN(CC(=O)NCCCNC(=O)c1ccc(-c2c3nc(c(-c4c(F)c(F)c(F)c(F)c4F)c4ccc([nH]4)c(-c4c(F)c(F)c(F)c(F)c4F)c4nc(c(-c5c(F)c(F)c(F)c(F)c5F)c5ccc2[nH]5)C=C4)C=C3)cc1)c1ncc(-c2nnnn2-c2ccccc2)c(-c2ccc(Cl)cc2)n1
REMARK SMILES IDX 7 1 6 2 4 3 5 4 3 6 2 7 1 8 76 9 77 10 99 11 78 12 91 13
REMARK SMILES IDX 79 14 92 15 93 16 98 17 94 18 97 19 95 20 96 21 80 22 81 23
REMARK SMILES IDX 84 24 82 25 83 26 85 27 86 28 90 29 87 30 89 31 88 32 8 33
REMARK SMILES IDX 9 34 10 35 11 36 12 38 13 39 14 40 75 41 15 42 74 43 16 44
REMARK SMILES IDX 17 45 18 46 68 47 19 48 73 49 67 50 69 51 20 52 72 53 66 54
REMARK SMILES IDX 65 55 21 57 53 58 33 59 52 60 34 61 37 62 51 63 70 64 35 65
REMARK SMILES IDX 36 66 50 68 71 69 38 70 22 71 23 72 31 73 24 74 25 75 29 76
REMARK SMILES IDX 32 77 26 78 27 79 30 80 28 81 54 82 55 83 63 84 56 85 57 86
REMARK SMILES IDX 61 87 64 88 58 89 59 90 62 91 60 92 39 93 40 94 48 95 41 96
REMARK SMILES IDX 42 97 46 98 49 99 43 100 44 101 47 102 45 103
REMARK H PARENT 6 5 10 37 69 56 37 67
REMARK Flexibility Score: inf
ROOT
ATOM      1  C   UNL A   1      40.019  21.368  26.707  1.00  0.00     0.117 C 
ENDROOT
BRANCH   1   2
ATOM      2  N   UNL A   1      39.924  22.809  26.598  1.00  0.00    -0.354 N 
ATOM      3  C   UNL A   1      38.818  23.574  26.349  1.00  0.00     0.239 C 
ATOM      4  O   UNL A   1      38.955  24.801  26.356  1.00  0.00    -0.273 OA
ATOM      5  H   UNL A   1      40.767  23.302  26.720  1.00  0.00     0.163 HD
BRANCH   3   6
ATOM      6  C   UNL A   1      37.440  22.915  26.199  1.00  0.00     0.219 C 
BRANCH   6   7
ATOM      7  N   UNL A   1      36.673  23.353  25.029  1.00  0.00    -0.335 N 
ATOM      8  C   UNL A   1      37.087  22.954  23.703  1.00  0.00     0.147 C 
BRANCH   7   9
ATOM      9  C   UNL A   1      35.331  23.604  25.228  1.00  0.00     0.226 A 
ATOM     10  N   UNL A   1      34.478  22.587  25.097  1.00  0.00    -0.221 NA
ATOM     11  N   UNL A   1      34.929  24.838  25.575  1.00  0.00    -0.212 NA
ATOM     12  C   UNL A   1      33.181  22.818  25.368  1.00  0.00     0.129 A 
ATOM     13  C   UNL A   1      33.608  25.062  25.799  1.00  0.00     0.087 A 
ATOM     14  C   UNL A   1      32.677  24.040  25.763  1.00  0.00     0.066 A 
BRANCH  13  15
ATOM     15  C   UNL A   1      33.269  26.473  26.059  1.00  0.00     0.001 A 
ATOM     16  C   UNL A   1      33.680  27.469  25.152  1.00  0.00     0.012 A 
ATOM     17  C   UNL A   1      32.529  26.872  27.184  1.00  0.00     0.012 A 
ATOM     18  C   UNL A   1      33.340  28.812  25.349  1.00  0.00     0.021 A 
ATOM     19  C   UNL A   1      32.187  28.215  27.383  1.00  0.00     0.021 A 
ATOM     20  C   UNL A   1      32.591  29.178  26.462  1.00  0.00     0.041 A 
ATOM     21  Cl  UNL A   1      32.163  30.826  26.706  1.00  0.00    -0.084 Cl
ENDBRANCH  13  15
BRANCH  14  22
ATOM     22  C   UNL A   1      31.273  24.173  26.097  1.00  0.00     0.190 A 
ATOM     23  N   UNL A   1      30.638  23.563  27.080  1.00  0.00    -0.108 NA
ATOM     24  N   UNL A   1      30.403  25.106  25.541  1.00  0.00    -0.193 N 
ATOM     25  N   UNL A   1      29.428  24.191  27.207  1.00  0.00    -0.023 NA
ATOM     26  N   UNL A   1      29.307  25.176  26.329  1.00  0.00    -0.040 NA
BRANCH  24  27
ATOM     27  C   UNL A   1      30.542  25.904  24.381  1.00  0.00     0.069 A 
ATOM     28  C   UNL A   1      31.168  25.366  23.250  1.00  0.00     0.028 A 
ATOM     29  C   UNL A   1      30.077  27.228  24.355  1.00  0.00     0.028 A 
ATOM     30  C   UNL A   1      31.285  26.134  22.090  1.00  0.00     0.002 A 
ATOM     31  C   UNL A   1      30.233  28.000  23.203  1.00  0.00     0.002 A 
ATOM     32  C   UNL A   1      30.826  27.451  22.069  1.00  0.00     0.000 A 
ENDBRANCH  24  27
ENDBRANCH  14  22
ENDBRANCH   7   9
ENDBRANCH   6   7
ENDBRANCH   3   6
ENDBRANCH   1   2
BRANCH   1  33
ATOM     33  C   UNL A   1      41.051  20.779  25.751  1.00  0.00     0.042 C 
BRANCH  33  34
ATOM     34  C   UNL A   1      41.973  19.745  26.392  1.00  0.00     0.118 C 
BRANCH  34  35
ATOM     35  N   UNL A   1      42.919  19.165  25.445  1.00  0.00    -0.352 N 
ATOM     36  C   UNL A   1      43.954  19.738  24.751  1.00  0.00     0.251 C 
ATOM     37  H   UNL A   1      42.794  18.204  25.273  1.00  0.00     0.163 HD
ATOM     38  O   UNL A   1      44.510  19.106  23.853  1.00  0.00    -0.269 OA
BRANCH  36  39
ATOM     39  C   UNL A   1      44.396  21.116  25.050  1.00  0.00     0.039 A 
ATOM     40  C   UNL A   1      44.126  22.125  24.121  1.00  0.00     0.014 A 
ATOM     41  C   UNL A   1      45.086  21.415  26.228  1.00  0.00     0.014 A 
ATOM     42  C   UNL A   1      44.462  23.449  24.416  1.00  0.00     0.010 A 
ATOM     43  C   UNL A   1      45.361  22.742  26.551  1.00  0.00     0.010 A 
ATOM     44  C   UNL A   1      45.030  23.774  25.658  1.00  0.00    -0.014 A 
BRANCH  44  45
ATOM     45  C   UNL A   1      45.219  25.187  26.074  1.00  0.00     0.031 A 
ATOM     46  C   UNL A   1      46.579  25.821  26.041  1.00  0.00     0.074 A 
ATOM     47  C   UNL A   1      44.168  25.867  26.573  1.00  0.00     0.049 A 
ATOM     48  N   UNL A   1      46.953  26.997  26.478  1.00  0.00    -0.248 NA
ATOM     49  C   UNL A   1      47.666  25.020  25.461  1.00  0.00     0.031 C 
ATOM     50  C   UNL A   1      42.803  25.349  26.686  1.00  0.00     0.029 A 
ATOM     51  N   UNL A   1      44.084  27.134  27.095  1.00  0.00    -0.354 N 
ATOM     52  C   UNL A   1      48.317  27.075  26.233  1.00  0.00     0.074 A 
ATOM     53  C   UNL A   1      48.714  25.809  25.652  1.00  0.00     0.031 C 
ATOM     54  C   UNL A   1      42.017  26.291  27.228  1.00  0.00     0.029 A 
ATOM     55  C   UNL A   1      42.829  27.459  27.553  1.00  0.00     0.049 A 
ATOM     56  H   UNL A   1      44.850  27.752  27.139  1.00  0.00     0.167 HD
ATOM     57  C   UNL A   1      49.156  28.115  26.458  1.00  0.00     0.037 A 
ATOM     58  C   UNL A   1      42.388  28.562  28.187  1.00  0.00     0.037 A 
ATOM     59  C   UNL A   1      48.751  29.375  27.026  1.00  0.00     0.049 A 
ATOM     60  C   UNL A   1      43.353  29.679  28.473  1.00  0.00     0.074 A 
ATOM     61  C   UNL A   1      49.514  30.512  27.235  1.00  0.00     0.029 A 
ATOM     62  N   UNL A   1      47.475  29.663  27.490  1.00  0.00    -0.354 N 
ATOM     63  N   UNL A   1      44.626  29.769  28.174  1.00  0.00    -0.248 NA
ATOM     64  C   UNL A   1      42.823  30.846  29.192  1.00  0.00     0.031 C 
ATOM     65  C   UNL A   1      48.717  31.462  27.881  1.00  0.00     0.029 A 
ATOM     66  C   UNL A   1      47.442  30.941  28.024  1.00  0.00     0.049 A 
ATOM     67  H   UNL A   1      46.707  29.048  27.445  1.00  0.00     0.167 HD
ATOM     68  C   UNL A   1      45.044  31.004  28.652  1.00  0.00     0.074 A 
ATOM     69  C   UNL A   1      43.882  31.640  29.237  1.00  0.00     0.031 C 
ATOM     70  C   UNL A   1      46.280  31.559  28.614  1.00  0.00     0.037 A 
BRANCH  57  71
ATOM     71  C   UNL A   1      50.603  27.936  26.098  1.00  0.00     0.064 A 
ATOM     72  C   UNL A   1      51.059  28.074  24.778  1.00  0.00     0.173 A 
ATOM     73  C   UNL A   1      51.556  27.671  27.095  1.00  0.00     0.173 A 
ATOM     74  F   UNL A   1      50.190  28.319  23.786  1.00  0.00    -0.203 F 
ATOM     75  C   UNL A   1      52.409  27.928  24.466  1.00  0.00     0.198 A 
ATOM     76  C   UNL A   1      52.908  27.558  26.784  1.00  0.00     0.198 A 
ATOM     77  F   UNL A   1      51.176  27.536  28.374  1.00  0.00    -0.203 F 
ATOM     78  F   UNL A   1      52.814  28.018  23.192  1.00  0.00    -0.200 F 
ATOM     79  C   UNL A   1      53.332  27.678  25.470  1.00  0.00     0.200 A 
ATOM     80  F   UNL A   1      53.802  27.331  27.757  1.00  0.00    -0.200 F 
ATOM     81  F   UNL A   1      54.632  27.547  25.169  1.00  0.00    -0.200 F 
ENDBRANCH  57  71
BRANCH  58  82
ATOM     82  C   UNL A   1      40.964  28.657  28.606  1.00  0.00     0.064 A 
ATOM     83  C   UNL A   1      40.570  28.305  29.904  1.00  0.00     0.173 A 
ATOM     84  C   UNL A   1      39.968  29.093  27.718  1.00  0.00     0.173 A 
ATOM     85  F   UNL A   1      41.481  27.863  30.783  1.00  0.00    -0.203 F 
ATOM     86  C   UNL A   1      39.232  28.366  30.292  1.00  0.00     0.198 A 
ATOM     87  C   UNL A   1      38.637  29.185  28.117  1.00  0.00     0.198 A 
ATOM     88  F   UNL A   1      40.292  29.448  26.465  1.00  0.00    -0.203 F 
ATOM     89  F   UNL A   1      38.877  27.979  31.524  1.00  0.00    -0.200 F 
ATOM     90  C   UNL A   1      38.269  28.813  29.401  1.00  0.00     0.200 A 
ATOM     91  F   UNL A   1      37.713  29.636  27.258  1.00  0.00    -0.200 F 
ATOM     92  F   UNL A   1      36.985  28.879  29.777  1.00  0.00    -0.200 F 
ENDBRANCH  58  82
BRANCH  70  93
ATOM     93  C   UNL A   1      46.442  32.923  29.219  1.00  0.00     0.064 A 
ATOM     94  C   UNL A   1      46.758  33.089  30.575  1.00  0.00     0.173 A 
ATOM     95  C   UNL A   1      46.326  34.075  28.426  1.00  0.00     0.173 A 
ATOM     96  F   UNL A   1      46.861  32.021  31.380  1.00  0.00    -0.203 F 
ATOM     97  C   UNL A   1      46.931  34.360  31.121  1.00  0.00     0.198 A 
ATOM     98  C   UNL A   1      46.532  35.342  28.968  1.00  0.00     0.198 A 
ATOM     99  F   UNL A   1      46.029  33.973  27.122  1.00  0.00    -0.203 F 
ATOM    100  F   UNL A   1      47.188  34.494  32.429  1.00  0.00    -0.200 F 
ATOM    101  C   UNL A   1      46.828  35.482  30.315  1.00  0.00     0.200 A 
ATOM    102  F   UNL A   1      46.447  36.425  28.183  1.00  0.00    -0.200 F 
ATOM    103  F   UNL A   1      47.008  36.703  30.838  1.00  0.00    -0.200 F 
ENDBRANCH  70  93
ENDBRANCH  44  45
ENDBRANCH  36  39
ENDBRANCH  34  35
ENDBRANCH  33  34
ENDBRANCH   1  33
TORSDOF 15
ENDMDL
