MODEL 1
REMARK VINA RESULT:     -10.0      0.000      0.000
REMARK SMILES COC[C@@H](O)COc1ccc(C(=O)NCCCNC(=O)c2ccc(-c3c4nc(c(-c5c(F)c(F)c(F)c(F)c5F)c5ccc([nH]5)c(-c5c(F)c(F)c(F)c(F)c5F)c5nc(c(-c6c(F)c(F)c(F)c(F)c6F)c6ccc3[nH]6)C=C5)C=C4)cc2)nc1
REMARK SMILES IDX 12 1 13 2 14 3 11 5 8 6 9 7 85 8 10 9 84 10 7 11 6 12 4 13
REMARK SMILES IDX 3 14 2 15 1 16 5 17 15 19 16 20 17 21 18 22 19 23 20 25
REMARK SMILES IDX 21 26 22 27 83 28 23 29 82 30 24 31 25 32 26 33 76 34 27 35
REMARK SMILES IDX 81 36 75 37 77 38 28 39 80 40 74 41 73 42 29 44 61 45 41 46
REMARK SMILES IDX 60 47 42 48 45 49 59 50 78 51 43 52 44 53 58 55 79 56 46 57
REMARK SMILES IDX 30 58 31 59 39 60 32 61 33 62 37 63 40 64 34 65 35 66 38 67
REMARK SMILES IDX 36 68 62 69 63 70 71 71 64 72 65 73 69 74 72 75 66 76 67 77
REMARK SMILES IDX 70 78 68 79 47 80 48 81 56 82 49 83 50 84 54 85 57 86 51 87
REMARK SMILES IDX 52 88 55 89 53 90
REMARK H PARENT 14 4 5 18 18 24 77 43 45 54
REMARK Flexibility Score: inf
ROOT
ATOM      1  C   UNL A   1      44.012  19.388  25.017  1.00  0.00     0.269 C 
ATOM      2  O   UNL A   1      44.522  18.565  24.259  1.00  0.00    -0.268 OA
ATOM      3  N   UNL A   1      43.052  18.941  25.901  1.00  0.00    -0.351 N 
ATOM      4  H   UNL A   1      42.800  17.996  25.787  1.00  0.00     0.163 HD
ENDROOT
BRANCH   1   5
ATOM      5  C   UNL A   1      44.447  20.819  24.987  1.00  0.00     0.128 A 
ATOM      6  C   UNL A   1      45.118  23.462  24.804  1.00  0.00     0.137 A 
ATOM      7  C   UNL A   1      46.126  22.523  24.982  1.00  0.00     0.050 A 
ATOM      8  C   UNL A   1      43.800  23.034  24.824  1.00  0.00     0.158 A 
ATOM      9  C   UNL A   1      45.786  21.178  25.079  1.00  0.00     0.038 A 
ATOM     10  N   UNL A   1      43.443  21.732  24.890  1.00  0.00    -0.247 NA
BRANCH   6  11
ATOM     11  O   UNL A   1      45.456  24.769  24.629  1.00  0.00    -0.489 OA
BRANCH  11  12
ATOM     12  C   UNL A   1      44.617  25.653  25.404  1.00  0.00     0.263 C 
BRANCH  12  13
ATOM     13  C   UNL A   1      44.850  27.131  25.039  1.00  0.00     0.177 C 
BRANCH  13  14
ATOM     14  C   UNL A   1      45.043  28.017  26.285  1.00  0.00     0.195 C 
BRANCH  14  15
ATOM     15  O   UNL A   1      44.005  29.006  26.365  1.00  0.00    -0.382 OA
ATOM     16  C   UNL A   1      44.334  30.103  27.203  1.00  0.00     0.195 C 
ENDBRANCH  14  15
ENDBRANCH  13  14
BRANCH  13  17
ATOM     17  O   UNL A   1      46.033  27.222  24.230  1.00  0.00    -0.387 OA
ATOM     18  H   UNL A   1      46.102  28.114  23.856  1.00  0.00     0.211 HD
ENDBRANCH  13  17
ENDBRANCH  12  13
ENDBRANCH  11  12
ENDBRANCH   6  11
ENDBRANCH   1   5
BRANCH   3  19
ATOM     19  C   UNL A   1      42.350  19.627  26.973  1.00  0.00     0.118 C 
BRANCH  19  20
ATOM     20  C   UNL A   1      40.911  19.961  26.581  1.00  0.00     0.042 C 
BRANCH  20  21
ATOM     21  C   UNL A   1      40.564  21.443  26.691  1.00  0.00     0.118 C 
BRANCH  21  22
ATOM     22  N   UNL A   1      39.408  21.806  25.888  1.00  0.00    -0.352 N 
ATOM     23  C   UNL A   1      38.676  22.969  25.860  1.00  0.00     0.251 C 
ATOM     24  H   UNL A   1      39.101  21.110  25.264  1.00  0.00     0.163 HD
ATOM     25  O   UNL A   1      37.613  22.999  25.246  1.00  0.00    -0.269 OA
BRANCH  23  26
ATOM     26  C   UNL A   1      39.141  24.181  26.575  1.00  0.00     0.039 A 
ATOM     27  C   UNL A   1      38.732  24.376  27.899  1.00  0.00     0.014 A 
ATOM     28  C   UNL A   1      39.927  25.148  25.944  1.00  0.00     0.014 A 
ATOM     29  C   UNL A   1      39.160  25.504  28.605  1.00  0.00     0.010 A 
ATOM     30  C   UNL A   1      40.413  26.234  26.670  1.00  0.00     0.010 A 
ATOM     31  C   UNL A   1      40.031  26.428  28.006  1.00  0.00    -0.014 A 
BRANCH  31  32
ATOM     32  C   UNL A   1      40.548  27.603  28.755  1.00  0.00     0.031 A 
ATOM     33  C   UNL A   1      41.966  27.616  29.259  1.00  0.00     0.074 A 
ATOM     34  C   UNL A   1      39.722  28.629  29.041  1.00  0.00     0.049 A 
ATOM     35  N   UNL A   1      42.570  28.498  30.014  1.00  0.00    -0.248 NA
ATOM     36  C   UNL A   1      42.811  26.471  28.882  1.00  0.00     0.031 C 
ATOM     37  C   UNL A   1      38.318  28.721  28.642  1.00  0.00     0.029 A 
ATOM     38  N   UNL A   1      39.941  29.786  29.749  1.00  0.00    -0.354 N 
ATOM     39  C   UNL A   1      43.853  28.009  30.216  1.00  0.00     0.074 A 
ATOM     40  C   UNL A   1      43.929  26.729  29.544  1.00  0.00     0.031 C 
ATOM     41  C   UNL A   1      37.805  29.875  29.096  1.00  0.00     0.029 A 
ATOM     42  C   UNL A   1      38.830  30.587  29.854  1.00  0.00     0.049 A 
ATOM     43  H   UNL A   1      40.812  30.018  30.144  1.00  0.00     0.167 HD
ATOM     44  C   UNL A   1      44.883  28.583  30.884  1.00  0.00     0.037 A 
ATOM     45  C   UNL A   1      38.655  31.756  30.499  1.00  0.00     0.037 A 
ATOM     46  C   UNL A   1      44.815  29.869  31.528  1.00  0.00     0.049 A 
ATOM     47  C   UNL A   1      39.813  32.367  31.242  1.00  0.00     0.074 A 
ATOM     48  C   UNL A   1      45.818  30.559  32.186  1.00  0.00     0.029 A 
ATOM     49  N   UNL A   1      43.678  30.661  31.591  1.00  0.00    -0.354 N 
ATOM     50  N   UNL A   1      41.037  31.919  31.379  1.00  0.00    -0.248 NA
ATOM     51  C   UNL A   1      39.565  33.649  31.915  1.00  0.00     0.031 C 
ATOM     52  C   UNL A   1      45.277  31.748  32.684  1.00  0.00     0.029 A 
ATOM     53  C   UNL A   1      43.951  31.824  32.293  1.00  0.00     0.049 A 
ATOM     54  H   UNL A   1      42.806  30.430  31.196  1.00  0.00     0.167 HD
ATOM     55  C   UNL A   1      41.713  32.877  32.123  1.00  0.00     0.074 A 
ATOM     56  C   UNL A   1      40.766  33.936  32.398  1.00  0.00     0.031 C 
ATOM     57  C   UNL A   1      43.001  32.878  32.542  1.00  0.00     0.037 A 
BRANCH  44  58
ATOM     58  C   UNL A   1      46.180  27.829  30.947  1.00  0.00     0.064 A 
ATOM     59  C   UNL A   1      46.428  26.875  31.945  1.00  0.00     0.173 A 
ATOM     60  C   UNL A   1      47.167  28.026  29.969  1.00  0.00     0.173 A 
ATOM     61  F   UNL A   1      45.522  26.657  32.910  1.00  0.00    -0.203 F 
ATOM     62  C   UNL A   1      47.625  26.166  31.976  1.00  0.00     0.198 A 
ATOM     63  C   UNL A   1      48.350  27.292  29.985  1.00  0.00     0.198 A 
ATOM     64  F   UNL A   1      46.978  28.920  28.987  1.00  0.00    -0.203 F 
ATOM     65  F   UNL A   1      47.858  25.291  32.965  1.00  0.00    -0.200 F 
ATOM     66  C   UNL A   1      48.581  26.368  30.994  1.00  0.00     0.200 A 
ATOM     67  F   UNL A   1      49.267  27.479  29.026  1.00  0.00    -0.200 F 
ATOM     68  F   UNL A   1      49.728  25.676  31.018  1.00  0.00    -0.200 F 
ENDBRANCH  44  58
BRANCH  45  69
ATOM     69  C   UNL A   1      37.335  32.438  30.461  1.00  0.00     0.064 A 
ATOM     70  C   UNL A   1      36.376  32.204  31.457  1.00  0.00     0.173 A 
ATOM     71  C   UNL A   1      36.996  33.320  29.425  1.00  0.00     0.173 A 
ATOM     72  F   UNL A   1      36.645  31.353  32.458  1.00  0.00    -0.203 F 
ATOM     73  C   UNL A   1      35.121  32.808  31.405  1.00  0.00     0.198 A 
ATOM     74  C   UNL A   1      35.751  33.945  29.389  1.00  0.00     0.198 A 
ATOM     75  F   UNL A   1      37.879  33.582  28.449  1.00  0.00    -0.203 F 
ATOM     76  F   UNL A   1      34.206  32.527  32.343  1.00  0.00    -0.200 F 
ATOM     77  C   UNL A   1      34.811  33.681  30.374  1.00  0.00     0.200 A 
ATOM     78  F   UNL A   1      35.462  34.801  28.400  1.00  0.00    -0.200 F 
ATOM     79  F   UNL A   1      33.605  34.262  30.324  1.00  0.00    -0.200 F 
ENDBRANCH  45  69
BRANCH  57  80
ATOM     80  C   UNL A   1      43.480  34.081  33.302  1.00  0.00     0.064 A 
ATOM     81  C   UNL A   1      43.415  34.143  34.700  1.00  0.00     0.173 A 
ATOM     82  C   UNL A   1      44.049  35.168  32.620  1.00  0.00     0.173 A 
ATOM     83  F   UNL A   1      42.866  33.137  35.397  1.00  0.00    -0.203 F 
ATOM     84  C   UNL A   1      43.883  35.260  35.389  1.00  0.00     0.198 A 
ATOM     85  C   UNL A   1      44.543  36.269  33.312  1.00  0.00     0.198 A 
ATOM     86  F   UNL A   1      44.139  35.154  31.281  1.00  0.00    -0.203 F 
ATOM     87  F   UNL A   1      43.771  35.318  36.723  1.00  0.00    -0.200 F 
ATOM     88  C   UNL A   1      44.453  36.317  34.695  1.00  0.00     0.200 A 
ATOM     89  F   UNL A   1      45.105  37.284  32.641  1.00  0.00    -0.200 F 
ATOM     90  F   UNL A   1      44.911  37.387  35.360  1.00  0.00    -0.200 F 
ENDBRANCH  57  80
ENDBRANCH  31  32
ENDBRANCH  23  26
ENDBRANCH  21  22
ENDBRANCH  20  21
ENDBRANCH  19  20
ENDBRANCH   3  19
TORSDOF 16
ENDMDL
MODEL 2
REMARK VINA RESULT:     -10.0      4.202     10.032
REMARK SMILES COC[C@@H](O)COc1ccc(C(=O)NCCCNC(=O)c2ccc(-c3c4nc(c(-c5c(F)c(F)c(F)c(F)c5F)c5ccc([nH]5)c(-c5c(F)c(F)c(F)c(F)c5F)c5nc(c(-c6c(F)c(F)c(F)c(F)c6F)c6ccc3[nH]6)C=C5)C=C4)cc2)nc1
REMARK SMILES IDX 12 1 13 2 14 3 11 5 8 6 9 7 85 8 10 9 84 10 7 11 6 12 4 13
REMARK SMILES IDX 3 14 2 15 1 16 5 17 15 19 16 20 17 21 18 22 19 23 20 25
REMARK SMILES IDX 21 26 22 27 83 28 23 29 82 30 24 31 25 32 26 33 76 34 27 35
REMARK SMILES IDX 81 36 75 37 77 38 28 39 80 40 74 41 73 42 29 44 61 45 41 46
REMARK SMILES IDX 60 47 42 48 45 49 59 50 78 51 43 52 44 53 58 55 79 56 46 57
REMARK SMILES IDX 30 58 31 59 39 60 32 61 33 62 37 63 40 64 34 65 35 66 38 67
REMARK SMILES IDX 36 68 62 69 63 70 71 71 64 72 65 73 69 74 72 75 66 76 67 77
REMARK SMILES IDX 70 78 68 79 47 80 48 81 56 82 49 83 50 84 54 85 57 86 51 87
REMARK SMILES IDX 52 88 55 89 53 90
REMARK H PARENT 14 4 5 18 18 24 77 43 45 54
REMARK Flexibility Score: inf
ROOT
ATOM      1  C   UNL A   1      34.890  21.728  26.195  1.00  0.00     0.269 C 
ATOM      2  O   UNL A   1      34.299  21.457  27.239  1.00  0.00    -0.268 OA
ATOM      3  N   UNL A   1      35.978  20.953  25.852  1.00  0.00    -0.351 N 
ATOM      4  H   UNL A   1      36.237  20.288  26.531  1.00  0.00     0.163 HD
ENDROOT
BRANCH   1   5
ATOM      5  C   UNL A   1      34.417  22.848  25.323  1.00  0.00     0.128 A 
ATOM      6  C   UNL A   1      33.600  24.795  23.589  1.00  0.00     0.137 A 
ATOM      7  C   UNL A   1      34.246  25.167  24.759  1.00  0.00     0.050 A 
ATOM      8  C   UNL A   1      33.306  23.455  23.388  1.00  0.00     0.158 A 
ATOM      9  C   UNL A   1      34.659  24.178  25.646  1.00  0.00     0.038 A 
ATOM     10  N   UNL A   1      33.718  22.472  24.219  1.00  0.00    -0.247 NA
BRANCH   6  11
ATOM     11  O   UNL A   1      33.266  25.756  22.684  1.00  0.00    -0.489 OA
BRANCH  11  12
ATOM     12  C   UNL A   1      32.519  26.833  23.289  1.00  0.00     0.263 C 
BRANCH  12  13
ATOM     13  C   UNL A   1      31.266  27.194  22.468  1.00  0.00     0.177 C 
BRANCH  13  14
ATOM     14  C   UNL A   1      30.988  28.710  22.464  1.00  0.00     0.195 C 
BRANCH  14  15
ATOM     15  O   UNL A   1      29.812  29.004  21.696  1.00  0.00    -0.382 OA
ATOM     16  C   UNL A   1      29.233  30.261  22.009  1.00  0.00     0.195 C 
ENDBRANCH  14  15
ENDBRANCH  13  14
BRANCH  13  17
ATOM     17  O   UNL A   1      31.468  26.767  21.113  1.00  0.00    -0.387 OA
ATOM     18  H   UNL A   1      30.663  26.336  20.786  1.00  0.00     0.211 HD
ENDBRANCH  13  17
ENDBRANCH  12  13
ENDBRANCH  11  12
ENDBRANCH   6  11
ENDBRANCH   1   5
BRANCH   3  19
ATOM     19  C   UNL A   1      36.808  20.950  24.660  1.00  0.00     0.118 C 
BRANCH  19  20
ATOM     20  C   UNL A   1      37.943  19.931  24.764  1.00  0.00     0.042 C 
BRANCH  20  21
ATOM     21  C   UNL A   1      38.928  20.211  25.895  1.00  0.00     0.118 C 
BRANCH  21  22
ATOM     22  N   UNL A   1      40.005  19.236  25.951  1.00  0.00    -0.352 N 
ATOM     23  C   UNL A   1      41.359  19.415  26.094  1.00  0.00     0.251 C 
ATOM     24  H   UNL A   1      39.718  18.297  25.876  1.00  0.00     0.163 HD
ATOM     25  O   UNL A   1      42.117  18.465  25.919  1.00  0.00    -0.269 OA
BRANCH  23  26
ATOM     26  C   UNL A   1      41.922  20.743  26.437  1.00  0.00     0.039 A 
ATOM     27  C   UNL A   1      42.139  21.665  25.407  1.00  0.00     0.014 A 
ATOM     28  C   UNL A   1      42.284  21.070  27.746  1.00  0.00     0.014 A 
ATOM     29  C   UNL A   1      42.659  22.930  25.697  1.00  0.00     0.010 A 
ATOM     30  C   UNL A   1      42.733  22.355  28.046  1.00  0.00     0.010 A 
ATOM     31  C   UNL A   1      42.931  23.297  27.025  1.00  0.00    -0.014 A 
BRANCH  31  32
ATOM     32  C   UNL A   1      43.428  24.656  27.366  1.00  0.00     0.031 A 
ATOM     33  C   UNL A   1      42.492  25.681  27.947  1.00  0.00     0.074 A 
ATOM     34  C   UNL A   1      44.704  24.990  27.091  1.00  0.00     0.049 A 
ATOM     35  N   UNL A   1      42.707  26.944  28.216  1.00  0.00    -0.248 NA
ATOM     36  C   UNL A   1      41.122  25.230  28.243  1.00  0.00     0.031 C 
ATOM     37  C   UNL A   1      45.701  24.099  26.495  1.00  0.00     0.029 A 
ATOM     38  N   UNL A   1      45.378  26.175  27.261  1.00  0.00    -0.354 N 
ATOM     39  C   UNL A   1      41.502  27.441  28.693  1.00  0.00     0.074 A 
ATOM     40  C   UNL A   1      40.544  26.357  28.634  1.00  0.00     0.031 C 
ATOM     41  C   UNL A   1      46.861  24.762  26.363  1.00  0.00     0.029 A 
ATOM     42  C   UNL A   1      46.681  26.136  26.826  1.00  0.00     0.049 A 
ATOM     43  H   UNL A   1      44.966  26.976  27.657  1.00  0.00     0.167 HD
ATOM     44  C   UNL A   1      41.223  28.682  29.158  1.00  0.00     0.037 A 
ATOM     45  C   UNL A   1      47.618  27.101  26.792  1.00  0.00     0.037 A 
ATOM     46  C   UNL A   1      42.184  29.751  29.242  1.00  0.00     0.049 A 
ATOM     47  C   UNL A   1      47.279  28.475  27.305  1.00  0.00     0.074 A 
ATOM     48  C   UNL A   1      42.011  31.029  29.746  1.00  0.00     0.029 A 
ATOM     49  N   UNL A   1      43.500  29.665  28.814  1.00  0.00    -0.354 N 
ATOM     50  N   UNL A   1      46.150  28.916  27.806  1.00  0.00    -0.248 NA
ATOM     51  C   UNL A   1      48.347  29.483  27.255  1.00  0.00     0.031 C 
ATOM     52  C   UNL A   1      43.212  31.729  29.584  1.00  0.00     0.029 A 
ATOM     53  C   UNL A   1      44.146  30.872  29.025  1.00  0.00     0.049 A 
ATOM     54  H   UNL A   1      43.914  28.864  28.417  1.00  0.00     0.167 HD
ATOM     55  C   UNL A   1      46.381  30.239  28.159  1.00  0.00     0.074 A 
ATOM     56  C   UNL A   1      47.760  30.526  27.827  1.00  0.00     0.031 C 
ATOM     57  C   UNL A   1      45.526  31.136  28.707  1.00  0.00     0.037 A 
BRANCH  44  58
ATOM     58  C   UNL A   1      39.821  28.954  29.623  1.00  0.00     0.064 A 
ATOM     59  C   UNL A   1      38.830  29.410  28.741  1.00  0.00     0.173 A 
ATOM     60  C   UNL A   1      39.452  28.709  30.954  1.00  0.00     0.173 A 
ATOM     61  F   UNL A   1      39.134  29.670  27.461  1.00  0.00    -0.203 F 
ATOM     62  C   UNL A   1      37.528  29.633  29.180  1.00  0.00     0.198 A 
ATOM     63  C   UNL A   1      38.141  28.904  31.383  1.00  0.00     0.198 A 
ATOM     64  F   UNL A   1      40.358  28.265  31.838  1.00  0.00    -0.203 F 
ATOM     65  F   UNL A   1      36.608  30.111  28.329  1.00  0.00    -0.200 F 
ATOM     66  C   UNL A   1      37.182  29.374  30.497  1.00  0.00     0.200 A 
ATOM     67  F   UNL A   1      37.806  28.639  32.653  1.00  0.00    -0.200 F 
ATOM     68  F   UNL A   1      35.926  29.579  30.915  1.00  0.00    -0.200 F 
ENDBRANCH  44  58
BRANCH  45  69
ATOM     69  C   UNL A   1      48.976  26.804  26.266  1.00  0.00     0.064 A 
ATOM     70  C   UNL A   1      49.304  27.070  24.929  1.00  0.00     0.173 A 
ATOM     71  C   UNL A   1      49.967  26.233  27.079  1.00  0.00     0.173 A 
ATOM     72  F   UNL A   1      48.385  27.596  24.107  1.00  0.00    -0.203 F 
ATOM     73  C   UNL A   1      50.562  26.755  24.418  1.00  0.00     0.198 A 
ATOM     74  C   UNL A   1      51.234  25.945  26.574  1.00  0.00     0.198 A 
ATOM     75  F   UNL A   1      49.707  25.962  28.366  1.00  0.00    -0.203 F 
ATOM     76  F   UNL A   1      50.830  26.972  23.124  1.00  0.00    -0.200 F 
ATOM     77  C   UNL A   1      51.527  26.196  25.242  1.00  0.00     0.200 A 
ATOM     78  F   UNL A   1      52.169  25.420  27.378  1.00  0.00    -0.200 F 
ATOM     79  F   UNL A   1      52.737  25.894  24.752  1.00  0.00    -0.200 F 
ENDBRANCH  45  69
BRANCH  57  80
ATOM     80  C   UNL A   1      46.067  32.499  29.029  1.00  0.00     0.064 A 
ATOM     81  C   UNL A   1      46.683  32.775  30.257  1.00  0.00     0.173 A 
ATOM     82  C   UNL A   1      46.006  33.528  28.077  1.00  0.00     0.173 A 
ATOM     83  F   UNL A   1      46.753  31.829  31.206  1.00  0.00    -0.203 F 
ATOM     84  C   UNL A   1      47.198  34.040  30.530  1.00  0.00     0.198 A 
ATOM     85  C   UNL A   1      46.547  34.781  28.341  1.00  0.00     0.198 A 
ATOM     86  F   UNL A   1      45.431  33.311  26.883  1.00  0.00    -0.203 F 
ATOM     87  F   UNL A   1      47.742  34.295  31.727  1.00  0.00    -0.200 F 
ATOM     88  C   UNL A   1      47.137  35.038  29.569  1.00  0.00     0.200 A 
ATOM     89  F   UNL A   1      46.499  35.742  27.407  1.00  0.00    -0.200 F 
ATOM     90  F   UNL A   1      47.641  36.252  29.830  1.00  0.00    -0.200 F 
ENDBRANCH  57  80
ENDBRANCH  31  32
ENDBRANCH  23  26
ENDBRANCH  21  22
ENDBRANCH  20  21
ENDBRANCH  19  20
ENDBRANCH   3  19
TORSDOF 16
ENDMDL
MODEL 3
REMARK VINA RESULT:     -10.0      3.202      6.298
REMARK SMILES COC[C@@H](O)COc1ccc(C(=O)NCCCNC(=O)c2ccc(-c3c4nc(c(-c5c(F)c(F)c(F)c(F)c5F)c5ccc([nH]5)c(-c5c(F)c(F)c(F)c(F)c5F)c5nc(c(-c6c(F)c(F)c(F)c(F)c6F)c6ccc3[nH]6)C=C5)C=C4)cc2)nc1
REMARK SMILES IDX 12 1 13 2 14 3 11 5 8 6 9 7 85 8 10 9 84 10 7 11 6 12 4 13
REMARK SMILES IDX 3 14 2 15 1 16 5 17 15 19 16 20 17 21 18 22 19 23 20 25
REMARK SMILES IDX 21 26 22 27 83 28 23 29 82 30 24 31 25 32 26 33 76 34 27 35
REMARK SMILES IDX 81 36 75 37 77 38 28 39 80 40 74 41 73 42 29 44 61 45 41 46
REMARK SMILES IDX 60 47 42 48 45 49 59 50 78 51 43 52 44 53 58 55 79 56 46 57
REMARK SMILES IDX 30 58 31 59 39 60 32 61 33 62 37 63 40 64 34 65 35 66 38 67
REMARK SMILES IDX 36 68 62 69 63 70 71 71 64 72 65 73 69 74 72 75 66 76 67 77
REMARK SMILES IDX 70 78 68 79 47 80 48 81 56 82 49 83 50 84 54 85 57 86 51 87
REMARK SMILES IDX 52 88 55 89 53 90
REMARK H PARENT 14 4 5 18 18 24 77 43 45 54
REMARK Flexibility Score: inf
ROOT
ATOM      1  C   UNL A   1      34.076  23.289  23.258  1.00  0.00     0.269 C 
ATOM      2  O   UNL A   1      34.012  23.330  22.030  1.00  0.00    -0.268 OA
ATOM      3  N   UNL A   1      34.490  24.428  23.918  1.00  0.00    -0.351 N 
ATOM      4  H   UNL A   1      34.780  25.160  23.327  1.00  0.00     0.163 HD
ENDROOT
BRANCH   1   5
ATOM      5  C   UNL A   1      33.689  22.048  23.998  1.00  0.00     0.128 A 
ATOM      6  C   UNL A   1      33.104  19.692  25.252  1.00  0.00     0.137 A 
ATOM      7  C   UNL A   1      32.070  20.569  24.954  1.00  0.00     0.050 A 
ATOM      8  C   UNL A   1      34.407  20.086  24.991  1.00  0.00     0.158 A 
ATOM      9  C   UNL A   1      32.366  21.772  24.320  1.00  0.00     0.038 A 
ATOM     10  N   UNL A   1      34.721  21.235  24.351  1.00  0.00    -0.247 NA
BRANCH   6  11
ATOM     11  O   UNL A   1      32.807  18.482  25.801  1.00  0.00    -0.489 OA
BRANCH  11  12
ATOM     12  C   UNL A   1      32.243  17.573  24.832  1.00  0.00     0.263 C 
BRANCH  12  13
ATOM     13  C   UNL A   1      33.079  17.521  23.539  1.00  0.00     0.177 C 
BRANCH  13  14
ATOM     14  C   UNL A   1      34.026  16.305  23.504  1.00  0.00     0.195 C 
BRANCH  14  15
ATOM     15  O   UNL A   1      34.137  15.715  24.808  1.00  0.00    -0.382 OA
ATOM     16  C   UNL A   1      35.435  15.828  25.371  1.00  0.00     0.195 C 
ENDBRANCH  14  15
ENDBRANCH  13  14
BRANCH  13  17
ATOM     17  O   UNL A   1      32.185  17.430  22.420  1.00  0.00    -0.387 OA
ATOM     18  H   UNL A   1      32.659  17.665  21.607  1.00  0.00     0.211 HD
ENDBRANCH  13  17
ENDBRANCH  12  13
ENDBRANCH  11  12
ENDBRANCH   6  11
ENDBRANCH   1   5
BRANCH   3  19
ATOM     19  C   UNL A   1      34.571  24.730  25.337  1.00  0.00     0.118 C 
BRANCH  19  20
ATOM     20  C   UNL A   1      35.775  24.053  25.991  1.00  0.00     0.042 C 
BRANCH  20  21
ATOM     21  C   UNL A   1      36.959  23.845  25.050  1.00  0.00     0.118 C 
BRANCH  21  22
ATOM     22  N   UNL A   1      37.844  22.781  25.495  1.00  0.00    -0.352 N 
ATOM     23  C   UNL A   1      39.026  22.843  26.192  1.00  0.00     0.251 C 
ATOM     24  H   UNL A   1      37.550  21.871  25.261  1.00  0.00     0.163 HD
ATOM     25  O   UNL A   1      39.719  21.835  26.297  1.00  0.00    -0.269 OA
BRANCH  23  26
ATOM     26  C   UNL A   1      39.487  24.112  26.803  1.00  0.00     0.039 A 
ATOM     27  C   UNL A   1      40.267  24.982  26.033  1.00  0.00     0.014 A 
ATOM     28  C   UNL A   1      39.205  24.429  28.134  1.00  0.00     0.014 A 
ATOM     29  C   UNL A   1      40.710  26.192  26.576  1.00  0.00     0.010 A 
ATOM     30  C   UNL A   1      39.584  25.667  28.652  1.00  0.00     0.010 A 
ATOM     31  C   UNL A   1      40.345  26.559  27.881  1.00  0.00    -0.014 A 
BRANCH  31  32
ATOM     32  C   UNL A   1      40.753  27.866  28.460  1.00  0.00     0.031 A 
ATOM     33  C   UNL A   1      42.181  28.097  28.877  1.00  0.00     0.074 A 
ATOM     34  C   UNL A   1      39.827  28.822  28.671  1.00  0.00     0.049 A 
ATOM     35  N   UNL A   1      42.711  29.125  29.490  1.00  0.00    -0.248 NA
ATOM     36  C   UNL A   1      43.136  27.015  28.587  1.00  0.00     0.031 C 
ATOM     37  C   UNL A   1      38.406  28.709  28.344  1.00  0.00     0.029 A 
ATOM     38  N   UNL A   1      39.941  30.073  29.228  1.00  0.00    -0.354 N 
ATOM     39  C   UNL A   1      44.049  28.808  29.674  1.00  0.00     0.074 A 
ATOM     40  C   UNL A   1      44.244  27.472  29.151  1.00  0.00     0.031 C 
ATOM     41  C   UNL A   1      37.782  29.847  28.691  1.00  0.00     0.029 A 
ATOM     42  C   UNL A   1      38.750  30.753  29.303  1.00  0.00     0.049 A 
ATOM     43  H   UNL A   1      40.795  30.446  29.544  1.00  0.00     0.167 HD
ATOM     44  C   UNL A   1      45.033  29.568  30.212  1.00  0.00     0.037 A 
ATOM     45  C   UNL A   1      38.468  31.965  29.818  1.00  0.00     0.037 A 
ATOM     46  C   UNL A   1      44.844  30.907  30.707  1.00  0.00     0.049 A 
ATOM     47  C   UNL A   1      39.578  32.785  30.419  1.00  0.00     0.074 A 
ATOM     48  C   UNL A   1      45.788  31.778  31.224  1.00  0.00     0.029 A 
ATOM     49  N   UNL A   1      43.626  31.571  30.743  1.00  0.00    -0.354 N 
ATOM     50  N   UNL A   1      40.851  32.495  30.537  1.00  0.00    -0.248 NA
ATOM     51  C   UNL A   1      39.212  34.104  30.954  1.00  0.00     0.031 C 
ATOM     52  C   UNL A   1      45.134  32.952  31.611  1.00  0.00     0.029 A 
ATOM     53  C   UNL A   1      43.792  32.833  31.290  1.00  0.00     0.049 A 
ATOM     54  H   UNL A   1      42.771  31.199  30.427  1.00  0.00     0.167 HD
ATOM     55  C   UNL A   1      41.441  33.605  31.127  1.00  0.00     0.074 A 
ATOM     56  C   UNL A   1      40.391  34.578  31.331  1.00  0.00     0.031 C 
ATOM     57  C   UNL A   1      42.738  33.798  31.469  1.00  0.00     0.037 A 
BRANCH  44  58
ATOM     58  C   UNL A   1      46.411  28.976  30.288  1.00  0.00     0.064 A 
ATOM     59  C   UNL A   1      46.835  28.243  31.406  1.00  0.00     0.173 A 
ATOM     60  C   UNL A   1      47.300  29.098  29.209  1.00  0.00     0.173 A 
ATOM     61  F   UNL A   1      46.028  28.105  32.469  1.00  0.00    -0.203 F 
ATOM     62  C   UNL A   1      48.106  27.677  31.453  1.00  0.00     0.198 A 
ATOM     63  C   UNL A   1      48.559  28.505  29.246  1.00  0.00     0.198 A 
ATOM     64  F   UNL A   1      46.942  29.782  28.111  1.00  0.00    -0.203 F 
ATOM     65  F   UNL A   1      48.505  27.019  32.550  1.00  0.00    -0.200 F 
ATOM     66  C   UNL A   1      48.964  27.801  30.371  1.00  0.00     0.200 A 
ATOM     67  F   UNL A   1      49.381  28.614  28.194  1.00  0.00    -0.200 F 
ATOM     68  F   UNL A   1      50.182  27.247  30.412  1.00  0.00    -0.200 F 
ENDBRANCH  44  58
BRANCH  45  69
ATOM     69  C   UNL A   1      37.077  32.488  29.777  1.00  0.00     0.064 A 
ATOM     70  C   UNL A   1      36.185  32.243  30.831  1.00  0.00     0.173 A 
ATOM     71  C   UNL A   1      36.604  33.224  28.681  1.00  0.00     0.173 A 
ATOM     72  F   UNL A   1      36.584  31.525  31.891  1.00  0.00    -0.203 F 
ATOM     73  C   UNL A   1      34.868  32.693  30.780  1.00  0.00     0.198 A 
ATOM     74  C   UNL A   1      35.295  33.699  28.644  1.00  0.00     0.198 A 
ATOM     75  F   UNL A   1      37.417  33.490  27.648  1.00  0.00    -0.203 F 
ATOM     76  F   UNL A   1      34.023  32.401  31.778  1.00  0.00    -0.200 F 
ATOM     77  C   UNL A   1      34.424  33.425  29.689  1.00  0.00     0.200 A 
ATOM     78  F   UNL A   1      34.875  34.420  27.595  1.00  0.00    -0.200 F 
ATOM     79  F   UNL A   1      33.158  33.860  29.640  1.00  0.00    -0.200 F 
ENDBRANCH  45  69
BRANCH  57  80
ATOM     80  C   UNL A   1      43.106  35.130  32.057  1.00  0.00     0.064 A 
ATOM     81  C   UNL A   1      43.598  36.174  31.263  1.00  0.00     0.173 A 
ATOM     82  C   UNL A   1      42.921  35.375  33.426  1.00  0.00     0.173 A 
ATOM     83  F   UNL A   1      43.807  35.986  29.951  1.00  0.00    -0.203 F 
ATOM     84  C   UNL A   1      43.915  37.410  31.822  1.00  0.00     0.198 A 
ATOM     85  C   UNL A   1      43.210  36.619  33.977  1.00  0.00     0.198 A 
ATOM     86  F   UNL A   1      42.447  34.408  34.228  1.00  0.00    -0.203 F 
ATOM     87  F   UNL A   1      44.426  38.380  31.053  1.00  0.00    -0.200 F 
ATOM     88  C   UNL A   1      43.712  37.633  33.176  1.00  0.00     0.200 A 
ATOM     89  F   UNL A   1      43.002  36.837  35.283  1.00  0.00    -0.200 F 
ATOM     90  F   UNL A   1      44.009  38.826  33.712  1.00  0.00    -0.200 F 
ENDBRANCH  57  80
ENDBRANCH  31  32
ENDBRANCH  23  26
ENDBRANCH  21  22
ENDBRANCH  20  21
ENDBRANCH  19  20
ENDBRANCH   3  19
TORSDOF 16
ENDMDL
