MODEL 1
REMARK VINA RESULT:     -12.8      0.000      0.000
REMARK SMILES C[C@@H]1[C@@H](C(=O)NCCCNC(=O)c2ccc(-c3c4nc(c(-c5c(F)c(F)c(F)c(F)c5F)c5ccc([nH]5)c(-c5c(F)c(F)c(F)c(F)c5F)c5nc(c(-c6c(F)c(F)c(F)c(F)c6F)c6ccc3[nH]6)C=C5)C=C4)cc2)CCN1c1ccc(C(F)(F)F)cc1C#N
REMARK SMILES IDX 8 1 7 2 6 3 4 4 5 5 3 7 1 8 2 9 78 10 76 11 77 12 79 13
REMARK SMILES IDX 80 14 88 15 81 16 87 17 82 18 89 19 90 20 83 21 84 22 85 23
REMARK SMILES IDX 86 24 9 25 10 26 11 27 12 29 13 30 14 31 75 32 15 33 74 34
REMARK SMILES IDX 16 35 17 36 18 37 68 38 19 39 73 40 67 41 69 42 20 43 72 44
REMARK SMILES IDX 66 45 65 46 21 48 53 49 33 50 52 51 34 52 37 53 51 54 70 55
REMARK SMILES IDX 35 56 36 57 50 59 71 60 38 61 22 62 23 63 31 64 24 65 25 66
REMARK SMILES IDX 29 67 32 68 26 69 27 70 30 71 28 72 54 73 55 74 63 75 56 76
REMARK SMILES IDX 57 77 61 78 64 79 58 80 59 81 62 82 60 83 39 84 40 85 48 86
REMARK SMILES IDX 41 87 42 88 46 89 49 90 43 91 44 92 47 93 45 94
REMARK H PARENT 6 6 10 28 69 47 37 58
REMARK Flexibility Score: inf
ROOT
ATOM      1  C   UNL A   1      31.410  32.314  27.042  1.00  0.00     0.042 C 
ENDROOT
BRANCH   1   2
ATOM      2  C   UNL A   1      31.589  31.115  26.133  1.00  0.00     0.117 C 
BRANCH   2   3
ATOM      3  N   UNL A   1      31.796  29.871  26.846  1.00  0.00    -0.356 N 
ATOM      4  C   UNL A   1      31.889  28.600  26.365  1.00  0.00     0.225 C 
ATOM      5  O   UNL A   1      32.106  27.713  27.191  1.00  0.00    -0.275 OA
ATOM      6  H   UNL A   1      31.882  29.956  27.823  1.00  0.00     0.163 HD
BRANCH   4   7
ATOM      7  C   UNL A   1      31.628  28.323  24.890  1.00  0.00     0.102 C 
ATOM      8  C   UNL A   1      30.546  26.457  23.591  1.00  0.00     0.032 C 
ATOM      9  C   UNL A   1      31.636  26.795  24.606  1.00  0.00     0.091 C 
ATOM     10  N   UNL A   1      32.982  26.550  24.039  1.00  0.00    -0.367 N 
ATOM     11  C   UNL A   1      32.697  28.849  23.925  1.00  0.00     0.037 C 
ATOM     12  C   UNL A   1      33.762  27.778  23.979  1.00  0.00     0.118 C 
BRANCH  10  13
ATOM     13  C   UNL A   1      33.672  25.362  24.208  1.00  0.00     0.055 A 
ATOM     14  C   UNL A   1      34.229  25.033  25.458  1.00  0.00     0.028 A 
ATOM     15  C   UNL A   1      33.951  24.505  23.128  1.00  0.00     0.076 A 
ATOM     16  C   UNL A   1      35.082  23.937  25.620  1.00  0.00     0.015 A 
ATOM     17  C   UNL A   1      34.789  23.388  23.297  1.00  0.00     0.034 A 
ATOM     18  C   UNL A   1      35.381  23.107  24.535  1.00  0.00     0.057 A 
BRANCH  15  19
ATOM     19  C   UNL A   1      33.473  24.779  21.803  1.00  0.00     0.101 C 
ATOM     20  N   UNL A   1      33.091  25.057  20.740  1.00  0.00    -0.192 NA
ENDBRANCH  15  19
BRANCH  18  21
ATOM     21  C   UNL A   1      36.357  21.969  24.694  1.00  0.00     0.416 C 
ATOM     22  F   UNL A   1      37.203  21.865  23.632  1.00  0.00    -0.166 F 
ATOM     23  F   UNL A   1      37.148  22.104  25.793  1.00  0.00    -0.166 F 
ATOM     24  F   UNL A   1      35.756  20.753  24.811  1.00  0.00    -0.166 F 
ENDBRANCH  18  21
ENDBRANCH  10  13
ENDBRANCH   4   7
ENDBRANCH   2   3
ENDBRANCH   1   2
BRANCH   1  25
ATOM     25  C   UNL A   1      32.677  33.108  27.299  1.00  0.00     0.118 C 
BRANCH  25  26
ATOM     26  N   UNL A   1      32.429  34.463  27.775  1.00  0.00    -0.352 N 
ATOM     27  C   UNL A   1      33.023  35.171  28.793  1.00  0.00     0.251 C 
ATOM     28  H   UNL A   1      31.723  34.949  27.290  1.00  0.00     0.163 HD
ATOM     29  O   UNL A   1      32.564  36.257  29.132  1.00  0.00    -0.269 OA
BRANCH  27  30
ATOM     30  C   UNL A   1      34.187  34.605  29.510  1.00  0.00     0.039 A 
ATOM     31  C   UNL A   1      33.985  33.968  30.737  1.00  0.00     0.014 A 
ATOM     32  C   UNL A   1      35.469  34.678  28.966  1.00  0.00     0.014 A 
ATOM     33  C   UNL A   1      35.054  33.322  31.362  1.00  0.00     0.010 A 
ATOM     34  C   UNL A   1      36.498  33.927  29.522  1.00  0.00     0.010 A 
ATOM     35  C   UNL A   1      36.306  33.247  30.732  1.00  0.00    -0.014 A 
BRANCH  35  36
ATOM     36  C   UNL A   1      37.433  32.482  31.324  1.00  0.00     0.031 A 
ATOM     37  C   UNL A   1      37.958  32.846  32.687  1.00  0.00     0.074 A 
ATOM     38  C   UNL A   1      38.031  31.506  30.610  1.00  0.00     0.049 A 
ATOM     39  N   UNL A   1      38.981  32.355  33.341  1.00  0.00    -0.248 NA
ATOM     40  C   UNL A   1      37.262  33.932  33.396  1.00  0.00     0.031 C 
ATOM     41  C   UNL A   1      37.653  31.093  29.257  1.00  0.00     0.029 A 
ATOM     42  N   UNL A   1      39.091  30.691  30.919  1.00  0.00    -0.354 N 
ATOM     43  C   UNL A   1      39.054  33.079  34.524  1.00  0.00     0.074 A 
ATOM     44  C   UNL A   1      38.024  34.091  34.467  1.00  0.00     0.031 C 
ATOM     45  C   UNL A   1      38.442  30.080  28.868  1.00  0.00     0.029 A 
ATOM     46  C   UNL A   1      39.415  29.804  29.920  1.00  0.00     0.049 A 
ATOM     47  H   UNL A   1      39.573  30.736  31.776  1.00  0.00     0.167 HD
ATOM     48  C   UNL A   1      39.886  32.898  35.578  1.00  0.00     0.037 A 
ATOM     49  C   UNL A   1      40.391  28.878  29.858  1.00  0.00     0.037 A 
ATOM     50  C   UNL A   1      40.896  31.875  35.639  1.00  0.00     0.049 A 
ATOM     51  C   UNL A   1      41.318  28.711  31.033  1.00  0.00     0.074 A 
ATOM     52  C   UNL A   1      41.753  31.571  36.682  1.00  0.00     0.029 A 
ATOM     53  N   UNL A   1      41.187  30.989  34.611  1.00  0.00    -0.354 N 
ATOM     54  N   UNL A   1      41.331  29.355  32.175  1.00  0.00    -0.248 NA
ATOM     55  C   UNL A   1      42.361  27.684  30.913  1.00  0.00     0.031 C 
ATOM     56  C   UNL A   1      42.603  30.543  36.264  1.00  0.00     0.029 A 
ATOM     57  C   UNL A   1      42.230  30.159  34.985  1.00  0.00     0.049 A 
ATOM     58  H   UNL A   1      40.722  30.957  33.744  1.00  0.00     0.167 HD
ATOM     59  C   UNL A   1      42.358  28.789  32.921  1.00  0.00     0.074 A 
ATOM     60  C   UNL A   1      42.933  27.740  32.107  1.00  0.00     0.031 C 
ATOM     61  C   UNL A   1      42.785  29.110  34.167  1.00  0.00     0.037 A 
BRANCH  48  62
ATOM     62  C   UNL A   1      39.734  33.824  36.751  1.00  0.00     0.064 A 
ATOM     63  C   UNL A   1      40.379  35.070  36.796  1.00  0.00     0.173 A 
ATOM     64  C   UNL A   1      38.907  33.476  37.830  1.00  0.00     0.173 A 
ATOM     65  F   UNL A   1      41.191  35.447  35.797  1.00  0.00    -0.203 F 
ATOM     66  C   UNL A   1      40.230  35.917  37.891  1.00  0.00     0.198 A 
ATOM     67  C   UNL A   1      38.731  34.343  38.907  1.00  0.00     0.198 A 
ATOM     68  F   UNL A   1      38.263  32.301  37.839  1.00  0.00    -0.203 F 
ATOM     69  F   UNL A   1      40.903  37.075  37.936  1.00  0.00    -0.200 F 
ATOM     70  C   UNL A   1      39.399  35.557  38.941  1.00  0.00     0.200 A 
ATOM     71  F   UNL A   1      37.916  34.000  39.914  1.00  0.00    -0.200 F 
ATOM     72  F   UNL A   1      39.249  36.377  39.990  1.00  0.00    -0.200 F 
ENDBRANCH  48  62
BRANCH  49  73
ATOM     73  C   UNL A   1      40.532  28.020  28.650  1.00  0.00     0.064 A 
ATOM     74  C   UNL A   1      41.304  28.439  27.557  1.00  0.00     0.173 A 
ATOM     75  C   UNL A   1      39.892  26.777  28.555  1.00  0.00     0.173 A 
ATOM     76  F   UNL A   1      41.923  29.629  27.589  1.00  0.00    -0.203 F 
ATOM     77  C   UNL A   1      41.407  27.659  26.406  1.00  0.00     0.198 A 
ATOM     78  C   UNL A   1      40.023  25.982  27.418  1.00  0.00     0.198 A 
ATOM     79  F   UNL A   1      39.147  26.325  29.575  1.00  0.00    -0.203 F 
ATOM     80  F   UNL A   1      42.107  28.109  25.356  1.00  0.00    -0.200 F 
ATOM     81  C   UNL A   1      40.771  26.429  26.340  1.00  0.00     0.200 A 
ATOM     82  F   UNL A   1      39.421  24.787  27.366  1.00  0.00    -0.200 F 
ATOM     83  F   UNL A   1      40.873  25.678  25.235  1.00  0.00    -0.200 F 
ENDBRANCH  49  73
BRANCH  61  84
ATOM     84  C   UNL A   1      43.899  28.286  34.749  1.00  0.00     0.064 A 
ATOM     85  C   UNL A   1      45.243  28.671  34.633  1.00  0.00     0.173 A 
ATOM     86  C   UNL A   1      43.612  27.117  35.470  1.00  0.00     0.173 A 
ATOM     87  F   UNL A   1      45.573  29.772  33.941  1.00  0.00    -0.203 F 
ATOM     88  C   UNL A   1      46.259  27.899  35.190  1.00  0.00     0.198 A 
ATOM     89  C   UNL A   1      44.627  26.369  36.058  1.00  0.00     0.198 A 
ATOM     90  F   UNL A   1      42.342  26.709  35.620  1.00  0.00    -0.203 F 
ATOM     91  F   UNL A   1      47.540  28.256  35.019  1.00  0.00    -0.200 F 
ATOM     92  C   UNL A   1      45.950  26.754  35.909  1.00  0.00     0.200 A 
ATOM     93  F   UNL A   1      44.324  25.273  36.768  1.00  0.00    -0.200 F 
ATOM     94  F   UNL A   1      46.929  26.018  36.454  1.00  0.00    -0.200 F 
ENDBRANCH  61  84
ENDBRANCH  35  36
ENDBRANCH  27  30
ENDBRANCH  25  26
ENDBRANCH   1  25
TORSDOF 13
ENDMDL
MODEL 2
REMARK VINA RESULT:     -12.8      0.489      7.290
REMARK SMILES C[C@@H]1[C@@H](C(=O)NCCCNC(=O)c2ccc(-c3c4nc(c(-c5c(F)c(F)c(F)c(F)c5F)c5ccc([nH]5)c(-c5c(F)c(F)c(F)c(F)c5F)c5nc(c(-c6c(F)c(F)c(F)c(F)c6F)c6ccc3[nH]6)C=C5)C=C4)cc2)CCN1c1ccc(C(F)(F)F)cc1C#N
REMARK SMILES IDX 8 1 7 2 6 3 4 4 5 5 3 7 1 8 2 9 78 10 76 11 77 12 79 13
REMARK SMILES IDX 80 14 88 15 81 16 87 17 82 18 89 19 90 20 83 21 84 22 85 23
REMARK SMILES IDX 86 24 9 25 10 26 11 27 12 29 13 30 14 31 75 32 15 33 74 34
REMARK SMILES IDX 16 35 17 36 18 37 68 38 19 39 73 40 67 41 69 42 20 43 72 44
REMARK SMILES IDX 66 45 65 46 21 48 53 49 33 50 52 51 34 52 37 53 51 54 70 55
REMARK SMILES IDX 35 56 36 57 50 59 71 60 38 61 22 62 23 63 31 64 24 65 25 66
REMARK SMILES IDX 29 67 32 68 26 69 27 70 30 71 28 72 54 73 55 74 63 75 56 76
REMARK SMILES IDX 57 77 61 78 64 79 58 80 59 81 62 82 60 83 39 84 40 85 48 86
REMARK SMILES IDX 41 87 42 88 46 89 49 90 43 91 44 92 47 93 45 94
REMARK H PARENT 6 6 10 28 69 47 37 58
REMARK Flexibility Score: inf
ROOT
ATOM      1  C   UNL A   1      31.425  32.045  26.898  1.00  0.00     0.042 C 
ENDROOT
BRANCH   1   2
ATOM      2  C   UNL A   1      31.719  30.799  26.088  1.00  0.00     0.117 C 
BRANCH   2   3
ATOM      3  N   UNL A   1      31.787  29.591  26.884  1.00  0.00    -0.356 N 
ATOM      4  C   UNL A   1      31.746  28.288  26.489  1.00  0.00     0.225 C 
ATOM      5  O   UNL A   1      31.863  27.440  27.374  1.00  0.00    -0.275 OA
ATOM      6  H   UNL A   1      31.876  29.732  27.854  1.00  0.00     0.163 HD
BRANCH   4   7
ATOM      7  C   UNL A   1      31.465  27.943  25.032  1.00  0.00     0.102 C 
ATOM      8  C   UNL A   1      30.439  25.981  23.831  1.00  0.00     0.032 C 
ATOM      9  C   UNL A   1      31.536  26.406  24.806  1.00  0.00     0.091 C 
ATOM     10  N   UNL A   1      32.879  26.199  24.217  1.00  0.00    -0.367 N 
ATOM     11  C   UNL A   1      32.488  28.476  24.023  1.00  0.00     0.037 C 
ATOM     12  C   UNL A   1      33.601  27.456  24.092  1.00  0.00     0.118 C 
BRANCH  10  13
ATOM     13  C   UNL A   1      33.625  25.050  24.415  1.00  0.00     0.055 A 
ATOM     14  C   UNL A   1      34.215  24.790  25.666  1.00  0.00     0.028 A 
ATOM     15  C   UNL A   1      33.926  24.169  23.360  1.00  0.00     0.076 A 
ATOM     16  C   UNL A   1      35.120  23.740  25.850  1.00  0.00     0.015 A 
ATOM     17  C   UNL A   1      34.817  23.098  23.553  1.00  0.00     0.034 A 
ATOM     18  C   UNL A   1      35.440  22.887  24.789  1.00  0.00     0.057 A 
BRANCH  15  19
ATOM     19  C   UNL A   1      33.415  24.375  22.035  1.00  0.00     0.101 C 
ATOM     20  N   UNL A   1      33.010  24.598  20.968  1.00  0.00    -0.192 NA
ENDBRANCH  15  19
BRANCH  18  21
ATOM     21  C   UNL A   1      36.470  21.801  24.970  1.00  0.00     0.416 C 
ATOM     22  F   UNL A   1      37.246  21.639  23.863  1.00  0.00    -0.166 F 
ATOM     23  F   UNL A   1      37.326  22.054  25.996  1.00  0.00    -0.166 F 
ATOM     24  F   UNL A   1      35.927  20.579  25.227  1.00  0.00    -0.166 F 
ENDBRANCH  18  21
ENDBRANCH  10  13
ENDBRANCH   4   7
ENDBRANCH   2   3
ENDBRANCH   1   2
BRANCH   1  25
ATOM     25  C   UNL A   1      32.655  32.802  27.364  1.00  0.00     0.118 C 
BRANCH  25  26
ATOM     26  N   UNL A   1      32.397  34.204  27.666  1.00  0.00    -0.352 N 
ATOM     27  C   UNL A   1      32.985  35.038  28.587  1.00  0.00     0.251 C 
ATOM     28  H   UNL A   1      31.689  34.620  27.123  1.00  0.00     0.163 HD
ATOM     29  O   UNL A   1      32.518  36.155  28.788  1.00  0.00    -0.269 OA
BRANCH  27  30
ATOM     30  C   UNL A   1      34.151  34.575  29.372  1.00  0.00     0.039 A 
ATOM     31  C   UNL A   1      33.946  34.063  30.656  1.00  0.00     0.014 A 
ATOM     32  C   UNL A   1      35.438  34.619  28.837  1.00  0.00     0.014 A 
ATOM     33  C   UNL A   1      35.020  33.508  31.356  1.00  0.00     0.010 A 
ATOM     34  C   UNL A   1      36.475  33.952  29.478  1.00  0.00     0.010 A 
ATOM     35  C   UNL A   1      36.281  33.397  30.750  1.00  0.00    -0.014 A 
BRANCH  35  36
ATOM     36  C   UNL A   1      37.416  32.721  31.430  1.00  0.00     0.031 A 
ATOM     37  C   UNL A   1      38.097  31.548  30.774  1.00  0.00     0.074 A 
ATOM     38  C   UNL A   1      37.790  33.113  32.664  1.00  0.00     0.049 A 
ATOM     39  N   UNL A   1      39.049  30.777  31.236  1.00  0.00    -0.248 NA
ATOM     40  C   UNL A   1      37.620  31.171  29.433  1.00  0.00     0.031 C 
ATOM     41  C   UNL A   1      37.177  34.200  33.430  1.00  0.00     0.029 A 
ATOM     42  N   UNL A   1      38.772  32.637  33.497  1.00  0.00    -0.354 N 
ATOM     43  C   UNL A   1      39.270  29.822  30.252  1.00  0.00     0.074 A 
ATOM     44  C   UNL A   1      38.307  30.063  29.201  1.00  0.00     0.031 C 
ATOM     45  C   UNL A   1      37.818  34.331  34.602  1.00  0.00     0.029 A 
ATOM     46  C   UNL A   1      38.854  33.307  34.694  1.00  0.00     0.049 A 
ATOM     47  H   UNL A   1      39.363  31.886  33.259  1.00  0.00     0.167 HD
ATOM     48  C   UNL A   1      40.213  28.851  30.211  1.00  0.00     0.037 A 
ATOM     49  C   UNL A   1      39.667  33.113  35.749  1.00  0.00     0.037 A 
ATOM     50  C   UNL A   1      41.184  28.628  31.249  1.00  0.00     0.049 A 
ATOM     51  C   UNL A   1      40.692  32.011  35.690  1.00  0.00     0.074 A 
ATOM     52  C   UNL A   1      42.216  27.708  31.281  1.00  0.00     0.029 A 
ATOM     53  N   UNL A   1      41.241  29.335  32.442  1.00  0.00    -0.354 N 
ATOM     54  N   UNL A   1      40.939  31.160  34.723  1.00  0.00    -0.248 NA
ATOM     55  C   UNL A   1      41.556  31.846  36.867  1.00  0.00     0.031 C 
ATOM     56  C   UNL A   1      42.860  27.815  32.518  1.00  0.00     0.029 A 
ATOM     57  C   UNL A   1      42.273  28.850  33.230  1.00  0.00     0.049 A 
ATOM     58  H   UNL A   1      40.637  30.070  32.693  1.00  0.00     0.167 HD
ATOM     59  C   UNL A   1      42.006  30.385  35.160  1.00  0.00     0.074 A 
ATOM     60  C   UNL A   1      42.369  30.877  36.471  1.00  0.00     0.031 C 
ATOM     61  C   UNL A   1      42.629  29.358  34.530  1.00  0.00     0.037 A 
BRANCH  48  62
ATOM     62  C   UNL A   1      40.241  27.958  29.003  1.00  0.00     0.064 A 
ATOM     63  C   UNL A   1      40.980  28.288  27.857  1.00  0.00     0.173 A 
ATOM     64  C   UNL A   1      39.546  26.739  29.003  1.00  0.00     0.173 A 
ATOM     65  F   UNL A   1      41.653  29.448  27.799  1.00  0.00    -0.203 F 
ATOM     66  C   UNL A   1      40.996  27.452  26.745  1.00  0.00     0.198 A 
ATOM     67  C   UNL A   1      39.593  25.886  27.903  1.00  0.00     0.198 A 
ATOM     68  F   UNL A   1      38.826  26.368  30.073  1.00  0.00    -0.203 F 
ATOM     69  F   UNL A   1      41.661  27.819  25.641  1.00  0.00    -0.200 F 
ATOM     70  C   UNL A   1      40.309  26.246  26.772  1.00  0.00     0.200 A 
ATOM     71  F   UNL A   1      38.942  24.715  27.936  1.00  0.00    -0.200 F 
ATOM     72  F   UNL A   1      40.332  25.437  25.705  1.00  0.00    -0.200 F 
ENDBRANCH  48  62
BRANCH  49  73
ATOM     73  C   UNL A   1      39.565  33.992  36.946  1.00  0.00     0.064 A 
ATOM     74  C   UNL A   1      38.807  33.605  38.059  1.00  0.00     0.173 A 
ATOM     75  C   UNL A   1      40.206  35.238  36.997  1.00  0.00     0.173 A 
ATOM     76  F   UNL A   1      38.158  32.431  38.054  1.00  0.00    -0.203 F 
ATOM     77  C   UNL A   1      38.672  34.442  39.166  1.00  0.00     0.198 A 
ATOM     78  C   UNL A   1      40.099  36.059  38.117  1.00  0.00     0.198 A 
ATOM     79  F   UNL A   1      40.949  35.654  35.961  1.00  0.00    -0.203 F 
ATOM     80  F   UNL A   1      37.897  34.070  40.193  1.00  0.00    -0.200 F 
ATOM     81  C   UNL A   1      39.323  35.665  39.196  1.00  0.00     0.200 A 
ATOM     82  F   UNL A   1      40.744  37.232  38.149  1.00  0.00    -0.200 F 
ATOM     83  F   UNL A   1      39.196  36.468  40.261  1.00  0.00    -0.200 F 
ENDBRANCH  49  73
BRANCH  61  84
ATOM     84  C   UNL A   1      43.800  28.726  35.230  1.00  0.00     0.064 A 
ATOM     85  C   UNL A   1      45.110  29.193  35.051  1.00  0.00     0.173 A 
ATOM     86  C   UNL A   1      43.598  27.664  36.125  1.00  0.00     0.173 A 
ATOM     87  F   UNL A   1      45.359  30.196  34.196  1.00  0.00    -0.203 F 
ATOM     88  C   UNL A   1      46.178  28.599  35.719  1.00  0.00     0.198 A 
ATOM     89  C   UNL A   1      44.663  27.098  36.819  1.00  0.00     0.198 A 
ATOM     90  F   UNL A   1      42.363  27.184  36.339  1.00  0.00    -0.203 F 
ATOM     91  F   UNL A   1      47.428  29.026  35.490  1.00  0.00    -0.200 F 
ATOM     92  C   UNL A   1      45.953  27.559  36.608  1.00  0.00     0.200 A 
ATOM     93  F   UNL A   1      44.441  26.105  37.691  1.00  0.00    -0.200 F 
ATOM     94  F   UNL A   1      46.981  26.996  37.257  1.00  0.00    -0.200 F 
ENDBRANCH  61  84
ENDBRANCH  35  36
ENDBRANCH  27  30
ENDBRANCH  25  26
ENDBRANCH   1  25
TORSDOF 13
ENDMDL
MODEL 3
REMARK VINA RESULT:     -12.7      0.520      7.474
REMARK SMILES C[C@@H]1[C@@H](C(=O)NCCCNC(=O)c2ccc(-c3c4nc(c(-c5c(F)c(F)c(F)c(F)c5F)c5ccc([nH]5)c(-c5c(F)c(F)c(F)c(F)c5F)c5nc(c(-c6c(F)c(F)c(F)c(F)c6F)c6ccc3[nH]6)C=C5)C=C4)cc2)CCN1c1ccc(C(F)(F)F)cc1C#N
REMARK SMILES IDX 8 1 7 2 6 3 4 4 5 5 3 7 1 8 2 9 78 10 76 11 77 12 79 13
REMARK SMILES IDX 80 14 88 15 81 16 87 17 82 18 89 19 90 20 83 21 84 22 85 23
REMARK SMILES IDX 86 24 9 25 10 26 11 27 12 29 13 30 14 31 75 32 15 33 74 34
REMARK SMILES IDX 16 35 17 36 18 37 68 38 19 39 73 40 67 41 69 42 20 43 72 44
REMARK SMILES IDX 66 45 65 46 21 48 53 49 33 50 52 51 34 52 37 53 51 54 70 55
REMARK SMILES IDX 35 56 36 57 50 59 71 60 38 61 22 62 23 63 31 64 24 65 25 66
REMARK SMILES IDX 29 67 32 68 26 69 27 70 30 71 28 72 54 73 55 74 63 75 56 76
REMARK SMILES IDX 57 77 61 78 64 79 58 80 59 81 62 82 60 83 39 84 40 85 48 86
REMARK SMILES IDX 41 87 42 88 46 89 49 90 43 91 44 92 47 93 45 94
REMARK H PARENT 6 6 10 28 69 47 37 58
REMARK Flexibility Score: inf
ROOT
ATOM      1  C   UNL A   1      31.490  32.040  26.882  1.00  0.00     0.042 C 
ENDROOT
BRANCH   1   2
ATOM      2  C   UNL A   1      31.780  30.786  26.084  1.00  0.00     0.117 C 
BRANCH   2   3
ATOM      3  N   UNL A   1      31.780  29.577  26.881  1.00  0.00    -0.356 N 
ATOM      4  C   UNL A   1      31.634  28.279  26.491  1.00  0.00     0.225 C 
ATOM      5  O   UNL A   1      31.711  27.427  27.376  1.00  0.00    -0.275 OA
ATOM      6  H   UNL A   1      31.907  29.712  27.848  1.00  0.00     0.163 HD
BRANCH   4   7
ATOM      7  C   UNL A   1      31.288  27.955  25.044  1.00  0.00     0.102 C 
ATOM      8  C   UNL A   1      30.179  26.024  23.866  1.00  0.00     0.032 C 
ATOM      9  C   UNL A   1      31.322  26.419  24.800  1.00  0.00     0.091 C 
ATOM     10  N   UNL A   1      32.636  26.194  24.155  1.00  0.00    -0.367 N 
ATOM     11  C   UNL A   1      32.279  28.481  23.999  1.00  0.00     0.037 C 
ATOM     12  C   UNL A   1      33.376  27.440  24.013  1.00  0.00     0.118 C 
BRANCH  10  13
ATOM     13  C   UNL A   1      33.368  25.030  24.312  1.00  0.00     0.055 A 
ATOM     14  C   UNL A   1      33.895  24.684  25.570  1.00  0.00     0.028 A 
ATOM     15  C   UNL A   1      33.720  24.221  23.216  1.00  0.00     0.076 A 
ATOM     16  C   UNL A   1      34.787  23.618  25.728  1.00  0.00     0.015 A 
ATOM     17  C   UNL A   1      34.597  23.135  23.380  1.00  0.00     0.034 A 
ATOM     18  C   UNL A   1      35.157  22.837  24.629  1.00  0.00     0.057 A 
BRANCH  15  19
ATOM     19  C   UNL A   1      33.277  24.519  21.884  1.00  0.00     0.101 C 
ATOM     20  N   UNL A   1      32.962  24.796  20.799  1.00  0.00    -0.192 NA
ENDBRANCH  15  19
BRANCH  18  21
ATOM     21  C   UNL A   1      36.174  21.735  24.787  1.00  0.00     0.416 C 
ATOM     22  F   UNL A   1      36.750  21.739  26.020  1.00  0.00    -0.166 F 
ATOM     23  F   UNL A   1      35.634  20.496  24.627  1.00  0.00    -0.166 F 
ATOM     24  F   UNL A   1      37.200  21.814  23.896  1.00  0.00    -0.166 F 
ENDBRANCH  18  21
ENDBRANCH  10  13
ENDBRANCH   4   7
ENDBRANCH   2   3
ENDBRANCH   1   2
BRANCH   1  25
ATOM     25  C   UNL A   1      32.723  32.800  27.337  1.00  0.00     0.118 C 
BRANCH  25  26
ATOM     26  N   UNL A   1      32.467  34.203  27.633  1.00  0.00    -0.352 N 
ATOM     27  C   UNL A   1      33.047  35.038  28.559  1.00  0.00     0.251 C 
ATOM     28  H   UNL A   1      31.766  34.620  27.081  1.00  0.00     0.163 HD
ATOM     29  O   UNL A   1      32.583  36.157  28.751  1.00  0.00    -0.269 OA
BRANCH  27  30
ATOM     30  C   UNL A   1      34.203  34.572  29.357  1.00  0.00     0.039 A 
ATOM     31  C   UNL A   1      33.987  34.095  30.652  1.00  0.00     0.014 A 
ATOM     32  C   UNL A   1      35.492  34.579  28.824  1.00  0.00     0.014 A 
ATOM     33  C   UNL A   1      35.049  33.538  31.368  1.00  0.00     0.010 A 
ATOM     34  C   UNL A   1      36.515  33.909  29.483  1.00  0.00     0.010 A 
ATOM     35  C   UNL A   1      36.309  33.389  30.768  1.00  0.00    -0.014 A 
BRANCH  35  36
ATOM     36  C   UNL A   1      37.431  32.709  31.466  1.00  0.00     0.031 A 
ATOM     37  C   UNL A   1      38.127  31.543  30.816  1.00  0.00     0.074 A 
ATOM     38  C   UNL A   1      37.777  33.091  32.712  1.00  0.00     0.049 A 
ATOM     39  N   UNL A   1      39.070  30.769  31.291  1.00  0.00    -0.248 NA
ATOM     40  C   UNL A   1      37.681  31.177  29.461  1.00  0.00     0.031 C 
ATOM     41  C   UNL A   1      37.145  34.170  33.473  1.00  0.00     0.029 A 
ATOM     42  N   UNL A   1      38.741  32.609  33.561  1.00  0.00    -0.354 N 
ATOM     43  C   UNL A   1      39.314  29.823  30.304  1.00  0.00     0.074 A 
ATOM     44  C   UNL A   1      38.374  30.072  29.235  1.00  0.00     0.031 C 
ATOM     45  C   UNL A   1      37.760  34.292  34.660  1.00  0.00     0.029 A 
ATOM     46  C   UNL A   1      38.796  33.269  34.766  1.00  0.00     0.049 A 
ATOM     47  H   UNL A   1      39.338  31.861  33.330  1.00  0.00     0.167 HD
ATOM     48  C   UNL A   1      40.260  28.854  30.276  1.00  0.00     0.037 A 
ATOM     49  C   UNL A   1      39.586  33.067  35.837  1.00  0.00     0.037 A 
ATOM     50  C   UNL A   1      41.209  28.624  31.333  1.00  0.00     0.049 A 
ATOM     51  C   UNL A   1      40.614  31.967  35.790  1.00  0.00     0.074 A 
ATOM     52  C   UNL A   1      42.241  27.705  31.379  1.00  0.00     0.029 A 
ATOM     53  N   UNL A   1      41.238  29.320  32.533  1.00  0.00    -0.354 N 
ATOM     54  N   UNL A   1      40.883  31.125  34.822  1.00  0.00    -0.248 NA
ATOM     55  C   UNL A   1      41.452  31.794  36.984  1.00  0.00     0.031 C 
ATOM     56  C   UNL A   1      42.857  27.802  32.631  1.00  0.00     0.029 A 
ATOM     57  C   UNL A   1      42.253  28.830  33.338  1.00  0.00     0.049 A 
ATOM     58  H   UNL A   1      40.627  30.053  32.777  1.00  0.00     0.167 HD
ATOM     59  C   UNL A   1      41.942  30.348  35.275  1.00  0.00     0.074 A 
ATOM     60  C   UNL A   1      42.275  30.829  36.598  1.00  0.00     0.031 C 
ATOM     61  C   UNL A   1      42.580  29.328  34.650  1.00  0.00     0.037 A 
BRANCH  48  62
ATOM     62  C   UNL A   1      40.315  27.971  29.061  1.00  0.00     0.064 A 
ATOM     63  C   UNL A   1      39.614  26.757  28.998  1.00  0.00     0.173 A 
ATOM     64  C   UNL A   1      41.053  28.359  27.932  1.00  0.00     0.173 A 
ATOM     65  F   UNL A   1      38.903  26.331  30.054  1.00  0.00    -0.203 F 
ATOM     66  C   UNL A   1      39.676  25.949  27.866  1.00  0.00     0.198 A 
ATOM     67  C   UNL A   1      41.082  27.566  26.787  1.00  0.00     0.198 A 
ATOM     68  F   UNL A   1      41.738  29.512  27.934  1.00  0.00    -0.203 F 
ATOM     69  F   UNL A   1      39.046  24.766  27.854  1.00  0.00    -0.200 F 
ATOM     70  C   UNL A   1      40.403  26.358  26.758  1.00  0.00     0.200 A 
ATOM     71  F   UNL A   1      41.773  27.971  25.712  1.00  0.00    -0.200 F 
ATOM     72  F   UNL A   1      40.455  25.585  25.666  1.00  0.00    -0.200 F 
ENDBRANCH  48  62
BRANCH  49  73
ATOM     73  C   UNL A   1      39.456  33.936  37.038  1.00  0.00     0.064 A 
ATOM     74  C   UNL A   1      38.707  33.521  38.148  1.00  0.00     0.173 A 
ATOM     75  C   UNL A   1      40.061  35.199  37.098  1.00  0.00     0.173 A 
ATOM     76  F   UNL A   1      38.092  32.329  38.134  1.00  0.00    -0.203 F 
ATOM     77  C   UNL A   1      38.547  34.347  39.259  1.00  0.00     0.198 A 
ATOM     78  C   UNL A   1      39.929  36.010  38.223  1.00  0.00     0.198 A 
ATOM     79  F   UNL A   1      40.795  35.642  36.066  1.00  0.00    -0.203 F 
ATOM     80  F   UNL A   1      37.780  33.946  40.283  1.00  0.00    -0.200 F 
ATOM     81  C   UNL A   1      39.162  35.588  39.298  1.00  0.00     0.200 A 
ATOM     82  F   UNL A   1      40.540  37.201  38.263  1.00  0.00    -0.200 F 
ATOM     83  F   UNL A   1      39.010  36.381  40.368  1.00  0.00    -0.200 F 
ENDBRANCH  49  73
BRANCH  61  84
ATOM     84  C   UNL A   1      43.736  28.691  35.370  1.00  0.00     0.064 A 
ATOM     85  C   UNL A   1      43.554  27.640  36.281  1.00  0.00     0.173 A 
ATOM     86  C   UNL A   1      45.049  29.114  35.110  1.00  0.00     0.173 A 
ATOM     87  F   UNL A   1      42.318  27.209  36.576  1.00  0.00    -0.203 F 
ATOM     88  C   UNL A   1      44.641  27.058  36.928  1.00  0.00     0.198 A 
ATOM     89  C   UNL A   1      46.136  28.503  35.730  1.00  0.00     0.198 A 
ATOM     90  F   UNL A   1      45.281  30.109  34.240  1.00  0.00    -0.203 F 
ATOM     91  F   UNL A   1      44.438  26.093  37.836  1.00  0.00    -0.200 F 
ATOM     92  C   UNL A   1      45.930  27.483  36.645  1.00  0.00     0.200 A 
ATOM     93  F   UNL A   1      47.381  28.904  35.441  1.00  0.00    -0.200 F 
ATOM     94  F   UNL A   1      46.975  26.914  37.261  1.00  0.00    -0.200 F 
ENDBRANCH  61  84
ENDBRANCH  35  36
ENDBRANCH  27  30
ENDBRANCH  25  26
ENDBRANCH   1  25
TORSDOF 13
ENDMDL
