MODEL 1
REMARK VINA RESULT:     -10.9      0.000      0.000
REMARK SMILES CC(C)([NH2+]C[C@@H]1CCCO1)C(=O)NCCCNC(=O)c1ccc(-c2c3nc(c(-c4c(F)c(F)c(F)c(F)c4F)c4ccc([nH]4)c(-c4c(F)c(F)c(F)c(F)c4F)c4nc(c(-c5c(F)c(F)c(F)c(F)c5F)c5ccc2[nH]5)C=C4)C=C3)cc1
REMARK SMILES IDX 14 1 13 2 11 3 12 4 2 6 1 7 3 8 4 9 5 12 6 13 7 14 10 15
REMARK SMILES IDX 8 16 9 17 15 18 16 19 17 20 18 21 19 23 20 24 21 25 82 26
REMARK SMILES IDX 22 27 81 28 23 29 24 30 25 31 75 32 26 33 80 34 74 35 76 36
REMARK SMILES IDX 27 37 79 38 73 39 72 40 28 42 60 43 40 44 59 45 41 46 44 47
REMARK SMILES IDX 58 48 77 49 42 50 43 51 57 53 78 54 45 55 29 56 30 57 38 58
REMARK SMILES IDX 31 59 32 60 36 61 39 62 33 63 34 64 37 65 35 66 61 67 62 68
REMARK SMILES IDX 70 69 63 70 64 71 68 72 71 73 65 74 66 75 69 76 67 77 46 78
REMARK SMILES IDX 47 79 55 80 48 81 49 82 53 83 56 84 50 85 51 86 54 87 52 88
REMARK H PARENT 13 5 4 10 4 11 17 22 76 41 44 52
REMARK Flexibility Score: inf
ROOT
ATOM      1  C   UNL A   1      34.169  34.306  29.758  1.00  0.00     0.118 C 
ENDROOT
BRANCH   1   2
ATOM      2  N   UNL A   1      33.726  35.657  29.963  1.00  0.00    -0.351 N 
ATOM      3  C   UNL A   1      33.207  36.330  31.017  1.00  0.00     0.280 C 
ATOM      4  O   UNL A   1      32.962  37.515  30.725  1.00  0.00    -0.268 OA
ATOM      5  H   UNL A   1      33.820  36.218  29.159  1.00  0.00     0.163 HD
BRANCH   3   6
ATOM      6  C   UNL A   1      33.053  35.839  32.508  1.00  0.00     0.169 C 
ATOM      7  C   UNL A   1      31.522  36.016  32.793  1.00  0.00     0.090 C 
ATOM      8  C   UNL A   1      33.749  36.780  33.492  1.00  0.00     0.090 C 
BRANCH   6   9
ATOM      9  N   UNL A   1      33.253  34.412  32.840  1.00  0.00    -0.332 N 
ATOM     10  H   UNL A   1      33.267  33.936  31.938  1.00  0.00     0.347 HD
ATOM     11  H   UNL A   1      32.515  34.313  33.538  1.00  0.00     0.347 HD
BRANCH   9  12
ATOM     12  C   UNL A   1      34.339  33.811  33.587  1.00  0.00     0.293 C 
BRANCH  12  13
ATOM     13  C   UNL A   1      35.690  33.284  33.011  1.00  0.00     0.173 C 
ATOM     14  C   UNL A   1      35.796  31.964  32.259  1.00  0.00     0.040 C 
ATOM     15  O   UNL A   1      36.604  33.165  34.138  1.00  0.00    -0.372 OA
ATOM     16  C   UNL A   1      37.154  31.430  32.654  1.00  0.00     0.031 C 
ATOM     17  C   UNL A   1      37.268  31.896  34.082  1.00  0.00     0.161 C 
ENDBRANCH  12  13
ENDBRANCH   9  12
ENDBRANCH   6   9
ENDBRANCH   3   6
ENDBRANCH   1   2
BRANCH   1  18
ATOM     18  C   UNL A   1      33.944  33.836  28.324  1.00  0.00     0.042 C 
BRANCH  18  19
ATOM     19  C   UNL A   1      34.876  32.721  27.900  1.00  0.00     0.118 C 
BRANCH  19  20
ATOM     20  N   UNL A   1      34.183  31.443  27.768  1.00  0.00    -0.352 N 
ATOM     21  C   UNL A   1      34.665  30.156  27.794  1.00  0.00     0.251 C 
ATOM     22  H   UNL A   1      33.210  31.515  27.639  1.00  0.00     0.163 HD
ATOM     23  O   UNL A   1      33.930  29.233  27.468  1.00  0.00    -0.269 OA
BRANCH  21  24
ATOM     24  C   UNL A   1      36.067  29.881  28.189  1.00  0.00     0.039 A 
ATOM     25  C   UNL A   1      36.326  29.386  29.471  1.00  0.00     0.014 A 
ATOM     26  C   UNL A   1      37.128  30.116  27.314  1.00  0.00     0.014 A 
ATOM     27  C   UNL A   1      37.634  29.060  29.841  1.00  0.00     0.010 A 
ATOM     28  C   UNL A   1      38.407  29.679  27.637  1.00  0.00     0.010 A 
ATOM     29  C   UNL A   1      38.679  29.160  28.910  1.00  0.00    -0.014 A 
BRANCH  29  30
ATOM     30  C   UNL A   1      40.070  28.760  29.246  1.00  0.00     0.031 A 
ATOM     31  C   UNL A   1      40.938  29.682  30.062  1.00  0.00     0.074 A 
ATOM     32  C   UNL A   1      40.573  27.607  28.762  1.00  0.00     0.049 A 
ATOM     33  N   UNL A   1      42.205  29.569  30.375  1.00  0.00    -0.248 NA
ATOM     34  C   UNL A   1      40.309  30.915  30.565  1.00  0.00     0.031 C 
ATOM     35  C   UNL A   1      39.848  26.653  27.920  1.00  0.00     0.029 A 
ATOM     36  N   UNL A   1      41.818  27.046  28.899  1.00  0.00    -0.354 N 
ATOM     37  C   UNL A   1      42.520  30.716  31.093  1.00  0.00     0.074 A 
ATOM     38  C   UNL A   1      41.337  31.546  31.111  1.00  0.00     0.031 C 
ATOM     39  C   UNL A   1      40.650  25.612  27.642  1.00  0.00     0.029 A 
ATOM     40  C   UNL A   1      41.959  25.848  28.242  1.00  0.00     0.049 A 
ATOM     41  H   UNL A   1      42.543  27.463  29.420  1.00  0.00     0.167 HD
ATOM     42  C   UNL A   1      43.682  31.033  31.711  1.00  0.00     0.037 A 
ATOM     43  C   UNL A   1      43.028  25.037  28.128  1.00  0.00     0.037 A 
ATOM     44  C   UNL A   1      44.847  30.191  31.716  1.00  0.00     0.049 A 
ATOM     45  C   UNL A   1      44.315  25.427  28.809  1.00  0.00     0.074 A 
ATOM     46  C   UNL A   1      46.059  30.398  32.350  1.00  0.00     0.029 A 
ATOM     47  N   UNL A   1      44.943  28.975  31.055  1.00  0.00    -0.354 N 
ATOM     48  N   UNL A   1      44.580  26.483  29.538  1.00  0.00    -0.248 NA
ATOM     49  C   UNL A   1      45.451  24.507  28.654  1.00  0.00     0.031 C 
ATOM     50  C   UNL A   1      46.906  29.333  32.033  1.00  0.00     0.029 A 
ATOM     51  C   UNL A   1      46.202  28.430  31.253  1.00  0.00     0.049 A 
ATOM     52  H   UNL A   1      44.224  28.561  30.526  1.00  0.00     0.167 HD
ATOM     53  C   UNL A   1      45.895  26.335  29.960  1.00  0.00     0.074 A 
ATOM     54  C   UNL A   1      46.367  25.079  29.419  1.00  0.00     0.031 C 
ATOM     55  C   UNL A   1      46.646  27.166  30.725  1.00  0.00     0.037 A 
BRANCH  42  56
ATOM     56  C   UNL A   1      43.745  32.338  32.453  1.00  0.00     0.064 A 
ATOM     57  C   UNL A   1      43.394  32.429  33.809  1.00  0.00     0.173 A 
ATOM     58  C   UNL A   1      44.214  33.498  31.819  1.00  0.00     0.173 A 
ATOM     59  F   UNL A   1      42.928  31.353  34.460  1.00  0.00    -0.203 F 
ATOM     60  C   UNL A   1      43.486  33.638  34.494  1.00  0.00     0.198 A 
ATOM     61  C   UNL A   1      44.336  34.698  32.516  1.00  0.00     0.198 A 
ATOM     62  F   UNL A   1      44.568  33.467  30.525  1.00  0.00    -0.203 F 
ATOM     63  F   UNL A   1      43.099  33.710  35.776  1.00  0.00    -0.200 F 
ATOM     64  C   UNL A   1      43.967  34.768  33.851  1.00  0.00     0.200 A 
ATOM     65  F   UNL A   1      44.815  35.785  31.897  1.00  0.00    -0.200 F 
ATOM     66  F   UNL A   1      44.069  35.927  34.516  1.00  0.00    -0.200 F 
ENDBRANCH  42  56
BRANCH  43  67
ATOM     67  C   UNL A   1      42.936  23.769  27.353  1.00  0.00     0.064 A 
ATOM     68  C   UNL A   1      42.482  22.587  27.957  1.00  0.00     0.173 A 
ATOM     69  C   UNL A   1      43.336  23.699  26.010  1.00  0.00     0.173 A 
ATOM     70  F   UNL A   1      42.106  22.595  29.245  1.00  0.00    -0.203 F 
ATOM     71  C   UNL A   1      42.468  21.380  27.261  1.00  0.00     0.198 A 
ATOM     72  C   UNL A   1      43.287  22.498  25.304  1.00  0.00     0.198 A 
ATOM     73  F   UNL A   1      43.773  24.800  25.381  1.00  0.00    -0.203 F 
ATOM     74  F   UNL A   1      42.094  20.255  27.885  1.00  0.00    -0.200 F 
ATOM     75  C   UNL A   1      42.867  21.337  25.935  1.00  0.00     0.200 A 
ATOM     76  F   UNL A   1      43.659  22.465  24.017  1.00  0.00    -0.200 F 
ATOM     77  F   UNL A   1      42.860  20.175  25.268  1.00  0.00    -0.200 F 
ENDBRANCH  43  67
BRANCH  55  78
ATOM     78  C   UNL A   1      48.037  26.719  31.069  1.00  0.00     0.064 A 
ATOM     79  C   UNL A   1      48.297  25.893  32.172  1.00  0.00     0.173 A 
ATOM     80  C   UNL A   1      49.120  27.088  30.255  1.00  0.00     0.173 A 
ATOM     81  F   UNL A   1      47.299  25.524  32.989  1.00  0.00    -0.203 F 
ATOM     82  C   UNL A   1      49.593  25.479  32.465  1.00  0.00     0.198 A 
ATOM     83  C   UNL A   1      50.408  26.642  30.530  1.00  0.00     0.198 A 
ATOM     84  F   UNL A   1      48.923  27.869  29.181  1.00  0.00    -0.203 F 
ATOM     85  F   UNL A   1      49.827  24.734  33.555  1.00  0.00    -0.200 F 
ATOM     86  C   UNL A   1      50.645  25.846  31.639  1.00  0.00     0.200 A 
ATOM     87  F   UNL A   1      51.420  26.983  29.721  1.00  0.00    -0.200 F 
ATOM     88  F   UNL A   1      51.892  25.436  31.917  1.00  0.00    -0.200 F 
ENDBRANCH  55  78
ENDBRANCH  29  30
ENDBRANCH  21  24
ENDBRANCH  19  20
ENDBRANCH  18  19
ENDBRANCH   1  18
TORSDOF 13
ENDMDL
MODEL 2
REMARK VINA RESULT:     -10.9      4.148     10.236
REMARK SMILES CC(C)([NH2+]C[C@@H]1CCCO1)C(=O)NCCCNC(=O)c1ccc(-c2c3nc(c(-c4c(F)c(F)c(F)c(F)c4F)c4ccc([nH]4)c(-c4c(F)c(F)c(F)c(F)c4F)c4nc(c(-c5c(F)c(F)c(F)c(F)c5F)c5ccc2[nH]5)C=C4)C=C3)cc1
REMARK SMILES IDX 14 1 13 2 11 3 12 4 2 6 1 7 3 8 4 9 5 12 6 13 7 14 10 15
REMARK SMILES IDX 8 16 9 17 15 18 16 19 17 20 18 21 19 23 20 24 21 25 82 26
REMARK SMILES IDX 22 27 81 28 23 29 24 30 25 31 75 32 26 33 80 34 74 35 76 36
REMARK SMILES IDX 27 37 79 38 73 39 72 40 28 42 60 43 40 44 59 45 41 46 44 47
REMARK SMILES IDX 58 48 77 49 42 50 43 51 57 53 78 54 45 55 29 56 30 57 38 58
REMARK SMILES IDX 31 59 32 60 36 61 39 62 33 63 34 64 37 65 35 66 61 67 62 68
REMARK SMILES IDX 70 69 63 70 64 71 68 72 71 73 65 74 66 75 69 76 67 77 46 78
REMARK SMILES IDX 47 79 55 80 48 81 49 82 53 83 56 84 50 85 51 86 54 87 52 88
REMARK H PARENT 13 5 4 10 4 11 17 22 76 41 44 52
REMARK Flexibility Score: inf
ROOT
ATOM      1  C   UNL A   1      31.660  30.858  25.912  1.00  0.00     0.118 C 
ENDROOT
BRANCH   1   2
ATOM      2  N   UNL A   1      31.614  29.753  26.829  1.00  0.00    -0.351 N 
ATOM      3  C   UNL A   1      31.458  28.416  26.687  1.00  0.00     0.280 C 
ATOM      4  O   UNL A   1      31.480  27.835  27.788  1.00  0.00    -0.268 OA
ATOM      5  H   UNL A   1      31.720  30.029  27.768  1.00  0.00     0.163 HD
BRANCH   3   6
ATOM      6  C   UNL A   1      31.422  27.574  25.354  1.00  0.00     0.169 C 
ATOM      7  C   UNL A   1      31.179  26.108  25.856  1.00  0.00     0.090 C 
ATOM      8  C   UNL A   1      32.788  27.534  24.669  1.00  0.00     0.090 C 
BRANCH   6   9
ATOM      9  N   UNL A   1      30.306  27.748  24.400  1.00  0.00    -0.332 N 
ATOM     10  H   UNL A   1      29.618  28.306  24.905  1.00  0.00     0.347 HD
ATOM     11  H   UNL A   1      30.180  26.771  24.133  1.00  0.00     0.347 HD
BRANCH   9  12
ATOM     12  C   UNL A   1      30.346  28.331  23.075  1.00  0.00     0.293 C 
BRANCH  12  13
ATOM     13  C   UNL A   1      29.935  29.784  22.680  1.00  0.00     0.173 C 
ATOM     14  C   UNL A   1      28.945  30.601  23.500  1.00  0.00     0.040 C 
ATOM     15  O   UNL A   1      29.364  29.707  21.343  1.00  0.00    -0.372 OA
ATOM     16  C   UNL A   1      28.197  31.409  22.464  1.00  0.00     0.031 C 
ATOM     17  C   UNL A   1      28.138  30.449  21.304  1.00  0.00     0.161 C 
ENDBRANCH  12  13
ENDBRANCH   9  12
ENDBRANCH   6   9
ENDBRANCH   3   6
ENDBRANCH   1   2
BRANCH   1  18
ATOM     18  C   UNL A   1      31.396  32.192  26.602  1.00  0.00     0.042 C 
BRANCH  18  19
ATOM     19  C   UNL A   1      32.626  32.792  27.251  1.00  0.00     0.118 C 
BRANCH  19  20
ATOM     20  N   UNL A   1      32.422  34.183  27.640  1.00  0.00    -0.352 N 
ATOM     21  C   UNL A   1      33.004  34.930  28.637  1.00  0.00     0.251 C 
ATOM     22  H   UNL A   1      31.757  34.668  27.098  1.00  0.00     0.163 HD
ATOM     23  O   UNL A   1      32.540  36.029  28.912  1.00  0.00    -0.269 OA
BRANCH  21  24
ATOM     24  C   UNL A   1      34.166  34.407  29.393  1.00  0.00     0.039 A 
ATOM     25  C   UNL A   1      33.949  33.798  30.634  1.00  0.00     0.014 A 
ATOM     26  C   UNL A   1      35.466  34.520  28.899  1.00  0.00     0.014 A 
ATOM     27  C   UNL A   1      35.024  33.242  31.334  1.00  0.00     0.010 A 
ATOM     28  C   UNL A   1      36.512  33.863  29.534  1.00  0.00     0.010 A 
ATOM     29  C   UNL A   1      36.308  33.229  30.767  1.00  0.00    -0.014 A 
BRANCH  29  30
ATOM     30  C   UNL A   1      37.461  32.588  31.452  1.00  0.00     0.031 A 
ATOM     31  C   UNL A   1      38.180  31.440  30.794  1.00  0.00     0.074 A 
ATOM     32  C   UNL A   1      37.814  32.990  32.688  1.00  0.00     0.049 A 
ATOM     33  N   UNL A   1      39.137  30.681  31.265  1.00  0.00    -0.248 NA
ATOM     34  C   UNL A   1      37.742  31.073  29.436  1.00  0.00     0.031 C 
ATOM     35  C   UNL A   1      37.164  34.058  33.452  1.00  0.00     0.029 A 
ATOM     36  N   UNL A   1      38.802  32.539  33.529  1.00  0.00    -0.354 N 
ATOM     37  C   UNL A   1      39.400  29.745  30.272  1.00  0.00     0.074 A 
ATOM     38  C   UNL A   1      38.457  29.984  29.202  1.00  0.00     0.031 C 
ATOM     39  C   UNL A   1      37.789  34.199  34.633  1.00  0.00     0.029 A 
ATOM     40  C   UNL A   1      38.849  33.202  34.731  1.00  0.00     0.049 A 
ATOM     41  H   UNL A   1      39.419  31.809  33.292  1.00  0.00     0.167 HD
ATOM     42  C   UNL A   1      40.363  28.794  30.239  1.00  0.00     0.037 A 
ATOM     43  C   UNL A   1      39.651  33.017  35.798  1.00  0.00     0.037 A 
ATOM     44  C   UNL A   1      41.318  28.580  31.293  1.00  0.00     0.049 A 
ATOM     45  C   UNL A   1      40.700  31.935  35.742  1.00  0.00     0.074 A 
ATOM     46  C   UNL A   1      42.362  27.674  31.340  1.00  0.00     0.029 A 
ATOM     47  N   UNL A   1      41.345  29.286  32.487  1.00  0.00    -0.354 N 
ATOM     48  N   UNL A   1      40.979  31.100  34.771  1.00  0.00    -0.248 NA
ATOM     49  C   UNL A   1      41.549  31.776  36.931  1.00  0.00     0.031 C 
ATOM     50  C   UNL A   1      42.992  27.797  32.582  1.00  0.00     0.029 A 
ATOM     51  C   UNL A   1      42.379  28.822  33.284  1.00  0.00     0.049 A 
ATOM     52  H   UNL A   1      40.723  30.009  32.731  1.00  0.00     0.167 HD
ATOM     53  C   UNL A   1      42.057  30.346  35.215  1.00  0.00     0.074 A 
ATOM     54  C   UNL A   1      42.392  30.834  36.535  1.00  0.00     0.031 C 
ATOM     55  C   UNL A   1      42.711  29.337  34.588  1.00  0.00     0.037 A 
BRANCH  42  56
ATOM     56  C   UNL A   1      40.447  27.926  29.017  1.00  0.00     0.064 A 
ATOM     57  C   UNL A   1      41.280  28.257  27.937  1.00  0.00     0.173 A 
ATOM     58  C   UNL A   1      39.730  26.721  28.946  1.00  0.00     0.173 A 
ATOM     59  F   UNL A   1      41.978  29.402  27.949  1.00  0.00    -0.203 F 
ATOM     60  C   UNL A   1      41.374  27.427  26.822  1.00  0.00     0.198 A 
ATOM     61  C   UNL A   1      39.852  25.878  27.843  1.00  0.00     0.198 A 
ATOM     62  F   UNL A   1      38.923  26.353  29.951  1.00  0.00    -0.203 F 
ATOM     63  F   UNL A   1      42.140  27.789  25.783  1.00  0.00    -0.200 F 
ATOM     64  C   UNL A   1      40.668  26.235  26.781  1.00  0.00     0.200 A 
ATOM     65  F   UNL A   1      39.181  24.719  27.812  1.00  0.00    -0.200 F 
ATOM     66  F   UNL A   1      40.771  25.431  25.713  1.00  0.00    -0.200 F 
ENDBRANCH  42  56
BRANCH  43  67
ATOM     67  C   UNL A   1      39.513  33.875  37.006  1.00  0.00     0.064 A 
ATOM     68  C   UNL A   1      38.759  33.450  38.109  1.00  0.00     0.173 A 
ATOM     69  C   UNL A   1      40.095  35.150  37.069  1.00  0.00     0.173 A 
ATOM     70  F   UNL A   1      38.166  32.247  38.091  1.00  0.00    -0.203 F 
ATOM     71  C   UNL A   1      38.561  34.281  39.211  1.00  0.00     0.198 A 
ATOM     72  C   UNL A   1      39.926  35.966  38.187  1.00  0.00     0.198 A 
ATOM     73  F   UNL A   1      40.831  35.606  36.045  1.00  0.00    -0.203 F 
ATOM     74  F   UNL A   1      37.779  33.874  40.220  1.00  0.00    -0.200 F 
ATOM     75  C   UNL A   1      39.147  35.536  39.250  1.00  0.00     0.200 A 
ATOM     76  F   UNL A   1      40.508  37.172  38.228  1.00  0.00    -0.200 F 
ATOM     77  F   UNL A   1      38.950  36.337  40.307  1.00  0.00    -0.200 F 
ENDBRANCH  43  67
BRANCH  55  78
ATOM     78  C   UNL A   1      43.888  28.731  35.296  1.00  0.00     0.064 A 
ATOM     79  C   UNL A   1      43.748  27.635  36.159  1.00  0.00     0.173 A 
ATOM     80  C   UNL A   1      45.181  29.230  35.071  1.00  0.00     0.173 A 
ATOM     81  F   UNL A   1      42.533  27.131  36.419  1.00  0.00    -0.203 F 
ATOM     82  C   UNL A   1      44.856  27.081  36.795  1.00  0.00     0.198 A 
ATOM     83  C   UNL A   1      46.289  28.650  35.679  1.00  0.00     0.198 A 
ATOM     84  F   UNL A   1      45.370  30.271  34.245  1.00  0.00    -0.203 F 
ATOM     85  F   UNL A   1      44.693  26.068  37.658  1.00  0.00    -0.200 F 
ATOM     86  C   UNL A   1      46.125  27.582  36.547  1.00  0.00     0.200 A 
ATOM     87  F   UNL A   1      47.516  29.124  35.424  1.00  0.00    -0.200 F 
ATOM     88  F   UNL A   1      47.191  27.039  37.152  1.00  0.00    -0.200 F 
ENDBRANCH  55  78
ENDBRANCH  29  30
ENDBRANCH  21  24
ENDBRANCH  19  20
ENDBRANCH  18  19
ENDBRANCH   1  18
TORSDOF 13
ENDMDL
MODEL 3
REMARK VINA RESULT:     -10.8      4.186     11.761
REMARK SMILES CC(C)([NH2+]C[C@@H]1CCCO1)C(=O)NCCCNC(=O)c1ccc(-c2c3nc(c(-c4c(F)c(F)c(F)c(F)c4F)c4ccc([nH]4)c(-c4c(F)c(F)c(F)c(F)c4F)c4nc(c(-c5c(F)c(F)c(F)c(F)c5F)c5ccc2[nH]5)C=C4)C=C3)cc1
REMARK SMILES IDX 14 1 13 2 11 3 12 4 2 6 1 7 3 8 4 9 5 12 6 13 7 14 10 15
REMARK SMILES IDX 8 16 9 17 15 18 16 19 17 20 18 21 19 23 20 24 21 25 82 26
REMARK SMILES IDX 22 27 81 28 23 29 24 30 25 31 75 32 26 33 80 34 74 35 76 36
REMARK SMILES IDX 27 37 79 38 73 39 72 40 28 42 60 43 40 44 59 45 41 46 44 47
REMARK SMILES IDX 58 48 77 49 42 50 43 51 57 53 78 54 45 55 29 56 30 57 38 58
REMARK SMILES IDX 31 59 32 60 36 61 39 62 33 63 34 64 37 65 35 66 61 67 62 68
REMARK SMILES IDX 70 69 63 70 64 71 68 72 71 73 65 74 66 75 69 76 67 77 46 78
REMARK SMILES IDX 47 79 55 80 48 81 49 82 53 83 56 84 50 85 51 86 54 87 52 88
REMARK H PARENT 13 5 4 10 4 11 17 22 76 41 44 52
REMARK Flexibility Score: inf
ROOT
ATOM      1  C   UNL A   1      42.004  19.693  26.117  1.00  0.00     0.118 C 
ENDROOT
BRANCH   1   2
ATOM      2  N   UNL A   1      43.126  18.798  26.108  1.00  0.00    -0.351 N 
ATOM      3  C   UNL A   1      44.304  18.769  25.441  1.00  0.00     0.280 C 
ATOM      4  O   UNL A   1      44.982  17.773  25.757  1.00  0.00    -0.268 OA
ATOM      5  H   UNL A   1      43.015  18.036  26.722  1.00  0.00     0.163 HD
BRANCH   3   6
ATOM      6  C   UNL A   1      44.922  19.876  24.503  1.00  0.00     0.169 C 
ATOM      7  C   UNL A   1      44.902  19.204  23.086  1.00  0.00     0.090 C 
ATOM      8  C   UNL A   1      46.401  20.116  24.804  1.00  0.00     0.090 C 
BRANCH   6   9
ATOM      9  N   UNL A   1      44.178  21.127  24.247  1.00  0.00    -0.332 N 
ATOM     10  H   UNL A   1      43.548  21.221  25.044  1.00  0.00     0.347 HD
ATOM     11  H   UNL A   1      43.881  20.936  23.291  1.00  0.00     0.347 HD
BRANCH   9  12
ATOM     12  C   UNL A   1      44.711  22.459  24.047  1.00  0.00     0.293 C 
BRANCH  12  13
ATOM     13  C   UNL A   1      44.746  23.619  25.090  1.00  0.00     0.173 C 
ATOM     14  C   UNL A   1      43.817  24.823  25.001  1.00  0.00     0.040 C 
ATOM     15  O   UNL A   1      46.095  24.166  25.060  1.00  0.00    -0.372 OA
ATOM     16  C   UNL A   1      44.661  25.971  25.507  1.00  0.00     0.031 C 
ATOM     17  C   UNL A   1      46.030  25.596  25.003  1.00  0.00     0.161 C 
ENDBRANCH  12  13
ENDBRANCH   9  12
ENDBRANCH   6   9
ENDBRANCH   3   6
ENDBRANCH   1   2
BRANCH   1  18
ATOM     18  C   UNL A   1      41.632  20.140  27.527  1.00  0.00     0.042 C 
BRANCH  18  19
ATOM     19  C   UNL A   1      40.968  21.499  27.577  1.00  0.00     0.118 C 
BRANCH  19  20
ATOM     20  N   UNL A   1      39.863  21.610  26.631  1.00  0.00    -0.352 N 
ATOM     21  C   UNL A   1      39.054  22.676  26.319  1.00  0.00     0.251 C 
ATOM     22  H   UNL A   1      39.663  20.783  26.135  1.00  0.00     0.163 HD
ATOM     23  O   UNL A   1      38.056  22.493  25.633  1.00  0.00    -0.269 OA
BRANCH  21  24
ATOM     24  C   UNL A   1      39.364  24.035  26.824  1.00  0.00     0.039 A 
ATOM     25  C   UNL A   1      38.958  24.388  28.114  1.00  0.00     0.014 A 
ATOM     26  C   UNL A   1      40.040  24.967  26.035  1.00  0.00     0.014 A 
ATOM     27  C   UNL A   1      39.296  25.642  28.632  1.00  0.00     0.010 A 
ATOM     28  C   UNL A   1      40.481  26.161  26.591  1.00  0.00     0.010 A 
ATOM     29  C   UNL A   1      40.101  26.521  27.891  1.00  0.00    -0.014 A 
BRANCH  29  30
ATOM     30  C   UNL A   1      40.535  27.834  28.435  1.00  0.00     0.031 A 
ATOM     31  C   UNL A   1      41.982  28.057  28.788  1.00  0.00     0.074 A 
ATOM     32  C   UNL A   1      39.622  28.795  28.677  1.00  0.00     0.049 A 
ATOM     33  N   UNL A   1      42.546  29.086  29.369  1.00  0.00    -0.248 NA
ATOM     34  C   UNL A   1      42.918  26.962  28.479  1.00  0.00     0.031 C 
ATOM     35  C   UNL A   1      38.184  28.682  28.424  1.00  0.00     0.029 A 
ATOM     36  N   UNL A   1      39.767  30.056  29.201  1.00  0.00    -0.354 N 
ATOM     37  C   UNL A   1      43.888  28.755  29.505  1.00  0.00     0.074 A 
ATOM     38  C   UNL A   1      44.045  27.405  29.014  1.00  0.00     0.031 C 
ATOM     39  C   UNL A   1      37.585  29.835  28.764  1.00  0.00     0.029 A 
ATOM     40  C   UNL A   1      38.585  30.749  29.305  1.00  0.00     0.049 A 
ATOM     41  H   UNL A   1      40.636  30.428  29.477  1.00  0.00     0.167 HD
ATOM     42  C   UNL A   1      44.906  29.520  29.966  1.00  0.00     0.037 A 
ATOM     43  C   UNL A   1      38.337  31.980  29.793  1.00  0.00     0.037 A 
ATOM     44  C   UNL A   1      44.750  30.874  30.426  1.00  0.00     0.049 A 
ATOM     45  C   UNL A   1      39.486  32.800  30.320  1.00  0.00     0.074 A 
ATOM     46  C   UNL A   1      45.722  31.751  30.871  1.00  0.00     0.029 A 
ATOM     47  N   UNL A   1      43.540  31.547  30.497  1.00  0.00    -0.354 N 
ATOM     48  N   UNL A   1      40.760  32.499  30.384  1.00  0.00    -0.248 NA
ATOM     49  C   UNL A   1      39.161  34.137  30.839  1.00  0.00     0.031 C 
ATOM     50  C   UNL A   1      45.096  32.939  31.258  1.00  0.00     0.029 A 
ATOM     51  C   UNL A   1      43.740  32.824  30.995  1.00  0.00     0.049 A 
ATOM     52  H   UNL A   1      42.668  31.174  30.232  1.00  0.00     0.167 HD
ATOM     53  C   UNL A   1      41.391  33.618  30.910  1.00  0.00     0.074 A 
ATOM     54  C   UNL A   1      40.362  34.610  31.134  1.00  0.00     0.031 C 
ATOM     55  C   UNL A   1      42.705  33.807  31.189  1.00  0.00     0.037 A 
BRANCH  42  56
ATOM     56  C   UNL A   1      46.282  28.919  29.978  1.00  0.00     0.064 A 
ATOM     57  C   UNL A   1      47.138  29.024  28.870  1.00  0.00     0.173 A 
ATOM     58  C   UNL A   1      46.774  28.281  31.127  1.00  0.00     0.173 A 
ATOM     59  F   UNL A   1      46.714  29.614  27.742  1.00  0.00    -0.203 F 
ATOM     60  C   UNL A   1      48.424  28.490  28.903  1.00  0.00     0.198 A 
ATOM     61  C   UNL A   1      48.072  27.777  31.168  1.00  0.00     0.198 A 
ATOM     62  F   UNL A   1      46.001  28.157  32.216  1.00  0.00    -0.203 F 
ATOM     63  F   UNL A   1      49.205  28.561  27.816  1.00  0.00    -0.200 F 
ATOM     64  C   UNL A   1      48.893  27.877  30.055  1.00  0.00     0.200 A 
ATOM     65  F   UNL A   1      48.529  27.199  32.287  1.00  0.00    -0.200 F 
ATOM     66  F   UNL A   1      50.136  27.377  30.090  1.00  0.00    -0.200 F 
ENDBRANCH  42  56
BRANCH  43  67
ATOM     67  C   UNL A   1      36.952  32.526  29.797  1.00  0.00     0.064 A 
ATOM     68  C   UNL A   1      36.462  33.255  28.704  1.00  0.00     0.173 A 
ATOM     69  C   UNL A   1      36.106  32.369  30.905  1.00  0.00     0.173 A 
ATOM     70  F   UNL A   1      37.239  33.451  27.627  1.00  0.00    -0.203 F 
ATOM     71  C   UNL A   1      35.196  33.836  28.733  1.00  0.00     0.198 A 
ATOM     72  C   UNL A   1      34.825  32.920  30.918  1.00  0.00     0.198 A 
ATOM     73  F   UNL A   1      36.521  31.676  31.975  1.00  0.00    -0.203 F 
ATOM     74  F   UNL A   1      34.781  34.584  27.702  1.00  0.00    -0.200 F 
ATOM     75  C   UNL A   1      34.377  33.665  29.838  1.00  0.00     0.200 A 
ATOM     76  F   UNL A   1      34.032  32.739  31.982  1.00  0.00    -0.200 F 
ATOM     77  F   UNL A   1      33.162  34.231  29.869  1.00  0.00    -0.200 F 
ENDBRANCH  43  67
BRANCH  55  78
ATOM     78  C   UNL A   1      43.114  35.154  31.711  1.00  0.00     0.064 A 
ATOM     79  C   UNL A   1      43.558  36.175  30.857  1.00  0.00     0.173 A 
ATOM     80  C   UNL A   1      43.016  35.439  33.082  1.00  0.00     0.173 A 
ATOM     81  F   UNL A   1      43.681  35.948  29.541  1.00  0.00    -0.203 F 
ATOM     82  C   UNL A   1      43.919  37.421  31.362  1.00  0.00     0.198 A 
ATOM     83  C   UNL A   1      43.343  36.697  33.577  1.00  0.00     0.198 A 
ATOM     84  F   UNL A   1      42.588  34.500  33.939  1.00  0.00    -0.203 F 
ATOM     85  F   UNL A   1      44.391  38.365  30.536  1.00  0.00    -0.200 F 
ATOM     86  C   UNL A   1      43.802  37.684  32.719  1.00  0.00     0.200 A 
ATOM     87  F   UNL A   1      43.213  36.954  34.885  1.00  0.00    -0.200 F 
ATOM     88  F   UNL A   1      44.140  38.889  33.201  1.00  0.00    -0.200 F 
ENDBRANCH  55  78
ENDBRANCH  29  30
ENDBRANCH  21  24
ENDBRANCH  19  20
ENDBRANCH  18  19
ENDBRANCH   1  18
TORSDOF 13
ENDMDL
