MODEL 1
REMARK VINA RESULT:     -12.3      0.000      0.000
REMARK SMILES Cc1cc(N[C@@H]2C=C[C@@H](C(=O)NCCCNC(=O)c3ccc(-c4c5nc(c(-c6c(F)c(F)c(F)c(F)c6F)c6ccc([nH]6)c(-c6c(F)c(F)c(F)c(F)c6F)c6nc(c(-c7c(F)c(F)c(F)c(F)c7F)c7ccc4[nH]7)C=C6)C=C5)cc3)C2)nc(C)n1
REMARK SMILES IDX 14 1 13 2 12 3 10 4 11 5 9 7 6 8 7 9 82 10 8 11 5 12 4 14
REMARK SMILES IDX 1 15 2 16 3 17 86 18 84 19 83 20 85 21 15 22 16 23 17 24
REMARK SMILES IDX 18 26 19 27 20 28 81 29 21 30 80 31 22 32 23 33 24 34 74 35
REMARK SMILES IDX 25 36 79 37 73 38 75 39 26 40 78 41 72 42 71 43 27 45 59 46
REMARK SMILES IDX 39 47 58 48 40 49 43 50 57 51 76 52 41 53 42 54 56 56 77 57
REMARK SMILES IDX 44 58 28 59 29 60 37 61 30 62 31 63 35 64 38 65 32 66 33 67
REMARK SMILES IDX 36 68 34 69 60 70 61 71 69 72 62 73 63 74 67 75 70 76 64 77
REMARK SMILES IDX 65 78 68 79 66 80 45 81 46 82 54 83 47 84 48 85 52 86 55 87
REMARK SMILES IDX 49 88 50 89 53 90 51 91
REMARK H PARENT 12 6 5 13 16 25 75 44 43 55
REMARK Flexibility Score: inf
ROOT
ATOM      1  C   UNL A   1      31.526  32.165  26.758  1.00  0.00     0.042 C 
ENDROOT
BRANCH   1   2
ATOM      2  C   UNL A   1      31.762  30.728  26.319  1.00  0.00     0.117 C 
BRANCH   2   3
ATOM      3  N   UNL A   1      33.121  30.317  26.615  1.00  0.00    -0.356 N 
ATOM      4  C   UNL A   1      33.673  29.087  26.751  1.00  0.00     0.227 C 
ATOM      5  O   UNL A   1      34.837  29.036  27.158  1.00  0.00    -0.274 OA
ATOM      6  H   UNL A   1      33.753  31.062  26.738  1.00  0.00     0.163 HD
BRANCH   4   7
ATOM      7  C   UNL A   1      32.924  27.811  26.400  1.00  0.00     0.103 C 
ATOM      8  C   UNL A   1      30.620  27.009  26.148  1.00  0.00     0.104 C 
ATOM      9  C   UNL A   1      31.256  27.286  24.827  1.00  0.00    -0.006 C 
ATOM     10  C   UNL A   1      31.628  27.546  27.177  1.00  0.00     0.046 C 
ATOM     11  C   UNL A   1      32.511  27.735  24.955  1.00  0.00    -0.016 C 
BRANCH   8  12
ATOM     12  N   UNL A   1      30.296  25.608  26.291  1.00  0.00    -0.364 N 
ATOM     13  H   UNL A   1      29.390  25.440  26.635  1.00  0.00     0.162 HD
BRANCH  12  14
ATOM     14  C   UNL A   1      31.013  24.473  26.038  1.00  0.00     0.130 A 
ATOM     15  C   UNL A   1      32.098  22.127  23.336  1.00  0.00     0.067 C 
ATOM     16  C   UNL A   1      31.927  22.758  24.686  1.00  0.00     0.043 A 
ATOM     17  C   UNL A   1      31.080  23.836  24.823  1.00  0.00     0.070 A 
ATOM     18  N   UNL A   1      32.618  22.262  25.721  1.00  0.00    -0.238 NA
ATOM     19  C   UNL A   1      32.448  22.891  26.897  1.00  0.00     0.127 A 
ATOM     20  N   UNL A   1      31.688  23.988  27.090  1.00  0.00    -0.216 NA
ATOM     21  C   UNL A   1      33.129  22.307  28.093  1.00  0.00     0.090 C 
ENDBRANCH  12  14
ENDBRANCH   8  12
ENDBRANCH   4   7
ENDBRANCH   2   3
ENDBRANCH   1   2
BRANCH   1  22
ATOM     22  C   UNL A   1      32.799  32.844  27.239  1.00  0.00     0.118 C 
BRANCH  22  23
ATOM     23  N   UNL A   1      32.561  34.229  27.629  1.00  0.00    -0.352 N 
ATOM     24  C   UNL A   1      33.064  34.912  28.707  1.00  0.00     0.251 C 
ATOM     25  H   UNL A   1      31.961  34.741  27.040  1.00  0.00     0.163 HD
ATOM     26  O   UNL A   1      32.588  35.989  29.050  1.00  0.00    -0.269 OA
BRANCH  24  27
ATOM     27  C   UNL A   1      34.180  34.316  29.460  1.00  0.00     0.039 A 
ATOM     28  C   UNL A   1      33.909  33.520  30.574  1.00  0.00     0.014 A 
ATOM     29  C   UNL A   1      35.494  34.526  29.029  1.00  0.00     0.014 A 
ATOM     30  C   UNL A   1      34.963  32.885  31.228  1.00  0.00     0.010 A 
ATOM     31  C   UNL A   1      36.531  33.826  29.627  1.00  0.00     0.010 A 
ATOM     32  C   UNL A   1      36.275  33.018  30.744  1.00  0.00    -0.014 A 
BRANCH  32  33
ATOM     33  C   UNL A   1      37.413  32.375  31.437  1.00  0.00     0.031 A 
ATOM     34  C   UNL A   1      38.148  31.260  30.754  1.00  0.00     0.074 A 
ATOM     35  C   UNL A   1      37.758  32.770  32.675  1.00  0.00     0.049 A 
ATOM     36  N   UNL A   1      39.165  30.557  31.180  1.00  0.00    -0.248 NA
ATOM     37  C   UNL A   1      37.660  30.867  29.420  1.00  0.00     0.031 C 
ATOM     38  C   UNL A   1      37.092  33.821  33.444  1.00  0.00     0.029 A 
ATOM     39  N   UNL A   1      38.760  32.334  33.502  1.00  0.00    -0.354 N 
ATOM     40  C   UNL A   1      39.443  29.653  30.165  1.00  0.00     0.074 A 
ATOM     41  C   UNL A   1      38.440  29.835  29.140  1.00  0.00     0.031 C 
ATOM     42  C   UNL A   1      37.729  33.977  34.615  1.00  0.00     0.029 A 
ATOM     43  C   UNL A   1      38.830  33.020  34.689  1.00  0.00     0.049 A 
ATOM     44  H   UNL A   1      39.372  31.598  33.267  1.00  0.00     0.167 HD
ATOM     45  C   UNL A   1      40.471  28.778  30.074  1.00  0.00     0.037 A 
ATOM     46  C   UNL A   1      39.699  32.894  35.710  1.00  0.00     0.037 A 
ATOM     47  C   UNL A   1      41.470  28.609  31.092  1.00  0.00     0.049 A 
ATOM     48  C   UNL A   1      40.794  31.868  35.619  1.00  0.00     0.074 A 
ATOM     49  C   UNL A   1      42.571  27.774  31.088  1.00  0.00     0.029 A 
ATOM     50  N   UNL A   1      41.482  29.290  32.301  1.00  0.00    -0.354 N 
ATOM     51  N   UNL A   1      41.085  31.057  34.631  1.00  0.00    -0.248 NA
ATOM     52  C   UNL A   1      41.680  31.738  36.783  1.00  0.00     0.031 C 
ATOM     53  C   UNL A   1      43.232  27.923  32.313  1.00  0.00     0.029 A 
ATOM     54  C   UNL A   1      42.561  28.877  33.063  1.00  0.00     0.049 A 
ATOM     55  H   UNL A   1      40.821  29.966  32.575  1.00  0.00     0.167 HD
ATOM     56  C   UNL A   1      42.196  30.336  35.043  1.00  0.00     0.074 A 
ATOM     57  C   UNL A   1      42.534  30.811  36.369  1.00  0.00     0.031 C 
ATOM     58  C   UNL A   1      42.876  29.367  34.381  1.00  0.00     0.037 A 
BRANCH  45  59
ATOM     59  C   UNL A   1      40.567  27.965  28.819  1.00  0.00     0.064 A 
ATOM     60  C   UNL A   1      41.336  28.403  27.729  1.00  0.00     0.173 A 
ATOM     61  C   UNL A   1      39.895  26.742  28.701  1.00  0.00     0.173 A 
ATOM     62  F   UNL A   1      41.984  29.576  27.787  1.00  0.00    -0.203 F 
ATOM     63  C   UNL A   1      41.400  27.660  26.554  1.00  0.00     0.198 A 
ATOM     64  C   UNL A   1      39.984  25.987  27.534  1.00  0.00     0.198 A 
ATOM     65  F   UNL A   1      39.146  26.279  29.714  1.00  0.00    -0.203 F 
ATOM     66  F   UNL A   1      42.096  28.125  25.507  1.00  0.00    -0.200 F 
ATOM     67  C   UNL A   1      40.729  26.450  26.459  1.00  0.00     0.200 A 
ATOM     68  F   UNL A   1      39.342  24.814  27.445  1.00  0.00    -0.200 F 
ATOM     69  F   UNL A   1      40.793  25.736  25.328  1.00  0.00    -0.200 F 
ENDBRANCH  45  59
BRANCH  46  70
ATOM     70  C   UNL A   1      39.599  33.810  36.873  1.00  0.00     0.064 A 
ATOM     71  C   UNL A   1      40.240  35.057  36.852  1.00  0.00     0.173 A 
ATOM     72  C   UNL A   1      38.836  33.486  38.005  1.00  0.00     0.173 A 
ATOM     73  F   UNL A   1      40.992  35.402  35.797  1.00  0.00    -0.203 F 
ATOM     74  C   UNL A   1      40.125  35.944  37.919  1.00  0.00     0.198 A 
ATOM     75  C   UNL A   1      38.706  34.383  39.064  1.00  0.00     0.198 A 
ATOM     76  F   UNL A   1      38.200  32.308  38.070  1.00  0.00    -0.203 F 
ATOM     77  F   UNL A   1      40.763  37.122  37.881  1.00  0.00    -0.200 F 
ATOM     78  C   UNL A   1      39.352  35.610  39.021  1.00  0.00     0.200 A 
ATOM     79  F   UNL A   1      37.949  34.062  40.121  1.00  0.00    -0.200 F 
ATOM     80  F   UNL A   1      39.229  36.470  40.042  1.00  0.00    -0.200 F 
ENDBRANCH  46  70
BRANCH  58  81
ATOM     81  C   UNL A   1      44.058  28.754  35.069  1.00  0.00     0.064 A 
ATOM     82  C   UNL A   1      43.924  27.594  35.846  1.00  0.00     0.173 A 
ATOM     83  C   UNL A   1      45.346  29.271  34.866  1.00  0.00     0.173 A 
ATOM     84  F   UNL A   1      42.711  27.073  36.077  1.00  0.00    -0.203 F 
ATOM     85  C   UNL A   1      45.042  26.974  36.397  1.00  0.00     0.198 A 
ATOM     86  C   UNL A   1      46.463  28.634  35.399  1.00  0.00     0.198 A 
ATOM     87  F   UNL A   1      45.522  30.374  34.124  1.00  0.00    -0.203 F 
ATOM     88  F   UNL A   1      44.893  25.877  37.152  1.00  0.00    -0.200 F 
ATOM     89  C   UNL A   1      46.310  27.487  36.163  1.00  0.00     0.200 A 
ATOM     90  F   UNL A   1      47.688  29.122  35.160  1.00  0.00    -0.200 F 
ATOM     91  F   UNL A   1      47.386  26.875  36.675  1.00  0.00    -0.200 F 
ENDBRANCH  58  81
ENDBRANCH  32  33
ENDBRANCH  24  27
ENDBRANCH  22  23
ENDBRANCH   1  22
TORSDOF 12
ENDMDL
MODEL 2
REMARK VINA RESULT:     -12.2      1.793      3.006
REMARK SMILES Cc1cc(N[C@@H]2C=C[C@@H](C(=O)NCCCNC(=O)c3ccc(-c4c5nc(c(-c6c(F)c(F)c(F)c(F)c6F)c6ccc([nH]6)c(-c6c(F)c(F)c(F)c(F)c6F)c6nc(c(-c7c(F)c(F)c(F)c(F)c7F)c7ccc4[nH]7)C=C6)C=C5)cc3)C2)nc(C)n1
REMARK SMILES IDX 14 1 13 2 12 3 10 4 11 5 9 7 6 8 7 9 82 10 8 11 5 12 4 14
REMARK SMILES IDX 1 15 2 16 3 17 86 18 84 19 83 20 85 21 15 22 16 23 17 24
REMARK SMILES IDX 18 26 19 27 20 28 81 29 21 30 80 31 22 32 23 33 24 34 74 35
REMARK SMILES IDX 25 36 79 37 73 38 75 39 26 40 78 41 72 42 71 43 27 45 59 46
REMARK SMILES IDX 39 47 58 48 40 49 43 50 57 51 76 52 41 53 42 54 56 56 77 57
REMARK SMILES IDX 44 58 28 59 29 60 37 61 30 62 31 63 35 64 38 65 32 66 33 67
REMARK SMILES IDX 36 68 34 69 60 70 61 71 69 72 62 73 63 74 67 75 70 76 64 77
REMARK SMILES IDX 65 78 68 79 66 80 45 81 46 82 54 83 47 84 48 85 52 86 55 87
REMARK SMILES IDX 49 88 50 89 53 90 51 91
REMARK H PARENT 12 6 5 13 16 25 75 44 43 55
REMARK Flexibility Score: inf
ROOT
ATOM      1  C   UNL A   1      31.611  32.338  26.840  1.00  0.00     0.042 C 
ENDROOT
BRANCH   1   2
ATOM      2  C   UNL A   1      31.633  30.862  27.206  1.00  0.00     0.117 C 
BRANCH   2   3
ATOM      3  N   UNL A   1      32.967  30.314  27.050  1.00  0.00    -0.356 N 
ATOM      4  C   UNL A   1      33.432  29.303  26.279  1.00  0.00     0.227 C 
ATOM      5  O   UNL A   1      34.600  28.948  26.462  1.00  0.00    -0.274 OA
ATOM      6  H   UNL A   1      33.653  30.754  27.603  1.00  0.00     0.163 HD
BRANCH   4   7
ATOM      7  C   UNL A   1      32.584  28.634  25.208  1.00  0.00     0.103 C 
ATOM      8  C   UNL A   1      32.543  28.338  22.774  1.00  0.00     0.104 C 
ATOM      9  C   UNL A   1      33.056  27.122  23.470  1.00  0.00    -0.006 C 
ATOM     10  C   UNL A   1      32.432  29.394  23.885  1.00  0.00     0.046 C 
ATOM     11  C   UNL A   1      33.093  27.279  24.800  1.00  0.00    -0.016 C 
BRANCH   8  12
ATOM     12  N   UNL A   1      31.309  28.060  22.076  1.00  0.00    -0.364 N 
ATOM     13  H   UNL A   1      31.389  27.366  21.383  1.00  0.00     0.162 HD
BRANCH  12  14
ATOM     14  C   UNL A   1      30.052  28.582  22.196  1.00  0.00     0.130 A 
ATOM     15  C   UNL A   1      26.728  28.101  23.839  1.00  0.00     0.067 C 
ATOM     16  C   UNL A   1      27.828  28.682  23.003  1.00  0.00     0.043 A 
ATOM     17  C   UNL A   1      29.014  27.991  22.875  1.00  0.00     0.070 A 
ATOM     18  N   UNL A   1      27.631  29.869  22.414  1.00  0.00    -0.238 NA
ATOM     19  C   UNL A   1      28.666  30.354  21.705  1.00  0.00     0.127 A 
ATOM     20  N   UNL A   1      29.874  29.765  21.590  1.00  0.00    -0.216 NA
ATOM     21  C   UNL A   1      28.449  31.629  20.957  1.00  0.00     0.090 C 
ENDBRANCH  12  14
ENDBRANCH   8  12
ENDBRANCH   4   7
ENDBRANCH   2   3
ENDBRANCH   1   2
BRANCH   1  22
ATOM     22  C   UNL A   1      32.881  33.063  27.259  1.00  0.00     0.118 C 
BRANCH  22  23
ATOM     23  N   UNL A   1      32.609  34.427  27.694  1.00  0.00    -0.352 N 
ATOM     24  C   UNL A   1      33.074  35.077  28.809  1.00  0.00     0.251 C 
ATOM     25  H   UNL A   1      32.014  34.951  27.112  1.00  0.00     0.163 HD
ATOM     26  O   UNL A   1      32.572  36.132  29.181  1.00  0.00    -0.269 OA
BRANCH  24  27
ATOM     27  C   UNL A   1      34.184  34.473  29.565  1.00  0.00     0.039 A 
ATOM     28  C   UNL A   1      33.912  33.779  30.745  1.00  0.00     0.014 A 
ATOM     29  C   UNL A   1      35.489  34.572  29.074  1.00  0.00     0.014 A 
ATOM     30  C   UNL A   1      34.954  33.132  31.408  1.00  0.00     0.010 A 
ATOM     31  C   UNL A   1      36.508  33.857  29.687  1.00  0.00     0.010 A 
ATOM     32  C   UNL A   1      36.251  33.150  30.870  1.00  0.00    -0.014 A 
BRANCH  32  33
ATOM     33  C   UNL A   1      37.376  32.493  31.569  1.00  0.00     0.031 A 
ATOM     34  C   UNL A   1      38.087  31.354  30.899  1.00  0.00     0.074 A 
ATOM     35  C   UNL A   1      37.731  32.896  32.802  1.00  0.00     0.049 A 
ATOM     36  N   UNL A   1      39.091  30.637  31.332  1.00  0.00    -0.248 NA
ATOM     37  C   UNL A   1      37.590  30.955  29.571  1.00  0.00     0.031 C 
ATOM     38  C   UNL A   1      37.088  33.969  33.558  1.00  0.00     0.029 A 
ATOM     39  N   UNL A   1      38.726  32.450  33.632  1.00  0.00    -0.354 N 
ATOM     40  C   UNL A   1      39.349  29.715  30.328  1.00  0.00     0.074 A 
ATOM     41  C   UNL A   1      38.348  29.904  29.302  1.00  0.00     0.031 C 
ATOM     42  C   UNL A   1      37.730  34.127  34.727  1.00  0.00     0.029 A 
ATOM     43  C   UNL A   1      38.812  33.149  34.811  1.00  0.00     0.049 A 
ATOM     44  H   UNL A   1      39.322  31.699  33.406  1.00  0.00     0.167 HD
ATOM     45  C   UNL A   1      40.359  28.818  30.247  1.00  0.00     0.037 A 
ATOM     46  C   UNL A   1      39.679  33.019  35.832  1.00  0.00     0.037 A 
ATOM     47  C   UNL A   1      41.356  28.641  31.265  1.00  0.00     0.049 A 
ATOM     48  C   UNL A   1      40.753  31.969  35.752  1.00  0.00     0.074 A 
ATOM     49  C   UNL A   1      42.440  27.784  31.270  1.00  0.00     0.029 A 
ATOM     50  N   UNL A   1      41.383  29.337  32.465  1.00  0.00    -0.354 N 
ATOM     51  N   UNL A   1      41.026  31.140  34.774  1.00  0.00    -0.248 NA
ATOM     52  C   UNL A   1      41.639  31.836  36.917  1.00  0.00     0.031 C 
ATOM     53  C   UNL A   1      43.105  27.935  32.492  1.00  0.00     0.029 A 
ATOM     54  C   UNL A   1      42.455  28.912  33.231  1.00  0.00     0.049 A 
ATOM     55  H   UNL A   1      40.737  30.030  32.732  1.00  0.00     0.167 HD
ATOM     56  C   UNL A   1      42.123  30.402  35.193  1.00  0.00     0.074 A 
ATOM     57  C   UNL A   1      42.473  30.887  36.513  1.00  0.00     0.031 C 
ATOM     58  C   UNL A   1      42.783  29.412  34.542  1.00  0.00     0.037 A 
BRANCH  45  59
ATOM     59  C   UNL A   1      40.437  27.988  29.001  1.00  0.00     0.064 A 
ATOM     60  C   UNL A   1      41.193  28.408  27.896  1.00  0.00     0.173 A 
ATOM     61  C   UNL A   1      39.759  26.766  28.908  1.00  0.00     0.173 A 
ATOM     62  F   UNL A   1      41.845  29.580  27.930  1.00  0.00    -0.203 F 
ATOM     63  C   UNL A   1      41.240  27.649  26.730  1.00  0.00     0.198 A 
ATOM     64  C   UNL A   1      39.832  25.994  27.751  1.00  0.00     0.198 A 
ATOM     65  F   UNL A   1      39.022  26.319  29.937  1.00  0.00    -0.203 F 
ATOM     66  F   UNL A   1      41.924  28.098  25.669  1.00  0.00    -0.200 F 
ATOM     67  C   UNL A   1      40.564  26.441  26.661  1.00  0.00     0.200 A 
ATOM     68  F   UNL A   1      39.184  24.823  27.686  1.00  0.00    -0.200 F 
ATOM     69  F   UNL A   1      40.611  25.711  25.538  1.00  0.00    -0.200 F 
ENDBRANCH  45  59
BRANCH  46  70
ATOM     70  C   UNL A   1      39.600  33.951  36.984  1.00  0.00     0.064 A 
ATOM     71  C   UNL A   1      38.868  33.604  38.128  1.00  0.00     0.173 A 
ATOM     72  C   UNL A   1      40.280  35.178  36.988  1.00  0.00     0.173 A 
ATOM     73  F   UNL A   1      38.190  32.448  38.162  1.00  0.00    -0.203 F 
ATOM     74  C   UNL A   1      38.816  34.450  39.233  1.00  0.00     0.198 A 
ATOM     75  C   UNL A   1      40.242  36.015  38.102  1.00  0.00     0.198 A 
ATOM     76  F   UNL A   1      40.998  35.551  35.920  1.00  0.00    -0.203 F 
ATOM     77  F   UNL A   1      38.093  34.104  40.306  1.00  0.00    -0.200 F 
ATOM     78  C   UNL A   1      39.508  35.651  39.222  1.00  0.00     0.200 A 
ATOM     79  F   UNL A   1      40.923  37.169  38.093  1.00  0.00    -0.200 F 
ATOM     80  F   UNL A   1      39.470  36.459  40.291  1.00  0.00    -0.200 F 
ENDBRANCH  46  70
BRANCH  58  81
ATOM     81  C   UNL A   1      43.953  28.783  35.236  1.00  0.00     0.064 A 
ATOM     82  C   UNL A   1      43.793  27.654  36.052  1.00  0.00     0.173 A 
ATOM     83  C   UNL A   1      45.254  29.253  35.002  1.00  0.00     0.173 A 
ATOM     84  F   UNL A   1      42.567  27.180  36.314  1.00  0.00    -0.203 F 
ATOM     85  C   UNL A   1      44.897  27.017  36.610  1.00  0.00     0.198 A 
ATOM     86  C   UNL A   1      46.357  28.598  35.542  1.00  0.00     0.198 A 
ATOM     87  F   UNL A   1      45.456  30.324  34.222  1.00  0.00    -0.203 F 
ATOM     88  F   UNL A   1      44.722  25.950  37.402  1.00  0.00    -0.200 F 
ATOM     89  C   UNL A   1      46.178  27.481  36.345  1.00  0.00     0.200 A 
ATOM     90  F   UNL A   1      47.594  29.038  35.273  1.00  0.00    -0.200 F 
ATOM     91  F   UNL A   1      47.240  26.851  36.864  1.00  0.00    -0.200 F 
ENDBRANCH  58  81
ENDBRANCH  32  33
ENDBRANCH  24  27
ENDBRANCH  22  23
ENDBRANCH   1  22
TORSDOF 12
ENDMDL
MODEL 3
REMARK VINA RESULT:     -12.2      0.358      1.658
REMARK SMILES Cc1cc(N[C@@H]2C=C[C@@H](C(=O)NCCCNC(=O)c3ccc(-c4c5nc(c(-c6c(F)c(F)c(F)c(F)c6F)c6ccc([nH]6)c(-c6c(F)c(F)c(F)c(F)c6F)c6nc(c(-c7c(F)c(F)c(F)c(F)c7F)c7ccc4[nH]7)C=C6)C=C5)cc3)C2)nc(C)n1
REMARK SMILES IDX 14 1 13 2 12 3 10 4 11 5 9 7 6 8 7 9 82 10 8 11 5 12 4 14
REMARK SMILES IDX 1 15 2 16 3 17 86 18 84 19 83 20 85 21 15 22 16 23 17 24
REMARK SMILES IDX 18 26 19 27 20 28 81 29 21 30 80 31 22 32 23 33 24 34 74 35
REMARK SMILES IDX 25 36 79 37 73 38 75 39 26 40 78 41 72 42 71 43 27 45 59 46
REMARK SMILES IDX 39 47 58 48 40 49 43 50 57 51 76 52 41 53 42 54 56 56 77 57
REMARK SMILES IDX 44 58 28 59 29 60 37 61 30 62 31 63 35 64 38 65 32 66 33 67
REMARK SMILES IDX 36 68 34 69 60 70 61 71 69 72 62 73 63 74 67 75 70 76 64 77
REMARK SMILES IDX 65 78 68 79 66 80 45 81 46 82 54 83 47 84 48 85 52 86 55 87
REMARK SMILES IDX 49 88 50 89 53 90 51 91
REMARK H PARENT 12 6 5 13 16 25 75 44 43 55
REMARK Flexibility Score: inf
ROOT
ATOM      1  C   UNL A   1      31.554  32.203  26.607  1.00  0.00     0.042 C 
ENDROOT
BRANCH   1   2
ATOM      2  C   UNL A   1      31.774  30.739  26.262  1.00  0.00     0.117 C 
BRANCH   2   3
ATOM      3  N   UNL A   1      33.142  30.345  26.540  1.00  0.00    -0.356 N 
ATOM      4  C   UNL A   1      33.707  29.124  26.691  1.00  0.00     0.227 C 
ATOM      5  O   UNL A   1      34.879  29.090  27.077  1.00  0.00    -0.274 OA
ATOM      6  H   UNL A   1      33.769  31.098  26.637  1.00  0.00     0.163 HD
BRANCH   4   7
ATOM      7  C   UNL A   1      32.963  27.834  26.380  1.00  0.00     0.103 C 
ATOM      8  C   UNL A   1      30.662  27.004  26.202  1.00  0.00     0.104 C 
ATOM      9  C   UNL A   1      31.260  27.267  24.860  1.00  0.00    -0.006 C 
ATOM     10  C   UNL A   1      31.690  27.569  27.195  1.00  0.00     0.046 C 
ATOM     11  C   UNL A   1      32.514  27.731  24.948  1.00  0.00    -0.016 C 
BRANCH   8  12
ATOM     12  N   UNL A   1      30.357  25.602  26.375  1.00  0.00    -0.364 N 
ATOM     13  H   UNL A   1      29.480  25.432  26.787  1.00  0.00     0.162 HD
BRANCH  12  14
ATOM     14  C   UNL A   1      31.059  24.470  26.074  1.00  0.00     0.130 A 
ATOM     15  C   UNL A   1      32.011  22.156  23.296  1.00  0.00     0.067 C 
ATOM     16  C   UNL A   1      31.905  22.770  24.660  1.00  0.00     0.043 A 
ATOM     17  C   UNL A   1      31.067  23.848  24.850  1.00  0.00     0.070 A 
ATOM     18  N   UNL A   1      32.643  22.261  25.655  1.00  0.00    -0.238 NA
ATOM     19  C   UNL A   1      32.530  22.875  26.846  1.00  0.00     0.127 A 
ATOM     20  N   UNL A   1      31.781  23.971  27.088  1.00  0.00    -0.216 NA
ATOM     21  C   UNL A   1      33.265  22.276  28.001  1.00  0.00     0.090 C 
ENDBRANCH  12  14
ENDBRANCH   8  12
ENDBRANCH   4   7
ENDBRANCH   2   3
ENDBRANCH   1   2
BRANCH   1  22
ATOM     22  C   UNL A   1      32.771  32.838  27.261  1.00  0.00     0.118 C 
BRANCH  22  23
ATOM     23  N   UNL A   1      32.528  34.228  27.626  1.00  0.00    -0.352 N 
ATOM     24  C   UNL A   1      33.009  34.925  28.706  1.00  0.00     0.251 C 
ATOM     25  H   UNL A   1      31.942  34.734  27.018  1.00  0.00     0.163 HD
ATOM     26  O   UNL A   1      32.528  36.008  29.024  1.00  0.00    -0.269 OA
BRANCH  24  27
ATOM     27  C   UNL A   1      34.108  34.338  29.490  1.00  0.00     0.039 A 
ATOM     28  C   UNL A   1      33.814  33.616  30.648  1.00  0.00     0.014 A 
ATOM     29  C   UNL A   1      35.426  34.482  29.048  1.00  0.00     0.014 A 
ATOM     30  C   UNL A   1      34.849  32.986  31.337  1.00  0.00     0.010 A 
ATOM     31  C   UNL A   1      36.442  33.784  29.684  1.00  0.00     0.010 A 
ATOM     32  C   UNL A   1      36.164  33.049  30.845  1.00  0.00    -0.014 A 
BRANCH  32  33
ATOM     33  C   UNL A   1      37.282  32.411  31.572  1.00  0.00     0.031 A 
ATOM     34  C   UNL A   1      38.012  31.267  30.932  1.00  0.00     0.074 A 
ATOM     35  C   UNL A   1      37.614  32.835  32.805  1.00  0.00     0.049 A 
ATOM     36  N   UNL A   1      39.012  30.564  31.392  1.00  0.00    -0.248 NA
ATOM     37  C   UNL A   1      37.539  30.844  29.602  1.00  0.00     0.031 C 
ATOM     38  C   UNL A   1      36.951  33.916  33.534  1.00  0.00     0.029 A 
ATOM     39  N   UNL A   1      38.598  32.409  33.658  1.00  0.00    -0.354 N 
ATOM     40  C   UNL A   1      39.293  29.628  30.407  1.00  0.00     0.074 A 
ATOM     41  C   UNL A   1      38.308  29.795  29.362  1.00  0.00     0.031 C 
ATOM     42  C   UNL A   1      37.573  34.096  34.710  1.00  0.00     0.029 A 
ATOM     43  C   UNL A   1      38.660  33.127  34.827  1.00  0.00     0.049 A 
ATOM     44  H   UNL A   1      39.203  31.659  33.453  1.00  0.00     0.167 HD
ATOM     45  C   UNL A   1      40.310  28.737  30.357  1.00  0.00     0.037 A 
ATOM     46  C   UNL A   1      39.511  33.018  35.864  1.00  0.00     0.037 A 
ATOM     47  C   UNL A   1      41.292  28.583  31.393  1.00  0.00     0.049 A 
ATOM     48  C   UNL A   1      40.593  31.975  35.818  1.00  0.00     0.074 A 
ATOM     49  C   UNL A   1      42.382  27.734  31.430  1.00  0.00     0.029 A 
ATOM     50  N   UNL A   1      41.295  29.298  32.583  1.00  0.00    -0.354 N 
ATOM     51  N   UNL A   1      40.888  31.133  34.857  1.00  0.00    -0.248 NA
ATOM     52  C   UNL A   1      41.460  31.866  36.999  1.00  0.00     0.031 C 
ATOM     53  C   UNL A   1      43.026  27.908  32.659  1.00  0.00     0.029 A 
ATOM     54  C   UNL A   1      42.357  28.892  33.373  1.00  0.00     0.049 A 
ATOM     55  H   UNL A   1      40.640  29.990  32.828  1.00  0.00     0.167 HD
ATOM     56  C   UNL A   1      41.983  30.409  35.306  1.00  0.00     0.074 A 
ATOM     57  C   UNL A   1      42.308  30.917  36.624  1.00  0.00     0.031 C 
ATOM     58  C   UNL A   1      42.660  29.414  34.681  1.00  0.00     0.037 A 
BRANCH  45  59
ATOM     59  C   UNL A   1      40.414  27.889  29.125  1.00  0.00     0.064 A 
ATOM     60  C   UNL A   1      41.233  28.268  28.050  1.00  0.00     0.173 A 
ATOM     61  C   UNL A   1      39.699  26.689  29.017  1.00  0.00     0.173 A 
ATOM     62  F   UNL A   1      41.923  29.418  28.100  1.00  0.00    -0.203 F 
ATOM     63  C   UNL A   1      41.305  27.493  26.896  1.00  0.00     0.198 A 
ATOM     64  C   UNL A   1      39.796  25.901  27.873  1.00  0.00     0.198 A 
ATOM     65  F   UNL A   1      38.903  26.282  30.016  1.00  0.00    -0.203 F 
ATOM     66  F   UNL A   1      42.051  27.904  25.861  1.00  0.00    -0.200 F 
ATOM     67  C   UNL A   1      40.591  26.308  26.811  1.00  0.00     0.200 A 
ATOM     68  F   UNL A   1      39.112  24.751  27.793  1.00  0.00    -0.200 F 
ATOM     69  F   UNL A   1      40.662  25.561  25.700  1.00  0.00    -0.200 F 
ENDBRANCH  45  59
BRANCH  46  70
ATOM     70  C   UNL A   1      39.407  33.967  37.000  1.00  0.00     0.064 A 
ATOM     71  C   UNL A   1      38.652  33.637  38.133  1.00  0.00     0.173 A 
ATOM     72  C   UNL A   1      40.084  35.195  37.000  1.00  0.00     0.173 A 
ATOM     73  F   UNL A   1      37.975  32.480  38.171  1.00  0.00    -0.203 F 
ATOM     74  C   UNL A   1      38.575  34.499  39.224  1.00  0.00     0.198 A 
ATOM     75  C   UNL A   1      40.022  36.049  38.100  1.00  0.00     0.198 A 
ATOM     76  F   UNL A   1      40.824  35.554  35.941  1.00  0.00    -0.203 F 
ATOM     77  F   UNL A   1      37.831  34.167  40.288  1.00  0.00    -0.200 F 
ATOM     78  C   UNL A   1      39.266  35.701  39.210  1.00  0.00     0.200 A 
ATOM     79  F   UNL A   1      40.702  37.204  38.088  1.00  0.00    -0.200 F 
ATOM     80  F   UNL A   1      39.204  36.525  40.266  1.00  0.00    -0.200 F 
ENDBRANCH  46  70
BRANCH  58  81
ATOM     81  C   UNL A   1      43.822  28.804  35.404  1.00  0.00     0.064 A 
ATOM     82  C   UNL A   1      45.120  29.312  35.251  1.00  0.00     0.173 A 
ATOM     83  C   UNL A   1      43.620  27.771  36.331  1.00  0.00     0.173 A 
ATOM     84  F   UNL A   1      45.362  30.290  34.366  1.00  0.00    -0.203 F 
ATOM     85  C   UNL A   1      46.176  28.806  36.003  1.00  0.00     0.198 A 
ATOM     86  C   UNL A   1      44.674  27.284  37.099  1.00  0.00     0.198 A 
ATOM     87  F   UNL A   1      42.394  27.260  36.516  1.00  0.00    -0.203 F 
ATOM     88  F   UNL A   1      47.413  29.292  35.830  1.00  0.00    -0.200 F 
ATOM     89  C   UNL A   1      45.951  27.801  36.934  1.00  0.00     0.200 A 
ATOM     90  F   UNL A   1      44.451  26.325  38.008  1.00  0.00    -0.200 F 
ATOM     91  F   UNL A   1      46.964  27.332  37.674  1.00  0.00    -0.200 F 
ENDBRANCH  58  81
ENDBRANCH  32  33
ENDBRANCH  24  27
ENDBRANCH  22  23
ENDBRANCH   1  22
TORSDOF 12
ENDMDL
