MODEL 1
REMARK VINA RESULT:     -12.7      0.000      0.000
REMARK SMILES CC(C)(C)[C@@H]1CC(C(=O)NCCCNC(=O)c2ccc(-c3c4nc(c(-c5c(F)c(F)c(F)c(F)c5F)c5ccc([nH]5)c(-c5c(F)c(F)c(F)c(F)c5F)c5nc(c(-c6c(F)c(F)c(F)c(F)c6F)c6ccc3[nH]6)C=C5)C=C4)cc2)C[C@@H](C(C)(C)C)C1
REMARK SMILES IDX 12 1 11 2 10 3 8 4 9 5 7 7 5 8 6 9 86 10 81 11 80 12 2 13
REMARK SMILES IDX 1 14 3 15 4 16 82 17 83 18 84 19 85 20 13 21 14 22 15 23
REMARK SMILES IDX 16 25 17 26 18 27 79 28 19 29 78 30 20 31 21 32 22 33 72 34
REMARK SMILES IDX 23 35 77 36 71 37 73 38 24 39 76 40 70 41 69 42 25 44 57 45
REMARK SMILES IDX 37 46 56 47 38 48 41 49 55 50 74 51 39 52 40 53 54 55 75 56
REMARK SMILES IDX 42 57 26 58 27 59 35 60 28 61 29 62 33 63 36 64 30 65 31 66
REMARK SMILES IDX 34 67 32 68 58 69 59 70 67 71 60 72 61 73 65 74 68 75 62 76
REMARK SMILES IDX 63 77 66 78 64 79 43 80 44 81 52 82 45 83 46 84 50 85 53 86
REMARK SMILES IDX 47 87 48 88 51 89 49 90
REMARK H PARENT 10 6 14 24 73 43 41 54
REMARK Flexibility Score: inf
ROOT
ATOM      1  C   UNL A   1      31.575  31.980  26.855  1.00  0.00     0.042 C 
ENDROOT
BRANCH   1   2
ATOM      2  C   UNL A   1      31.949  30.672  26.173  1.00  0.00     0.117 C 
BRANCH   2   3
ATOM      3  N   UNL A   1      33.155  30.084  26.740  1.00  0.00    -0.356 N 
ATOM      4  C   UNL A   1      33.674  28.828  26.670  1.00  0.00     0.223 C 
ATOM      5  O   UNL A   1      34.696  28.601  27.322  1.00  0.00    -0.275 OA
ATOM      6  H   UNL A   1      33.693  30.712  27.272  1.00  0.00     0.163 HD
BRANCH   4   7
ATOM      7  C   UNL A   1      33.046  27.739  25.805  1.00  0.00     0.079 C 
ATOM      8  C   UNL A   1      33.253  25.223  25.179  1.00  0.00    -0.005 C 
ATOM      9  C   UNL A   1      33.918  26.482  25.763  1.00  0.00     0.017 C 
ATOM     10  C   UNL A   1      31.780  25.084  25.635  1.00  0.00     0.008 C 
ATOM     11  C   UNL A   1      30.901  26.353  25.504  1.00  0.00    -0.005 C 
ATOM     12  C   UNL A   1      31.594  27.518  26.218  1.00  0.00     0.017 C 
BRANCH   8  13
ATOM     13  C   UNL A   1      34.117  23.915  25.411  1.00  0.00    -0.035 C 
ATOM     14  C   UNL A   1      33.765  22.857  24.340  1.00  0.00     0.011 C 
ATOM     15  C   UNL A   1      33.799  23.296  26.789  1.00  0.00     0.011 C 
ATOM     16  C   UNL A   1      35.638  24.165  25.348  1.00  0.00     0.011 C 
ENDBRANCH   8  13
BRANCH  11  17
ATOM     17  C   UNL A   1      30.297  26.657  24.078  1.00  0.00    -0.035 C 
ATOM     18  C   UNL A   1      30.373  28.162  23.737  1.00  0.00     0.011 C 
ATOM     19  C   UNL A   1      30.948  25.888  22.919  1.00  0.00     0.011 C 
ATOM     20  C   UNL A   1      28.796  26.275  24.094  1.00  0.00     0.011 C 
ENDBRANCH  11  17
ENDBRANCH   4   7
ENDBRANCH   2   3
ENDBRANCH   1   2
BRANCH   1  21
ATOM     21  C   UNL A   1      32.776  32.762  27.358  1.00  0.00     0.118 C 
BRANCH  21  22
ATOM     22  N   UNL A   1      32.459  34.157  27.633  1.00  0.00    -0.352 N 
ATOM     23  C   UNL A   1      32.985  35.000  28.581  1.00  0.00     0.251 C 
ATOM     24  H   UNL A   1      31.766  34.552  27.057  1.00  0.00     0.163 HD
ATOM     25  O   UNL A   1      32.466  36.089  28.802  1.00  0.00    -0.269 OA
BRANCH  23  26
ATOM     26  C   UNL A   1      34.171  34.577  29.353  1.00  0.00     0.039 A 
ATOM     27  C   UNL A   1      33.998  33.999  30.613  1.00  0.00     0.014 A 
ATOM     28  C   UNL A   1      35.449  34.728  28.813  1.00  0.00     0.014 A 
ATOM     29  C   UNL A   1      35.106  33.493  31.297  1.00  0.00     0.010 A 
ATOM     30  C   UNL A   1      36.534  34.140  29.449  1.00  0.00     0.010 A 
ATOM     31  C   UNL A   1      36.375  33.520  30.699  1.00  0.00    -0.014 A 
BRANCH  31  32
ATOM     32  C   UNL A   1      37.573  32.931  31.346  1.00  0.00     0.031 A 
ATOM     33  C   UNL A   1      38.260  31.765  30.693  1.00  0.00     0.074 A 
ATOM     34  C   UNL A   1      37.951  33.344  32.569  1.00  0.00     0.049 A 
ATOM     35  N   UNL A   1      39.171  30.961  31.176  1.00  0.00    -0.248 NA
ATOM     36  C   UNL A   1      37.823  31.432  29.328  1.00  0.00     0.031 C 
ATOM     37  C   UNL A   1      37.329  34.430  33.327  1.00  0.00     0.029 A 
ATOM     38  N   UNL A   1      38.928  32.869  33.408  1.00  0.00    -0.354 N 
ATOM     39  C   UNL A   1      39.379  30.000  30.196  1.00  0.00     0.074 A 
ATOM     40  C   UNL A   1      38.470  30.298  29.109  1.00  0.00     0.031 C 
ATOM     41  C   UNL A   1      37.937  34.537  34.519  1.00  0.00     0.029 A 
ATOM     42  C   UNL A   1      38.958  33.499  34.628  1.00  0.00     0.049 A 
ATOM     43  H   UNL A   1      39.549  32.146  33.159  1.00  0.00     0.167 HD
ATOM     44  C   UNL A   1      40.257  28.971  30.197  1.00  0.00     0.037 A 
ATOM     45  C   UNL A   1      39.706  33.250  35.720  1.00  0.00     0.037 A 
ATOM     46  C   UNL A   1      41.193  28.716  31.259  1.00  0.00     0.049 A 
ATOM     47  C   UNL A   1      40.707  32.129  35.686  1.00  0.00     0.074 A 
ATOM     48  C   UNL A   1      42.193  27.761  31.318  1.00  0.00     0.029 A 
ATOM     49  N   UNL A   1      41.242  29.424  32.451  1.00  0.00    -0.354 N 
ATOM     50  N   UNL A   1      40.945  31.265  34.729  1.00  0.00    -0.248 NA
ATOM     51  C   UNL A   1      41.547  31.950  36.878  1.00  0.00     0.031 C 
ATOM     52  C   UNL A   1      42.822  27.866  32.563  1.00  0.00     0.029 A 
ATOM     53  C   UNL A   1      42.244  28.915  33.262  1.00  0.00     0.049 A 
ATOM     54  H   UNL A   1      40.653  30.177  32.686  1.00  0.00     0.167 HD
ATOM     55  C   UNL A   1      41.975  30.457  35.190  1.00  0.00     0.074 A 
ATOM     56  C   UNL A   1      42.321  30.937  36.512  1.00  0.00     0.031 C 
ATOM     57  C   UNL A   1      42.581  29.414  34.570  1.00  0.00     0.037 A 
BRANCH  44  58
ATOM     58  C   UNL A   1      40.237  28.045  29.016  1.00  0.00     0.064 A 
ATOM     59  C   UNL A   1      39.502  26.850  29.023  1.00  0.00     0.173 A 
ATOM     60  C   UNL A   1      40.967  28.357  27.859  1.00  0.00     0.173 A 
ATOM     61  F   UNL A   1      38.795  26.499  30.109  1.00  0.00    -0.203 F 
ATOM     62  C   UNL A   1      39.534  25.981  27.935  1.00  0.00     0.198 A 
ATOM     63  C   UNL A   1      40.971  27.502  26.760  1.00  0.00     0.198 A 
ATOM     64  F   UNL A   1      41.683  29.490  27.795  1.00  0.00    -0.203 F 
ATOM     65  F   UNL A   1      38.878  24.814  27.994  1.00  0.00    -0.200 F 
ATOM     66  C   UNL A   1      40.265  26.310  26.803  1.00  0.00     0.200 A 
ATOM     67  F   UNL A   1      41.667  27.827  25.661  1.00  0.00    -0.200 F 
ATOM     68  F   UNL A   1      40.297  25.470  25.760  1.00  0.00    -0.200 F 
ENDBRANCH  44  58
BRANCH  45  69
ATOM     69  C   UNL A   1      39.535  34.096  36.928  1.00  0.00     0.064 A 
ATOM     70  C   UNL A   1      38.738  33.667  37.998  1.00  0.00     0.173 A 
ATOM     71  C   UNL A   1      40.200  35.325  37.059  1.00  0.00     0.173 A 
ATOM     72  F   UNL A   1      38.070  32.508  37.911  1.00  0.00    -0.203 F 
ATOM     73  C   UNL A   1      38.607  34.438  39.151  1.00  0.00     0.198 A 
ATOM     74  C   UNL A   1      40.086  36.083  38.221  1.00  0.00     0.198 A 
ATOM     75  F   UNL A   1      40.983  35.774  36.066  1.00  0.00    -0.203 F 
ATOM     76  F   UNL A   1      37.819  34.017  40.149  1.00  0.00    -0.200 F 
ATOM     77  C   UNL A   1      39.288  35.641  39.265  1.00  0.00     0.200 A 
ATOM     78  F   UNL A   1      40.760  37.237  38.335  1.00  0.00    -0.200 F 
ATOM     79  F   UNL A   1      39.175  36.374  40.381  1.00  0.00    -0.200 F 
ENDBRANCH  45  69
BRANCH  57  80
ATOM     80  C   UNL A   1      43.706  28.739  35.293  1.00  0.00     0.064 A 
ATOM     81  C   UNL A   1      45.039  29.132  35.111  1.00  0.00     0.173 A 
ATOM     82  C   UNL A   1      43.437  27.738  36.240  1.00  0.00     0.173 A 
ATOM     83  F   UNL A   1      45.347  30.075  34.208  1.00  0.00    -0.203 F 
ATOM     84  C   UNL A   1      46.064  28.543  35.847  1.00  0.00     0.198 A 
ATOM     85  C   UNL A   1      44.461  27.169  36.991  1.00  0.00     0.198 A 
ATOM     86  F   UNL A   1      42.177  27.330  36.453  1.00  0.00    -0.203 F 
ATOM     87  F   UNL A   1      47.335  28.917  35.640  1.00  0.00    -0.200 F 
ATOM     88  C   UNL A   1      45.774  27.570  36.792  1.00  0.00     0.200 A 
ATOM     89  F   UNL A   1      44.177  26.237  37.912  1.00  0.00    -0.200 F 
ATOM     90  F   UNL A   1      46.760  27.016  37.511  1.00  0.00    -0.200 F 
ENDBRANCH  57  80
ENDBRANCH  31  32
ENDBRANCH  23  26
ENDBRANCH  21  22
ENDBRANCH   1  21
TORSDOF 12
ENDMDL
MODEL 2
REMARK VINA RESULT:     -12.7      0.254      1.703
REMARK SMILES CC(C)(C)[C@@H]1CC(C(=O)NCCCNC(=O)c2ccc(-c3c4nc(c(-c5c(F)c(F)c(F)c(F)c5F)c5ccc([nH]5)c(-c5c(F)c(F)c(F)c(F)c5F)c5nc(c(-c6c(F)c(F)c(F)c(F)c6F)c6ccc3[nH]6)C=C5)C=C4)cc2)C[C@@H](C(C)(C)C)C1
REMARK SMILES IDX 12 1 11 2 10 3 8 4 9 5 7 7 5 8 6 9 86 10 81 11 80 12 2 13
REMARK SMILES IDX 1 14 3 15 4 16 82 17 83 18 84 19 85 20 13 21 14 22 15 23
REMARK SMILES IDX 16 25 17 26 18 27 79 28 19 29 78 30 20 31 21 32 22 33 72 34
REMARK SMILES IDX 23 35 77 36 71 37 73 38 24 39 76 40 70 41 69 42 25 44 57 45
REMARK SMILES IDX 37 46 56 47 38 48 41 49 55 50 74 51 39 52 40 53 54 55 75 56
REMARK SMILES IDX 42 57 26 58 27 59 35 60 28 61 29 62 33 63 36 64 30 65 31 66
REMARK SMILES IDX 34 67 32 68 58 69 59 70 67 71 60 72 61 73 65 74 68 75 62 76
REMARK SMILES IDX 63 77 66 78 64 79 43 80 44 81 52 82 45 83 46 84 50 85 53 86
REMARK SMILES IDX 47 87 48 88 51 89 49 90
REMARK H PARENT 10 6 14 24 73 43 41 54
REMARK Flexibility Score: inf
ROOT
ATOM      1  C   UNL A   1      31.560  31.915  26.820  1.00  0.00     0.042 C 
ENDROOT
BRANCH   1   2
ATOM      2  C   UNL A   1      31.926  30.601  26.145  1.00  0.00     0.117 C 
BRANCH   2   3
ATOM      3  N   UNL A   1      33.151  30.029  26.688  1.00  0.00    -0.356 N 
ATOM      4  C   UNL A   1      33.675  28.775  26.625  1.00  0.00     0.223 C 
ATOM      5  O   UNL A   1      34.717  28.565  27.251  1.00  0.00    -0.275 OA
ATOM      6  H   UNL A   1      33.700  30.669  27.195  1.00  0.00     0.163 HD
BRANCH   4   7
ATOM      7  C   UNL A   1      33.030  27.668  25.796  1.00  0.00     0.079 C 
ATOM      8  C   UNL A   1      33.226  25.140  25.217  1.00  0.00    -0.005 C 
ATOM      9  C   UNL A   1      33.903  26.411  25.761  1.00  0.00     0.017 C 
ATOM     10  C   UNL A   1      31.763  25.010  25.707  1.00  0.00     0.008 C 
ATOM     11  C   UNL A   1      30.881  26.276  25.568  1.00  0.00    -0.005 C 
ATOM     12  C   UNL A   1      31.588  27.455  26.243  1.00  0.00     0.017 C 
BRANCH   8  13
ATOM     13  C   UNL A   1      34.095  23.837  25.457  1.00  0.00    -0.035 C 
ATOM     14  C   UNL A   1      35.599  24.188  25.377  1.00  0.00     0.011 C 
ATOM     15  C   UNL A   1      33.810  22.788  24.362  1.00  0.00     0.011 C 
ATOM     16  C   UNL A   1      33.837  23.170  26.824  1.00  0.00     0.011 C 
ENDBRANCH   8  13
BRANCH  11  17
ATOM     17  C   UNL A   1      30.246  26.550  24.149  1.00  0.00    -0.035 C 
ATOM     18  C   UNL A   1      30.457  28.015  23.705  1.00  0.00     0.011 C 
ATOM     19  C   UNL A   1      30.763  25.646  23.021  1.00  0.00     0.011 C 
ATOM     20  C   UNL A   1      28.717  26.328  24.249  1.00  0.00     0.011 C 
ENDBRANCH  11  17
ENDBRANCH   4   7
ENDBRANCH   2   3
ENDBRANCH   1   2
BRANCH   1  21
ATOM     21  C   UNL A   1      32.761  32.663  27.372  1.00  0.00     0.118 C 
BRANCH  21  22
ATOM     22  N   UNL A   1      32.475  34.069  27.626  1.00  0.00    -0.352 N 
ATOM     23  C   UNL A   1      33.025  34.917  28.557  1.00  0.00     0.251 C 
ATOM     24  H   UNL A   1      31.787  34.469  27.048  1.00  0.00     0.163 HD
ATOM     25  O   UNL A   1      32.529  36.019  28.764  1.00  0.00    -0.269 OA
BRANCH  23  26
ATOM     26  C   UNL A   1      34.207  34.481  29.328  1.00  0.00     0.039 A 
ATOM     27  C   UNL A   1      34.025  33.795  30.531  1.00  0.00     0.014 A 
ATOM     28  C   UNL A   1      35.491  34.729  28.843  1.00  0.00     0.014 A 
ATOM     29  C   UNL A   1      35.135  33.281  31.206  1.00  0.00     0.010 A 
ATOM     30  C   UNL A   1      36.583  34.136  29.462  1.00  0.00     0.010 A 
ATOM     31  C   UNL A   1      36.417  33.410  30.652  1.00  0.00    -0.014 A 
BRANCH  31  32
ATOM     32  C   UNL A   1      37.622  32.820  31.286  1.00  0.00     0.031 A 
ATOM     33  C   UNL A   1      38.325  31.681  30.606  1.00  0.00     0.074 A 
ATOM     34  C   UNL A   1      37.992  33.207  32.520  1.00  0.00     0.049 A 
ATOM     35  N   UNL A   1      39.246  30.876  31.069  1.00  0.00    -0.248 NA
ATOM     36  C   UNL A   1      37.895  31.376  29.232  1.00  0.00     0.031 C 
ATOM     37  C   UNL A   1      37.356  34.265  33.305  1.00  0.00     0.029 A 
ATOM     38  N   UNL A   1      38.975  32.723  33.349  1.00  0.00    -0.354 N 
ATOM     39  C   UNL A   1      39.467  29.943  30.065  1.00  0.00     0.074 A 
ATOM     40  C   UNL A   1      38.556  30.257  28.985  1.00  0.00     0.031 C 
ATOM     41  C   UNL A   1      37.960  34.350  34.500  1.00  0.00     0.029 A 
ATOM     42  C   UNL A   1      38.994  33.322  34.584  1.00  0.00     0.049 A 
ATOM     43  H   UNL A   1      39.605  32.015  33.082  1.00  0.00     0.167 HD
ATOM     44  C   UNL A   1      40.359  28.926  30.042  1.00  0.00     0.037 A 
ATOM     45  C   UNL A   1      39.744  33.055  35.671  1.00  0.00     0.037 A 
ATOM     46  C   UNL A   1      41.296  28.656  31.099  1.00  0.00     0.049 A 
ATOM     47  C   UNL A   1      40.759  31.949  35.610  1.00  0.00     0.074 A 
ATOM     48  C   UNL A   1      42.308  27.713  31.135  1.00  0.00     0.029 A 
ATOM     49  N   UNL A   1      41.334  29.334  32.309  1.00  0.00    -0.354 N 
ATOM     50  N   UNL A   1      41.010  31.112  34.632  1.00  0.00    -0.248 NA
ATOM     51  C   UNL A   1      41.600  31.750  36.799  1.00  0.00     0.031 C 
ATOM     52  C   UNL A   1      42.934  27.794  32.384  1.00  0.00     0.029 A 
ATOM     53  C   UNL A   1      42.341  28.818  33.108  1.00  0.00     0.049 A 
ATOM     54  H   UNL A   1      40.735  30.073  32.561  1.00  0.00     0.167 HD
ATOM     55  C   UNL A   1      42.050  30.307  35.075  1.00  0.00     0.074 A 
ATOM     56  C   UNL A   1      42.387  30.757  36.409  1.00  0.00     0.031 C 
ATOM     57  C   UNL A   1      42.670  29.288  34.429  1.00  0.00     0.037 A 
BRANCH  44  58
ATOM     58  C   UNL A   1      40.353  28.030  28.837  1.00  0.00     0.064 A 
ATOM     59  C   UNL A   1      39.621  26.833  28.808  1.00  0.00     0.173 A 
ATOM     60  C   UNL A   1      41.093  28.373  27.696  1.00  0.00     0.173 A 
ATOM     61  F   UNL A   1      38.905  26.453  29.877  1.00  0.00    -0.203 F 
ATOM     62  C   UNL A   1      39.666  25.993  27.699  1.00  0.00     0.198 A 
ATOM     63  C   UNL A   1      41.109  27.546  26.575  1.00  0.00     0.198 A 
ATOM     64  F   UNL A   1      41.806  29.509  27.667  1.00  0.00    -0.203 F 
ATOM     65  F   UNL A   1      39.013  24.822  27.721  1.00  0.00    -0.200 F 
ATOM     66  C   UNL A   1      40.406  26.351  26.582  1.00  0.00     0.200 A 
ATOM     67  F   UNL A   1      41.815  27.901  25.493  1.00  0.00    -0.200 F 
ATOM     68  F   UNL A   1      40.451  25.539  25.518  1.00  0.00    -0.200 F 
ENDBRANCH  44  58
BRANCH  45  69
ATOM     69  C   UNL A   1      39.560  33.868  36.900  1.00  0.00     0.064 A 
ATOM     70  C   UNL A   1      40.155  35.132  37.020  1.00  0.00     0.173 A 
ATOM     71  C   UNL A   1      38.751  33.423  37.955  1.00  0.00     0.173 A 
ATOM     72  F   UNL A   1      40.950  35.592  36.044  1.00  0.00    -0.203 F 
ATOM     73  C   UNL A   1      39.951  35.917  38.153  1.00  0.00     0.198 A 
ATOM     74  C   UNL A   1      38.530  34.219  39.077  1.00  0.00     0.198 A 
ATOM     75  F   UNL A   1      38.151  32.225  37.883  1.00  0.00    -0.203 F 
ATOM     76  F   UNL A   1      40.551  37.110  38.254  1.00  0.00    -0.200 F 
ATOM     77  C   UNL A   1      39.132  35.464  39.176  1.00  0.00     0.200 A 
ATOM     78  F   UNL A   1      37.724  33.784  40.056  1.00  0.00    -0.200 F 
ATOM     79  F   UNL A   1      38.924  36.226  40.258  1.00  0.00    -0.200 F 
ENDBRANCH  45  69
BRANCH  57  80
ATOM     80  C   UNL A   1      43.803  28.609  35.137  1.00  0.00     0.064 A 
ATOM     81  C   UNL A   1      43.598  27.476  35.937  1.00  0.00     0.173 A 
ATOM     82  C   UNL A   1      45.121  29.052  34.946  1.00  0.00     0.173 A 
ATOM     83  F   UNL A   1      42.355  27.024  36.160  1.00  0.00    -0.203 F 
ATOM     84  C   UNL A   1      44.672  26.815  36.526  1.00  0.00     0.198 A 
ATOM     85  C   UNL A   1      46.194  28.373  35.517  1.00  0.00     0.198 A 
ATOM     86  F   UNL A   1      45.369  30.128  34.185  1.00  0.00    -0.203 F 
ATOM     87  F   UNL A   1      44.452  25.748  37.308  1.00  0.00    -0.200 F 
ATOM     88  C   UNL A   1      45.969  27.257  36.308  1.00  0.00     0.200 A 
ATOM     89  F   UNL A   1      47.447  28.796  35.294  1.00  0.00    -0.200 F 
ATOM     90  F   UNL A   1      47.002  26.609  36.863  1.00  0.00    -0.200 F 
ENDBRANCH  57  80
ENDBRANCH  31  32
ENDBRANCH  23  26
ENDBRANCH  21  22
ENDBRANCH   1  21
TORSDOF 12
ENDMDL
MODEL 3
REMARK VINA RESULT:     -12.6      6.003     11.362
REMARK SMILES CC(C)(C)[C@@H]1CC(C(=O)NCCCNC(=O)c2ccc(-c3c4nc(c(-c5c(F)c(F)c(F)c(F)c5F)c5ccc([nH]5)c(-c5c(F)c(F)c(F)c(F)c5F)c5nc(c(-c6c(F)c(F)c(F)c(F)c6F)c6ccc3[nH]6)C=C5)C=C4)cc2)C[C@@H](C(C)(C)C)C1
REMARK SMILES IDX 12 1 11 2 10 3 8 4 9 5 7 7 5 8 6 9 86 10 81 11 80 12 2 13
REMARK SMILES IDX 1 14 3 15 4 16 82 17 83 18 84 19 85 20 13 21 14 22 15 23
REMARK SMILES IDX 16 25 17 26 18 27 79 28 19 29 78 30 20 31 21 32 22 33 72 34
REMARK SMILES IDX 23 35 77 36 71 37 73 38 24 39 76 40 70 41 69 42 25 44 57 45
REMARK SMILES IDX 37 46 56 47 38 48 41 49 55 50 74 51 39 52 40 53 54 55 75 56
REMARK SMILES IDX 42 57 26 58 27 59 35 60 28 61 29 62 33 63 36 64 30 65 31 66
REMARK SMILES IDX 34 67 32 68 58 69 59 70 67 71 60 72 61 73 65 74 68 75 62 76
REMARK SMILES IDX 63 77 66 78 64 79 43 80 44 81 52 82 45 83 46 84 50 85 53 86
REMARK SMILES IDX 47 87 48 88 51 89 49 90
REMARK H PARENT 10 6 14 24 73 43 41 54
REMARK Flexibility Score: inf
ROOT
ATOM      1  C   UNL A   1      38.010  19.934  25.001  1.00  0.00     0.042 C 
ENDROOT
BRANCH   1   2
ATOM      2  C   UNL A   1      36.846  20.884  25.242  1.00  0.00     0.117 C 
BRANCH   2   3
ATOM      3  N   UNL A   1      37.293  22.186  25.718  1.00  0.00    -0.356 N 
ATOM      4  C   UNL A   1      36.702  23.412  25.702  1.00  0.00     0.223 C 
ATOM      5  O   UNL A   1      37.362  24.364  26.124  1.00  0.00    -0.275 OA
ATOM      6  H   UNL A   1      38.188  22.177  26.127  1.00  0.00     0.163 HD
BRANCH   4   7
ATOM      7  C   UNL A   1      35.271  23.616  25.210  1.00  0.00     0.079 C 
ATOM      8  C   UNL A   1      33.480  25.449  24.768  1.00  0.00    -0.005 C 
ATOM      9  C   UNL A   1      34.781  25.039  25.483  1.00  0.00     0.017 C 
ATOM     10  C   UNL A   1      33.427  24.915  23.315  1.00  0.00     0.008 C 
ATOM     11  C   UNL A   1      33.782  23.420  23.123  1.00  0.00    -0.005 C 
ATOM     12  C   UNL A   1      35.145  23.141  23.766  1.00  0.00     0.017 C 
BRANCH   8  13
ATOM     13  C   UNL A   1      33.184  27.001  24.886  1.00  0.00    -0.035 C 
ATOM     14  C   UNL A   1      33.903  27.579  26.126  1.00  0.00     0.011 C 
ATOM     15  C   UNL A   1      31.672  27.248  25.076  1.00  0.00     0.011 C 
ATOM     16  C   UNL A   1      33.640  27.809  23.654  1.00  0.00     0.011 C 
ENDBRANCH   8  13
BRANCH  11  17
ATOM     17  C   UNL A   1      32.637  22.372  23.413  1.00  0.00    -0.035 C 
ATOM     18  C   UNL A   1      33.154  21.182  24.251  1.00  0.00     0.011 C 
ATOM     19  C   UNL A   1      31.404  22.941  24.131  1.00  0.00     0.011 C 
ATOM     20  C   UNL A   1      32.153  21.794  22.061  1.00  0.00     0.011 C 
ENDBRANCH  11  17
ENDBRANCH   4   7
ENDBRANCH   2   3
ENDBRANCH   1   2
BRANCH   1  21
ATOM     21  C   UNL A   1      39.259  20.300  25.785  1.00  0.00     0.118 C 
BRANCH  21  22
ATOM     22  N   UNL A   1      40.192  19.187  25.901  1.00  0.00    -0.352 N 
ATOM     23  C   UNL A   1      41.553  19.206  26.088  1.00  0.00     0.251 C 
ATOM     24  H   UNL A   1      39.789  18.292  25.835  1.00  0.00     0.163 HD
ATOM     25  O   UNL A   1      42.211  18.178  25.968  1.00  0.00    -0.269 OA
BRANCH  23  26
ATOM     26  C   UNL A   1      42.225  20.481  26.410  1.00  0.00     0.039 A 
ATOM     27  C   UNL A   1      42.753  21.258  25.376  1.00  0.00     0.014 A 
ATOM     28  C   UNL A   1      42.304  20.917  27.733  1.00  0.00     0.014 A 
ATOM     29  C   UNL A   1      43.286  22.516  25.663  1.00  0.00     0.010 A 
ATOM     30  C   UNL A   1      42.746  22.205  28.004  1.00  0.00     0.010 A 
ATOM     31  C   UNL A   1      43.245  23.016  26.973  1.00  0.00    -0.014 A 
BRANCH  31  32
ATOM     32  C   UNL A   1      43.729  24.374  27.323  1.00  0.00     0.031 A 
ATOM     33  C   UNL A   1      42.747  25.396  27.823  1.00  0.00     0.074 A 
ATOM     34  C   UNL A   1      45.001  24.726  27.060  1.00  0.00     0.049 A 
ATOM     35  N   UNL A   1      42.896  26.686  27.976  1.00  0.00    -0.248 NA
ATOM     36  C   UNL A   1      41.400  24.901  28.147  1.00  0.00     0.031 C 
ATOM     37  C   UNL A   1      46.033  23.839  26.524  1.00  0.00     0.029 A 
ATOM     38  N   UNL A   1      45.631  25.941  27.173  1.00  0.00    -0.354 N 
ATOM     39  C   UNL A   1      41.651  27.162  28.364  1.00  0.00     0.074 A 
ATOM     40  C   UNL A   1      40.750  26.030  28.383  1.00  0.00     0.031 C 
ATOM     41  C   UNL A   1      47.166  24.537  26.352  1.00  0.00     0.029 A 
ATOM     42  C   UNL A   1      46.928  25.929  26.720  1.00  0.00     0.049 A 
ATOM     43  H   UNL A   1      45.195  26.743  27.543  1.00  0.00     0.167 HD
ATOM     44  C   UNL A   1      41.295  28.427  28.688  1.00  0.00     0.037 A 
ATOM     45  C   UNL A   1      47.815  26.935  26.593  1.00  0.00     0.037 A 
ATOM     46  C   UNL A   1      42.212  29.535  28.717  1.00  0.00     0.049 A 
ATOM     47  C   UNL A   1      47.414  28.325  26.998  1.00  0.00     0.074 A 
ATOM     48  C   UNL A   1      41.979  30.837  29.125  1.00  0.00     0.029 A 
ATOM     49  N   UNL A   1      43.540  29.468  28.321  1.00  0.00    -0.354 N 
ATOM     50  N   UNL A   1      46.253  28.757  27.429  1.00  0.00    -0.248 NA
ATOM     51  C   UNL A   1      48.445  29.369  26.907  1.00  0.00     0.031 C 
ATOM     52  C   UNL A   1      43.158  31.568  28.938  1.00  0.00     0.029 A 
ATOM     53  C   UNL A   1      44.136  30.711  28.456  1.00  0.00     0.049 A 
ATOM     54  H   UNL A   1      43.991  28.657  27.992  1.00  0.00     0.167 HD
ATOM     55  C   UNL A   1      46.419  30.111  27.683  1.00  0.00     0.074 A 
ATOM     56  C   UNL A   1      47.794  30.431  27.363  1.00  0.00     0.031 C 
ATOM     57  C   UNL A   1      45.511  31.007  28.144  1.00  0.00     0.037 A 
BRANCH  44  58
ATOM     58  C   UNL A   1      39.854  28.674  29.028  1.00  0.00     0.064 A 
ATOM     59  C   UNL A   1      38.930  29.110  28.066  1.00  0.00     0.173 A 
ATOM     60  C   UNL A   1      39.391  28.473  30.337  1.00  0.00     0.173 A 
ATOM     61  F   UNL A   1      39.324  29.328  26.802  1.00  0.00    -0.203 F 
ATOM     62  C   UNL A   1      37.609  29.379  28.412  1.00  0.00     0.198 A 
ATOM     63  C   UNL A   1      38.061  28.711  30.672  1.00  0.00     0.198 A 
ATOM     64  F   UNL A   1      40.230  28.050  31.295  1.00  0.00    -0.203 F 
ATOM     65  F   UNL A   1      36.762  29.860  27.491  1.00  0.00    -0.200 F 
ATOM     66  C   UNL A   1      37.174  29.175  29.713  1.00  0.00     0.200 A 
ATOM     67  F   UNL A   1      37.639  28.501  31.927  1.00  0.00    -0.200 F 
ATOM     68  F   UNL A   1      35.903  29.438  30.044  1.00  0.00    -0.200 F 
ENDBRANCH  44  58
BRANCH  45  69
ATOM     69  C   UNL A   1      49.173  26.644  26.066  1.00  0.00     0.064 A 
ATOM     70  C   UNL A   1      49.498  26.918  24.731  1.00  0.00     0.173 A 
ATOM     71  C   UNL A   1      50.183  26.134  26.895  1.00  0.00     0.173 A 
ATOM     72  F   UNL A   1      48.561  27.392  23.898  1.00  0.00    -0.203 F 
ATOM     73  C   UNL A   1      50.783  26.687  24.243  1.00  0.00     0.198 A 
ATOM     74  C   UNL A   1      51.472  25.924  26.411  1.00  0.00     0.198 A 
ATOM     75  F   UNL A   1      49.923  25.865  28.183  1.00  0.00    -0.203 F 
ATOM     76  F   UNL A   1      51.062  26.934  22.956  1.00  0.00    -0.200 F 
ATOM     77  C   UNL A   1      51.770  26.199  25.085  1.00  0.00     0.200 A 
ATOM     78  F   UNL A   1      52.428  25.469  27.232  1.00  0.00    -0.200 F 
ATOM     79  F   UNL A   1      53.009  25.992  24.619  1.00  0.00    -0.200 F 
ENDBRANCH  45  69
BRANCH  57  80
ATOM     80  C   UNL A   1      45.978  32.413  28.367  1.00  0.00     0.064 A 
ATOM     81  C   UNL A   1      45.855  33.396  27.375  1.00  0.00     0.173 A 
ATOM     82  C   UNL A   1      46.483  32.798  29.619  1.00  0.00     0.173 A 
ATOM     83  F   UNL A   1      45.391  33.073  26.159  1.00  0.00    -0.203 F 
ATOM     84  C   UNL A   1      46.227  34.714  27.628  1.00  0.00     0.198 A 
ATOM     85  C   UNL A   1      46.831  34.121  29.874  1.00  0.00     0.198 A 
ATOM     86  F   UNL A   1      46.616  31.895  30.601  1.00  0.00    -0.203 F 
ATOM     87  F   UNL A   1      46.124  35.634  26.657  1.00  0.00    -0.200 F 
ATOM     88  C   UNL A   1      46.704  35.078  28.878  1.00  0.00     0.200 A 
ATOM     89  F   UNL A   1      47.281  34.473  31.087  1.00  0.00    -0.200 F 
ATOM     90  F   UNL A   1      47.045  36.350  29.123  1.00  0.00    -0.200 F 
ENDBRANCH  57  80
ENDBRANCH  31  32
ENDBRANCH  23  26
ENDBRANCH  21  22
ENDBRANCH   1  21
TORSDOF 12
ENDMDL
