MODEL 1
REMARK VINA RESULT:     -13.2      0.000      0.000
REMARK SMILES Cc1ccc(NC(=O)C[N@H+]2CCC[C@@H](C(=O)NCCCNC(=O)c3ccc(-c4c5nc(c(-c6c(F)c(F)c(F)c(F)c6F)c6ccc([nH]6)c(-c6c(F)c(F)c(F)c(F)c6F)c6nc(c(-c7c(F)c(F)c(F)c(F)c7F)c7ccc4[nH]7)C=C6)C=C5)cc3)C2)cc1Cl
REMARK SMILES IDX 18 1 17 2 15 3 16 4 14 6 10 7 11 8 87 9 12 11 13 12 9 13
REMARK SMILES IDX 7 14 6 15 8 17 5 18 1 19 2 20 3 21 89 22 4 23 88 24 90 25
REMARK SMILES IDX 19 26 20 27 21 28 22 29 23 31 24 32 25 33 86 34 26 35 85 36
REMARK SMILES IDX 27 37 28 38 29 39 79 40 30 41 84 42 78 43 80 44 31 45 83 46
REMARK SMILES IDX 77 47 76 48 32 50 64 51 44 52 63 53 45 54 48 55 62 56 81 57
REMARK SMILES IDX 46 58 47 59 61 61 82 62 49 63 33 64 34 65 42 66 35 67 36 68
REMARK SMILES IDX 40 69 43 70 37 71 38 72 41 73 39 74 65 75 66 76 74 77 67 78
REMARK SMILES IDX 68 79 72 80 75 81 69 82 70 83 73 84 71 85 50 86 51 87 59 88
REMARK SMILES IDX 52 89 53 90 57 91 60 92 54 93 55 94 58 95 56 96
REMARK H PARENT 17 5 10 10 6 16 21 30 80 49 48 60
REMARK Flexibility Score: inf
ROOT
ATOM      1  C   UNL A   1      32.161  30.410  26.148  1.00  0.00     0.117 C 
ENDROOT
BRANCH   1   2
ATOM      2  N   UNL A   1      31.269  29.929  25.109  1.00  0.00    -0.356 N 
ATOM      3  C   UNL A   1      31.361  28.823  24.319  1.00  0.00     0.228 C 
ATOM      4  O   UNL A   1      30.620  28.765  23.337  1.00  0.00    -0.275 OA
ATOM      5  H   UNL A   1      30.475  30.489  24.951  1.00  0.00     0.163 HD
BRANCH   3   6
ATOM      6  C   UNL A   1      32.240  27.656  24.751  1.00  0.00     0.133 C 
ATOM      7  N   UNL A   1      31.897  25.160  25.079  1.00  0.00    -0.326 N 
ATOM      8  C   UNL A   1      32.911  24.875  24.058  1.00  0.00     0.262 C 
ATOM      9  C   UNL A   1      31.278  26.471  24.880  1.00  0.00     0.276 C 
ATOM     10  H   UNL A   1      32.384  25.194  25.975  1.00  0.00     0.348 HD
ATOM     11  C   UNL A   1      33.964  25.989  24.017  1.00  0.00     0.062 C 
ATOM     12  C   UNL A   1      33.324  27.343  23.718  1.00  0.00     0.025 C 
BRANCH   7  13
ATOM     13  C   UNL A   1      30.887  24.070  25.198  1.00  0.00     0.363 C 
BRANCH  13  14
ATOM     14  C   UNL A   1      30.737  23.446  26.598  1.00  0.00     0.279 C 
ATOM     15  N   UNL A   1      31.680  22.636  27.178  1.00  0.00    -0.321 N 
ATOM     16  H   UNL A   1      31.442  22.340  28.087  1.00  0.00     0.170 HD
ATOM     17  O   UNL A   1      29.754  23.734  27.296  1.00  0.00    -0.268 OA
BRANCH  15  18
ATOM     18  C   UNL A   1      32.919  22.146  26.731  1.00  0.00     0.042 A 
ATOM     19  C   UNL A   1      36.698  21.292  24.807  1.00  0.00     0.046 C 
ATOM     20  C   UNL A   1      35.408  21.515  25.546  1.00  0.00    -0.032 A 
ATOM     21  C   UNL A   1      35.249  22.686  26.297  1.00  0.00     0.007 A 
ATOM     22  C   UNL A   1      34.320  20.636  25.453  1.00  0.00     0.046 A 
ATOM     23  C   UNL A   1      34.025  22.987  26.902  1.00  0.00     0.026 A 
ATOM     24  C   UNL A   1      33.096  20.934  26.070  1.00  0.00     0.047 A 
ATOM     25  Cl  UNL A   1      34.405  19.185  24.517  1.00  0.00    -0.084 Cl
ENDBRANCH  15  18
ENDBRANCH  13  14
ENDBRANCH   7  13
ENDBRANCH   3   6
ENDBRANCH   1   2
BRANCH   1  26
ATOM     26  C   UNL A   1      31.731  31.795  26.625  1.00  0.00     0.042 C 
BRANCH  26  27
ATOM     27  C   UNL A   1      32.837  32.575  27.336  1.00  0.00     0.118 C 
BRANCH  27  28
ATOM     28  N   UNL A   1      32.467  33.953  27.635  1.00  0.00    -0.352 N 
ATOM     29  C   UNL A   1      32.993  34.826  28.557  1.00  0.00     0.251 C 
ATOM     30  H   UNL A   1      31.728  34.313  27.094  1.00  0.00     0.163 HD
ATOM     31  O   UNL A   1      32.454  35.913  28.751  1.00  0.00    -0.269 OA
BRANCH  29  32
ATOM     32  C   UNL A   1      34.184  34.447  29.345  1.00  0.00     0.039 A 
ATOM     33  C   UNL A   1      34.003  33.885  30.611  1.00  0.00     0.014 A 
ATOM     34  C   UNL A   1      35.471  34.620  28.831  1.00  0.00     0.014 A 
ATOM     35  C   UNL A   1      35.107  33.404  31.320  1.00  0.00     0.010 A 
ATOM     36  C   UNL A   1      36.562  34.075  29.504  1.00  0.00     0.010 A 
ATOM     37  C   UNL A   1      36.388  33.446  30.748  1.00  0.00    -0.014 A 
BRANCH  37  38
ATOM     38  C   UNL A   1      37.553  32.799  31.405  1.00  0.00     0.031 A 
ATOM     39  C   UNL A   1      38.237  31.628  30.759  1.00  0.00     0.074 A 
ATOM     40  C   UNL A   1      37.935  33.209  32.631  1.00  0.00     0.049 A 
ATOM     41  N   UNL A   1      39.186  30.859  31.231  1.00  0.00    -0.248 NA
ATOM     42  C   UNL A   1      37.774  31.255  29.414  1.00  0.00     0.031 C 
ATOM     43  C   UNL A   1      37.325  34.307  33.384  1.00  0.00     0.029 A 
ATOM     44  N   UNL A   1      38.915  32.739  33.470  1.00  0.00    -0.354 N 
ATOM     45  C   UNL A   1      39.420  29.904  30.251  1.00  0.00     0.074 A 
ATOM     46  C   UNL A   1      38.485  30.162  29.178  1.00  0.00     0.031 C 
ATOM     47  C   UNL A   1      37.951  34.434  34.564  1.00  0.00     0.029 A 
ATOM     48  C   UNL A   1      38.975  33.400  34.673  1.00  0.00     0.049 A 
ATOM     49  H   UNL A   1      39.517  31.996  33.232  1.00  0.00     0.167 HD
ATOM     50  C   UNL A   1      40.345  28.914  30.241  1.00  0.00     0.037 A 
ATOM     51  C   UNL A   1      39.754  33.185  35.751  1.00  0.00     0.037 A 
ATOM     52  C   UNL A   1      41.290  28.676  31.300  1.00  0.00     0.049 A 
ATOM     53  C   UNL A   1      40.758  32.066  35.722  1.00  0.00     0.074 A 
ATOM     54  C   UNL A   1      42.310  27.742  31.352  1.00  0.00     0.029 A 
ATOM     55  N   UNL A   1      41.328  29.375  32.498  1.00  0.00    -0.354 N 
ATOM     56  N   UNL A   1      41.016  31.211  34.761  1.00  0.00    -0.248 NA
ATOM     57  C   UNL A   1      41.579  31.879  36.926  1.00  0.00     0.031 C 
ATOM     58  C   UNL A   1      42.934  27.843  32.600  1.00  0.00     0.029 A 
ATOM     59  C   UNL A   1      42.335  28.873  33.307  1.00  0.00     0.049 A 
ATOM     60  H   UNL A   1      40.727  30.117  32.738  1.00  0.00     0.167 HD
ATOM     61  C   UNL A   1      42.041  30.404  35.235  1.00  0.00     0.074 A 
ATOM     62  C   UNL A   1      42.370  30.880  36.563  1.00  0.00     0.031 C 
ATOM     63  C   UNL A   1      42.654  29.360  34.625  1.00  0.00     0.037 A 
BRANCH  50  64
ATOM     64  C   UNL A   1      40.382  28.012  29.043  1.00  0.00     0.064 A 
ATOM     65  C   UNL A   1      39.641  26.820  28.996  1.00  0.00     0.173 A 
ATOM     66  C   UNL A   1      41.134  28.361  27.911  1.00  0.00     0.173 A 
ATOM     67  F   UNL A   1      38.914  26.436  30.056  1.00  0.00    -0.203 F 
ATOM     68  C   UNL A   1      39.675  25.999  27.873  1.00  0.00     0.198 A 
ATOM     69  C   UNL A   1      41.141  27.551  26.778  1.00  0.00     0.198 A 
ATOM     70  F   UNL A   1      41.855  29.491  27.900  1.00  0.00    -0.203 F 
ATOM     71  F   UNL A   1      38.997  24.843  27.869  1.00  0.00    -0.200 F 
ATOM     72  C   UNL A   1      40.418  26.368  26.762  1.00  0.00     0.200 A 
ATOM     73  F   UNL A   1      41.850  27.916  25.700  1.00  0.00    -0.200 F 
ATOM     74  F   UNL A   1      40.443  25.580  25.678  1.00  0.00    -0.200 F 
ENDBRANCH  50  64
BRANCH  51  75
ATOM     75  C   UNL A   1      39.621  34.056  36.949  1.00  0.00     0.064 A 
ATOM     76  C   UNL A   1      38.827  33.664  38.035  1.00  0.00     0.173 A 
ATOM     77  C   UNL A   1      40.278  35.292  37.031  1.00  0.00     0.173 A 
ATOM     78  F   UNL A   1      38.162  32.501  37.993  1.00  0.00    -0.203 F 
ATOM     79  C   UNL A   1      38.680  34.485  39.152  1.00  0.00     0.198 A 
ATOM     80  C   UNL A   1      40.153  36.099  38.160  1.00  0.00     0.198 A 
ATOM     81  F   UNL A   1      41.053  35.710  36.020  1.00  0.00    -0.203 F 
ATOM     82  F   UNL A   1      37.879  34.107  40.157  1.00  0.00    -0.200 F 
ATOM     83  C   UNL A   1      39.348  35.698  39.216  1.00  0.00     0.200 A 
ATOM     84  F   UNL A   1      40.811  37.264  38.224  1.00  0.00    -0.200 F 
ATOM     85  F   UNL A   1      39.209  36.485  40.291  1.00  0.00    -0.200 F 
ENDBRANCH  51  75
BRANCH  63  86
ATOM     86  C   UNL A   1      43.760  28.677  35.373  1.00  0.00     0.064 A 
ATOM     87  C   UNL A   1      45.100  29.060  35.215  1.00  0.00     0.173 A 
ATOM     88  C   UNL A   1      43.471  27.660  36.296  1.00  0.00     0.173 A 
ATOM     89  F   UNL A   1      45.429  30.015  34.333  1.00  0.00    -0.203 F 
ATOM     90  C   UNL A   1      46.112  28.436  35.939  1.00  0.00     0.198 A 
ATOM     91  C   UNL A   1      44.483  27.058  37.039  1.00  0.00     0.198 A 
ATOM     92  F   UNL A   1      42.205  27.260  36.488  1.00  0.00    -0.203 F 
ATOM     93  F   UNL A   1      47.390  28.789  35.742  1.00  0.00    -0.200 F 
ATOM     94  C   UNL A   1      45.802  27.442  36.857  1.00  0.00     0.200 A 
ATOM     95  F   UNL A   1      44.179  26.108  37.935  1.00  0.00    -0.200 F 
ATOM     96  F   UNL A   1      46.777  26.851  37.562  1.00  0.00    -0.200 F 
ENDBRANCH  63  86
ENDBRANCH  37  38
ENDBRANCH  29  32
ENDBRANCH  27  28
ENDBRANCH  26  27
ENDBRANCH   1  26
TORSDOF 13
ENDMDL
MODEL 2
REMARK VINA RESULT:     -13.0      1.253      2.534
REMARK SMILES Cc1ccc(NC(=O)C[N@H+]2CCC[C@@H](C(=O)NCCCNC(=O)c3ccc(-c4c5nc(c(-c6c(F)c(F)c(F)c(F)c6F)c6ccc([nH]6)c(-c6c(F)c(F)c(F)c(F)c6F)c6nc(c(-c7c(F)c(F)c(F)c(F)c7F)c7ccc4[nH]7)C=C6)C=C5)cc3)C2)cc1Cl
REMARK SMILES IDX 18 1 17 2 15 3 16 4 14 6 10 7 11 8 87 9 12 11 13 12 9 13
REMARK SMILES IDX 7 14 6 15 8 17 5 18 1 19 2 20 3 21 89 22 4 23 88 24 90 25
REMARK SMILES IDX 19 26 20 27 21 28 22 29 23 31 24 32 25 33 86 34 26 35 85 36
REMARK SMILES IDX 27 37 28 38 29 39 79 40 30 41 84 42 78 43 80 44 31 45 83 46
REMARK SMILES IDX 77 47 76 48 32 50 64 51 44 52 63 53 45 54 48 55 62 56 81 57
REMARK SMILES IDX 46 58 47 59 61 61 82 62 49 63 33 64 34 65 42 66 35 67 36 68
REMARK SMILES IDX 40 69 43 70 37 71 38 72 41 73 39 74 65 75 66 76 74 77 67 78
REMARK SMILES IDX 68 79 72 80 75 81 69 82 70 83 73 84 71 85 50 86 51 87 59 88
REMARK SMILES IDX 52 89 53 90 57 91 60 92 54 93 55 94 58 95 56 96
REMARK H PARENT 17 5 10 10 6 16 21 30 80 49 48 60
REMARK Flexibility Score: inf
ROOT
ATOM      1  C   UNL A   1      31.826  30.461  26.883  1.00  0.00     0.117 C 
ENDROOT
BRANCH   1   2
ATOM      2  N   UNL A   1      32.849  30.000  25.961  1.00  0.00    -0.356 N 
ATOM      3  C   UNL A   1      32.923  28.845  25.242  1.00  0.00     0.228 C 
ATOM      4  O   UNL A   1      34.008  28.564  24.731  1.00  0.00    -0.275 OA
ATOM      5  H   UNL A   1      33.605  30.617  25.836  1.00  0.00     0.163 HD
BRANCH   3   6
ATOM      6  C   UNL A   1      31.658  28.039  24.972  1.00  0.00     0.133 C 
ATOM      7  N   UNL A   1      31.028  26.135  23.412  1.00  0.00    -0.326 N 
ATOM      8  C   UNL A   1      30.703  25.286  24.563  1.00  0.00     0.262 C 
ATOM      9  C   UNL A   1      32.003  27.171  23.758  1.00  0.00     0.276 C 
ATOM     10  H   UNL A   1      30.167  26.614  23.149  1.00  0.00     0.348 HD
ATOM     11  C   UNL A   1      30.218  26.137  25.743  1.00  0.00     0.062 C 
ATOM     12  C   UNL A   1      31.276  27.155  26.160  1.00  0.00     0.025 C 
BRANCH   7  13
ATOM     13  C   UNL A   1      31.444  25.343  22.220  1.00  0.00     0.363 C 
BRANCH  13  14
ATOM     14  C   UNL A   1      32.955  25.324  21.923  1.00  0.00     0.279 C 
ATOM     15  N   UNL A   1      33.875  24.650  22.684  1.00  0.00    -0.321 N 
ATOM     16  H   UNL A   1      34.797  24.719  22.344  1.00  0.00     0.170 HD
ATOM     17  O   UNL A   1      33.386  25.878  20.901  1.00  0.00    -0.268 OA
BRANCH  15  18
ATOM     18  C   UNL A   1      33.761  23.880  23.855  1.00  0.00     0.042 A 
ATOM     19  C   UNL A   1      34.254  21.635  27.519  1.00  0.00     0.046 C 
ATOM     20  C   UNL A   1      33.979  22.405  26.258  1.00  0.00    -0.032 A 
ATOM     21  C   UNL A   1      34.203  23.787  26.243  1.00  0.00     0.007 A 
ATOM     22  C   UNL A   1      33.581  21.787  25.063  1.00  0.00     0.046 A 
ATOM     23  C   UNL A   1      34.073  24.520  25.060  1.00  0.00     0.026 A 
ATOM     24  C   UNL A   1      33.441  22.526  23.880  1.00  0.00     0.047 A 
ATOM     25  Cl  UNL A   1      33.319  20.081  24.971  1.00  0.00    -0.084 Cl
ENDBRANCH  15  18
ENDBRANCH  13  14
ENDBRANCH   7  13
ENDBRANCH   3   6
ENDBRANCH   1   2
BRANCH   1  26
ATOM     26  C   UNL A   1      31.646  31.973  26.770  1.00  0.00     0.042 C 
BRANCH  26  27
ATOM     27  C   UNL A   1      32.815  32.778  27.338  1.00  0.00     0.118 C 
BRANCH  27  28
ATOM     28  N   UNL A   1      32.460  34.154  27.666  1.00  0.00    -0.352 N 
ATOM     29  C   UNL A   1      33.004  35.006  28.597  1.00  0.00     0.251 C 
ATOM     30  H   UNL A   1      31.718  34.529  27.140  1.00  0.00     0.163 HD
ATOM     31  O   UNL A   1      32.475  36.093  28.818  1.00  0.00    -0.269 OA
BRANCH  29  32
ATOM     32  C   UNL A   1      34.200  34.603  29.364  1.00  0.00     0.039 A 
ATOM     33  C   UNL A   1      34.035  34.116  30.663  1.00  0.00     0.014 A 
ATOM     34  C   UNL A   1      35.476  34.681  28.800  1.00  0.00     0.014 A 
ATOM     35  C   UNL A   1      35.137  33.613  31.360  1.00  0.00     0.010 A 
ATOM     36  C   UNL A   1      36.559  34.113  29.465  1.00  0.00     0.010 A 
ATOM     37  C   UNL A   1      36.398  33.557  30.744  1.00  0.00    -0.014 A 
BRANCH  37  38
ATOM     38  C   UNL A   1      37.550  32.882  31.396  1.00  0.00     0.031 A 
ATOM     39  C   UNL A   1      38.205  31.697  30.744  1.00  0.00     0.074 A 
ATOM     40  C   UNL A   1      37.945  33.280  32.621  1.00  0.00     0.049 A 
ATOM     41  N   UNL A   1      39.138  30.906  31.210  1.00  0.00    -0.248 NA
ATOM     42  C   UNL A   1      37.729  31.338  29.400  1.00  0.00     0.031 C 
ATOM     43  C   UNL A   1      37.363  34.390  33.379  1.00  0.00     0.029 A 
ATOM     44  N   UNL A   1      38.918  32.786  33.455  1.00  0.00    -0.354 N 
ATOM     45  C   UNL A   1      39.347  29.948  30.228  1.00  0.00     0.074 A 
ATOM     46  C   UNL A   1      38.414  30.230  29.158  1.00  0.00     0.031 C 
ATOM     47  C   UNL A   1      37.997  34.500  34.557  1.00  0.00     0.029 A 
ATOM     48  C   UNL A   1      38.997  33.442  34.660  1.00  0.00     0.049 A 
ATOM     49  H   UNL A   1      39.502  32.030  33.213  1.00  0.00     0.167 HD
ATOM     50  C   UNL A   1      40.250  28.938  30.211  1.00  0.00     0.037 A 
ATOM     51  C   UNL A   1      39.775  33.207  35.734  1.00  0.00     0.037 A 
ATOM     52  C   UNL A   1      41.193  28.676  31.267  1.00  0.00     0.049 A 
ATOM     53  C   UNL A   1      40.753  32.065  35.698  1.00  0.00     0.074 A 
ATOM     54  C   UNL A   1      42.192  27.719  31.312  1.00  0.00     0.029 A 
ATOM     55  N   UNL A   1      41.251  29.371  32.466  1.00  0.00    -0.354 N 
ATOM     56  N   UNL A   1      40.988  31.207  34.735  1.00  0.00    -0.248 NA
ATOM     57  C   UNL A   1      41.574  31.857  36.899  1.00  0.00     0.031 C 
ATOM     58  C   UNL A   1      42.823  27.803  32.558  1.00  0.00     0.029 A 
ATOM     59  C   UNL A   1      42.249  28.844  33.270  1.00  0.00     0.049 A 
ATOM     60  H   UNL A   1      40.667  30.126  32.710  1.00  0.00     0.167 HD
ATOM     61  C   UNL A   1      41.997  30.376  35.203  1.00  0.00     0.074 A 
ATOM     62  C   UNL A   1      42.341  30.841  36.530  1.00  0.00     0.031 C 
ATOM     63  C   UNL A   1      42.584  29.320  34.588  1.00  0.00     0.037 A 
BRANCH  50  64
ATOM     64  C   UNL A   1      40.262  28.038  29.011  1.00  0.00     0.064 A 
ATOM     65  C   UNL A   1      41.001  28.355  27.861  1.00  0.00     0.173 A 
ATOM     66  C   UNL A   1      39.562  26.822  29.025  1.00  0.00     0.173 A 
ATOM     67  F   UNL A   1      41.680  29.510  27.792  1.00  0.00    -0.203 F 
ATOM     68  C   UNL A   1      41.014  27.504  26.759  1.00  0.00     0.198 A 
ATOM     69  C   UNL A   1      39.602  25.959  27.933  1.00  0.00     0.198 A 
ATOM     70  F   UNL A   1      38.845  26.466  30.102  1.00  0.00    -0.203 F 
ATOM     71  F   UNL A   1      41.688  27.851  25.654  1.00  0.00    -0.200 F 
ATOM     72  C   UNL A   1      40.321  26.304  26.799  1.00  0.00     0.200 A 
ATOM     73  F   UNL A   1      38.942  24.793  27.977  1.00  0.00    -0.200 F 
ATOM     74  F   UNL A   1      40.341  25.482  25.740  1.00  0.00    -0.200 F 
ENDBRANCH  50  64
BRANCH  51  75
ATOM     75  C   UNL A   1      39.666  34.077  36.935  1.00  0.00     0.064 A 
ATOM     76  C   UNL A   1      40.360  35.293  37.004  1.00  0.00     0.173 A 
ATOM     77  C   UNL A   1      38.875  33.712  38.034  1.00  0.00     0.173 A 
ATOM     78  F   UNL A   1      41.145  35.674  35.988  1.00  0.00    -0.203 F 
ATOM     79  C   UNL A   1      40.280  36.103  38.136  1.00  0.00     0.198 A 
ATOM     80  C   UNL A   1      38.774  34.535  39.153  1.00  0.00     0.198 A 
ATOM     81  F   UNL A   1      38.188  32.560  38.014  1.00  0.00    -0.203 F 
ATOM     82  F   UNL A   1      40.988  37.238  38.195  1.00  0.00    -0.200 F 
ATOM     83  C   UNL A   1      39.483  35.726  39.206  1.00  0.00     0.200 A 
ATOM     84  F   UNL A   1      37.992  34.174  40.179  1.00  0.00    -0.200 F 
ATOM     85  F   UNL A   1      39.404  36.507  40.292  1.00  0.00    -0.200 F 
ENDBRANCH  51  75
BRANCH  63  86
ATOM     86  C   UNL A   1      43.677  28.610  35.330  1.00  0.00     0.064 A 
ATOM     87  C   UNL A   1      43.402  27.542  36.198  1.00  0.00     0.173 A 
ATOM     88  C   UNL A   1      45.019  28.971  35.135  1.00  0.00     0.173 A 
ATOM     89  F   UNL A   1      42.134  27.171  36.431  1.00  0.00    -0.203 F 
ATOM     90  C   UNL A   1      44.430  26.874  36.857  1.00  0.00     0.198 A 
ATOM     91  C   UNL A   1      46.046  28.282  35.774  1.00  0.00     0.198 A 
ATOM     92  F   UNL A   1      45.335  29.982  34.312  1.00  0.00    -0.203 F 
ATOM     93  F   UNL A   1      44.143  25.884  37.713  1.00  0.00    -0.200 F 
ATOM     94  C   UNL A   1      45.751  27.238  36.637  1.00  0.00     0.200 A 
ATOM     95  F   UNL A   1      47.322  28.626  35.550  1.00  0.00    -0.200 F 
ATOM     96  F   UNL A   1      46.740  26.585  37.264  1.00  0.00    -0.200 F 
ENDBRANCH  63  86
ENDBRANCH  37  38
ENDBRANCH  29  32
ENDBRANCH  27  28
ENDBRANCH  26  27
ENDBRANCH   1  26
TORSDOF 13
ENDMDL
MODEL 3
REMARK VINA RESULT:     -13.0      5.883     11.189
REMARK SMILES Cc1ccc(NC(=O)C[N@H+]2CCC[C@@H](C(=O)NCCCNC(=O)c3ccc(-c4c5nc(c(-c6c(F)c(F)c(F)c(F)c6F)c6ccc([nH]6)c(-c6c(F)c(F)c(F)c(F)c6F)c6nc(c(-c7c(F)c(F)c(F)c(F)c7F)c7ccc4[nH]7)C=C6)C=C5)cc3)C2)cc1Cl
REMARK SMILES IDX 18 1 17 2 15 3 16 4 14 6 10 7 11 8 87 9 12 11 13 12 9 13
REMARK SMILES IDX 7 14 6 15 8 17 5 18 1 19 2 20 3 21 89 22 4 23 88 24 90 25
REMARK SMILES IDX 19 26 20 27 21 28 22 29 23 31 24 32 25 33 86 34 26 35 85 36
REMARK SMILES IDX 27 37 28 38 29 39 79 40 30 41 84 42 78 43 80 44 31 45 83 46
REMARK SMILES IDX 77 47 76 48 32 50 64 51 44 52 63 53 45 54 48 55 62 56 81 57
REMARK SMILES IDX 46 58 47 59 61 61 82 62 49 63 33 64 34 65 42 66 35 67 36 68
REMARK SMILES IDX 40 69 43 70 37 71 38 72 41 73 39 74 65 75 66 76 74 77 67 78
REMARK SMILES IDX 68 79 72 80 75 81 69 82 70 83 73 84 71 85 50 86 51 87 59 88
REMARK SMILES IDX 52 89 53 90 57 91 60 92 54 93 55 94 58 95 56 96
REMARK H PARENT 17 5 10 10 6 16 21 30 80 49 48 60
REMARK Flexibility Score: inf
ROOT
ATOM      1  C   UNL A   1      37.292  21.118  24.558  1.00  0.00     0.117 C 
ENDROOT
BRANCH   1   2
ATOM      2  N   UNL A   1      36.634  21.734  25.696  1.00  0.00    -0.356 N 
ATOM      3  C   UNL A   1      35.447  22.400  25.766  1.00  0.00     0.228 C 
ATOM      4  O   UNL A   1      35.225  23.055  26.785  1.00  0.00    -0.275 OA
ATOM      5  H   UNL A   1      37.120  21.659  26.549  1.00  0.00     0.163 HD
BRANCH   3   6
ATOM      6  C   UNL A   1      34.398  22.193  24.681  1.00  0.00     0.133 C 
ATOM      7  N   UNL A   1      31.901  22.619  24.478  1.00  0.00    -0.326 N 
ATOM      8  C   UNL A   1      32.137  23.530  23.354  1.00  0.00     0.262 C 
ATOM      9  C   UNL A   1      33.066  22.529  25.360  1.00  0.00     0.276 C 
ATOM     10  H   UNL A   1      31.759  21.691  24.079  1.00  0.00     0.348 HD
ATOM     11  C   UNL A   1      33.394  23.118  22.578  1.00  0.00     0.062 C 
ATOM     12  C   UNL A   1      34.624  23.115  23.482  1.00  0.00     0.025 C 
BRANCH   7  13
ATOM     13  C   UNL A   1      30.652  22.945  25.223  1.00  0.00     0.363 C 
BRANCH  13  14
ATOM     14  C   UNL A   1      30.848  23.577  26.614  1.00  0.00     0.279 C 
ATOM     15  N   UNL A   1      31.320  24.848  26.816  1.00  0.00    -0.321 N 
ATOM     16  H   UNL A   1      31.363  25.108  27.765  1.00  0.00     0.170 HD
ATOM     17  O   UNL A   1      30.498  22.953  27.626  1.00  0.00    -0.268 OA
BRANCH  15  18
ATOM     18  C   UNL A   1      31.755  25.854  25.934  1.00  0.00     0.042 A 
ATOM     19  C   UNL A   1      33.377  29.328  23.933  1.00  0.00     0.046 C 
ATOM     20  C   UNL A   1      32.797  28.079  24.534  1.00  0.00    -0.032 A 
ATOM     21  C   UNL A   1      33.650  27.178  25.183  1.00  0.00     0.007 A 
ATOM     22  C   UNL A   1      31.421  27.810  24.544  1.00  0.00     0.046 A 
ATOM     23  C   UNL A   1      33.136  26.065  25.856  1.00  0.00     0.026 A 
ATOM     24  C   UNL A   1      30.909  26.688  25.210  1.00  0.00     0.047 A 
ATOM     25  Cl  UNL A   1      30.284  28.883  23.805  1.00  0.00    -0.084 Cl
ENDBRANCH  15  18
ENDBRANCH  13  14
ENDBRANCH   7  13
ENDBRANCH   3   6
ENDBRANCH   1   2
BRANCH   1  26
ATOM     26  C   UNL A   1      38.095  19.897  25.001  1.00  0.00     0.042 C 
BRANCH  26  27
ATOM     27  C   UNL A   1      39.368  20.243  25.774  1.00  0.00     0.118 C 
BRANCH  27  28
ATOM     28  N   UNL A   1      40.325  19.145  25.826  1.00  0.00    -0.352 N 
ATOM     29  C   UNL A   1      41.681  19.168  26.048  1.00  0.00     0.251 C 
ATOM     30  H   UNL A   1      39.941  18.251  25.680  1.00  0.00     0.163 HD
ATOM     31  O   UNL A   1      42.342  18.140  25.921  1.00  0.00    -0.269 OA
BRANCH  29  32
ATOM     32  C   UNL A   1      42.355  20.434  26.401  1.00  0.00     0.039 A 
ATOM     33  C   UNL A   1      43.000  21.157  25.394  1.00  0.00     0.014 A 
ATOM     34  C   UNL A   1      42.332  20.921  27.710  1.00  0.00     0.014 A 
ATOM     35  C   UNL A   1      43.535  22.416  25.678  1.00  0.00     0.010 A 
ATOM     36  C   UNL A   1      42.800  22.206  27.976  1.00  0.00     0.010 A 
ATOM     37  C   UNL A   1      43.390  22.973  26.959  1.00  0.00    -0.014 A 
BRANCH  37  38
ATOM     38  C   UNL A   1      43.803  24.371  27.248  1.00  0.00     0.031 A 
ATOM     39  C   UNL A   1      42.796  25.377  27.727  1.00  0.00     0.074 A 
ATOM     40  C   UNL A   1      45.068  24.756  26.988  1.00  0.00     0.049 A 
ATOM     41  N   UNL A   1      42.937  26.665  27.916  1.00  0.00    -0.248 NA
ATOM     42  C   UNL A   1      41.443  24.874  28.005  1.00  0.00     0.031 C 
ATOM     43  C   UNL A   1      46.130  23.884  26.480  1.00  0.00     0.029 A 
ATOM     44  N   UNL A   1      45.673  25.983  27.097  1.00  0.00    -0.354 N 
ATOM     45  C   UNL A   1      41.692  27.127  28.317  1.00  0.00     0.074 A 
ATOM     46  C   UNL A   1      40.795  25.991  28.301  1.00  0.00     0.031 C 
ATOM     47  C   UNL A   1      47.255  24.600  26.334  1.00  0.00     0.029 A 
ATOM     48  C   UNL A   1      46.986  25.989  26.693  1.00  0.00     0.049 A 
ATOM     49  H   UNL A   1      45.208  26.785  27.431  1.00  0.00     0.167 HD
ATOM     50  C   UNL A   1      41.333  28.382  28.683  1.00  0.00     0.037 A 
ATOM     51  C   UNL A   1      47.869  27.002  26.602  1.00  0.00     0.037 A 
ATOM     52  C   UNL A   1      42.234  29.504  28.720  1.00  0.00     0.049 A 
ATOM     53  C   UNL A   1      47.440  28.389  26.994  1.00  0.00     0.074 A 
ATOM     54  C   UNL A   1      41.982  30.798  29.142  1.00  0.00     0.029 A 
ATOM     55  N   UNL A   1      43.560  29.467  28.315  1.00  0.00    -0.354 N 
ATOM     56  N   UNL A   1      46.276  28.801  27.436  1.00  0.00    -0.248 NA
ATOM     57  C   UNL A   1      48.445  29.454  26.874  1.00  0.00     0.031 C 
ATOM     58  C   UNL A   1      43.142  31.556  28.948  1.00  0.00     0.029 A 
ATOM     59  C   UNL A   1      44.131  30.722  28.450  1.00  0.00     0.049 A 
ATOM     60  H   UNL A   1      44.027  28.667  27.980  1.00  0.00     0.167 HD
ATOM     61  C   UNL A   1      46.416  30.162  27.669  1.00  0.00     0.074 A 
ATOM     62  C   UNL A   1      47.783  30.506  27.334  1.00  0.00     0.031 C 
ATOM     63  C   UNL A   1      45.494  31.049  28.118  1.00  0.00     0.037 A 
BRANCH  50  64
ATOM     64  C   UNL A   1      39.903  28.609  29.075  1.00  0.00     0.064 A 
ATOM     65  C   UNL A   1      39.456  28.388  30.388  1.00  0.00     0.173 A 
ATOM     66  C   UNL A   1      38.976  29.094  28.140  1.00  0.00     0.173 A 
ATOM     67  F   UNL A   1      40.300  27.915  31.317  1.00  0.00    -0.203 F 
ATOM     68  C   UNL A   1      38.128  28.615  30.740  1.00  0.00     0.198 A 
ATOM     69  C   UNL A   1      37.657  29.349  28.505  1.00  0.00     0.198 A 
ATOM     70  F   UNL A   1      39.352  29.328  26.874  1.00  0.00    -0.203 F 
ATOM     71  F   UNL A   1      37.714  28.351  31.987  1.00  0.00    -0.200 F 
ATOM     72  C   UNL A   1      37.232  29.102  29.801  1.00  0.00     0.200 A 
ATOM     73  F   UNL A   1      36.794  29.832  27.599  1.00  0.00    -0.200 F 
ATOM     74  F   UNL A   1      35.956  29.328  30.145  1.00  0.00    -0.200 F 
ENDBRANCH  50  64
BRANCH  51  75
ATOM     75  C   UNL A   1      49.253  26.742  26.127  1.00  0.00     0.064 A 
ATOM     76  C   UNL A   1      50.239  26.277  27.009  1.00  0.00     0.173 A 
ATOM     77  C   UNL A   1      49.620  26.954  24.790  1.00  0.00     0.173 A 
ATOM     78  F   UNL A   1      49.942  26.081  28.301  1.00  0.00    -0.203 F 
ATOM     79  C   UNL A   1      51.545  26.053  26.574  1.00  0.00     0.198 A 
ATOM     80  C   UNL A   1      50.918  26.702  24.351  1.00  0.00     0.198 A 
ATOM     81  F   UNL A   1      48.712  27.393  23.906  1.00  0.00    -0.203 F 
ATOM     82  F   UNL A   1      52.478  25.652  27.448  1.00  0.00    -0.200 F 
ATOM     83  C   UNL A   1      51.881  26.259  25.246  1.00  0.00     0.200 A 
ATOM     84  F   UNL A   1      51.235  26.889  23.063  1.00  0.00    -0.200 F 
ATOM     85  F   UNL A   1      53.135  26.039  24.828  1.00  0.00    -0.200 F 
ENDBRANCH  51  75
BRANCH  63  86
ATOM     86  C   UNL A   1      45.936  32.471  28.299  1.00  0.00     0.064 A 
ATOM     87  C   UNL A   1      45.791  33.422  27.278  1.00  0.00     0.173 A 
ATOM     88  C   UNL A   1      46.467  32.898  29.526  1.00  0.00     0.173 A 
ATOM     89  F   UNL A   1      45.304  33.058  26.082  1.00  0.00    -0.203 F 
ATOM     90  C   UNL A   1      46.179  34.744  27.472  1.00  0.00     0.198 A 
ATOM     91  C   UNL A   1      46.828  34.228  29.725  1.00  0.00     0.198 A 
ATOM     92  F   UNL A   1      46.623  32.030  30.536  1.00  0.00    -0.203 F 
ATOM     93  F   UNL A   1      46.069  35.627  26.470  1.00  0.00    -0.200 F 
ATOM     94  C   UNL A   1      46.688  35.149  28.698  1.00  0.00     0.200 A 
ATOM     95  F   UNL A   1      47.306  34.620  30.915  1.00  0.00    -0.200 F 
ATOM     96  F   UNL A   1      47.050  36.425  28.887  1.00  0.00    -0.200 F 
ENDBRANCH  63  86
ENDBRANCH  37  38
ENDBRANCH  29  32
ENDBRANCH  27  28
ENDBRANCH  26  27
ENDBRANCH   1  26
TORSDOF 13
ENDMDL
