MODEL 1
REMARK VINA RESULT:     -11.7      0.000      0.000
REMARK SMILES CCc1ccsc1C(=O)N(CC(=O)NCCCNC(=O)c1ccc(-c2c3nc(c(-c4c(F)c(F)c(F)c(F)c4F)c4ccc([nH]4)c(-c4c(F)c(F)c(F)c(F)c4F)c4nc(c(-c5c(F)c(F)c(F)c(F)c5F)c5ccc2[nH]5)C=C4)C=C3)cc1)c1ccccc1N
REMARK SMILES IDX 15 1 14 2 12 3 13 4 11 6 10 7 8 8 9 9 7 10 3 11 4 12 5 13
REMARK SMILES IDX 6 14 2 15 1 16 84 17 85 18 89 19 86 20 88 21 87 22 90 23
REMARK SMILES IDX 16 26 17 27 18 28 19 29 20 31 21 32 22 33 83 34 23 35 82 36
REMARK SMILES IDX 24 37 25 38 26 39 76 40 27 41 81 42 75 43 77 44 28 45 80 46
REMARK SMILES IDX 74 47 73 48 29 50 61 51 41 52 60 53 42 54 45 55 59 56 78 57
REMARK SMILES IDX 43 58 44 59 58 61 79 62 46 63 30 64 31 65 39 66 32 67 33 68
REMARK SMILES IDX 37 69 40 70 34 71 35 72 38 73 36 74 62 75 63 76 71 77 64 78
REMARK SMILES IDX 65 79 69 80 72 81 66 82 67 83 70 84 68 85 47 86 48 87 56 88
REMARK SMILES IDX 49 89 50 90 54 91 57 92 51 93 52 94 55 95 53 96
REMARK H PARENT 14 5 90 24 90 25 18 30 77 49 45 60
REMARK Flexibility Score: inf
ROOT
ATOM      1  C   UNL A   1      37.356  20.863  24.654  1.00  0.00     0.117 C 
ENDROOT
BRANCH   1   2
ATOM      2  N   UNL A   1      37.754  22.070  25.339  1.00  0.00    -0.354 N 
ATOM      3  C   UNL A   1      37.200  23.307  25.368  1.00  0.00     0.240 C 
ATOM      4  O   UNL A   1      37.675  24.091  26.198  1.00  0.00    -0.273 OA
ATOM      5  H   UNL A   1      38.570  21.978  25.881  1.00  0.00     0.163 HD
BRANCH   3   6
ATOM      6  C   UNL A   1      35.955  23.721  24.565  1.00  0.00     0.226 C 
BRANCH   6   7
ATOM      7  N   UNL A   1      34.600  23.629  25.094  1.00  0.00    -0.296 N 
BRANCH   7   8
ATOM      8  C   UNL A   1      33.793  24.707  25.546  1.00  0.00     0.269 C 
ATOM      9  O   UNL A   1      33.127  24.487  26.572  1.00  0.00    -0.268 OA
BRANCH   8  10
ATOM     10  C   UNL A   1      33.738  26.109  24.978  1.00  0.00     0.096 A 
ATOM     11  C   UNL A   1      33.842  27.468  25.353  1.00  0.00    -0.025 A 
ATOM     12  C   UNL A   1      33.551  28.359  24.243  1.00  0.00     0.016 A 
ATOM     13  C   UNL A   1      33.272  27.726  23.068  1.00  0.00     0.066 A 
ATOM     14  S   UNL A   1      33.374  26.055  23.237  1.00  0.00    -0.138 S 
BRANCH  11  15
ATOM     15  C   UNL A   1      34.148  28.150  26.663  1.00  0.00     0.034 C 
ATOM     16  C   UNL A   1      33.245  29.342  26.951  1.00  0.00     0.009 C 
ENDBRANCH  11  15
ENDBRANCH   8  10
ENDBRANCH   7   8
BRANCH   7  17
ATOM     17  C   UNL A   1      34.040  22.277  24.923  1.00  0.00     0.068 A 
ATOM     18  C   UNL A   1      33.329  21.999  23.733  1.00  0.00     0.028 A 
ATOM     19  C   UNL A   1      34.022  21.291  25.944  1.00  0.00     0.056 A 
ATOM     20  C   UNL A   1      32.551  20.848  23.582  1.00  0.00     0.002 A 
ATOM     21  C   UNL A   1      33.191  20.164  25.789  1.00  0.00     0.028 A 
ATOM     22  C   UNL A   1      32.463  19.941  24.622  1.00  0.00     0.002 A 
BRANCH  19  23
ATOM     23  N   UNL A   1      34.611  21.469  27.205  1.00  0.00    -0.397 N 
ATOM     24  H   UNL A   1      35.383  22.071  27.308  1.00  0.00     0.156 HD
ATOM     25  H   UNL A   1      34.251  20.991  27.987  1.00  0.00     0.156 HD
ENDBRANCH  19  23
ENDBRANCH   7  17
ENDBRANCH   6   7
ENDBRANCH   3   6
ENDBRANCH   1   2
BRANCH   1  26
ATOM     26  C   UNL A   1      38.246  19.674  24.965  1.00  0.00     0.042 C 
BRANCH  26  27
ATOM     27  C   UNL A   1      39.337  19.998  25.975  1.00  0.00     0.118 C 
BRANCH  27  28
ATOM     28  N   UNL A   1      40.406  19.005  25.983  1.00  0.00    -0.352 N 
ATOM     29  C   UNL A   1      41.763  19.173  26.057  1.00  0.00     0.251 C 
ATOM     30  H   UNL A   1      40.105  18.070  25.925  1.00  0.00     0.163 HD
ATOM     31  O   UNL A   1      42.510  18.219  25.847  1.00  0.00    -0.269 OA
BRANCH  29  32
ATOM     32  C   UNL A   1      42.331  20.497  26.376  1.00  0.00     0.039 A 
ATOM     33  C   UNL A   1      42.775  21.311  25.331  1.00  0.00     0.014 A 
ATOM     34  C   UNL A   1      42.436  20.930  27.700  1.00  0.00     0.014 A 
ATOM     35  C   UNL A   1      43.263  22.587  25.612  1.00  0.00     0.010 A 
ATOM     36  C   UNL A   1      42.834  22.234  27.970  1.00  0.00     0.010 A 
ATOM     37  C   UNL A   1      43.258  23.074  26.931  1.00  0.00    -0.014 A 
BRANCH  37  38
ATOM     38  C   UNL A   1      43.690  24.458  27.241  1.00  0.00     0.031 A 
ATOM     39  C   UNL A   1      42.682  25.484  27.677  1.00  0.00     0.074 A 
ATOM     40  C   UNL A   1      44.977  24.806  27.057  1.00  0.00     0.049 A 
ATOM     41  N   UNL A   1      42.852  26.758  27.928  1.00  0.00    -0.248 NA
ATOM     42  C   UNL A   1      41.291  25.027  27.821  1.00  0.00     0.031 C 
ATOM     43  C   UNL A   1      46.034  23.913  26.578  1.00  0.00     0.029 A 
ATOM     44  N   UNL A   1      45.615  26.008  27.236  1.00  0.00    -0.354 N 
ATOM     45  C   UNL A   1      41.593  27.253  28.239  1.00  0.00     0.074 A 
ATOM     46  C   UNL A   1      40.659  26.158  28.091  1.00  0.00     0.031 C 
ATOM     47  C   UNL A   1      47.191  24.590  26.524  1.00  0.00     0.029 A 
ATOM     48  C   UNL A   1      46.950  25.974  26.919  1.00  0.00     0.049 A 
ATOM     49  H   UNL A   1      45.158  26.818  27.561  1.00  0.00     0.167 HD
ATOM     50  C   UNL A   1      41.252  28.502  28.636  1.00  0.00     0.037 A 
ATOM     51  C   UNL A   1      47.875  26.953  26.933  1.00  0.00     0.037 A 
ATOM     52  C   UNL A   1      42.192  29.579  28.801  1.00  0.00     0.049 A 
ATOM     53  C   UNL A   1      47.471  28.333  27.376  1.00  0.00     0.074 A 
ATOM     54  C   UNL A   1      41.963  30.860  29.270  1.00  0.00     0.029 A 
ATOM     55  N   UNL A   1      43.544  29.502  28.491  1.00  0.00    -0.354 N 
ATOM     56  N   UNL A   1      46.293  28.769  27.754  1.00  0.00    -0.248 NA
ATOM     57  C   UNL A   1      48.525  29.355  27.403  1.00  0.00     0.031 C 
ATOM     58  C   UNL A   1      43.161  31.578  29.183  1.00  0.00     0.029 A 
ATOM     59  C   UNL A   1      44.153  30.726  28.726  1.00  0.00     0.049 A 
ATOM     60  H   UNL A   1      44.001  28.699  28.154  1.00  0.00     0.167 HD
ATOM     61  C   UNL A   1      46.469  30.106  28.086  1.00  0.00     0.074 A 
ATOM     62  C   UNL A   1      47.872  30.403  27.883  1.00  0.00     0.031 C 
ATOM     63  C   UNL A   1      45.552  31.006  28.519  1.00  0.00     0.037 A 
BRANCH  50  64
ATOM     64  C   UNL A   1      39.799  28.775  28.909  1.00  0.00     0.064 A 
ATOM     65  C   UNL A   1      39.238  28.593  30.182  1.00  0.00     0.173 A 
ATOM     66  C   UNL A   1      38.964  29.255  27.889  1.00  0.00     0.173 A 
ATOM     67  F   UNL A   1      39.989  28.127  31.192  1.00  0.00    -0.203 F 
ATOM     68  C   UNL A   1      37.888  28.848  30.415  1.00  0.00     0.198 A 
ATOM     69  C   UNL A   1      37.623  29.543  28.134  1.00  0.00     0.198 A 
ATOM     70  F   UNL A   1      39.448  29.453  26.653  1.00  0.00    -0.203 F 
ATOM     71  F   UNL A   1      37.363  28.612  31.625  1.00  0.00    -0.200 F 
ATOM     72  C   UNL A   1      37.084  29.330  29.393  1.00  0.00     0.200 A 
ATOM     73  F   UNL A   1      36.852  30.023  27.149  1.00  0.00    -0.200 F 
ATOM     74  F   UNL A   1      35.788  29.581  29.621  1.00  0.00    -0.200 F 
ENDBRANCH  50  64
BRANCH  51  75
ATOM     75  C   UNL A   1      49.274  26.655  26.528  1.00  0.00     0.064 A 
ATOM     76  C   UNL A   1      50.209  26.178  27.457  1.00  0.00     0.173 A 
ATOM     77  C   UNL A   1      49.703  26.834  25.205  1.00  0.00     0.173 A 
ATOM     78  F   UNL A   1      49.854  26.008  28.738  1.00  0.00    -0.203 F 
ATOM     79  C   UNL A   1      51.525  25.913  27.083  1.00  0.00     0.198 A 
ATOM     80  C   UNL A   1      51.010  26.539  24.825  1.00  0.00     0.198 A 
ATOM     81  F   UNL A   1      48.846  27.283  24.276  1.00  0.00    -0.203 F 
ATOM     82  F   UNL A   1      52.411  25.505  28.001  1.00  0.00    -0.200 F 
ATOM     83  C   UNL A   1      51.922  26.087  25.765  1.00  0.00     0.200 A 
ATOM     84  F   UNL A   1      51.384  26.693  23.547  1.00  0.00    -0.200 F 
ATOM     85  F   UNL A   1      53.186  25.826  25.403  1.00  0.00    -0.200 F 
ENDBRANCH  51  75
BRANCH  63  86
ATOM     86  C   UNL A   1      46.041  32.391  28.833  1.00  0.00     0.064 A 
ATOM     87  C   UNL A   1      46.534  32.732  30.101  1.00  0.00     0.173 A 
ATOM     88  C   UNL A   1      46.052  33.380  27.837  1.00  0.00     0.173 A 
ATOM     89  F   UNL A   1      46.532  31.827  31.091  1.00  0.00    -0.203 F 
ATOM     90  C   UNL A   1      46.993  34.019  30.369  1.00  0.00     0.198 A 
ATOM     91  C   UNL A   1      46.545  34.656  28.098  1.00  0.00     0.198 A 
ATOM     92  F   UNL A   1      45.598  33.106  26.605  1.00  0.00    -0.203 F 
ATOM     93  F   UNL A   1      47.410  34.337  31.602  1.00  0.00    -0.200 F 
ATOM     94  C   UNL A   1      47.006  34.976  29.365  1.00  0.00     0.200 A 
ATOM     95  F   UNL A   1      46.574  35.574  27.122  1.00  0.00    -0.200 F 
ATOM     96  F   UNL A   1      47.458  36.212  29.622  1.00  0.00    -0.200 F 
ENDBRANCH  63  86
ENDBRANCH  37  38
ENDBRANCH  29  32
ENDBRANCH  27  28
ENDBRANCH  26  27
ENDBRANCH   1  26
TORSDOF 16
ENDMDL
MODEL 2
REMARK VINA RESULT:     -11.6      5.829     11.125
REMARK SMILES CCc1ccsc1C(=O)N(CC(=O)NCCCNC(=O)c1ccc(-c2c3nc(c(-c4c(F)c(F)c(F)c(F)c4F)c4ccc([nH]4)c(-c4c(F)c(F)c(F)c(F)c4F)c4nc(c(-c5c(F)c(F)c(F)c(F)c5F)c5ccc2[nH]5)C=C4)C=C3)cc1)c1ccccc1N
REMARK SMILES IDX 15 1 14 2 12 3 13 4 11 6 10 7 8 8 9 9 7 10 3 11 4 12 5 13
REMARK SMILES IDX 6 14 2 15 1 16 84 17 85 18 89 19 86 20 88 21 87 22 90 23
REMARK SMILES IDX 16 26 17 27 18 28 19 29 20 31 21 32 22 33 83 34 23 35 82 36
REMARK SMILES IDX 24 37 25 38 26 39 76 40 27 41 81 42 75 43 77 44 28 45 80 46
REMARK SMILES IDX 74 47 73 48 29 50 61 51 41 52 60 53 42 54 45 55 59 56 78 57
REMARK SMILES IDX 43 58 44 59 58 61 79 62 46 63 30 64 31 65 39 66 32 67 33 68
REMARK SMILES IDX 37 69 40 70 34 71 35 72 38 73 36 74 62 75 63 76 71 77 64 78
REMARK SMILES IDX 65 79 69 80 72 81 66 82 67 83 70 84 68 85 47 86 48 87 56 88
REMARK SMILES IDX 49 89 50 90 54 91 57 92 51 93 52 94 55 95 53 96
REMARK H PARENT 14 5 90 24 90 25 18 30 77 49 45 60
REMARK Flexibility Score: inf
ROOT
ATOM      1  C   UNL A   1      31.622  30.768  26.146  1.00  0.00     0.117 C 
ENDROOT
BRANCH   1   2
ATOM      2  N   UNL A   1      32.942  30.280  26.466  1.00  0.00    -0.354 N 
ATOM      3  C   UNL A   1      33.477  29.036  26.396  1.00  0.00     0.240 C 
ATOM      4  O   UNL A   1      34.699  28.965  26.570  1.00  0.00    -0.273 OA
ATOM      5  H   UNL A   1      33.562  30.970  26.793  1.00  0.00     0.163 HD
BRANCH   3   6
ATOM      6  C   UNL A   1      32.701  27.778  25.970  1.00  0.00     0.226 C 
BRANCH   6   7
ATOM      7  N   UNL A   1      32.429  27.444  24.577  1.00  0.00    -0.296 N 
BRANCH   7   8
ATOM      8  C   UNL A   1      33.330  26.839  23.661  1.00  0.00     0.269 C 
ATOM      9  O   UNL A   1      33.925  27.619  22.898  1.00  0.00    -0.268 OA
BRANCH   8  10
ATOM     10  C   UNL A   1      33.714  25.376  23.587  1.00  0.00     0.096 A 
ATOM     11  C   UNL A   1      34.545  24.410  24.198  1.00  0.00    -0.025 A 
ATOM     12  C   UNL A   1      34.498  23.137  23.500  1.00  0.00     0.016 A 
ATOM     13  C   UNL A   1      33.652  23.110  22.431  1.00  0.00     0.066 A 
ATOM     14  S   UNL A   1      32.866  24.584  22.238  1.00  0.00    -0.138 S 
BRANCH  11  15
ATOM     15  C   UNL A   1      35.480  24.462  25.381  1.00  0.00     0.034 C 
ATOM     16  C   UNL A   1      36.437  23.280  25.449  1.00  0.00     0.009 C 
ENDBRANCH  11  15
ENDBRANCH   8  10
ENDBRANCH   7   8
BRANCH   7  17
ATOM     17  C   UNL A   1      31.004  27.615  24.245  1.00  0.00     0.068 A 
ATOM     18  C   UNL A   1      30.095  26.630  24.695  1.00  0.00     0.028 A 
ATOM     19  C   UNL A   1      30.509  28.610  23.363  1.00  0.00     0.056 A 
ATOM     20  C   UNL A   1      28.781  26.560  24.227  1.00  0.00     0.002 A 
ATOM     21  C   UNL A   1      29.196  28.490  22.867  1.00  0.00     0.028 A 
ATOM     22  C   UNL A   1      28.338  27.479  23.292  1.00  0.00     0.002 A 
BRANCH  19  23
ATOM     23  N   UNL A   1      31.316  29.595  22.773  1.00  0.00    -0.397 N 
ATOM     24  H   UNL A   1      32.020  29.338  22.134  1.00  0.00     0.156 HD
ATOM     25  H   UNL A   1      31.178  30.544  22.998  1.00  0.00     0.156 HD
ENDBRANCH  19  23
ENDBRANCH   7  17
ENDBRANCH   6   7
ENDBRANCH   3   6
ENDBRANCH   1   2
BRANCH   1  26
ATOM     26  C   UNL A   1      31.399  32.212  26.558  1.00  0.00     0.042 C 
BRANCH  26  27
ATOM     27  C   UNL A   1      32.558  32.785  27.361  1.00  0.00     0.118 C 
BRANCH  27  28
ATOM     28  N   UNL A   1      32.373  34.196  27.683  1.00  0.00    -0.352 N 
ATOM     29  C   UNL A   1      32.981  34.968  28.637  1.00  0.00     0.251 C 
ATOM     30  H   UNL A   1      31.709  34.665  27.129  1.00  0.00     0.163 HD
ATOM     31  O   UNL A   1      32.543  36.091  28.885  1.00  0.00    -0.269 OA
BRANCH  29  32
ATOM     32  C   UNL A   1      34.149  34.453  29.376  1.00  0.00     0.039 A 
ATOM     33  C   UNL A   1      33.950  33.857  30.624  1.00  0.00     0.014 A 
ATOM     34  C   UNL A   1      35.437  34.567  28.847  1.00  0.00     0.014 A 
ATOM     35  C   UNL A   1      35.038  33.316  31.309  1.00  0.00     0.010 A 
ATOM     36  C   UNL A   1      36.503  33.946  29.486  1.00  0.00     0.010 A 
ATOM     37  C   UNL A   1      36.317  33.320  30.727  1.00  0.00    -0.014 A 
BRANCH  37  38
ATOM     38  C   UNL A   1      37.469  32.672  31.398  1.00  0.00     0.031 A 
ATOM     39  C   UNL A   1      38.166  31.510  30.750  1.00  0.00     0.074 A 
ATOM     40  C   UNL A   1      37.838  33.088  32.625  1.00  0.00     0.049 A 
ATOM     41  N   UNL A   1      39.146  30.771  31.208  1.00  0.00    -0.248 NA
ATOM     42  C   UNL A   1      37.678  31.101  29.424  1.00  0.00     0.031 C 
ATOM     43  C   UNL A   1      37.198  34.166  33.381  1.00  0.00     0.029 A 
ATOM     44  N   UNL A   1      38.833  32.642  33.460  1.00  0.00    -0.354 N 
ATOM     45  C   UNL A   1      39.376  29.805  30.237  1.00  0.00     0.074 A 
ATOM     46  C   UNL A   1      38.397  30.014  29.192  1.00  0.00     0.031 C 
ATOM     47  C   UNL A   1      37.828  34.314  34.555  1.00  0.00     0.029 A 
ATOM     48  C   UNL A   1      38.886  33.314  34.656  1.00  0.00     0.049 A 
ATOM     49  H   UNL A   1      39.448  31.911  33.223  1.00  0.00     0.167 HD
ATOM     50  C   UNL A   1      40.332  28.846  30.211  1.00  0.00     0.037 A 
ATOM     51  C   UNL A   1      39.690  33.134  35.722  1.00  0.00     0.037 A 
ATOM     52  C   UNL A   1      41.314  28.661  31.246  1.00  0.00     0.049 A 
ATOM     53  C   UNL A   1      40.743  32.061  35.669  1.00  0.00     0.074 A 
ATOM     54  C   UNL A   1      42.371  27.770  31.282  1.00  0.00     0.029 A 
ATOM     55  N   UNL A   1      41.352  29.374  32.436  1.00  0.00    -0.354 N 
ATOM     56  N   UNL A   1      41.009  31.209  34.707  1.00  0.00    -0.248 NA
ATOM     57  C   UNL A   1      41.614  31.928  36.844  1.00  0.00     0.031 C 
ATOM     58  C   UNL A   1      43.010  27.899  32.520  1.00  0.00     0.029 A 
ATOM     59  C   UNL A   1      42.395  28.918  33.228  1.00  0.00     0.049 A 
ATOM     60  H   UNL A   1      40.731  30.097  32.682  1.00  0.00     0.167 HD
ATOM     61  C   UNL A   1      42.091  30.458  35.151  1.00  0.00     0.074 A 
ATOM     62  C   UNL A   1      42.443  30.969  36.460  1.00  0.00     0.031 C 
ATOM     63  C   UNL A   1      42.733  29.438  34.530  1.00  0.00     0.037 A 
BRANCH  50  64
ATOM     64  C   UNL A   1      40.355  27.917  29.029  1.00  0.00     0.064 A 
ATOM     65  C   UNL A   1      39.621  26.722  29.012  1.00  0.00     0.173 A 
ATOM     66  C   UNL A   1      41.100  28.244  27.885  1.00  0.00     0.173 A 
ATOM     67  F   UNL A   1      38.899  26.356  30.082  1.00  0.00    -0.203 F 
ATOM     68  C   UNL A   1      39.658  25.872  27.909  1.00  0.00     0.198 A 
ATOM     69  C   UNL A   1      41.107  27.409  26.771  1.00  0.00     0.198 A 
ATOM     70  F   UNL A   1      41.817  29.377  27.844  1.00  0.00    -0.203 F 
ATOM     71  F   UNL A   1      38.994  24.709  27.939  1.00  0.00    -0.200 F 
ATOM     72  C   UNL A   1      40.394  26.220  26.787  1.00  0.00     0.200 A 
ATOM     73  F   UNL A   1      41.806  27.755  25.681  1.00  0.00    -0.200 F 
ATOM     74  F   UNL A   1      40.424  25.404  25.724  1.00  0.00    -0.200 F 
ENDBRANCH  50  64
BRANCH  51  75
ATOM     75  C   UNL A   1      39.536  34.000  36.919  1.00  0.00     0.064 A 
ATOM     76  C   UNL A   1      38.787  33.577  38.027  1.00  0.00     0.173 A 
ATOM     77  C   UNL A   1      40.139  35.265  36.986  1.00  0.00     0.173 A 
ATOM     78  F   UNL A   1      38.175  32.384  38.005  1.00  0.00    -0.203 F 
ATOM     79  C   UNL A   1      38.628  34.394  39.144  1.00  0.00     0.198 A 
ATOM     80  C   UNL A   1      40.006  36.068  38.117  1.00  0.00     0.198 A 
ATOM     81  F   UNL A   1      40.872  35.715  35.956  1.00  0.00    -0.203 F 
ATOM     82  F   UNL A   1      37.867  33.985  40.167  1.00  0.00    -0.200 F 
ATOM     83  C   UNL A   1      39.245  35.636  39.190  1.00  0.00     0.200 A 
ATOM     84  F   UNL A   1      40.617  37.260  38.163  1.00  0.00    -0.200 F 
ATOM     85  F   UNL A   1      39.097  36.420  40.268  1.00  0.00    -0.200 F 
ENDBRANCH  51  75
BRANCH  63  86
ATOM     86  C   UNL A   1      43.903  28.824  35.245  1.00  0.00     0.064 A 
ATOM     87  C   UNL A   1      45.213  29.287  35.053  1.00  0.00     0.173 A 
ATOM     88  C   UNL A   1      43.703  27.782  36.165  1.00  0.00     0.173 A 
ATOM     89  F   UNL A   1      45.459  30.271  34.175  1.00  0.00    -0.203 F 
ATOM     90  C   UNL A   1      46.282  28.712  35.735  1.00  0.00     0.198 A 
ATOM     91  C   UNL A   1      44.770  27.234  36.870  1.00  0.00     0.198 A 
ATOM     92  F   UNL A   1      42.470  27.306  36.391  1.00  0.00    -0.203 F 
ATOM     93  F   UNL A   1      47.531  29.135  35.496  1.00  0.00    -0.200 F 
ATOM     94  C   UNL A   1      46.059  27.693  36.648  1.00  0.00     0.200 A 
ATOM     95  F   UNL A   1      44.550  26.262  37.766  1.00  0.00    -0.200 F 
ATOM     96  F   UNL A   1      47.089  27.147  37.310  1.00  0.00    -0.200 F 
ENDBRANCH  63  86
ENDBRANCH  37  38
ENDBRANCH  29  32
ENDBRANCH  27  28
ENDBRANCH  26  27
ENDBRANCH   1  26
TORSDOF 16
ENDMDL
MODEL 3
REMARK VINA RESULT:     -11.5      0.991      2.370
REMARK SMILES CCc1ccsc1C(=O)N(CC(=O)NCCCNC(=O)c1ccc(-c2c3nc(c(-c4c(F)c(F)c(F)c(F)c4F)c4ccc([nH]4)c(-c4c(F)c(F)c(F)c(F)c4F)c4nc(c(-c5c(F)c(F)c(F)c(F)c5F)c5ccc2[nH]5)C=C4)C=C3)cc1)c1ccccc1N
REMARK SMILES IDX 15 1 14 2 12 3 13 4 11 6 10 7 8 8 9 9 7 10 3 11 4 12 5 13
REMARK SMILES IDX 6 14 2 15 1 16 84 17 85 18 89 19 86 20 88 21 87 22 90 23
REMARK SMILES IDX 16 26 17 27 18 28 19 29 20 31 21 32 22 33 83 34 23 35 82 36
REMARK SMILES IDX 24 37 25 38 26 39 76 40 27 41 81 42 75 43 77 44 28 45 80 46
REMARK SMILES IDX 74 47 73 48 29 50 61 51 41 52 60 53 42 54 45 55 59 56 78 57
REMARK SMILES IDX 43 58 44 59 58 61 79 62 46 63 30 64 31 65 39 66 32 67 33 68
REMARK SMILES IDX 37 69 40 70 34 71 35 72 38 73 36 74 62 75 63 76 71 77 64 78
REMARK SMILES IDX 65 79 69 80 72 81 66 82 67 83 70 84 68 85 47 86 48 87 56 88
REMARK SMILES IDX 49 89 50 90 54 91 57 92 51 93 52 94 55 95 53 96
REMARK H PARENT 14 5 90 24 90 25 18 30 77 49 45 60
REMARK Flexibility Score: inf
ROOT
ATOM      1  C   UNL A   1      37.397  20.831  24.728  1.00  0.00     0.117 C 
ENDROOT
BRANCH   1   2
ATOM      2  N   UNL A   1      37.817  22.053  25.372  1.00  0.00    -0.354 N 
ATOM      3  C   UNL A   1      37.276  23.296  25.372  1.00  0.00     0.240 C 
ATOM      4  O   UNL A   1      37.770  24.099  26.172  1.00  0.00    -0.273 OA
ATOM      5  H   UNL A   1      38.639  21.969  25.906  1.00  0.00     0.163 HD
BRANCH   3   6
ATOM      6  C   UNL A   1      36.025  23.699  24.574  1.00  0.00     0.226 C 
BRANCH   6   7
ATOM      7  N   UNL A   1      34.678  23.661  25.132  1.00  0.00    -0.296 N 
BRANCH   7   8
ATOM      8  C   UNL A   1      33.933  24.766  25.621  1.00  0.00     0.269 C 
ATOM      9  O   UNL A   1      34.604  25.736  26.013  1.00  0.00    -0.268 OA
BRANCH   8  10
ATOM     10  C   UNL A   1      32.427  24.927  25.619  1.00  0.00     0.096 A 
ATOM     11  C   UNL A   1      31.239  24.296  26.051  1.00  0.00    -0.025 A 
ATOM     12  C   UNL A   1      30.054  24.992  25.578  1.00  0.00     0.016 A 
ATOM     13  C   UNL A   1      30.312  26.116  24.852  1.00  0.00     0.066 A 
ATOM     14  S   UNL A   1      31.965  26.399  24.731  1.00  0.00    -0.138 S 
BRANCH  11  15
ATOM     15  C   UNL A   1      30.974  23.046  26.853  1.00  0.00     0.034 C 
ATOM     16  C   UNL A   1      29.506  22.851  27.206  1.00  0.00     0.009 C 
ENDBRANCH  11  15
ENDBRANCH   8  10
ENDBRANCH   7   8
BRANCH   7  17
ATOM     17  C   UNL A   1      34.052  22.340  24.950  1.00  0.00     0.068 A 
ATOM     18  C   UNL A   1      33.299  22.118  23.773  1.00  0.00     0.028 A 
ATOM     19  C   UNL A   1      34.014  21.335  25.951  1.00  0.00     0.056 A 
ATOM     20  C   UNL A   1      32.465  21.008  23.620  1.00  0.00     0.002 A 
ATOM     21  C   UNL A   1      33.129  20.250  25.796  1.00  0.00     0.028 A 
ATOM     22  C   UNL A   1      32.362  20.084  24.645  1.00  0.00     0.002 A 
BRANCH  19  23
ATOM     23  N   UNL A   1      34.642  21.460  27.200  1.00  0.00    -0.397 N 
ATOM     24  H   UNL A   1      34.583  22.306  27.698  1.00  0.00     0.156 HD
ATOM     25  H   UNL A   1      35.143  20.700  27.577  1.00  0.00     0.156 HD
ENDBRANCH  19  23
ENDBRANCH   7  17
ENDBRANCH   6   7
ENDBRANCH   3   6
ENDBRANCH   1   2
BRANCH   1  26
ATOM     26  C   UNL A   1      38.357  19.676  24.948  1.00  0.00     0.042 C 
BRANCH  26  27
ATOM     27  C   UNL A   1      39.419  19.978  25.995  1.00  0.00     0.118 C 
BRANCH  27  28
ATOM     28  N   UNL A   1      40.484  18.982  26.016  1.00  0.00    -0.352 N 
ATOM     29  C   UNL A   1      41.842  19.146  26.095  1.00  0.00     0.251 C 
ATOM     30  H   UNL A   1      40.181  18.047  25.966  1.00  0.00     0.163 HD
ATOM     31  O   UNL A   1      42.586  18.187  25.896  1.00  0.00    -0.269 OA
BRANCH  29  32
ATOM     32  C   UNL A   1      42.413  20.471  26.403  1.00  0.00     0.039 A 
ATOM     33  C   UNL A   1      42.920  21.247  25.359  1.00  0.00     0.014 A 
ATOM     34  C   UNL A   1      42.459  20.941  27.718  1.00  0.00     0.014 A 
ATOM     35  C   UNL A   1      43.413  22.524  25.628  1.00  0.00     0.010 A 
ATOM     36  C   UNL A   1      42.863  22.247  27.970  1.00  0.00     0.010 A 
ATOM     37  C   UNL A   1      43.350  23.050  26.930  1.00  0.00    -0.014 A 
BRANCH  37  38
ATOM     38  C   UNL A   1      43.787  24.437  27.221  1.00  0.00     0.031 A 
ATOM     39  C   UNL A   1      42.798  25.450  27.724  1.00  0.00     0.074 A 
ATOM     40  C   UNL A   1      45.057  24.798  26.961  1.00  0.00     0.049 A 
ATOM     41  N   UNL A   1      42.971  26.724  27.971  1.00  0.00    -0.248 NA
ATOM     42  C   UNL A   1      41.423  24.978  27.950  1.00  0.00     0.031 C 
ATOM     43  C   UNL A   1      46.091  23.918  26.414  1.00  0.00     0.029 A 
ATOM     44  N   UNL A   1      45.693  26.006  27.109  1.00  0.00    -0.354 N 
ATOM     45  C   UNL A   1      41.728  27.205  28.362  1.00  0.00     0.074 A 
ATOM     46  C   UNL A   1      40.797  26.102  28.265  1.00  0.00     0.031 C 
ATOM     47  C   UNL A   1      47.236  24.607  26.293  1.00  0.00     0.029 A 
ATOM     48  C   UNL A   1      47.007  25.986  26.711  1.00  0.00     0.049 A 
ATOM     49  H   UNL A   1      45.249  26.809  27.466  1.00  0.00     0.167 HD
ATOM     50  C   UNL A   1      41.401  28.449  28.786  1.00  0.00     0.037 A 
ATOM     51  C   UNL A   1      47.922  26.974  26.674  1.00  0.00     0.037 A 
ATOM     52  C   UNL A   1      42.339  29.534  28.900  1.00  0.00     0.049 A 
ATOM     53  C   UNL A   1      47.532  28.347  27.149  1.00  0.00     0.074 A 
ATOM     54  C   UNL A   1      42.127  30.810  29.390  1.00  0.00     0.029 A 
ATOM     55  N   UNL A   1      43.669  29.472  28.508  1.00  0.00    -0.354 N 
ATOM     56  N   UNL A   1      46.375  28.770  27.600  1.00  0.00    -0.248 NA
ATOM     57  C   UNL A   1      48.576  29.380  27.117  1.00  0.00     0.031 C 
ATOM     58  C   UNL A   1      43.310  31.540  29.235  1.00  0.00     0.029 A 
ATOM     59  C   UNL A   1      44.280  30.700  28.713  1.00  0.00     0.049 A 
ATOM     60  H   UNL A   1      44.113  28.675  28.139  1.00  0.00     0.167 HD
ATOM     61  C   UNL A   1      46.559  30.107  27.929  1.00  0.00     0.074 A 
ATOM     62  C   UNL A   1      47.944  30.419  27.643  1.00  0.00     0.031 C 
ATOM     63  C   UNL A   1      45.661  30.995  28.423  1.00  0.00     0.037 A 
BRANCH  50  64
ATOM     64  C   UNL A   1      39.964  28.706  29.149  1.00  0.00     0.064 A 
ATOM     65  C   UNL A   1      39.037  29.185  28.211  1.00  0.00     0.173 A 
ATOM     66  C   UNL A   1      39.502  28.439  30.447  1.00  0.00     0.173 A 
ATOM     67  F   UNL A   1      39.427  29.465  26.958  1.00  0.00    -0.203 F 
ATOM     68  C   UNL A   1      37.711  29.420  28.567  1.00  0.00     0.198 A 
ATOM     69  C   UNL A   1      38.168  28.642  30.790  1.00  0.00     0.198 A 
ATOM     70  F   UNL A   1      40.343  27.974  31.384  1.00  0.00    -0.203 F 
ATOM     71  F   UNL A   1      36.859  29.932  27.668  1.00  0.00    -0.200 F 
ATOM     72  C   UNL A   1      37.276  29.141  29.853  1.00  0.00     0.200 A 
ATOM     73  F   UNL A   1      37.746  28.356  32.029  1.00  0.00    -0.200 F 
ATOM     74  F   UNL A   1      35.998  29.362  30.192  1.00  0.00    -0.200 F 
ENDBRANCH  50  64
BRANCH  51  75
ATOM     75  C   UNL A   1      49.296  26.693  26.182  1.00  0.00     0.064 A 
ATOM     76  C   UNL A   1      49.646  26.925  24.844  1.00  0.00     0.173 A 
ATOM     77  C   UNL A   1      50.287  26.192  27.038  1.00  0.00     0.173 A 
ATOM     78  F   UNL A   1      48.729  27.385  23.982  1.00  0.00    -0.203 F 
ATOM     79  C   UNL A   1      50.929  26.647  24.378  1.00  0.00     0.198 A 
ATOM     80  C   UNL A   1      51.579  25.945  26.578  1.00  0.00     0.198 A 
ATOM     81  F   UNL A   1      50.006  25.958  28.328  1.00  0.00    -0.203 F 
ATOM     82  F   UNL A   1      51.224  26.833  23.084  1.00  0.00    -0.200 F 
ATOM     83  C   UNL A   1      51.896  26.164  25.247  1.00  0.00     0.200 A 
ATOM     84  F   UNL A   1      52.514  25.493  27.425  1.00  0.00    -0.200 F 
ATOM     85  F   UNL A   1      53.133  25.903  24.799  1.00  0.00    -0.200 F 
ENDBRANCH  51  75
BRANCH  63  86
ATOM     86  C   UNL A   1      46.155  32.383  28.715  1.00  0.00     0.064 A 
ATOM     87  C   UNL A   1      46.085  33.410  27.761  1.00  0.00     0.173 A 
ATOM     88  C   UNL A   1      46.670  32.699  29.982  1.00  0.00     0.173 A 
ATOM     89  F   UNL A   1      45.615  33.157  26.531  1.00  0.00    -0.203 F 
ATOM     90  C   UNL A   1      46.539  34.693  28.056  1.00  0.00     0.198 A 
ATOM     91  C   UNL A   1      47.089  33.992  30.285  1.00  0.00     0.198 A 
ATOM     92  F   UNL A   1      46.752  31.757  30.934  1.00  0.00    -0.203 F 
ATOM     93  F   UNL A   1      46.512  35.644  27.113  1.00  0.00    -0.200 F 
ATOM     94  C   UNL A   1      47.032  34.984  29.319  1.00  0.00     0.200 A 
ATOM     95  F   UNL A   1      47.548  34.276  31.512  1.00  0.00    -0.200 F 
ATOM     96  F   UNL A   1      47.458  36.223  29.605  1.00  0.00    -0.200 F 
ENDBRANCH  63  86
ENDBRANCH  37  38
ENDBRANCH  29  32
ENDBRANCH  27  28
ENDBRANCH  26  27
ENDBRANCH   1  26
TORSDOF 16
ENDMDL
