MODEL 1
REMARK VINA RESULT:     -12.8      0.000      0.000
REMARK SMILES C[C@H](C(=O)NCCCNC(=O)c1ccc(-c2c3nc(c(-c4c(F)c(F)c(F)c(F)c4F)c4ccc([nH]4)c(-c4c(F)c(F)c(F)c(F)c4F)c4nc(c(-c5c(F)c(F)c(F)c(F)c5F)c5ccc2[nH]5)C=C4)C=C3)cc1)c1cccc(C(=O)c2ccccc2)c1
REMARK SMILES IDX 6 1 5 2 3 3 4 4 2 6 1 7 75 8 76 9 88 10 77 11 79 12 78 13
REMARK SMILES IDX 80 14 81 15 82 16 83 17 87 18 84 19 86 20 85 21 7 22 8 23
REMARK SMILES IDX 9 24 10 25 11 27 12 28 13 29 74 30 14 31 73 32 15 33 16 34
REMARK SMILES IDX 17 35 67 36 18 37 72 38 66 39 68 40 19 41 71 42 65 43 64 44
REMARK SMILES IDX 20 46 52 47 32 48 51 49 33 50 36 51 50 52 69 53 34 54 35 55
REMARK SMILES IDX 49 57 70 58 37 59 21 60 22 61 30 62 23 63 24 64 28 65 31 66
REMARK SMILES IDX 25 67 26 68 29 69 27 70 53 71 54 72 62 73 55 74 56 75 60 76
REMARK SMILES IDX 63 77 57 78 58 79 61 80 59 81 38 82 39 83 47 84 40 85 41 86
REMARK SMILES IDX 45 87 48 88 42 89 43 90 46 91 44 92
REMARK H PARENT 5 5 9 26 68 45 36 56
REMARK Flexibility Score: inf
ROOT
ATOM      1  C   UNL A   1      31.403  30.803  25.765  1.00  0.00     0.117 C 
ENDROOT
BRANCH   1   2
ATOM      2  N   UNL A   1      32.246  29.835  26.444  1.00  0.00    -0.356 N 
ATOM      3  C   UNL A   1      32.804  28.676  25.986  1.00  0.00     0.227 C 
ATOM      4  O   UNL A   1      33.465  28.009  26.786  1.00  0.00    -0.274 OA
ATOM      5  H   UNL A   1      32.446  30.048  27.384  1.00  0.00     0.163 HD
BRANCH   3   6
ATOM      6  C   UNL A   1      32.581  28.223  24.536  1.00  0.00     0.105 C 
ATOM      7  C   UNL A   1      33.645  27.187  24.148  1.00  0.00     0.023 C 
BRANCH   6   8
ATOM      8  C   UNL A   1      31.160  27.706  24.350  1.00  0.00    -0.035 A 
ATOM      9  C   UNL A   1      30.853  26.370  24.647  1.00  0.00     0.004 A 
ATOM     10  C   UNL A   1      30.143  28.529  23.836  1.00  0.00     0.016 A 
ATOM     11  C   UNL A   1      29.578  25.860  24.402  1.00  0.00     0.001 A 
ATOM     12  C   UNL A   1      28.855  28.030  23.597  1.00  0.00     0.023 A 
ATOM     13  C   UNL A   1      28.585  26.685  23.876  1.00  0.00     0.012 A 
BRANCH  12  14
ATOM     14  C   UNL A   1      27.733  28.884  23.103  1.00  0.00     0.193 C 
ATOM     15  O   UNL A   1      26.575  28.479  23.157  1.00  0.00    -0.289 OA
BRANCH  14  16
ATOM     16  C   UNL A   1      27.966  30.259  22.614  1.00  0.00     0.022 A 
ATOM     17  C   UNL A   1      28.028  30.465  21.233  1.00  0.00     0.012 A 
ATOM     18  C   UNL A   1      28.128  31.328  23.500  1.00  0.00     0.012 A 
ATOM     19  C   UNL A   1      28.202  31.756  20.735  1.00  0.00     0.001 A 
ATOM     20  C   UNL A   1      28.297  32.619  22.995  1.00  0.00     0.001 A 
ATOM     21  C   UNL A   1      28.327  32.831  21.616  1.00  0.00     0.000 A 
ENDBRANCH  14  16
ENDBRANCH  12  14
ENDBRANCH   6   8
ENDBRANCH   3   6
ENDBRANCH   1   2
BRANCH   1  22
ATOM     22  C   UNL A   1      31.320  32.133  26.511  1.00  0.00     0.042 C 
BRANCH  22  23
ATOM     23  C   UNL A   1      32.663  32.698  26.964  1.00  0.00     0.118 C 
BRANCH  23  24
ATOM     24  N   UNL A   1      32.536  33.990  27.625  1.00  0.00    -0.352 N 
ATOM     25  C   UNL A   1      33.220  34.536  28.678  1.00  0.00     0.251 C 
ATOM     26  H   UNL A   1      31.838  34.573  27.250  1.00  0.00     0.163 HD
ATOM     27  O   UNL A   1      32.812  35.590  29.163  1.00  0.00    -0.269 OA
BRANCH  25  28
ATOM     28  C   UNL A   1      34.424  33.893  29.258  1.00  0.00     0.039 A 
ATOM     29  C   UNL A   1      34.236  32.925  30.254  1.00  0.00     0.014 A 
ATOM     30  C   UNL A   1      35.722  34.275  28.908  1.00  0.00     0.014 A 
ATOM     31  C   UNL A   1      35.337  32.316  30.859  1.00  0.00     0.010 A 
ATOM     32  C   UNL A   1      36.823  33.620  29.468  1.00  0.00     0.010 A 
ATOM     33  C   UNL A   1      36.641  32.641  30.456  1.00  0.00    -0.014 A 
BRANCH  33  34
ATOM     34  C   UNL A   1      37.809  31.957  31.067  1.00  0.00     0.031 A 
ATOM     35  C   UNL A   1      38.253  32.291  32.464  1.00  0.00     0.074 A 
ATOM     36  C   UNL A   1      38.490  31.043  30.349  1.00  0.00     0.049 A 
ATOM     37  N   UNL A   1      39.237  31.781  33.164  1.00  0.00    -0.248 NA
ATOM     38  C   UNL A   1      37.508  33.350  33.162  1.00  0.00     0.031 C 
ATOM     39  C   UNL A   1      38.195  30.669  28.965  1.00  0.00     0.029 A 
ATOM     40  N   UNL A   1      39.567  30.262  30.684  1.00  0.00    -0.354 N 
ATOM     41  C   UNL A   1      39.236  32.462  34.374  1.00  0.00     0.074 A 
ATOM     42  C   UNL A   1      38.181  33.452  34.299  1.00  0.00     0.031 C 
ATOM     43  C   UNL A   1      39.053  29.711  28.578  1.00  0.00     0.029 A 
ATOM     44  C   UNL A   1      39.968  29.419  29.677  1.00  0.00     0.049 A 
ATOM     45  H   UNL A   1      40.010  30.303  31.562  1.00  0.00     0.167 HD
ATOM     46  C   UNL A   1      40.026  32.266  35.456  1.00  0.00     0.037 A 
ATOM     47  C   UNL A   1      40.955  28.505  29.648  1.00  0.00     0.037 A 
ATOM     48  C   UNL A   1      41.057  31.265  35.544  1.00  0.00     0.049 A 
ATOM     49  C   UNL A   1      41.797  28.284  30.873  1.00  0.00     0.074 A 
ATOM     50  C   UNL A   1      41.868  30.951  36.621  1.00  0.00     0.029 A 
ATOM     51  N   UNL A   1      41.419  30.413  34.511  1.00  0.00    -0.354 N 
ATOM     52  N   UNL A   1      41.737  28.885  32.036  1.00  0.00    -0.248 NA
ATOM     53  C   UNL A   1      42.835  27.248  30.784  1.00  0.00     0.031 C 
ATOM     54  C   UNL A   1      42.741  29.929  36.230  1.00  0.00     0.029 A 
ATOM     55  C   UNL A   1      42.450  29.583  34.921  1.00  0.00     0.049 A 
ATOM     56  H   UNL A   1      41.004  30.401  33.619  1.00  0.00     0.167 HD
ATOM     57  C   UNL A   1      42.714  28.291  32.822  1.00  0.00     0.074 A 
ATOM     58  C   UNL A   1      43.339  27.267  32.011  1.00  0.00     0.031 C 
ATOM     59  C   UNL A   1      43.063  28.570  34.102  1.00  0.00     0.037 A 
BRANCH  46  60
ATOM     60  C   UNL A   1      39.802  33.153  36.646  1.00  0.00     0.064 A 
ATOM     61  C   UNL A   1      40.544  34.329  36.831  1.00  0.00     0.173 A 
ATOM     62  C   UNL A   1      38.808  32.846  37.587  1.00  0.00     0.173 A 
ATOM     63  F   UNL A   1      41.513  34.659  35.964  1.00  0.00    -0.203 F 
ATOM     64  C   UNL A   1      40.317  35.152  37.931  1.00  0.00     0.198 A 
ATOM     65  C   UNL A   1      38.567  33.685  38.672  1.00  0.00     0.198 A 
ATOM     66  F   UNL A   1      38.067  31.737  37.452  1.00  0.00    -0.203 F 
ATOM     67  F   UNL A   1      41.066  36.249  38.111  1.00  0.00    -0.200 F 
ATOM     68  C   UNL A   1      39.325  34.833  38.847  1.00  0.00     0.200 A 
ATOM     69  F   UNL A   1      37.603  33.382  39.551  1.00  0.00    -0.200 F 
ATOM     70  F   UNL A   1      39.106  35.630  39.901  1.00  0.00    -0.200 F 
ENDBRANCH  46  60
BRANCH  47  71
ATOM     71  C   UNL A   1      41.172  27.695  28.423  1.00  0.00     0.064 A 
ATOM     72  C   UNL A   1      40.523  26.465  28.254  1.00  0.00     0.173 A 
ATOM     73  C   UNL A   1      42.020  28.136  27.399  1.00  0.00     0.173 A 
ATOM     74  F   UNL A   1      39.717  25.995  29.218  1.00  0.00    -0.203 F 
ATOM     75  C   UNL A   1      40.726  25.696  27.110  1.00  0.00     0.198 A 
ATOM     76  C   UNL A   1      42.206  27.377  26.244  1.00  0.00     0.198 A 
ATOM     77  F   UNL A   1      42.659  29.310  27.513  1.00  0.00    -0.203 F 
ATOM     78  F   UNL A   1      40.122  24.508  26.988  1.00  0.00    -0.200 F 
ATOM     79  C   UNL A   1      41.563  26.156  26.104  1.00  0.00     0.200 A 
ATOM     80  F   UNL A   1      43.005  27.829  25.270  1.00  0.00    -0.200 F 
ATOM     81  F   UNL A   1      41.754  25.419  25.001  1.00  0.00    -0.200 F 
ENDBRANCH  47  71
BRANCH  59  82
ATOM     82  C   UNL A   1      44.161  27.747  34.703  1.00  0.00     0.064 A 
ATOM     83  C   UNL A   1      45.500  28.159  34.645  1.00  0.00     0.173 A 
ATOM     84  C   UNL A   1      43.870  26.542  35.360  1.00  0.00     0.173 A 
ATOM     85  F   UNL A   1      45.830  29.295  34.012  1.00  0.00    -0.203 F 
ATOM     86  C   UNL A   1      46.513  27.381  35.199  1.00  0.00     0.198 A 
ATOM     87  C   UNL A   1      44.882  25.778  35.935  1.00  0.00     0.198 A 
ATOM     88  F   UNL A   1      42.604  26.107  35.445  1.00  0.00    -0.203 F 
ATOM     89  F   UNL A   1      47.790  27.771  35.091  1.00  0.00    -0.200 F 
ATOM     90  C   UNL A   1      46.203  26.194  35.848  1.00  0.00     0.200 A 
ATOM     91  F   UNL A   1      44.581  24.636  36.567  1.00  0.00    -0.200 F 
ATOM     92  F   UNL A   1      47.179  25.446  36.380  1.00  0.00    -0.200 F 
ENDBRANCH  59  82
ENDBRANCH  33  34
ENDBRANCH  25  28
ENDBRANCH  23  24
ENDBRANCH  22  23
ENDBRANCH   1  22
TORSDOF 13
ENDMDL
MODEL 2
REMARK VINA RESULT:     -12.7      0.221      1.696
REMARK SMILES C[C@H](C(=O)NCCCNC(=O)c1ccc(-c2c3nc(c(-c4c(F)c(F)c(F)c(F)c4F)c4ccc([nH]4)c(-c4c(F)c(F)c(F)c(F)c4F)c4nc(c(-c5c(F)c(F)c(F)c(F)c5F)c5ccc2[nH]5)C=C4)C=C3)cc1)c1cccc(C(=O)c2ccccc2)c1
REMARK SMILES IDX 6 1 5 2 3 3 4 4 2 6 1 7 75 8 76 9 88 10 77 11 79 12 78 13
REMARK SMILES IDX 80 14 81 15 82 16 83 17 87 18 84 19 86 20 85 21 7 22 8 23
REMARK SMILES IDX 9 24 10 25 11 27 12 28 13 29 74 30 14 31 73 32 15 33 16 34
REMARK SMILES IDX 17 35 67 36 18 37 72 38 66 39 68 40 19 41 71 42 65 43 64 44
REMARK SMILES IDX 20 46 52 47 32 48 51 49 33 50 36 51 50 52 69 53 34 54 35 55
REMARK SMILES IDX 49 57 70 58 37 59 21 60 22 61 30 62 23 63 24 64 28 65 31 66
REMARK SMILES IDX 25 67 26 68 29 69 27 70 53 71 54 72 62 73 55 74 56 75 60 76
REMARK SMILES IDX 63 77 57 78 58 79 61 80 59 81 38 82 39 83 47 84 40 85 41 86
REMARK SMILES IDX 45 87 48 88 42 89 43 90 46 91 44 92
REMARK H PARENT 5 5 9 26 68 45 36 56
REMARK Flexibility Score: inf
ROOT
ATOM      1  C   UNL A   1      31.395  30.674  25.701  1.00  0.00     0.117 C 
ENDROOT
BRANCH   1   2
ATOM      2  N   UNL A   1      32.373  29.750  26.245  1.00  0.00    -0.356 N 
ATOM      3  C   UNL A   1      32.964  28.656  25.681  1.00  0.00     0.227 C 
ATOM      4  O   UNL A   1      33.753  28.014  26.379  1.00  0.00    -0.274 OA
ATOM      5  H   UNL A   1      32.655  29.943  27.169  1.00  0.00     0.163 HD
BRANCH   3   6
ATOM      6  C   UNL A   1      32.623  28.242  24.242  1.00  0.00     0.105 C 
ATOM      7  C   UNL A   1      33.668  27.240  23.732  1.00  0.00     0.023 C 
BRANCH   6   8
ATOM      8  C   UNL A   1      31.202  27.701  24.164  1.00  0.00    -0.035 A 
ATOM      9  C   UNL A   1      30.933  26.372  24.527  1.00  0.00     0.004 A 
ATOM     10  C   UNL A   1      30.142  28.492  23.687  1.00  0.00     0.016 A 
ATOM     11  C   UNL A   1      29.653  25.838  24.381  1.00  0.00     0.001 A 
ATOM     12  C   UNL A   1      28.849  27.969  23.547  1.00  0.00     0.023 A 
ATOM     13  C   UNL A   1      28.617  26.631  23.890  1.00  0.00     0.012 A 
BRANCH  12  14
ATOM     14  C   UNL A   1      27.687  28.791  23.094  1.00  0.00     0.193 C 
ATOM     15  O   UNL A   1      26.542  28.359  23.205  1.00  0.00    -0.289 OA
BRANCH  14  16
ATOM     16  C   UNL A   1      27.864  30.164  22.580  1.00  0.00     0.022 A 
ATOM     17  C   UNL A   1      27.930  31.211  23.505  1.00  0.00     0.012 A 
ATOM     18  C   UNL A   1      27.957  30.422  21.209  1.00  0.00     0.012 A 
ATOM     19  C   UNL A   1      28.140  32.515  23.058  1.00  0.00     0.001 A 
ATOM     20  C   UNL A   1      28.173  31.728  20.769  1.00  0.00     0.001 A 
ATOM     21  C   UNL A   1      28.270  32.771  21.693  1.00  0.00     0.000 A 
ENDBRANCH  14  16
ENDBRANCH  12  14
ENDBRANCH   6   8
ENDBRANCH   3   6
ENDBRANCH   1   2
BRANCH   1  22
ATOM     22  C   UNL A   1      31.334  31.988  26.476  1.00  0.00     0.042 C 
BRANCH  22  23
ATOM     23  C   UNL A   1      32.650  32.411  27.124  1.00  0.00     0.118 C 
BRANCH  23  24
ATOM     24  N   UNL A   1      32.619  33.779  27.622  1.00  0.00    -0.352 N 
ATOM     25  C   UNL A   1      33.385  34.415  28.561  1.00  0.00     0.251 C 
ATOM     26  H   UNL A   1      31.927  34.346  27.212  1.00  0.00     0.163 HD
ATOM     27  O   UNL A   1      33.053  35.541  28.929  1.00  0.00    -0.269 OA
BRANCH  25  28
ATOM     28  C   UNL A   1      34.590  33.789  29.156  1.00  0.00     0.039 A 
ATOM     29  C   UNL A   1      34.405  32.715  30.037  1.00  0.00     0.014 A 
ATOM     30  C   UNL A   1      35.880  34.279  28.934  1.00  0.00     0.014 A 
ATOM     31  C   UNL A   1      35.503  32.113  30.653  1.00  0.00     0.010 A 
ATOM     32  C   UNL A   1      36.984  33.637  29.501  1.00  0.00     0.010 A 
ATOM     33  C   UNL A   1      36.806  32.553  30.373  1.00  0.00    -0.014 A 
BRANCH  33  34
ATOM     34  C   UNL A   1      37.976  31.880  30.993  1.00  0.00     0.031 A 
ATOM     35  C   UNL A   1      38.409  32.220  32.392  1.00  0.00     0.074 A 
ATOM     36  C   UNL A   1      38.668  30.970  30.280  1.00  0.00     0.049 A 
ATOM     37  N   UNL A   1      39.393  31.719  33.098  1.00  0.00    -0.248 NA
ATOM     38  C   UNL A   1      37.651  33.274  33.083  1.00  0.00     0.031 C 
ATOM     39  C   UNL A   1      38.385  30.591  28.895  1.00  0.00     0.029 A 
ATOM     40  N   UNL A   1      39.750  30.199  30.623  1.00  0.00    -0.354 N 
ATOM     41  C   UNL A   1      39.379  32.403  34.306  1.00  0.00     0.074 A 
ATOM     42  C   UNL A   1      38.316  33.383  34.224  1.00  0.00     0.031 C 
ATOM     43  C   UNL A   1      39.253  29.640  28.514  1.00  0.00     0.029 A 
ATOM     44  C   UNL A   1      40.164  29.357  29.620  1.00  0.00     0.049 A 
ATOM     45  H   UNL A   1      40.188  30.245  31.503  1.00  0.00     0.167 HD
ATOM     46  C   UNL A   1      40.165  32.215  35.393  1.00  0.00     0.037 A 
ATOM     47  C   UNL A   1      41.159  28.452  29.597  1.00  0.00     0.037 A 
ATOM     48  C   UNL A   1      41.203  31.223  35.489  1.00  0.00     0.049 A 
ATOM     49  C   UNL A   1      41.995  28.240  30.828  1.00  0.00     0.074 A 
ATOM     50  C   UNL A   1      42.011  30.917  36.572  1.00  0.00     0.029 A 
ATOM     51  N   UNL A   1      41.578  30.372  34.460  1.00  0.00    -0.354 N 
ATOM     52  N   UNL A   1      41.924  28.842  31.989  1.00  0.00    -0.248 NA
ATOM     53  C   UNL A   1      43.042  27.212  30.747  1.00  0.00     0.031 C 
ATOM     54  C   UNL A   1      42.894  29.901  36.188  1.00  0.00     0.029 A 
ATOM     55  C   UNL A   1      42.615  29.551  34.877  1.00  0.00     0.049 A 
ATOM     56  H   UNL A   1      41.168  30.354  33.565  1.00  0.00     0.167 HD
ATOM     57  C   UNL A   1      42.901  28.257  32.783  1.00  0.00     0.074 A 
ATOM     58  C   UNL A   1      43.540  27.238  31.976  1.00  0.00     0.031 C 
ATOM     59  C   UNL A   1      43.241  28.542  34.063  1.00  0.00     0.037 A 
BRANCH  46  60
ATOM     60  C   UNL A   1      39.926  33.102  36.580  1.00  0.00     0.064 A 
ATOM     61  C   UNL A   1      38.962  32.784  37.548  1.00  0.00     0.173 A 
ATOM     62  C   UNL A   1      40.695  34.259  36.773  1.00  0.00     0.173 A 
ATOM     63  F   UNL A   1      38.194  31.694  37.402  1.00  0.00    -0.203 F 
ATOM     64  C   UNL A   1      38.759  33.606  38.653  1.00  0.00     0.198 A 
ATOM     65  C   UNL A   1      40.506  35.066  37.892  1.00  0.00     0.198 A 
ATOM     66  F   UNL A   1      41.634  34.604  35.880  1.00  0.00    -0.203 F 
ATOM     67  F   UNL A   1      37.804  33.305  39.544  1.00  0.00    -0.200 F 
ATOM     68  C   UNL A   1      39.535  34.743  38.827  1.00  0.00     0.200 A 
ATOM     69  F   UNL A   1      41.262  36.158  38.065  1.00  0.00    -0.200 F 
ATOM     70  F   UNL A   1      39.341  35.529  39.894  1.00  0.00    -0.200 F 
ENDBRANCH  46  60
BRANCH  47  71
ATOM     71  C   UNL A   1      41.389  27.642  28.376  1.00  0.00     0.064 A 
ATOM     72  C   UNL A   1      42.318  28.051  27.409  1.00  0.00     0.173 A 
ATOM     73  C   UNL A   1      40.697  26.444  28.154  1.00  0.00     0.173 A 
ATOM     74  F   UNL A   1      42.989  29.202  27.570  1.00  0.00    -0.203 F 
ATOM     75  C   UNL A   1      42.534  27.299  26.256  1.00  0.00     0.198 A 
ATOM     76  C   UNL A   1      40.930  25.681  27.011  1.00  0.00     0.198 A 
ATOM     77  F   UNL A   1      39.802  26.009  29.053  1.00  0.00    -0.203 F 
ATOM     78  F   UNL A   1      43.401  27.731  25.331  1.00  0.00    -0.200 F 
ATOM     79  C   UNL A   1      41.844  26.112  26.062  1.00  0.00     0.200 A 
ATOM     80  F   UNL A   1      40.270  24.529  26.831  1.00  0.00    -0.200 F 
ATOM     81  F   UNL A   1      42.056  25.386  24.955  1.00  0.00    -0.200 F 
ENDBRANCH  47  71
BRANCH  59  82
ATOM     82  C   UNL A   1      44.342  27.729  34.673  1.00  0.00     0.064 A 
ATOM     83  C   UNL A   1      45.679  28.148  34.613  1.00  0.00     0.173 A 
ATOM     84  C   UNL A   1      44.056  26.527  35.337  1.00  0.00     0.173 A 
ATOM     85  F   UNL A   1      46.003  29.281  33.973  1.00  0.00    -0.203 F 
ATOM     86  C   UNL A   1      46.694  27.379  35.175  1.00  0.00     0.198 A 
ATOM     87  C   UNL A   1      45.071  25.773  35.920  1.00  0.00     0.198 A 
ATOM     88  F   UNL A   1      42.792  26.086  35.424  1.00  0.00    -0.203 F 
ATOM     89  F   UNL A   1      47.970  27.775  35.067  1.00  0.00    -0.200 F 
ATOM     90  C   UNL A   1      46.390  26.195  35.832  1.00  0.00     0.200 A 
ATOM     91  F   UNL A   1      44.775  24.634  36.559  1.00  0.00    -0.200 F 
ATOM     92  F   UNL A   1      47.369  25.456  36.372  1.00  0.00    -0.200 F 
ENDBRANCH  59  82
ENDBRANCH  33  34
ENDBRANCH  25  28
ENDBRANCH  23  24
ENDBRANCH  22  23
ENDBRANCH   1  22
TORSDOF 13
ENDMDL
MODEL 3
REMARK VINA RESULT:     -12.7      1.909      3.904
REMARK SMILES C[C@H](C(=O)NCCCNC(=O)c1ccc(-c2c3nc(c(-c4c(F)c(F)c(F)c(F)c4F)c4ccc([nH]4)c(-c4c(F)c(F)c(F)c(F)c4F)c4nc(c(-c5c(F)c(F)c(F)c(F)c5F)c5ccc2[nH]5)C=C4)C=C3)cc1)c1cccc(C(=O)c2ccccc2)c1
REMARK SMILES IDX 6 1 5 2 3 3 4 4 2 6 1 7 75 8 76 9 88 10 77 11 79 12 78 13
REMARK SMILES IDX 80 14 81 15 82 16 83 17 87 18 84 19 86 20 85 21 7 22 8 23
REMARK SMILES IDX 9 24 10 25 11 27 12 28 13 29 74 30 14 31 73 32 15 33 16 34
REMARK SMILES IDX 17 35 67 36 18 37 72 38 66 39 68 40 19 41 71 42 65 43 64 44
REMARK SMILES IDX 20 46 52 47 32 48 51 49 33 50 36 51 50 52 69 53 34 54 35 55
REMARK SMILES IDX 49 57 70 58 37 59 21 60 22 61 30 62 23 63 24 64 28 65 31 66
REMARK SMILES IDX 25 67 26 68 29 69 27 70 53 71 54 72 62 73 55 74 56 75 60 76
REMARK SMILES IDX 63 77 57 78 58 79 61 80 59 81 38 82 39 83 47 84 40 85 41 86
REMARK SMILES IDX 45 87 48 88 42 89 43 90 46 91 44 92
REMARK H PARENT 5 5 9 26 68 45 36 56
REMARK Flexibility Score: inf
ROOT
ATOM      1  C   UNL A   1      31.187  31.072  25.755  1.00  0.00     0.117 C 
ENDROOT
BRANCH   1   2
ATOM      2  N   UNL A   1      31.317  29.967  26.687  1.00  0.00    -0.356 N 
ATOM      3  C   UNL A   1      32.371  29.131  26.924  1.00  0.00     0.227 C 
ATOM      4  O   UNL A   1      32.212  28.239  27.761  1.00  0.00    -0.274 OA
ATOM      5  H   UNL A   1      30.518  29.792  27.235  1.00  0.00     0.163 HD
BRANCH   3   6
ATOM      6  C   UNL A   1      33.685  29.294  26.145  1.00  0.00     0.105 C 
ATOM      7  C   UNL A   1      34.875  29.034  27.079  1.00  0.00     0.023 C 
BRANCH   6   8
ATOM      8  C   UNL A   1      33.693  28.393  24.917  1.00  0.00    -0.035 A 
ATOM      9  C   UNL A   1      33.656  28.954  23.632  1.00  0.00     0.004 A 
ATOM     10  C   UNL A   1      33.689  26.992  25.037  1.00  0.00     0.016 A 
ATOM     11  C   UNL A   1      33.578  28.141  22.501  1.00  0.00     0.001 A 
ATOM     12  C   UNL A   1      33.622  26.165  23.907  1.00  0.00     0.023 A 
ATOM     13  C   UNL A   1      33.557  26.754  22.638  1.00  0.00     0.012 A 
BRANCH  12  14
ATOM     14  C   UNL A   1      33.669  24.674  23.989  1.00  0.00     0.193 C 
ATOM     15  O   UNL A   1      32.667  24.008  23.744  1.00  0.00    -0.289 OA
BRANCH  14  16
ATOM     16  C   UNL A   1      34.925  23.955  24.285  1.00  0.00     0.022 A 
ATOM     17  C   UNL A   1      35.492  23.175  23.272  1.00  0.00     0.012 A 
ATOM     18  C   UNL A   1      35.533  24.039  25.541  1.00  0.00     0.012 A 
ATOM     19  C   UNL A   1      36.700  22.518  23.501  1.00  0.00     0.001 A 
ATOM     20  C   UNL A   1      36.745  23.382  25.763  1.00  0.00     0.001 A 
ATOM     21  C   UNL A   1      37.329  22.629  24.742  1.00  0.00     0.000 A 
ENDBRANCH  14  16
ENDBRANCH  12  14
ENDBRANCH   6   8
ENDBRANCH   3   6
ENDBRANCH   1   2
BRANCH   1  22
ATOM     22  C   UNL A   1      31.212  32.432  26.451  1.00  0.00     0.042 C 
BRANCH  22  23
ATOM     23  C   UNL A   1      32.563  32.824  27.042  1.00  0.00     0.118 C 
BRANCH  23  24
ATOM     24  N   UNL A   1      32.556  34.159  27.626  1.00  0.00    -0.352 N 
ATOM     25  C   UNL A   1      33.277  34.696  28.658  1.00  0.00     0.251 C 
ATOM     26  H   UNL A   1      31.923  34.783  27.205  1.00  0.00     0.163 HD
ATOM     27  O   UNL A   1      32.969  35.812  29.074  1.00  0.00    -0.269 OA
BRANCH  25  28
ATOM     28  C   UNL A   1      34.405  33.974  29.296  1.00  0.00     0.039 A 
ATOM     29  C   UNL A   1      35.708  34.371  28.969  1.00  0.00     0.014 A 
ATOM     30  C   UNL A   1      34.213  32.874  30.136  1.00  0.00     0.014 A 
ATOM     31  C   UNL A   1      36.805  33.701  29.513  1.00  0.00     0.010 A 
ATOM     32  C   UNL A   1      35.310  32.243  30.730  1.00  0.00     0.010 A 
ATOM     33  C   UNL A   1      36.617  32.644  30.417  1.00  0.00    -0.014 A 
BRANCH  33  34
ATOM     34  C   UNL A   1      37.785  31.964  31.032  1.00  0.00     0.031 A 
ATOM     35  C   UNL A   1      38.231  32.308  32.426  1.00  0.00     0.074 A 
ATOM     36  C   UNL A   1      38.465  31.045  30.319  1.00  0.00     0.049 A 
ATOM     37  N   UNL A   1      39.217  31.804  33.127  1.00  0.00    -0.248 NA
ATOM     38  C   UNL A   1      37.488  33.373  33.116  1.00  0.00     0.031 C 
ATOM     39  C   UNL A   1      38.168  30.661  28.939  1.00  0.00     0.029 A 
ATOM     40  N   UNL A   1      39.542  30.266  30.658  1.00  0.00    -0.354 N 
ATOM     41  C   UNL A   1      39.218  32.494  34.332  1.00  0.00     0.074 A 
ATOM     42  C   UNL A   1      38.163  33.483  34.252  1.00  0.00     0.031 C 
ATOM     43  C   UNL A   1      39.025  29.700  28.557  1.00  0.00     0.029 A 
ATOM     44  C   UNL A   1      39.941  29.416  29.657  1.00  0.00     0.049 A 
ATOM     45  H   UNL A   1      39.987  30.314  31.535  1.00  0.00     0.167 HD
ATOM     46  C   UNL A   1      40.010  32.305  35.414  1.00  0.00     0.037 A 
ATOM     47  C   UNL A   1      40.929  28.501  29.633  1.00  0.00     0.037 A 
ATOM     48  C   UNL A   1      41.040  31.305  35.508  1.00  0.00     0.049 A 
ATOM     49  C   UNL A   1      41.772  28.289  30.858  1.00  0.00     0.074 A 
ATOM     50  C   UNL A   1      41.853  30.998  36.586  1.00  0.00     0.029 A 
ATOM     51  N   UNL A   1      41.400  30.445  34.481  1.00  0.00    -0.354 N 
ATOM     52  N   UNL A   1      41.715  28.899  32.016  1.00  0.00    -0.248 NA
ATOM     53  C   UNL A   1      42.810  27.252  30.775  1.00  0.00     0.031 C 
ATOM     54  C   UNL A   1      42.725  29.973  36.201  1.00  0.00     0.029 A 
ATOM     55  C   UNL A   1      42.432  29.618  34.895  1.00  0.00     0.049 A 
ATOM     56  H   UNL A   1      40.984  30.426  33.589  1.00  0.00     0.167 HD
ATOM     57  C   UNL A   1      42.692  28.310  32.806  1.00  0.00     0.074 A 
ATOM     58  C   UNL A   1      43.316  27.280  32.000  1.00  0.00     0.031 C 
ATOM     59  C   UNL A   1      43.044  28.599  34.082  1.00  0.00     0.037 A 
BRANCH  46  60
ATOM     60  C   UNL A   1      39.787  33.201  36.598  1.00  0.00     0.064 A 
ATOM     61  C   UNL A   1      40.490  34.406  36.745  1.00  0.00     0.173 A 
ATOM     62  C   UNL A   1      38.834  32.872  37.573  1.00  0.00     0.173 A 
ATOM     63  F   UNL A   1      41.420  34.758  35.845  1.00  0.00    -0.203 F 
ATOM     64  C   UNL A   1      40.265  35.236  37.839  1.00  0.00     0.198 A 
ATOM     65  C   UNL A   1      38.594  33.717  38.653  1.00  0.00     0.198 A 
ATOM     66  F   UNL A   1      38.131  31.734  37.475  1.00  0.00    -0.203 F 
ATOM     67  F   UNL A   1      40.978  36.363  37.982  1.00  0.00    -0.200 F 
ATOM     68  C   UNL A   1      39.313  34.895  38.789  1.00  0.00     0.200 A 
ATOM     69  F   UNL A   1      37.668  33.391  39.565  1.00  0.00    -0.200 F 
ATOM     70  F   UNL A   1      39.095  35.699  39.839  1.00  0.00    -0.200 F 
ENDBRANCH  46  60
BRANCH  47  71
ATOM     71  C   UNL A   1      41.143  27.683  28.414  1.00  0.00     0.064 A 
ATOM     72  C   UNL A   1      42.084  28.067  27.449  1.00  0.00     0.173 A 
ATOM     73  C   UNL A   1      40.422  26.502  28.193  1.00  0.00     0.173 A 
ATOM     74  F   UNL A   1      42.783  29.201  27.609  1.00  0.00    -0.203 F 
ATOM     75  C   UNL A   1      42.286  27.306  26.299  1.00  0.00     0.198 A 
ATOM     76  C   UNL A   1      40.640  25.730  27.053  1.00  0.00     0.198 A 
ATOM     77  F   UNL A   1      39.514  26.091  29.091  1.00  0.00    -0.203 F 
ATOM     78  F   UNL A   1      43.166  27.714  25.376  1.00  0.00    -0.200 F 
ATOM     79  C   UNL A   1      41.568  26.136  26.105  1.00  0.00     0.200 A 
ATOM     80  F   UNL A   1      39.953  24.594  26.874  1.00  0.00    -0.200 F 
ATOM     81  F   UNL A   1      41.765  25.402  25.001  1.00  0.00    -0.200 F 
ENDBRANCH  47  71
BRANCH  59  82
ATOM     82  C   UNL A   1      44.143  27.779  34.688  1.00  0.00     0.064 A 
ATOM     83  C   UNL A   1      43.875  26.571  35.348  1.00  0.00     0.173 A 
ATOM     84  C   UNL A   1      45.479  28.198  34.593  1.00  0.00     0.173 A 
ATOM     85  F   UNL A   1      42.612  26.139  35.479  1.00  0.00    -0.203 F 
ATOM     86  C   UNL A   1      44.904  25.824  35.914  1.00  0.00     0.198 A 
ATOM     87  C   UNL A   1      46.507  27.435  35.139  1.00  0.00     0.198 A 
ATOM     88  F   UNL A   1      45.785  29.344  33.968  1.00  0.00    -0.203 F 
ATOM     89  F   UNL A   1      44.621  24.696  36.581  1.00  0.00    -0.200 F 
ATOM     90  C   UNL A   1      46.219  26.253  35.806  1.00  0.00     0.200 A 
ATOM     91  F   UNL A   1      47.777  27.847  35.028  1.00  0.00    -0.200 F 
ATOM     92  F   UNL A   1      47.207  25.532  36.353  1.00  0.00    -0.200 F 
ENDBRANCH  59  82
ENDBRANCH  33  34
ENDBRANCH  25  28
ENDBRANCH  23  24
ENDBRANCH  22  23
ENDBRANCH   1  22
TORSDOF 13
ENDMDL
