MODEL 1
REMARK VINA RESULT:     -12.0      0.000      0.000
REMARK SMILES CC[C@@](C)(NC(=O)c1ccncc1F)C(=O)NCCCNC(=O)c1ccc(-c2c3nc(c(-c4c(F)c(F)c(F)c(F)c4F)c4ccc([nH]4)c(-c4c(F)c(F)c(F)c(F)c4F)c4nc(c(-c5c(F)c(F)c(F)c(F)c5F)c5ccc2[nH]5)C=C4)C=C3)cc1
REMARK SMILES IDX 19 1 18 2 17 3 15 4 16 5 3 7 4 8 2 9 1 10 5 11 6 12 7 14
REMARK SMILES IDX 8 15 9 16 13 17 10 18 12 19 14 20 11 21 20 22 21 23 22 24
REMARK SMILES IDX 23 26 24 27 25 28 86 29 26 30 85 31 27 32 28 33 29 34 79 35
REMARK SMILES IDX 30 36 84 37 78 38 80 39 31 40 83 41 77 42 76 43 32 45 64 46
REMARK SMILES IDX 44 47 63 48 45 49 48 50 62 51 81 52 46 53 47 54 61 56 82 57
REMARK SMILES IDX 49 58 33 59 34 60 42 61 35 62 36 63 40 64 43 65 37 66 38 67
REMARK SMILES IDX 41 68 39 69 65 70 66 71 74 72 67 73 68 74 72 75 75 76 69 77
REMARK SMILES IDX 70 78 73 79 71 80 50 81 51 82 59 83 52 84 53 85 57 86 60 87
REMARK SMILES IDX 54 88 55 89 58 90 56 91
REMARK H PARENT 17 6 5 13 21 25 80 44 48 55
REMARK Flexibility Score: inf
ROOT
ATOM      1  C   UNL A   1      37.784  19.665  24.850  1.00  0.00     0.042 C 
ENDROOT
BRANCH   1   2
ATOM      2  C   UNL A   1      36.476  20.440  24.998  1.00  0.00     0.117 C 
BRANCH   2   3
ATOM      3  N   UNL A   1      35.245  19.672  25.018  1.00  0.00    -0.354 N 
ATOM      4  C   UNL A   1      33.914  19.983  25.009  1.00  0.00     0.245 C 
ATOM      5  O   UNL A   1      33.156  19.024  24.814  1.00  0.00    -0.272 OA
ATOM      6  H   UNL A   1      35.406  18.700  25.043  1.00  0.00     0.163 HD
BRANCH   4   7
ATOM      7  C   UNL A   1      33.362  21.436  25.108  1.00  0.00     0.116 C 
ATOM      8  C   UNL A   1      34.162  22.135  26.240  1.00  0.00     0.045 C 
BRANCH   7   9
ATOM      9  C   UNL A   1      33.570  22.257  23.799  1.00  0.00     0.035 C 
ATOM     10  C   UNL A   1      34.417  23.527  23.893  1.00  0.00     0.007 C 
ENDBRANCH   7   9
BRANCH   7  11
ATOM     11  N   UNL A   1      31.922  21.522  25.480  1.00  0.00    -0.338 N 
ATOM     12  C   UNL A   1      31.017  22.520  25.730  1.00  0.00     0.255 C 
ATOM     13  H   UNL A   1      31.515  20.630  25.567  1.00  0.00     0.164 HD
ATOM     14  O   UNL A   1      30.007  22.168  26.350  1.00  0.00    -0.269 OA
BRANCH  12  15
ATOM     15  C   UNL A   1      31.085  23.948  25.336  1.00  0.00     0.078 A 
ATOM     16  C   UNL A   1      31.377  24.869  26.356  1.00  0.00     0.037 A 
ATOM     17  C   UNL A   1      30.662  24.467  24.124  1.00  0.00     0.154 A 
ATOM     18  C   UNL A   1      31.234  26.229  26.112  1.00  0.00     0.112 A 
ATOM     19  C   UNL A   1      30.559  25.840  23.962  1.00  0.00     0.151 A 
ATOM     20  F   UNL A   1      30.228  23.709  23.127  1.00  0.00    -0.204 F 
ATOM     21  N   UNL A   1      30.833  26.737  24.930  1.00  0.00    -0.262 NA
ENDBRANCH  12  15
ENDBRANCH   7  11
ENDBRANCH   4   7
ENDBRANCH   2   3
ENDBRANCH   1   2
BRANCH   1  22
ATOM     22  C   UNL A   1      38.972  20.111  25.696  1.00  0.00     0.118 C 
BRANCH  22  23
ATOM     23  N   UNL A   1      40.045  19.139  25.786  1.00  0.00    -0.352 N 
ATOM     24  C   UNL A   1      41.365  19.303  26.119  1.00  0.00     0.251 C 
ATOM     25  H   UNL A   1      39.783  18.214  25.575  1.00  0.00     0.163 HD
ATOM     26  O   UNL A   1      42.114  18.322  26.110  1.00  0.00    -0.269 OA
BRANCH  24  27
ATOM     27  C   UNL A   1      41.930  20.633  26.442  1.00  0.00     0.039 A 
ATOM     28  C   UNL A   1      42.221  21.494  25.378  1.00  0.00     0.014 A 
ATOM     29  C   UNL A   1      42.223  21.030  27.751  1.00  0.00     0.014 A 
ATOM     30  C   UNL A   1      42.739  22.769  25.624  1.00  0.00     0.010 A 
ATOM     31  C   UNL A   1      42.700  22.323  28.000  1.00  0.00     0.010 A 
ATOM     32  C   UNL A   1      42.954  23.207  26.939  1.00  0.00    -0.014 A 
BRANCH  32  33
ATOM     33  C   UNL A   1      43.410  24.598  27.204  1.00  0.00     0.031 A 
ATOM     34  C   UNL A   1      42.465  25.629  27.755  1.00  0.00     0.074 A 
ATOM     35  C   UNL A   1      44.680  24.945  26.919  1.00  0.00     0.049 A 
ATOM     36  N   UNL A   1      42.684  26.894  28.020  1.00  0.00    -0.248 NA
ATOM     37  C   UNL A   1      41.093  25.184  28.037  1.00  0.00     0.031 C 
ATOM     38  C   UNL A   1      45.693  24.049  26.361  1.00  0.00     0.029 A 
ATOM     39  N   UNL A   1      45.335  26.146  27.051  1.00  0.00    -0.354 N 
ATOM     40  C   UNL A   1      41.480  27.397  28.492  1.00  0.00     0.074 A 
ATOM     41  C   UNL A   1      40.523  26.309  28.445  1.00  0.00     0.031 C 
ATOM     42  C   UNL A   1      46.841  24.726  26.207  1.00  0.00     0.029 A 
ATOM     43  C   UNL A   1      46.640  26.111  26.624  1.00  0.00     0.049 A 
ATOM     44  H   UNL A   1      44.909  26.954  27.418  1.00  0.00     0.167 HD
ATOM     45  C   UNL A   1      41.201  28.646  28.939  1.00  0.00     0.037 A 
ATOM     46  C   UNL A   1      47.567  27.087  26.561  1.00  0.00     0.037 A 
ATOM     47  C   UNL A   1      42.152  29.726  29.002  1.00  0.00     0.049 A 
ATOM     48  C   UNL A   1      47.221  28.472  27.032  1.00  0.00     0.074 A 
ATOM     49  C   UNL A   1      41.972  31.007  29.495  1.00  0.00     0.029 A 
ATOM     50  N   UNL A   1      43.461  29.654  28.549  1.00  0.00    -0.354 N 
ATOM     51  N   UNL A   1      46.096  28.918  27.536  1.00  0.00    -0.248 NA
ATOM     52  C   UNL A   1      48.276  29.492  26.927  1.00  0.00     0.031 C 
ATOM     53  C   UNL A   1      43.157  31.725  29.300  1.00  0.00     0.029 A 
ATOM     54  C   UNL A   1      44.090  30.878  28.725  1.00  0.00     0.049 A 
ATOM     55  H   UNL A   1      43.881  28.854  28.159  1.00  0.00     0.167 HD
ATOM     56  C   UNL A   1      46.314  30.258  27.828  1.00  0.00     0.074 A 
ATOM     57  C   UNL A   1      47.682  30.552  27.458  1.00  0.00     0.031 C 
ATOM     58  C   UNL A   1      45.453  31.162  28.356  1.00  0.00     0.037 A 
BRANCH  45  59
ATOM     59  C   UNL A   1      39.799  28.922  29.399  1.00  0.00     0.064 A 
ATOM     60  C   UNL A   1      38.823  29.411  28.521  1.00  0.00     0.173 A 
ATOM     61  C   UNL A   1      39.417  28.643  30.720  1.00  0.00     0.173 A 
ATOM     62  F   UNL A   1      39.141  29.698  27.249  1.00  0.00    -0.203 F 
ATOM     63  C   UNL A   1      37.517  29.633  28.953  1.00  0.00     0.198 A 
ATOM     64  C   UNL A   1      38.105  28.842  31.143  1.00  0.00     0.198 A 
ATOM     65  F   UNL A   1      40.311  28.164  31.597  1.00  0.00    -0.203 F 
ATOM     66  F   UNL A   1      36.609  30.135  28.106  1.00  0.00    -0.200 F 
ATOM     67  C   UNL A   1      37.159  29.342  30.261  1.00  0.00     0.200 A 
ATOM     68  F   UNL A   1      37.756  28.548  32.403  1.00  0.00    -0.200 F 
ATOM     69  F   UNL A   1      35.899  29.547  30.673  1.00  0.00    -0.200 F 
ENDBRANCH  45  59
BRANCH  46  70
ATOM     70  C   UNL A   1      48.921  26.783  26.035  1.00  0.00     0.064 A 
ATOM     71  C   UNL A   1      49.238  27.009  24.688  1.00  0.00     0.173 A 
ATOM     72  C   UNL A   1      49.923  26.256  26.863  1.00  0.00     0.173 A 
ATOM     73  F   UNL A   1      48.305  27.487  23.853  1.00  0.00    -0.203 F 
ATOM     74  C   UNL A   1      50.502  26.705  24.187  1.00  0.00     0.198 A 
ATOM     75  C   UNL A   1      51.194  25.978  26.367  1.00  0.00     0.198 A 
ATOM     76  F   UNL A   1      49.668  26.021  28.159  1.00  0.00    -0.203 F 
ATOM     77  F   UNL A   1      50.767  26.892  22.887  1.00  0.00    -0.200 F 
ATOM     78  C   UNL A   1      51.481  26.197  25.028  1.00  0.00     0.200 A 
ATOM     79  F   UNL A   1      52.140  25.496  27.184  1.00  0.00    -0.200 F 
ATOM     80  F   UNL A   1      52.698  25.909  24.546  1.00  0.00    -0.200 F 
ENDBRANCH  46  70
BRANCH  58  81
ATOM     81  C   UNL A   1      45.969  32.551  28.588  1.00  0.00     0.064 A 
ATOM     82  C   UNL A   1      45.826  33.557  27.622  1.00  0.00     0.173 A 
ATOM     83  C   UNL A   1      46.575  32.891  29.808  1.00  0.00     0.173 A 
ATOM     84  F   UNL A   1      45.269  33.278  26.433  1.00  0.00    -0.203 F 
ATOM     85  C   UNL A   1      46.287  34.850  27.862  1.00  0.00     0.198 A 
ATOM     86  C   UNL A   1      47.012  34.190  30.053  1.00  0.00     0.198 A 
ATOM     87  F   UNL A   1      46.732  31.966  30.766  1.00  0.00    -0.203 F 
ATOM     88  F   UNL A   1      46.174  35.786  26.910  1.00  0.00    -0.200 F 
ATOM     89  C   UNL A   1      46.871  35.167  29.079  1.00  0.00     0.200 A 
ATOM     90  F   UNL A   1      47.567  34.498  31.233  1.00  0.00    -0.200 F 
ATOM     91  F   UNL A   1      47.307  36.413  29.310  1.00  0.00    -0.200 F 
ENDBRANCH  58  81
ENDBRANCH  32  33
ENDBRANCH  24  27
ENDBRANCH  22  23
ENDBRANCH   1  22
TORSDOF 13
ENDMDL
MODEL 2
REMARK VINA RESULT:     -12.0      5.704     11.239
REMARK SMILES CC[C@@](C)(NC(=O)c1ccncc1F)C(=O)NCCCNC(=O)c1ccc(-c2c3nc(c(-c4c(F)c(F)c(F)c(F)c4F)c4ccc([nH]4)c(-c4c(F)c(F)c(F)c(F)c4F)c4nc(c(-c5c(F)c(F)c(F)c(F)c5F)c5ccc2[nH]5)C=C4)C=C3)cc1
REMARK SMILES IDX 19 1 18 2 17 3 15 4 16 5 3 7 4 8 2 9 1 10 5 11 6 12 7 14
REMARK SMILES IDX 8 15 9 16 13 17 10 18 12 19 14 20 11 21 20 22 21 23 22 24
REMARK SMILES IDX 23 26 24 27 25 28 86 29 26 30 85 31 27 32 28 33 29 34 79 35
REMARK SMILES IDX 30 36 84 37 78 38 80 39 31 40 83 41 77 42 76 43 32 45 64 46
REMARK SMILES IDX 44 47 63 48 45 49 48 50 62 51 81 52 46 53 47 54 61 56 82 57
REMARK SMILES IDX 49 58 33 59 34 60 42 61 35 62 36 63 40 64 43 65 37 66 38 67
REMARK SMILES IDX 41 68 39 69 65 70 66 71 74 72 67 73 68 74 72 75 75 76 69 77
REMARK SMILES IDX 70 78 73 79 71 80 50 81 51 82 59 83 52 84 53 85 57 86 60 87
REMARK SMILES IDX 54 88 55 89 58 90 56 91
REMARK H PARENT 17 6 5 13 21 25 80 44 48 55
REMARK Flexibility Score: inf
ROOT
ATOM      1  C   UNL A   1      31.286  32.095  26.517  1.00  0.00     0.042 C 
ENDROOT
BRANCH   1   2
ATOM      2  C   UNL A   1      31.480  30.726  25.867  1.00  0.00     0.117 C 
BRANCH   2   3
ATOM      3  N   UNL A   1      30.738  30.456  24.650  1.00  0.00    -0.354 N 
ATOM      4  C   UNL A   1      30.610  29.378  23.819  1.00  0.00     0.245 C 
ATOM      5  O   UNL A   1      29.701  29.470  22.984  1.00  0.00    -0.272 OA
ATOM      6  H   UNL A   1      30.203  31.228  24.353  1.00  0.00     0.163 HD
BRANCH   4   7
ATOM      7  C   UNL A   1      31.440  28.068  23.961  1.00  0.00     0.116 C 
ATOM      8  C   UNL A   1      30.878  27.075  22.909  1.00  0.00     0.045 C 
BRANCH   7   9
ATOM      9  C   UNL A   1      32.957  28.273  23.662  1.00  0.00     0.035 C 
ATOM     10  C   UNL A   1      33.559  27.474  22.505  1.00  0.00     0.007 C 
ENDBRANCH   7   9
BRANCH   7  11
ATOM     11  N   UNL A   1      31.320  27.405  25.289  1.00  0.00    -0.338 N 
ATOM     12  C   UNL A   1      31.646  26.187  25.826  1.00  0.00     0.255 C 
ATOM     13  H   UNL A   1      30.898  27.995  25.954  1.00  0.00     0.164 HD
ATOM     14  O   UNL A   1      31.060  25.904  26.878  1.00  0.00    -0.269 OA
BRANCH  12  15
ATOM     15  C   UNL A   1      32.617  25.186  25.323  1.00  0.00     0.078 A 
ATOM     16  C   UNL A   1      33.974  25.437  25.588  1.00  0.00     0.037 A 
ATOM     17  C   UNL A   1      32.330  24.167  24.431  1.00  0.00     0.154 A 
ATOM     18  C   UNL A   1      34.948  24.671  24.959  1.00  0.00     0.112 A 
ATOM     19  C   UNL A   1      33.364  23.443  23.857  1.00  0.00     0.151 A 
ATOM     20  F   UNL A   1      31.104  23.916  23.993  1.00  0.00    -0.204 F 
ATOM     21  N   UNL A   1      34.670  23.672  24.098  1.00  0.00    -0.262 NA
ENDBRANCH  12  15
ENDBRANCH   7  11
ENDBRANCH   4   7
ENDBRANCH   2   3
ENDBRANCH   1   2
BRANCH   1  22
ATOM     22  C   UNL A   1      32.519  32.796  27.077  1.00  0.00     0.118 C 
BRANCH  22  23
ATOM     23  N   UNL A   1      32.274  34.131  27.587  1.00  0.00    -0.352 N 
ATOM     24  C   UNL A   1      32.965  34.868  28.513  1.00  0.00     0.251 C 
ATOM     25  H   UNL A   1      31.484  34.580  27.207  1.00  0.00     0.163 HD
ATOM     26  O   UNL A   1      32.555  35.993  28.814  1.00  0.00    -0.269 OA
BRANCH  24  27
ATOM     27  C   UNL A   1      34.164  34.336  29.200  1.00  0.00     0.039 A 
ATOM     28  C   UNL A   1      33.970  33.612  30.381  1.00  0.00     0.014 A 
ATOM     29  C   UNL A   1      35.463  34.570  28.739  1.00  0.00     0.014 A 
ATOM     30  C   UNL A   1      35.064  33.069  31.063  1.00  0.00     0.010 A 
ATOM     31  C   UNL A   1      36.555  33.989  29.396  1.00  0.00     0.010 A 
ATOM     32  C   UNL A   1      36.364  33.226  30.560  1.00  0.00    -0.014 A 
BRANCH  32  33
ATOM     33  C   UNL A   1      37.516  32.564  31.230  1.00  0.00     0.031 A 
ATOM     34  C   UNL A   1      38.247  31.431  30.567  1.00  0.00     0.074 A 
ATOM     35  C   UNL A   1      37.888  32.968  32.460  1.00  0.00     0.049 A 
ATOM     36  N   UNL A   1      39.254  30.721  31.017  1.00  0.00    -0.248 NA
ATOM     37  C   UNL A   1      37.784  31.037  29.230  1.00  0.00     0.031 C 
ATOM     38  C   UNL A   1      37.250  34.040  33.224  1.00  0.00     0.029 A 
ATOM     39  N   UNL A   1      38.889  32.519  33.288  1.00  0.00    -0.354 N 
ATOM     40  C   UNL A   1      39.539  29.795  30.023  1.00  0.00     0.074 A 
ATOM     41  C   UNL A   1      38.578  30.010  28.961  1.00  0.00     0.031 C 
ATOM     42  C   UNL A   1      37.878  34.173  34.402  1.00  0.00     0.029 A 
ATOM     43  C   UNL A   1      38.941  33.176  34.493  1.00  0.00     0.049 A 
ATOM     44  H   UNL A   1      39.508  31.796  33.040  1.00  0.00     0.167 HD
ATOM     45  C   UNL A   1      40.521  28.862  29.992  1.00  0.00     0.037 A 
ATOM     46  C   UNL A   1      39.746  32.990  35.558  1.00  0.00     0.037 A 
ATOM     47  C   UNL A   1      41.489  28.655  31.040  1.00  0.00     0.049 A 
ATOM     48  C   UNL A   1      40.806  31.925  35.510  1.00  0.00     0.074 A 
ATOM     49  C   UNL A   1      42.556  27.772  31.067  1.00  0.00     0.029 A 
ATOM     50  N   UNL A   1      41.502  29.332  32.249  1.00  0.00    -0.354 N 
ATOM     51  N   UNL A   1      41.106  31.099  34.538  1.00  0.00    -0.248 NA
ATOM     52  C   UNL A   1      41.643  31.768  36.710  1.00  0.00     0.031 C 
ATOM     53  C   UNL A   1      43.187  27.884  32.310  1.00  0.00     0.029 A 
ATOM     54  C   UNL A   1      42.541  28.867  33.041  1.00  0.00     0.049 A 
ATOM     55  H   UNL A   1      40.867  30.039  32.508  1.00  0.00     0.167 HD
ATOM     56  C   UNL A   1      42.176  30.342  34.997  1.00  0.00     0.074 A 
ATOM     57  C   UNL A   1      42.483  30.814  36.330  1.00  0.00     0.031 C 
ATOM     58  C   UNL A   1      42.842  29.344  34.367  1.00  0.00     0.037 A 
BRANCH  45  59
ATOM     59  C   UNL A   1      40.606  27.981  28.780  1.00  0.00     0.064 A 
ATOM     60  C   UNL A   1      39.896  26.775  28.700  1.00  0.00     0.173 A 
ATOM     61  C   UNL A   1      41.361  28.376  27.666  1.00  0.00     0.173 A 
ATOM     62  F   UNL A   1      39.164  26.352  29.742  1.00  0.00    -0.203 F 
ATOM     63  C   UNL A   1      39.958  25.982  27.556  1.00  0.00     0.198 A 
ATOM     64  C   UNL A   1      41.400  27.594  26.514  1.00  0.00     0.198 A 
ATOM     65  F   UNL A   1      42.050  29.527  27.688  1.00  0.00    -0.203 F 
ATOM     66  F   UNL A   1      39.301  24.816  27.515  1.00  0.00    -0.200 F 
ATOM     67  C   UNL A   1      40.704  26.396  26.463  1.00  0.00     0.200 A 
ATOM     68  F   UNL A   1      42.111  28.002  25.453  1.00  0.00    -0.200 F 
ATOM     69  F   UNL A   1      40.755  25.637  25.358  1.00  0.00    -0.200 F 
ENDBRANCH  45  59
BRANCH  46  70
ATOM     70  C   UNL A   1      39.582  33.841  36.763  1.00  0.00     0.064 A 
ATOM     71  C   UNL A   1      38.790  33.419  37.840  1.00  0.00     0.173 A 
ATOM     72  C   UNL A   1      40.206  35.093  36.861  1.00  0.00     0.173 A 
ATOM     73  F   UNL A   1      38.153  32.241  37.780  1.00  0.00    -0.203 F 
ATOM     74  C   UNL A   1      38.618  34.225  38.964  1.00  0.00     0.198 A 
ATOM     75  C   UNL A   1      40.054  35.886  37.996  1.00  0.00     0.198 A 
ATOM     76  F   UNL A   1      40.973  35.541  35.856  1.00  0.00    -0.203 F 
ATOM     77  F   UNL A   1      37.823  33.816  39.962  1.00  0.00    -0.200 F 
ATOM     78  C   UNL A   1      39.255  35.454  39.044  1.00  0.00     0.200 A 
ATOM     79  F   UNL A   1      40.679  37.068  38.073  1.00  0.00    -0.200 F 
ATOM     80  F   UNL A   1      39.093  36.226  40.127  1.00  0.00    -0.200 F 
ENDBRANCH  46  70
BRANCH  58  81
ATOM     81  C   UNL A   1      43.986  28.708  35.099  1.00  0.00     0.064 A 
ATOM     82  C   UNL A   1      45.287  29.225  35.019  1.00  0.00     0.173 A 
ATOM     83  C   UNL A   1      43.771  27.593  35.925  1.00  0.00     0.173 A 
ATOM     84  F   UNL A   1      45.547  30.279  34.230  1.00  0.00    -0.203 F 
ATOM     85  C   UNL A   1      46.335  28.639  35.726  1.00  0.00     0.198 A 
ATOM     86  C   UNL A   1      44.816  27.025  36.648  1.00  0.00     0.198 A 
ATOM     87  F   UNL A   1      42.544  27.062  36.038  1.00  0.00    -0.203 F 
ATOM     88  F   UNL A   1      47.577  29.127  35.605  1.00  0.00    -0.200 F 
ATOM     89  C   UNL A   1      46.097  27.546  36.545  1.00  0.00     0.200 A 
ATOM     90  F   UNL A   1      44.583  25.974  37.447  1.00  0.00    -0.200 F 
ATOM     91  F   UNL A   1      47.105  26.988  37.230  1.00  0.00    -0.200 F 
ENDBRANCH  58  81
ENDBRANCH  32  33
ENDBRANCH  24  27
ENDBRANCH  22  23
ENDBRANCH   1  22
TORSDOF 13
ENDMDL
MODEL 3
REMARK VINA RESULT:     -12.0      0.846      1.597
REMARK SMILES CC[C@@](C)(NC(=O)c1ccncc1F)C(=O)NCCCNC(=O)c1ccc(-c2c3nc(c(-c4c(F)c(F)c(F)c(F)c4F)c4ccc([nH]4)c(-c4c(F)c(F)c(F)c(F)c4F)c4nc(c(-c5c(F)c(F)c(F)c(F)c5F)c5ccc2[nH]5)C=C4)C=C3)cc1
REMARK SMILES IDX 19 1 18 2 17 3 15 4 16 5 3 7 4 8 2 9 1 10 5 11 6 12 7 14
REMARK SMILES IDX 8 15 9 16 13 17 10 18 12 19 14 20 11 21 20 22 21 23 22 24
REMARK SMILES IDX 23 26 24 27 25 28 86 29 26 30 85 31 27 32 28 33 29 34 79 35
REMARK SMILES IDX 30 36 84 37 78 38 80 39 31 40 83 41 77 42 76 43 32 45 64 46
REMARK SMILES IDX 44 47 63 48 45 49 48 50 62 51 81 52 46 53 47 54 61 56 82 57
REMARK SMILES IDX 49 58 33 59 34 60 42 61 35 62 36 63 40 64 43 65 37 66 38 67
REMARK SMILES IDX 41 68 39 69 65 70 66 71 74 72 67 73 68 74 72 75 75 76 69 77
REMARK SMILES IDX 70 78 73 79 71 80 50 81 51 82 59 83 52 84 53 85 57 86 60 87
REMARK SMILES IDX 54 88 55 89 58 90 56 91
REMARK H PARENT 17 6 5 13 21 25 80 44 48 55
REMARK Flexibility Score: inf
ROOT
ATOM      1  C   UNL A   1      37.781  19.781  24.851  1.00  0.00     0.042 C 
ENDROOT
BRANCH   1   2
ATOM      2  C   UNL A   1      36.491  20.592  24.963  1.00  0.00     0.117 C 
BRANCH   2   3
ATOM      3  N   UNL A   1      35.250  19.853  25.106  1.00  0.00    -0.354 N 
ATOM      4  C   UNL A   1      33.924  20.172  25.024  1.00  0.00     0.245 C 
ATOM      5  O   UNL A   1      33.156  19.202  24.997  1.00  0.00    -0.272 OA
ATOM      6  H   UNL A   1      35.399  18.900  25.308  1.00  0.00     0.163 HD
BRANCH   4   7
ATOM      7  C   UNL A   1      33.389  21.625  24.852  1.00  0.00     0.116 C 
ATOM      8  C   UNL A   1      31.842  21.538  24.946  1.00  0.00     0.045 C 
BRANCH   7   9
ATOM      9  C   UNL A   1      33.883  22.591  25.972  1.00  0.00     0.035 C 
ATOM     10  C   UNL A   1      32.817  23.272  26.832  1.00  0.00     0.007 C 
ENDBRANCH   7   9
BRANCH   7  11
ATOM     11  N   UNL A   1      33.709  22.245  23.537  1.00  0.00    -0.338 N 
ATOM     12  C   UNL A   1      33.311  23.354  22.837  1.00  0.00     0.255 C 
ATOM     13  H   UNL A   1      34.381  21.724  23.042  1.00  0.00     0.164 HD
ATOM     14  O   UNL A   1      33.556  23.326  21.626  1.00  0.00    -0.269 OA
BRANCH  12  15
ATOM     15  C   UNL A   1      32.651  24.580  23.347  1.00  0.00     0.078 A 
ATOM     16  C   UNL A   1      33.485  25.549  23.930  1.00  0.00     0.037 A 
ATOM     17  C   UNL A   1      31.286  24.749  23.510  1.00  0.00     0.154 A 
ATOM     18  C   UNL A   1      32.921  26.610  24.627  1.00  0.00     0.112 A 
ATOM     19  C   UNL A   1      30.806  25.845  24.210  1.00  0.00     0.151 A 
ATOM     20  F   UNL A   1      30.397  23.842  23.128  1.00  0.00    -0.204 F 
ATOM     21  N   UNL A   1      31.593  26.781  24.777  1.00  0.00    -0.262 NA
ENDBRANCH  12  15
ENDBRANCH   7  11
ENDBRANCH   4   7
ENDBRANCH   2   3
ENDBRANCH   1   2
BRANCH   1  22
ATOM     22  C   UNL A   1      38.945  20.172  25.754  1.00  0.00     0.118 C 
BRANCH  22  23
ATOM     23  N   UNL A   1      40.023  19.202  25.804  1.00  0.00    -0.352 N 
ATOM     24  C   UNL A   1      41.350  19.364  26.105  1.00  0.00     0.251 C 
ATOM     25  H   UNL A   1      39.757  18.279  25.588  1.00  0.00     0.163 HD
ATOM     26  O   UNL A   1      42.100  18.385  26.063  1.00  0.00    -0.269 OA
BRANCH  24  27
ATOM     27  C   UNL A   1      41.922  20.691  26.431  1.00  0.00     0.039 A 
ATOM     28  C   UNL A   1      42.193  21.562  25.371  1.00  0.00     0.014 A 
ATOM     29  C   UNL A   1      42.238  21.075  27.738  1.00  0.00     0.014 A 
ATOM     30  C   UNL A   1      42.716  22.835  25.620  1.00  0.00     0.010 A 
ATOM     31  C   UNL A   1      42.720  22.365  27.992  1.00  0.00     0.010 A 
ATOM     32  C   UNL A   1      42.954  23.260  26.936  1.00  0.00    -0.014 A 
BRANCH  32  33
ATOM     33  C   UNL A   1      43.415  24.648  27.207  1.00  0.00     0.031 A 
ATOM     34  C   UNL A   1      42.471  25.682  27.752  1.00  0.00     0.074 A 
ATOM     35  C   UNL A   1      44.689  24.989  26.931  1.00  0.00     0.049 A 
ATOM     36  N   UNL A   1      42.694  26.946  28.022  1.00  0.00    -0.248 NA
ATOM     37  C   UNL A   1      41.095  25.244  28.024  1.00  0.00     0.031 C 
ATOM     38  C   UNL A   1      45.701  24.089  26.379  1.00  0.00     0.029 A 
ATOM     39  N   UNL A   1      45.348  26.187  27.071  1.00  0.00    -0.354 N 
ATOM     40  C   UNL A   1      41.489  27.454  28.486  1.00  0.00     0.074 A 
ATOM     41  C   UNL A   1      40.528  26.371  28.430  1.00  0.00     0.031 C 
ATOM     42  C   UNL A   1      46.854  24.761  26.234  1.00  0.00     0.029 A 
ATOM     43  C   UNL A   1      46.656  26.146  26.652  1.00  0.00     0.049 A 
ATOM     44  H   UNL A   1      44.924  26.996  27.436  1.00  0.00     0.167 HD
ATOM     45  C   UNL A   1      41.213  28.703  28.933  1.00  0.00     0.037 A 
ATOM     46  C   UNL A   1      47.588  27.117  26.598  1.00  0.00     0.037 A 
ATOM     47  C   UNL A   1      42.169  29.778  29.004  1.00  0.00     0.049 A 
ATOM     48  C   UNL A   1      47.246  28.504  27.069  1.00  0.00     0.074 A 
ATOM     49  C   UNL A   1      41.992  31.060  29.499  1.00  0.00     0.029 A 
ATOM     50  N   UNL A   1      43.480  29.702  28.561  1.00  0.00    -0.354 N 
ATOM     51  N   UNL A   1      46.120  28.954  27.566  1.00  0.00    -0.248 NA
ATOM     52  C   UNL A   1      48.307  29.518  26.973  1.00  0.00     0.031 C 
ATOM     53  C   UNL A   1      43.182  31.772  29.314  1.00  0.00     0.029 A 
ATOM     54  C   UNL A   1      44.115  30.921  28.744  1.00  0.00     0.049 A 
ATOM     55  H   UNL A   1      43.900  28.900  28.172  1.00  0.00     0.167 HD
ATOM     56  C   UNL A   1      46.342  30.292  27.862  1.00  0.00     0.074 A 
ATOM     57  C   UNL A   1      47.714  30.580  27.502  1.00  0.00     0.031 C 
ATOM     58  C   UNL A   1      45.482  31.199  28.385  1.00  0.00     0.037 A 
BRANCH  45  59
ATOM     59  C   UNL A   1      39.810  28.986  29.383  1.00  0.00     0.064 A 
ATOM     60  C   UNL A   1      38.831  29.442  28.489  1.00  0.00     0.173 A 
ATOM     61  C   UNL A   1      39.428  28.745  30.712  1.00  0.00     0.173 A 
ATOM     62  F   UNL A   1      39.148  29.691  27.210  1.00  0.00    -0.203 F 
ATOM     63  C   UNL A   1      37.523  29.669  28.914  1.00  0.00     0.198 A 
ATOM     64  C   UNL A   1      38.114  28.950  31.127  1.00  0.00     0.198 A 
ATOM     65  F   UNL A   1      40.324  28.299  31.604  1.00  0.00    -0.203 F 
ATOM     66  F   UNL A   1      36.613  30.140  28.051  1.00  0.00    -0.200 F 
ATOM     67  C   UNL A   1      37.166  29.417  30.230  1.00  0.00     0.200 A 
ATOM     68  F   UNL A   1      37.766  28.693  32.396  1.00  0.00    -0.200 F 
ATOM     69  F   UNL A   1      35.905  29.628  30.635  1.00  0.00    -0.200 F 
ENDBRANCH  45  59
BRANCH  46  70
ATOM     70  C   UNL A   1      48.945  26.808  26.082  1.00  0.00     0.064 A 
ATOM     71  C   UNL A   1      49.945  26.316  26.933  1.00  0.00     0.173 A 
ATOM     72  C   UNL A   1      49.273  27.002  24.732  1.00  0.00     0.173 A 
ATOM     73  F   UNL A   1      49.685  26.138  28.236  1.00  0.00    -0.203 F 
ATOM     74  C   UNL A   1      51.225  26.044  26.456  1.00  0.00     0.198 A 
ATOM     75  C   UNL A   1      50.546  26.705  24.251  1.00  0.00     0.198 A 
ATOM     76  F   UNL A   1      48.351  27.472  23.879  1.00  0.00    -0.203 F 
ATOM     77  F   UNL A   1      52.174  25.613  27.298  1.00  0.00    -0.200 F 
ATOM     78  C   UNL A   1      51.523  26.232  25.114  1.00  0.00     0.200 A 
ATOM     79  F   UNL A   1      50.826  26.879  22.953  1.00  0.00    -0.200 F 
ATOM     80  F   UNL A   1      52.753  25.966  24.655  1.00  0.00    -0.200 F 
ENDBRANCH  46  70
BRANCH  58  81
ATOM     81  C   UNL A   1      46.002  32.586  28.623  1.00  0.00     0.064 A 
ATOM     82  C   UNL A   1      45.891  33.589  27.649  1.00  0.00     0.173 A 
ATOM     83  C   UNL A   1      46.581  32.927  29.856  1.00  0.00     0.173 A 
ATOM     84  F   UNL A   1      45.361  33.308  26.449  1.00  0.00    -0.203 F 
ATOM     85  C   UNL A   1      46.356  34.879  27.894  1.00  0.00     0.198 A 
ATOM     86  C   UNL A   1      47.022  34.224  30.106  1.00  0.00     0.198 A 
ATOM     87  F   UNL A   1      46.708  32.005  30.821  1.00  0.00    -0.203 F 
ATOM     88  F   UNL A   1      46.273  35.811  26.936  1.00  0.00    -0.200 F 
ATOM     89  C   UNL A   1      46.913  35.197  29.124  1.00  0.00     0.200 A 
ATOM     90  F   UNL A   1      47.552  34.532  31.298  1.00  0.00    -0.200 F 
ATOM     91  F   UNL A   1      47.353  36.441  29.360  1.00  0.00    -0.200 F 
ENDBRANCH  58  81
ENDBRANCH  32  33
ENDBRANCH  24  27
ENDBRANCH  22  23
ENDBRANCH   1  22
TORSDOF 13
ENDMDL
