MODEL 1
REMARK VINA RESULT:     -12.8      0.000      0.000
REMARK SMILES C[C@H](Oc1cc2oc(=O)cc(-c3ccccc3)c2cc1Cl)C(=O)NCCCNC(=O)c1ccc(-c2c3nc(c(-c4c(F)c(F)c(F)c(F)c4F)c4ccc([nH]4)c(-c4c(F)c(F)c(F)c(F)c4F)c4nc(c(-c5c(F)c(F)c(F)c(F)c5F)c5ccc2[nH]5)C=C4)C=C3)cc1
REMARK SMILES IDX 25 1 24 2 22 3 23 4 2 6 1 7 3 8 4 9 5 10 20 11 6 12 19 13
REMARK SMILES IDX 21 14 7 15 18 16 8 17 11 18 9 19 10 20 12 21 13 22 17 23
REMARK SMILES IDX 14 24 16 25 15 26 26 27 27 28 28 29 29 30 30 32 31 33 32 34
REMARK SMILES IDX 93 35 33 36 92 37 34 38 35 39 36 40 86 41 37 42 91 43 85 44
REMARK SMILES IDX 87 45 38 46 90 47 84 48 83 49 39 51 71 52 51 53 70 54 52 55
REMARK SMILES IDX 55 56 69 57 88 58 53 59 54 60 68 62 89 63 56 64 40 65 41 66
REMARK SMILES IDX 49 67 42 68 43 69 47 70 50 71 44 72 45 73 48 74 46 75 72 76
REMARK SMILES IDX 73 77 81 78 74 79 75 80 79 81 82 82 76 83 77 84 80 85 78 86
REMARK SMILES IDX 57 87 58 88 66 89 59 90 60 91 64 92 67 93 61 94 62 95 65 96
REMARK SMILES IDX 63 97
REMARK H PARENT 24 5 28 31 87 50 55 61
REMARK Flexibility Score: inf
ROOT
ATOM      1  C   UNL A   1      31.745  30.752  26.276  1.00  0.00     0.118 C 
ENDROOT
BRANCH   1   2
ATOM      2  N   UNL A   1      31.036  30.360  25.068  1.00  0.00    -0.353 N 
ATOM      3  C   UNL A   1      31.367  29.404  24.145  1.00  0.00     0.260 C 
ATOM      4  O   UNL A   1      30.618  29.244  23.179  1.00  0.00    -0.271 OA
ATOM      5  H   UNL A   1      30.202  30.852  24.888  1.00  0.00     0.163 HD
BRANCH   3   6
ATOM      6  C   UNL A   1      32.600  28.514  24.369  1.00  0.00     0.258 C 
ATOM      7  C   UNL A   1      33.253  28.293  22.999  1.00  0.00     0.064 C 
BRANCH   6   8
ATOM      8  O   UNL A   1      32.113  27.416  25.148  1.00  0.00    -0.479 OA
BRANCH   8   9
ATOM      9  C   UNL A   1      32.654  26.172  25.210  1.00  0.00     0.142 A 
ATOM     10  C   UNL A   1      33.934  25.875  25.648  1.00  0.00     0.096 A 
ATOM     11  C   UNL A   1      31.856  25.116  24.733  1.00  0.00     0.084 A 
ATOM     12  C   UNL A   1      34.458  24.597  25.437  1.00  0.00     0.142 A 
ATOM     13  C   UNL A   1      32.366  23.816  24.603  1.00  0.00     0.037 A 
ATOM     14  Cl  UNL A   1      30.215  25.380  24.245  1.00  0.00    -0.080 Cl
ATOM     15  O   UNL A   1      35.824  24.444  25.729  1.00  0.00    -0.423 OA
ATOM     16  C   UNL A   1      33.703  23.554  24.908  1.00  0.00     0.027 A 
ATOM     17  C   UNL A   1      36.494  23.294  25.356  1.00  0.00     0.336 A 
ATOM     18  C   UNL A   1      34.345  22.247  24.687  1.00  0.00    -0.000 A 
ATOM     19  O   UNL A   1      37.712  23.188  25.448  1.00  0.00    -0.246 OA
ATOM     20  C   UNL A   1      35.674  22.172  24.879  1.00  0.00     0.103 A 
BRANCH  18  21
ATOM     21  C   UNL A   1      33.680  20.999  24.259  1.00  0.00    -0.017 A 
ATOM     22  C   UNL A   1      32.740  21.031  23.217  1.00  0.00     0.009 A 
ATOM     23  C   UNL A   1      33.970  19.775  24.875  1.00  0.00     0.009 A 
ATOM     24  C   UNL A   1      32.105  19.861  22.799  1.00  0.00     0.001 A 
ATOM     25  C   UNL A   1      33.341  18.603  24.447  1.00  0.00     0.001 A 
ATOM     26  C   UNL A   1      32.409  18.648  23.411  1.00  0.00     0.000 A 
ENDBRANCH  18  21
ENDBRANCH   8   9
ENDBRANCH   6   8
ENDBRANCH   3   6
ENDBRANCH   1   2
BRANCH   1  27
ATOM     27  C   UNL A   1      31.504  32.207  26.641  1.00  0.00     0.042 C 
BRANCH  27  28
ATOM     28  C   UNL A   1      32.730  32.902  27.207  1.00  0.00     0.118 C 
BRANCH  28  29
ATOM     29  N   UNL A   1      32.457  34.269  27.633  1.00  0.00    -0.352 N 
ATOM     30  C   UNL A   1      32.997  34.996  28.666  1.00  0.00     0.251 C 
ATOM     31  H   UNL A   1      31.781  34.744  27.098  1.00  0.00     0.163 HD
ATOM     32  O   UNL A   1      32.503  36.073  28.976  1.00  0.00    -0.269 OA
BRANCH  30  33
ATOM     33  C   UNL A   1      34.156  34.469  29.418  1.00  0.00     0.039 A 
ATOM     34  C   UNL A   1      33.930  33.825  30.638  1.00  0.00     0.014 A 
ATOM     35  C   UNL A   1      35.457  34.612  28.933  1.00  0.00     0.014 A 
ATOM     36  C   UNL A   1      35.004  33.268  31.334  1.00  0.00     0.010 A 
ATOM     37  C   UNL A   1      36.511  33.970  29.574  1.00  0.00     0.010 A 
ATOM     38  C   UNL A   1      36.298  33.300  30.787  1.00  0.00    -0.014 A 
BRANCH  38  39
ATOM     39  C   UNL A   1      37.439  32.647  31.475  1.00  0.00     0.031 A 
ATOM     40  C   UNL A   1      38.142  31.482  30.833  1.00  0.00     0.074 A 
ATOM     41  C   UNL A   1      37.805  33.064  32.703  1.00  0.00     0.049 A 
ATOM     42  N   UNL A   1      39.122  30.747  31.297  1.00  0.00    -0.248 NA
ATOM     43  C   UNL A   1      37.662  31.069  29.504  1.00  0.00     0.031 C 
ATOM     44  C   UNL A   1      37.166  34.148  33.452  1.00  0.00     0.029 A 
ATOM     45  N   UNL A   1      38.797  32.622  33.541  1.00  0.00    -0.354 N 
ATOM     46  C   UNL A   1      39.363  29.783  30.327  1.00  0.00     0.074 A 
ATOM     47  C   UNL A   1      38.388  29.985  29.278  1.00  0.00     0.031 C 
ATOM     48  C   UNL A   1      37.802  34.307  34.624  1.00  0.00     0.029 A 
ATOM     49  C   UNL A   1      38.862  33.309  34.729  1.00  0.00     0.049 A 
ATOM     50  H   UNL A   1      39.406  31.882  33.313  1.00  0.00     0.167 HD
ATOM     51  C   UNL A   1      40.329  28.834  30.299  1.00  0.00     0.037 A 
ATOM     52  C   UNL A   1      39.680  33.147  35.786  1.00  0.00     0.037 A 
ATOM     53  C   UNL A   1      41.309  28.650  31.338  1.00  0.00     0.049 A 
ATOM     54  C   UNL A   1      40.736  32.075  35.735  1.00  0.00     0.074 A 
ATOM     55  C   UNL A   1      42.362  27.755  31.381  1.00  0.00     0.029 A 
ATOM     56  N   UNL A   1      41.350  29.374  32.522  1.00  0.00    -0.354 N 
ATOM     57  N   UNL A   1      41.003  31.218  34.780  1.00  0.00    -0.248 NA
ATOM     58  C   UNL A   1      41.610  31.955  36.909  1.00  0.00     0.031 C 
ATOM     59  C   UNL A   1      43.006  27.896  32.614  1.00  0.00     0.029 A 
ATOM     60  C   UNL A   1      42.396  28.926  33.313  1.00  0.00     0.049 A 
ATOM     61  H   UNL A   1      40.729  30.098  32.764  1.00  0.00     0.167 HD
ATOM     62  C   UNL A   1      42.094  30.482  35.221  1.00  0.00     0.074 A 
ATOM     63  C   UNL A   1      42.450  31.005  36.523  1.00  0.00     0.031 C 
ATOM     64  C   UNL A   1      42.743  29.462  34.605  1.00  0.00     0.037 A 
BRANCH  51  65
ATOM     65  C   UNL A   1      40.374  27.921  29.107  1.00  0.00     0.064 A 
ATOM     66  C   UNL A   1      39.623  26.736  29.055  1.00  0.00     0.173 A 
ATOM     67  C   UNL A   1      41.151  28.252  27.987  1.00  0.00     0.173 A 
ATOM     68  F   UNL A   1      38.871  26.366  30.103  1.00  0.00    -0.203 F 
ATOM     69  C   UNL A   1      39.674  25.901  27.942  1.00  0.00     0.198 A 
ATOM     70  C   UNL A   1      41.172  27.431  26.860  1.00  0.00     0.198 A 
ATOM     71  F   UNL A   1      41.885  29.374  27.978  1.00  0.00    -0.203 F 
ATOM     72  F   UNL A   1      38.992  24.747  27.939  1.00  0.00    -0.200 F 
ATOM     73  C   UNL A   1      40.442  26.253  26.843  1.00  0.00     0.200 A 
ATOM     74  F   UNL A   1      41.902  27.782  25.792  1.00  0.00    -0.200 F 
ATOM     75  F   UNL A   1      40.483  25.454  25.768  1.00  0.00    -0.200 F 
ENDBRANCH  51  65
BRANCH  52  76
ATOM     76  C   UNL A   1      39.550  34.035  36.972  1.00  0.00     0.064 A 
ATOM     77  C   UNL A   1      38.794  33.644  38.086  1.00  0.00     0.173 A 
ATOM     78  C   UNL A   1      40.167  35.293  37.013  1.00  0.00     0.173 A 
ATOM     79  F   UNL A   1      38.169  32.456  38.088  1.00  0.00    -0.203 F 
ATOM     80  C   UNL A   1      38.637  34.487  39.184  1.00  0.00     0.198 A 
ATOM     81  C   UNL A   1      40.037  36.122  38.126  1.00  0.00     0.198 A 
ATOM     82  F   UNL A   1      40.908  35.714  35.978  1.00  0.00    -0.203 F 
ATOM     83  F   UNL A   1      37.865  34.109  40.211  1.00  0.00    -0.200 F 
ATOM     84  C   UNL A   1      39.265  35.724  39.205  1.00  0.00     0.200 A 
ATOM     85  F   UNL A   1      40.661  37.309  38.151  1.00  0.00    -0.200 F 
ATOM     86  F   UNL A   1      39.118  36.533  40.263  1.00  0.00    -0.200 F 
ENDBRANCH  52  76
BRANCH  64  87
ATOM     87  C   UNL A   1      43.934  28.877  35.311  1.00  0.00     0.064 A 
ATOM     88  C   UNL A   1      45.233  29.357  35.096  1.00  0.00     0.173 A 
ATOM     89  C   UNL A   1      43.764  27.838  36.239  1.00  0.00     0.173 A 
ATOM     90  F   UNL A   1      45.453  30.339  34.208  1.00  0.00    -0.203 F 
ATOM     91  C   UNL A   1      46.323  28.795  35.755  1.00  0.00     0.198 A 
ATOM     92  C   UNL A   1      44.851  27.303  36.925  1.00  0.00     0.198 A 
ATOM     93  F   UNL A   1      42.542  27.346  36.490  1.00  0.00    -0.203 F 
ATOM     94  F   UNL A   1      47.562  29.228  35.487  1.00  0.00    -0.200 F 
ATOM     95  C   UNL A   1      46.131  27.774  36.674  1.00  0.00     0.200 A 
ATOM     96  F   UNL A   1      44.660  26.330  37.825  1.00  0.00    -0.200 F 
ATOM     97  F   UNL A   1      47.180  27.238  37.312  1.00  0.00    -0.200 F 
ENDBRANCH  64  87
ENDBRANCH  38  39
ENDBRANCH  30  33
ENDBRANCH  28  29
ENDBRANCH  27  28
ENDBRANCH   1  27
TORSDOF 13
ENDMDL
MODEL 2
REMARK VINA RESULT:     -12.8      3.288      8.422
REMARK SMILES C[C@H](Oc1cc2oc(=O)cc(-c3ccccc3)c2cc1Cl)C(=O)NCCCNC(=O)c1ccc(-c2c3nc(c(-c4c(F)c(F)c(F)c(F)c4F)c4ccc([nH]4)c(-c4c(F)c(F)c(F)c(F)c4F)c4nc(c(-c5c(F)c(F)c(F)c(F)c5F)c5ccc2[nH]5)C=C4)C=C3)cc1
REMARK SMILES IDX 25 1 24 2 22 3 23 4 2 6 1 7 3 8 4 9 5 10 20 11 6 12 19 13
REMARK SMILES IDX 21 14 7 15 18 16 8 17 11 18 9 19 10 20 12 21 13 22 17 23
REMARK SMILES IDX 14 24 16 25 15 26 26 27 27 28 28 29 29 30 30 32 31 33 32 34
REMARK SMILES IDX 93 35 33 36 92 37 34 38 35 39 36 40 86 41 37 42 91 43 85 44
REMARK SMILES IDX 87 45 38 46 90 47 84 48 83 49 39 51 71 52 51 53 70 54 52 55
REMARK SMILES IDX 55 56 69 57 88 58 53 59 54 60 68 62 89 63 56 64 40 65 41 66
REMARK SMILES IDX 49 67 42 68 43 69 47 70 50 71 44 72 45 73 48 74 46 75 72 76
REMARK SMILES IDX 73 77 81 78 74 79 75 80 79 81 82 82 76 83 77 84 80 85 78 86
REMARK SMILES IDX 57 87 58 88 66 89 59 90 60 91 64 92 67 93 61 94 62 95 65 96
REMARK SMILES IDX 63 97
REMARK H PARENT 24 5 28 31 87 50 55 61
REMARK Flexibility Score: inf
ROOT
ATOM      1  C   UNL A   1      31.746  26.693  26.565  1.00  0.00     0.118 C 
ENDROOT
BRANCH   1   2
ATOM      2  N   UNL A   1      31.093  26.863  25.277  1.00  0.00    -0.353 N 
ATOM      3  C   UNL A   1      31.657  27.037  24.040  1.00  0.00     0.260 C 
ATOM      4  O   UNL A   1      30.904  27.174  23.073  1.00  0.00    -0.271 OA
ATOM      5  H   UNL A   1      30.109  26.852  25.297  1.00  0.00     0.163 HD
BRANCH   3   6
ATOM      6  C   UNL A   1      33.183  26.982  23.877  1.00  0.00     0.258 C 
ATOM      7  C   UNL A   1      33.622  28.323  23.277  1.00  0.00     0.064 C 
BRANCH   6   8
ATOM      8  O   UNL A   1      33.427  25.747  23.197  1.00  0.00    -0.479 OA
BRANCH   8   9
ATOM      9  C   UNL A   1      33.845  24.586  23.764  1.00  0.00     0.142 A 
ATOM     10  C   UNL A   1      35.046  24.403  24.430  1.00  0.00     0.096 A 
ATOM     11  C   UNL A   1      33.001  23.470  23.604  1.00  0.00     0.084 A 
ATOM     12  C   UNL A   1      35.468  23.112  24.753  1.00  0.00     0.142 A 
ATOM     13  C   UNL A   1      33.401  22.188  24.009  1.00  0.00     0.037 A 
ATOM     14  Cl  UNL A   1      31.444  23.621  22.861  1.00  0.00    -0.080 Cl
ATOM     15  O   UNL A   1      36.781  23.006  25.242  1.00  0.00    -0.423 OA
ATOM     16  C   UNL A   1      34.674  21.987  24.545  1.00  0.00     0.027 A 
ATOM     17  C   UNL A   1      37.375  21.766  25.388  1.00  0.00     0.336 A 
ATOM     18  C   UNL A   1      35.212  20.659  24.885  1.00  0.00    -0.000 A 
ATOM     19  O   UNL A   1      38.564  21.639  25.657  1.00  0.00    -0.246 OA
ATOM     20  C   UNL A   1      36.505  20.592  25.248  1.00  0.00     0.103 A 
BRANCH  18  21
ATOM     21  C   UNL A   1      34.478  19.377  24.855  1.00  0.00    -0.017 A 
ATOM     22  C   UNL A   1      35.062  18.252  24.252  1.00  0.00     0.009 A 
ATOM     23  C   UNL A   1      33.201  19.259  25.420  1.00  0.00     0.009 A 
ATOM     24  C   UNL A   1      34.384  17.033  24.217  1.00  0.00     0.001 A 
ATOM     25  C   UNL A   1      32.529  18.035  25.394  1.00  0.00     0.001 A 
ATOM     26  C   UNL A   1      33.119  16.925  24.792  1.00  0.00     0.000 A 
ENDBRANCH  18  21
ENDBRANCH   8   9
ENDBRANCH   6   8
ENDBRANCH   3   6
ENDBRANCH   1   2
BRANCH   1  27
ATOM     27  C   UNL A   1      31.923  28.009  27.302  1.00  0.00     0.042 C 
BRANCH  27  28
ATOM     28  C   UNL A   1      33.342  28.549  27.250  1.00  0.00     0.118 C 
BRANCH  28  29
ATOM     29  N   UNL A   1      33.400  29.999  27.379  1.00  0.00    -0.352 N 
ATOM     30  C   UNL A   1      34.381  30.800  27.909  1.00  0.00     0.251 C 
ATOM     31  H   UNL A   1      32.613  30.478  27.032  1.00  0.00     0.163 HD
ATOM     32  O   UNL A   1      34.162  31.991  28.092  1.00  0.00    -0.269 OA
BRANCH  30  33
ATOM     33  C   UNL A   1      35.690  30.222  28.284  1.00  0.00     0.039 A 
ATOM     34  C   UNL A   1      36.710  30.192  27.329  1.00  0.00     0.014 A 
ATOM     35  C   UNL A   1      35.913  29.707  29.562  1.00  0.00     0.014 A 
ATOM     36  C   UNL A   1      37.970  29.706  27.680  1.00  0.00     0.010 A 
ATOM     37  C   UNL A   1      37.193  29.318  29.940  1.00  0.00     0.010 A 
ATOM     38  C   UNL A   1      38.233  29.303  29.000  1.00  0.00    -0.014 A 
BRANCH  38  39
ATOM     39  C   UNL A   1      39.587  28.855  29.411  1.00  0.00     0.031 A 
ATOM     40  C   UNL A   1      40.431  29.722  30.306  1.00  0.00     0.074 A 
ATOM     41  C   UNL A   1      40.080  27.697  28.933  1.00  0.00     0.049 A 
ATOM     42  N   UNL A   1      41.654  29.531  30.731  1.00  0.00    -0.248 NA
ATOM     43  C   UNL A   1      39.830  30.987  30.761  1.00  0.00     0.031 C 
ATOM     44  C   UNL A   1      39.380  26.795  28.016  1.00  0.00     0.029 A 
ATOM     45  N   UNL A   1      41.289  27.082  29.143  1.00  0.00    -0.354 N 
ATOM     46  C   UNL A   1      41.970  30.652  31.488  1.00  0.00     0.074 A 
ATOM     47  C   UNL A   1      40.837  31.547  31.413  1.00  0.00     0.031 C 
ATOM     48  C   UNL A   1      40.158  25.729  27.768  1.00  0.00     0.029 A 
ATOM     49  C   UNL A   1      41.426  25.892  28.471  1.00  0.00     0.049 A 
ATOM     50  H   UNL A   1      41.991  27.458  29.723  1.00  0.00     0.167 HD
ATOM     51  C   UNL A   1      43.093  30.900  32.205  1.00  0.00     0.037 A 
ATOM     52  C   UNL A   1      42.462  25.034  28.422  1.00  0.00     0.037 A 
ATOM     53  C   UNL A   1      44.210  29.996  32.291  1.00  0.00     0.049 A 
ATOM     54  C   UNL A   1      43.704  25.339  29.217  1.00  0.00     0.074 A 
ATOM     55  C   UNL A   1      45.370  30.128  33.033  1.00  0.00     0.029 A 
ATOM     56  N   UNL A   1      44.308  28.793  31.605  1.00  0.00    -0.354 N 
ATOM     57  N   UNL A   1      43.962  26.366  29.990  1.00  0.00    -0.248 NA
ATOM     58  C   UNL A   1      44.795  24.359  29.138  1.00  0.00     0.031 C 
ATOM     59  C   UNL A   1      46.195  29.034  32.752  1.00  0.00     0.029 A 
ATOM     60  C   UNL A   1      45.522  28.186  31.887  1.00  0.00     0.049 A 
ATOM     61  H   UNL A   1      43.618  28.426  31.007  1.00  0.00     0.167 HD
ATOM     62  C   UNL A   1      45.227  26.141  30.515  1.00  0.00     0.074 A 
ATOM     63  C   UNL A   1      45.676  24.871  29.986  1.00  0.00     0.031 C 
ATOM     64  C   UNL A   1      45.953  26.917  31.358  1.00  0.00     0.037 A 
BRANCH  51  65
ATOM     65  C   UNL A   1      43.167  32.200  32.954  1.00  0.00     0.064 A 
ATOM     66  C   UNL A   1      43.701  33.359  32.371  1.00  0.00     0.173 A 
ATOM     67  C   UNL A   1      42.668  32.297  34.262  1.00  0.00     0.173 A 
ATOM     68  F   UNL A   1      44.203  33.320  31.127  1.00  0.00    -0.203 F 
ATOM     69  C   UNL A   1      43.762  34.558  33.078  1.00  0.00     0.198 A 
ATOM     70  C   UNL A   1      42.698  33.506  34.954  1.00  0.00     0.198 A 
ATOM     71  F   UNL A   1      42.142  31.223  34.868  1.00  0.00    -0.203 F 
ATOM     72  F   UNL A   1      44.327  35.636  32.518  1.00  0.00    -0.200 F 
ATOM     73  C   UNL A   1      43.253  34.631  34.365  1.00  0.00     0.200 A 
ATOM     74  F   UNL A   1      42.190  33.581  36.192  1.00  0.00    -0.200 F 
ATOM     75  F   UNL A   1      43.303  35.788  35.041  1.00  0.00    -0.200 F 
ENDBRANCH  51  65
BRANCH  52  76
ATOM     76  C   UNL A   1      42.363  23.791  27.609  1.00  0.00     0.064 A 
ATOM     77  C   UNL A   1      41.878  22.601  28.169  1.00  0.00     0.173 A 
ATOM     78  C   UNL A   1      42.760  23.764  26.265  1.00  0.00     0.173 A 
ATOM     79  F   UNL A   1      41.502  22.571  29.457  1.00  0.00    -0.203 F 
ATOM     80  C   UNL A   1      41.818  21.425  27.425  1.00  0.00     0.198 A 
ATOM     81  C   UNL A   1      42.669  22.595  25.512  1.00  0.00     0.198 A 
ATOM     82  F   UNL A   1      43.224  24.876  25.677  1.00  0.00    -0.203 F 
ATOM     83  F   UNL A   1      41.401  20.290  28.001  1.00  0.00    -0.200 F 
ATOM     84  C   UNL A   1      42.208  21.425  26.094  1.00  0.00     0.200 A 
ATOM     85  F   UNL A   1      43.028  22.604  24.220  1.00  0.00    -0.200 F 
ATOM     86  F   UNL A   1      42.147  20.296  25.376  1.00  0.00    -0.200 F 
ENDBRANCH  52  76
BRANCH  64  87
ATOM     87  C   UNL A   1      47.289  26.390  31.799  1.00  0.00     0.064 A 
ATOM     88  C   UNL A   1      47.428  25.571  32.928  1.00  0.00     0.173 A 
ATOM     89  C   UNL A   1      48.445  26.690  31.061  1.00  0.00     0.173 A 
ATOM     90  F   UNL A   1      46.357  25.266  33.677  1.00  0.00    -0.203 F 
ATOM     91  C   UNL A   1      48.677  25.100  33.323  1.00  0.00     0.198 A 
ATOM     92  C   UNL A   1      49.688  26.187  31.437  1.00  0.00     0.198 A 
ATOM     93  F   UNL A   1      48.369  27.463  29.967  1.00  0.00    -0.203 F 
ATOM     94  F   UNL A   1      48.794  24.370  34.441  1.00  0.00    -0.200 F 
ATOM     95  C   UNL A   1      49.804  25.402  32.574  1.00  0.00     0.200 A 
ATOM     96  F   UNL A   1      50.772  26.466  30.701  1.00  0.00    -0.200 F 
ATOM     97  F   UNL A   1      51.006  24.944  32.952  1.00  0.00    -0.200 F 
ENDBRANCH  64  87
ENDBRANCH  38  39
ENDBRANCH  30  33
ENDBRANCH  28  29
ENDBRANCH  27  28
ENDBRANCH   1  27
TORSDOF 13
ENDMDL
MODEL 3
REMARK VINA RESULT:     -12.8      2.242      7.901
REMARK SMILES C[C@H](Oc1cc2oc(=O)cc(-c3ccccc3)c2cc1Cl)C(=O)NCCCNC(=O)c1ccc(-c2c3nc(c(-c4c(F)c(F)c(F)c(F)c4F)c4ccc([nH]4)c(-c4c(F)c(F)c(F)c(F)c4F)c4nc(c(-c5c(F)c(F)c(F)c(F)c5F)c5ccc2[nH]5)C=C4)C=C3)cc1
REMARK SMILES IDX 25 1 24 2 22 3 23 4 2 6 1 7 3 8 4 9 5 10 20 11 6 12 19 13
REMARK SMILES IDX 21 14 7 15 18 16 8 17 11 18 9 19 10 20 12 21 13 22 17 23
REMARK SMILES IDX 14 24 16 25 15 26 26 27 27 28 28 29 29 30 30 32 31 33 32 34
REMARK SMILES IDX 93 35 33 36 92 37 34 38 35 39 36 40 86 41 37 42 91 43 85 44
REMARK SMILES IDX 87 45 38 46 90 47 84 48 83 49 39 51 71 52 51 53 70 54 52 55
REMARK SMILES IDX 55 56 69 57 88 58 53 59 54 60 68 62 89 63 56 64 40 65 41 66
REMARK SMILES IDX 49 67 42 68 43 69 47 70 50 71 44 72 45 73 48 74 46 75 72 76
REMARK SMILES IDX 73 77 81 78 74 79 75 80 79 81 82 82 76 83 77 84 80 85 78 86
REMARK SMILES IDX 57 87 58 88 66 89 59 90 60 91 64 92 67 93 61 94 62 95 65 96
REMARK SMILES IDX 63 97
REMARK H PARENT 24 5 28 31 87 50 55 61
REMARK Flexibility Score: inf
ROOT
ATOM      1  C   UNL A   1      31.916  27.148  26.262  1.00  0.00     0.118 C 
ENDROOT
BRANCH   1   2
ATOM      2  N   UNL A   1      30.663  26.571  25.801  1.00  0.00    -0.353 N 
ATOM      3  C   UNL A   1      30.087  26.638  24.560  1.00  0.00     0.260 C 
ATOM      4  O   UNL A   1      29.001  26.078  24.392  1.00  0.00    -0.271 OA
ATOM      5  H   UNL A   1      30.157  26.063  26.476  1.00  0.00     0.163 HD
BRANCH   3   6
ATOM      6  C   UNL A   1      30.828  27.330  23.405  1.00  0.00     0.258 C 
ATOM      7  C   UNL A   1      29.903  28.430  22.869  1.00  0.00     0.064 C 
BRANCH   6   8
ATOM      8  O   UNL A   1      31.271  26.256  22.569  1.00  0.00    -0.479 OA
BRANCH   8   9
ATOM      9  C   UNL A   1      32.081  25.231  22.938  1.00  0.00     0.142 A 
ATOM     10  C   UNL A   1      31.703  23.901  23.024  1.00  0.00     0.096 A 
ATOM     11  C   UNL A   1      33.393  25.572  23.317  1.00  0.00     0.084 A 
ATOM     12  C   UNL A   1      32.550  22.980  23.646  1.00  0.00     0.142 A 
ATOM     13  C   UNL A   1      34.266  24.620  23.865  1.00  0.00     0.037 A 
ATOM     14  Cl  UNL A   1      33.979  27.195  23.163  1.00  0.00    -0.080 Cl
ATOM     15  O   UNL A   1      32.004  21.704  23.866  1.00  0.00    -0.423 OA
ATOM     16  C   UNL A   1      33.829  23.313  24.085  1.00  0.00     0.027 A 
ATOM     17  C   UNL A   1      32.667  20.788  24.661  1.00  0.00     0.336 A 
ATOM     18  C   UNL A   1      34.642  22.287  24.761  1.00  0.00    -0.000 A 
ATOM     19  O   UNL A   1      32.152  19.730  25.007  1.00  0.00    -0.246 OA
ATOM     20  C   UNL A   1      34.045  21.117  25.046  1.00  0.00     0.103 A 
BRANCH  18  21
ATOM     21  C   UNL A   1      36.054  22.416  25.177  1.00  0.00    -0.017 A 
ATOM     22  C   UNL A   1      36.937  21.342  24.991  1.00  0.00     0.009 A 
ATOM     23  C   UNL A   1      36.533  23.597  25.759  1.00  0.00     0.009 A 
ATOM     24  C   UNL A   1      38.274  21.448  25.376  1.00  0.00     0.001 A 
ATOM     25  C   UNL A   1      37.874  23.705  26.133  1.00  0.00     0.001 A 
ATOM     26  C   UNL A   1      38.743  22.631  25.943  1.00  0.00     0.000 A 
ENDBRANCH  18  21
ENDBRANCH   8   9
ENDBRANCH   6   8
ENDBRANCH   3   6
ENDBRANCH   1   2
BRANCH   1  27
ATOM     27  C   UNL A   1      31.775  28.612  26.638  1.00  0.00     0.042 C 
BRANCH  27  28
ATOM     28  C   UNL A   1      32.853  29.500  26.041  1.00  0.00     0.118 C 
BRANCH  28  29
ATOM     29  N   UNL A   1      32.681  30.905  26.384  1.00  0.00    -0.352 N 
ATOM     30  C   UNL A   1      33.393  31.696  27.252  1.00  0.00     0.251 C 
ATOM     31  H   UNL A   1      31.938  31.358  25.922  1.00  0.00     0.163 HD
ATOM     32  O   UNL A   1      32.978  32.812  27.541  1.00  0.00    -0.269 OA
BRANCH  30  33
ATOM     33  C   UNL A   1      34.646  31.193  27.856  1.00  0.00     0.039 A 
ATOM     34  C   UNL A   1      35.723  32.072  28.002  1.00  0.00     0.014 A 
ATOM     35  C   UNL A   1      34.764  29.865  28.272  1.00  0.00     0.014 A 
ATOM     36  C   UNL A   1      36.892  31.633  28.625  1.00  0.00     0.010 A 
ATOM     37  C   UNL A   1      35.889  29.459  28.982  1.00  0.00     0.010 A 
ATOM     38  C   UNL A   1      36.970  30.334  29.156  1.00  0.00    -0.014 A 
BRANCH  38  39
ATOM     39  C   UNL A   1      38.175  29.874  29.889  1.00  0.00     0.031 A 
ATOM     40  C   UNL A   1      38.457  30.383  31.277  1.00  0.00     0.074 A 
ATOM     41  C   UNL A   1      39.047  29.045  29.283  1.00  0.00     0.049 A 
ATOM     42  N   UNL A   1      39.481  30.141  32.056  1.00  0.00    -0.248 NA
ATOM     43  C   UNL A   1      37.470  31.309  31.855  1.00  0.00     0.031 C 
ATOM     44  C   UNL A   1      38.913  28.526  27.921  1.00  0.00     0.029 A 
ATOM     45  N   UNL A   1      40.225  28.500  29.731  1.00  0.00    -0.354 N 
ATOM     46  C   UNL A   1      39.267  30.893  33.205  1.00  0.00     0.074 A 
ATOM     47  C   UNL A   1      38.051  31.647  32.996  1.00  0.00     0.031 C 
ATOM     48  C   UNL A   1      39.948  27.714  27.656  1.00  0.00     0.029 A 
ATOM     49  C   UNL A   1      40.842  27.689  28.809  1.00  0.00     0.049 A 
ATOM     50  H   UNL A   1      40.592  28.673  30.628  1.00  0.00     0.167 HD
ATOM     51  C   UNL A   1      40.002  30.928  34.341  1.00  0.00     0.037 A 
ATOM     52  C   UNL A   1      42.002  27.010  28.885  1.00  0.00     0.037 A 
ATOM     53  C   UNL A   1      41.203  30.161  34.549  1.00  0.00     0.049 A 
ATOM     54  C   UNL A   1      42.808  27.078  30.155  1.00  0.00     0.074 A 
ATOM     55  C   UNL A   1      41.991  30.084  35.684  1.00  0.00     0.029 A 
ATOM     56  N   UNL A   1      41.791  29.341  33.597  1.00  0.00    -0.354 N 
ATOM     57  N   UNL A   1      42.556  27.732  31.263  1.00  0.00    -0.248 NA
ATOM     58  C   UNL A   1      44.055  26.303  30.186  1.00  0.00     0.031 C 
ATOM     59  C   UNL A   1      43.087  29.263  35.399  1.00  0.00     0.029 A 
ATOM     60  C   UNL A   1      42.948  28.775  34.110  1.00  0.00     0.049 A 
ATOM     61  H   UNL A   1      41.440  29.184  32.691  1.00  0.00     0.167 HD
ATOM     62  C   UNL A   1      43.593  27.424  32.133  1.00  0.00     0.074 A 
ATOM     63  C   UNL A   1      44.467  26.509  31.429  1.00  0.00     0.031 C 
ATOM     64  C   UNL A   1      43.804  27.859  33.400  1.00  0.00     0.037 A 
BRANCH  51  65
ATOM     65  C   UNL A   1      39.529  31.827  35.448  1.00  0.00     0.064 A 
ATOM     66  C   UNL A   1      39.971  33.154  35.563  1.00  0.00     0.173 A 
ATOM     67  C   UNL A   1      38.595  31.366  36.389  1.00  0.00     0.173 A 
ATOM     68  F   UNL A   1      40.873  33.643  34.698  1.00  0.00    -0.203 F 
ATOM     69  C   UNL A   1      39.522  33.975  36.594  1.00  0.00     0.198 A 
ATOM     70  C   UNL A   1      38.121  32.201  37.398  1.00  0.00     0.198 A 
ATOM     71  F   UNL A   1      38.134  30.108  36.325  1.00  0.00    -0.203 F 
ATOM     72  F   UNL A   1      40.001  35.221  36.715  1.00  0.00    -0.200 F 
ATOM     73  C   UNL A   1      38.592  33.500  37.506  1.00  0.00     0.200 A 
ATOM     74  F   UNL A   1      37.209  31.746  38.269  1.00  0.00    -0.200 F 
ATOM     75  F   UNL A   1      38.152  34.294  38.492  1.00  0.00    -0.200 F 
ENDBRANCH  51  65
BRANCH  52  76
ATOM     76  C   UNL A   1      42.460  26.188  27.734  1.00  0.00     0.064 A 
ATOM     77  C   UNL A   1      43.393  26.689  26.815  1.00  0.00     0.173 A 
ATOM     78  C   UNL A   1      41.969  24.892  27.520  1.00  0.00     0.173 A 
ATOM     79  F   UNL A   1      43.880  27.931  26.965  1.00  0.00    -0.203 F 
ATOM     80  C   UNL A   1      43.798  25.938  25.714  1.00  0.00     0.198 A 
ATOM     81  C   UNL A   1      42.399  24.128  26.437  1.00  0.00     0.198 A 
ATOM     82  F   UNL A   1      41.081  24.360  28.372  1.00  0.00    -0.203 F 
ATOM     83  F   UNL A   1      44.650  26.463  24.824  1.00  0.00    -0.200 F 
ATOM     84  C   UNL A   1      43.304  24.655  25.529  1.00  0.00     0.200 A 
ATOM     85  F   UNL A   1      41.935  22.882  26.272  1.00  0.00    -0.200 F 
ATOM     86  F   UNL A   1      43.696  23.930  24.473  1.00  0.00    -0.200 F 
ENDBRANCH  52  76
BRANCH  64  87
ATOM     87  C   UNL A   1      45.003  27.314  34.124  1.00  0.00     0.064 A 
ATOM     88  C   UNL A   1      46.243  27.966  34.101  1.00  0.00     0.173 A 
ATOM     89  C   UNL A   1      44.897  26.133  34.876  1.00  0.00     0.173 A 
ATOM     90  F   UNL A   1      46.402  29.091  33.386  1.00  0.00    -0.203 F 
ATOM     91  C   UNL A   1      47.343  27.440  34.773  1.00  0.00     0.198 A 
ATOM     92  C   UNL A   1      45.988  25.629  35.578  1.00  0.00     0.198 A 
ATOM     93  F   UNL A   1      43.731  25.472  34.940  1.00  0.00    -0.203 F 
ATOM     94  F   UNL A   1      48.533  28.048  34.686  1.00  0.00    -0.200 F 
ATOM     95  C   UNL A   1      47.213  26.276  35.517  1.00  0.00     0.200 A 
ATOM     96  F   UNL A   1      45.855  24.514  36.310  1.00  0.00    -0.200 F 
ATOM     97  F   UNL A   1      48.271  25.773  36.168  1.00  0.00    -0.200 F 
ENDBRANCH  64  87
ENDBRANCH  38  39
ENDBRANCH  30  33
ENDBRANCH  28  29
ENDBRANCH  27  28
ENDBRANCH   1  27
TORSDOF 13
ENDMDL
