MODEL 1
REMARK VINA RESULT:     -14.3      0.000      0.000
REMARK SMILES O=C(NCCCNC(=O)c1cc(N2C(=O)[C@H]3[C@@H]4C=C[C@@H]([C@@H]5C[C@H]45)[C@@H]3C2=O)ccc1Cl)c1ccc(-c2c3nc(c(-c4c(F)c(F)c(F)c(F)c4F)c4ccc([nH]4)c(-c4c(F)c(F)c(F)c(F)c4F)c4nc(c(-c5c(F)c(F)c(F)c(F)c5F)c5ccc2[nH]5)C=C4)C=C3)cc1
REMARK SMILES IDX 4 1 3 2 1 3 2 4 31 6 32 7 93 8 33 9 92 10 34 11 35 12 36 13
REMARK SMILES IDX 86 14 37 15 91 16 85 17 87 18 38 19 90 20 84 21 83 22 39 24
REMARK SMILES IDX 71 25 51 26 70 27 52 28 55 29 69 30 88 31 53 32 54 33 68 35
REMARK SMILES IDX 89 36 56 37 40 38 41 39 49 40 42 41 43 42 47 43 50 44 44 45
REMARK SMILES IDX 45 46 48 47 46 48 72 49 73 50 81 51 74 52 75 53 79 54 82 55
REMARK SMILES IDX 76 56 77 57 80 58 78 59 57 60 58 61 66 62 59 63 60 64 64 65
REMARK SMILES IDX 67 66 61 67 62 68 65 69 63 70 5 71 6 72 7 73 8 74 9 76 10 77
REMARK SMILES IDX 11 78 29 79 12 80 28 81 30 82 27 83 13 84 14 85 25 86 15 87
REMARK SMILES IDX 16 88 24 89 26 90 17 91 20 92 18 93 23 94 19 95 21 96 22 97
REMARK H PARENT 3 5 87 23 55 34 7 75
REMARK Flexibility Score: inf
ROOT
ATOM      1  C   UNL A   1      32.417  32.357  26.853  1.00  0.00     0.118 C 
ENDROOT
BRANCH   1   2
ATOM      2  N   UNL A   1      32.305  33.728  27.336  1.00  0.00    -0.352 N 
ATOM      3  O   UNL A   1      32.674  35.500  28.684  1.00  0.00    -0.269 OA
ATOM      4  C   UNL A   1      33.026  34.388  28.301  1.00  0.00     0.251 C 
ATOM      5  H   UNL A   1      31.602  34.264  26.903  1.00  0.00     0.163 HD
BRANCH   4   6
ATOM      6  C   UNL A   1      34.213  33.746  28.901  1.00  0.00     0.039 A 
ATOM      7  C   UNL A   1      34.071  32.635  29.732  1.00  0.00     0.014 A 
ATOM      8  C   UNL A   1      35.484  34.261  28.631  1.00  0.00     0.014 A 
ATOM      9  C   UNL A   1      35.164  32.162  30.443  1.00  0.00     0.010 A 
ATOM     10  C   UNL A   1      36.604  33.699  29.249  1.00  0.00     0.010 A 
ATOM     11  C   UNL A   1      36.448  32.667  30.188  1.00  0.00    -0.014 A 
BRANCH  11  12
ATOM     12  C   UNL A   1      37.613  32.034  30.853  1.00  0.00     0.031 A 
ATOM     13  C   UNL A   1      38.039  32.434  32.234  1.00  0.00     0.074 A 
ATOM     14  C   UNL A   1      38.280  31.069  30.188  1.00  0.00     0.049 A 
ATOM     15  N   UNL A   1      39.040  31.984  32.951  1.00  0.00    -0.248 NA
ATOM     16  C   UNL A   1      37.250  33.480  32.899  1.00  0.00     0.031 C 
ATOM     17  C   UNL A   1      37.962  30.611  28.833  1.00  0.00     0.029 A 
ATOM     18  N   UNL A   1      39.349  30.296  30.556  1.00  0.00    -0.354 N 
ATOM     19  C   UNL A   1      39.014  32.705  34.138  1.00  0.00     0.074 A 
ATOM     20  C   UNL A   1      37.916  33.643  34.034  1.00  0.00     0.031 C 
ATOM     21  C   UNL A   1      38.790  29.614  28.499  1.00  0.00     0.029 A 
ATOM     22  C   UNL A   1      39.747  29.417  29.580  1.00  0.00     0.049 A 
ATOM     23  H   UNL A   1      39.789  30.365  31.435  1.00  0.00     0.167 HD
ATOM     24  C   UNL A   1      39.832  32.587  35.212  1.00  0.00     0.037 A 
ATOM     25  C   UNL A   1      40.790  28.569  29.538  1.00  0.00     0.037 A 
ATOM     26  C   UNL A   1      40.919  31.642  35.301  1.00  0.00     0.049 A 
ATOM     27  C   UNL A   1      41.700  28.484  30.728  1.00  0.00     0.074 A 
ATOM     28  C   UNL A   1      41.777  31.411  36.362  1.00  0.00     0.029 A 
ATOM     29  N   UNL A   1      41.308  30.783  34.282  1.00  0.00    -0.354 N 
ATOM     30  N   UNL A   1      41.638  29.137  31.863  1.00  0.00    -0.248 NA
ATOM     31  C   UNL A   1      42.825  27.546  30.632  1.00  0.00     0.031 C 
ATOM     32  C   UNL A   1      42.723  30.463  35.961  1.00  0.00     0.029 A 
ATOM     33  C   UNL A   1      42.416  30.049  34.676  1.00  0.00     0.049 A 
ATOM     34  H   UNL A   1      40.862  30.707  33.406  1.00  0.00     0.167 HD
ATOM     35  C   UNL A   1      42.703  28.678  32.624  1.00  0.00     0.074 A 
ATOM     36  C   UNL A   1      43.380  27.675  31.828  1.00  0.00     0.031 C 
ATOM     37  C   UNL A   1      43.084  29.056  33.870  1.00  0.00     0.037 A 
BRANCH  24  38
ATOM     38  C   UNL A   1      39.608  33.523  36.367  1.00  0.00     0.064 A 
ATOM     39  C   UNL A   1      38.813  33.170  37.468  1.00  0.00     0.173 A 
ATOM     40  C   UNL A   1      40.227  34.784  36.387  1.00  0.00     0.173 A 
ATOM     41  F   UNL A   1      38.192  31.982  37.501  1.00  0.00    -0.203 F 
ATOM     42  C   UNL A   1      38.617  34.057  38.526  1.00  0.00     0.198 A 
ATOM     43  C   UNL A   1      40.056  35.654  37.462  1.00  0.00     0.198 A 
ATOM     44  F   UNL A   1      41.005  35.171  35.366  1.00  0.00    -0.203 F 
ATOM     45  F   UNL A   1      37.808  33.719  39.540  1.00  0.00    -0.200 F 
ATOM     46  C   UNL A   1      39.242  35.294  38.524  1.00  0.00     0.200 A 
ATOM     47  F   UNL A   1      40.676  36.842  37.466  1.00  0.00    -0.200 F 
ATOM     48  F   UNL A   1      39.056  36.143  39.545  1.00  0.00    -0.200 F 
ENDBRANCH  24  38
BRANCH  25  49
ATOM     49  C   UNL A   1      41.029  27.764  28.314  1.00  0.00     0.064 A 
ATOM     50  C   UNL A   1      41.872  28.222  27.295  1.00  0.00     0.173 A 
ATOM     51  C   UNL A   1      40.440  26.498  28.155  1.00  0.00     0.173 A 
ATOM     52  F   UNL A   1      42.446  29.430  27.395  1.00  0.00    -0.203 F 
ATOM     53  C   UNL A   1      42.105  27.454  26.157  1.00  0.00     0.198 A 
ATOM     54  C   UNL A   1      40.702  25.717  27.034  1.00  0.00     0.198 A 
ATOM     55  F   UNL A   1      39.633  26.009  29.109  1.00  0.00    -0.203 F 
ATOM     56  F   UNL A   1      42.883  27.934  25.176  1.00  0.00    -0.200 F 
ATOM     57  C   UNL A   1      41.528  26.200  26.030  1.00  0.00     0.200 A 
ATOM     58  F   UNL A   1      40.161  24.496  26.929  1.00  0.00    -0.200 F 
ATOM     59  F   UNL A   1      41.764  25.457  24.941  1.00  0.00    -0.200 F 
ENDBRANCH  25  49
BRANCH  37  60
ATOM     60  C   UNL A   1      44.275  28.356  34.462  1.00  0.00     0.064 A 
ATOM     61  C   UNL A   1      45.571  28.880  34.347  1.00  0.00     0.173 A 
ATOM     62  C   UNL A   1      44.109  27.161  35.179  1.00  0.00     0.173 A 
ATOM     63  F   UNL A   1      45.785  30.009  33.656  1.00  0.00    -0.203 F 
ATOM     64  C   UNL A   1      46.661  28.219  34.907  1.00  0.00     0.198 A 
ATOM     65  C   UNL A   1      45.197  26.523  35.767  1.00  0.00     0.198 A 
ATOM     66  F   UNL A   1      42.890  26.620  35.322  1.00  0.00    -0.203 F 
ATOM     67  F   UNL A   1      47.897  28.708  34.739  1.00  0.00    -0.200 F 
ATOM     68  C   UNL A   1      46.472  27.047  35.624  1.00  0.00     0.200 A 
ATOM     69  F   UNL A   1      45.009  25.398  36.472  1.00  0.00    -0.200 F 
ATOM     70  F   UNL A   1      47.521  26.417  36.170  1.00  0.00    -0.200 F 
ENDBRANCH  37  60
ENDBRANCH  11  12
ENDBRANCH   4   6
ENDBRANCH   1   2
BRANCH   1  71
ATOM     71  C   UNL A   1      31.083  31.756  26.442  1.00  0.00     0.042 C 
BRANCH  71  72
ATOM     72  C   UNL A   1      31.212  30.497  25.606  1.00  0.00     0.118 C 
BRANCH  72  73
ATOM     73  N   UNL A   1      30.668  30.664  24.269  1.00  0.00    -0.352 N 
ATOM     74  C   UNL A   1      30.311  29.719  23.348  1.00  0.00     0.252 C 
ATOM     75  H   UNL A   1      30.537  31.597  23.984  1.00  0.00     0.163 HD
ATOM     76  O   UNL A   1      29.965  30.061  22.221  1.00  0.00    -0.269 OA
BRANCH  74  77
ATOM     77  C   UNL A   1      30.385  28.284  23.670  1.00  0.00     0.060 A 
ATOM     78  C   UNL A   1      31.674  27.747  23.827  1.00  0.00     0.042 A 
ATOM     79  C   UNL A   1      29.257  27.454  23.722  1.00  0.00     0.053 A 
ATOM     80  C   UNL A   1      31.826  26.373  24.004  1.00  0.00     0.053 A 
ATOM     81  C   UNL A   1      29.412  26.101  24.015  1.00  0.00     0.023 A 
ATOM     82  Cl  UNL A   1      27.653  27.989  23.361  1.00  0.00    -0.083 Cl
ATOM     83  C   UNL A   1      30.689  25.561  24.130  1.00  0.00     0.028 A 
BRANCH  80  84
ATOM     84  N   UNL A   1      33.097  25.780  24.100  1.00  0.00    -0.250 N 
ATOM     85  C   UNL A   1      33.693  25.461  25.333  1.00  0.00     0.238 C 
ATOM     86  C   UNL A   1      33.683  25.083  23.022  1.00  0.00     0.238 C 
ATOM     87  O   UNL A   1      33.329  25.720  26.465  1.00  0.00    -0.274 OA
ATOM     88  C   UNL A   1      34.912  24.686  24.942  1.00  0.00     0.100 C 
ATOM     89  C   UNL A   1      34.342  23.955  23.723  1.00  0.00     0.100 C 
ATOM     90  O   UNL A   1      33.523  25.212  21.826  1.00  0.00    -0.274 OA
ATOM     91  C   UNL A   1      35.756  23.700  25.767  1.00  0.00     0.028 C 
ATOM     92  C   UNL A   1      35.246  22.790  23.355  1.00  0.00     0.028 C 
ATOM     93  C   UNL A   1      36.998  23.579  24.850  1.00  0.00    -0.026 C 
ATOM     94  C   UNL A   1      35.206  22.264  25.850  1.00  0.00     0.001 C 
ATOM     95  C   UNL A   1      36.716  23.166  23.591  1.00  0.00    -0.026 C 
ATOM     96  C   UNL A   1      34.912  21.709  24.447  1.00  0.00     0.001 C 
ATOM     97  C   UNL A   1      33.823  21.784  25.524  1.00  0.00     0.009 C 
ENDBRANCH  80  84
ENDBRANCH  74  77
ENDBRANCH  72  73
ENDBRANCH  71  72
ENDBRANCH   1  71
TORSDOF 11
ENDMDL
MODEL 2
REMARK VINA RESULT:     -14.2      0.335      7.251
REMARK SMILES O=C(NCCCNC(=O)c1cc(N2C(=O)[C@H]3[C@@H]4C=C[C@@H]([C@@H]5C[C@H]45)[C@@H]3C2=O)ccc1Cl)c1ccc(-c2c3nc(c(-c4c(F)c(F)c(F)c(F)c4F)c4ccc([nH]4)c(-c4c(F)c(F)c(F)c(F)c4F)c4nc(c(-c5c(F)c(F)c(F)c(F)c5F)c5ccc2[nH]5)C=C4)C=C3)cc1
REMARK SMILES IDX 4 1 3 2 1 3 2 4 31 6 32 7 93 8 33 9 92 10 34 11 35 12 36 13
REMARK SMILES IDX 86 14 37 15 91 16 85 17 87 18 38 19 90 20 84 21 83 22 39 24
REMARK SMILES IDX 71 25 51 26 70 27 52 28 55 29 69 30 88 31 53 32 54 33 68 35
REMARK SMILES IDX 89 36 56 37 40 38 41 39 49 40 42 41 43 42 47 43 50 44 44 45
REMARK SMILES IDX 45 46 48 47 46 48 72 49 73 50 81 51 74 52 75 53 79 54 82 55
REMARK SMILES IDX 76 56 77 57 80 58 78 59 57 60 58 61 66 62 59 63 60 64 64 65
REMARK SMILES IDX 67 66 61 67 62 68 65 69 63 70 5 71 6 72 7 73 8 74 9 76 10 77
REMARK SMILES IDX 11 78 29 79 12 80 28 81 30 82 27 83 13 84 14 85 25 86 15 87
REMARK SMILES IDX 16 88 24 89 26 90 17 91 20 92 18 93 23 94 19 95 21 96 22 97
REMARK H PARENT 3 5 87 23 55 34 7 75
REMARK Flexibility Score: inf
ROOT
ATOM      1  C   UNL A   1      32.377  32.410  26.859  1.00  0.00     0.118 C 
ENDROOT
BRANCH   1   2
ATOM      2  N   UNL A   1      32.234  33.777  27.344  1.00  0.00    -0.352 N 
ATOM      3  O   UNL A   1      32.570  35.557  28.690  1.00  0.00    -0.269 OA
ATOM      4  C   UNL A   1      32.947  34.455  28.303  1.00  0.00     0.251 C 
ATOM      5  H   UNL A   1      31.514  34.295  26.918  1.00  0.00     0.163 HD
BRANCH   4   6
ATOM      6  C   UNL A   1      34.156  33.844  28.890  1.00  0.00     0.039 A 
ATOM      7  C   UNL A   1      34.054  32.714  29.701  1.00  0.00     0.014 A 
ATOM      8  C   UNL A   1      35.408  34.407  28.629  1.00  0.00     0.014 A 
ATOM      9  C   UNL A   1      35.163  32.265  30.403  1.00  0.00     0.010 A 
ATOM     10  C   UNL A   1      36.548  33.873  29.236  1.00  0.00     0.010 A 
ATOM     11  C   UNL A   1      36.429  32.819  30.156  1.00  0.00    -0.014 A 
BRANCH  11  12
ATOM     12  C   UNL A   1      37.616  32.214  30.809  1.00  0.00     0.031 A 
ATOM     13  C   UNL A   1      38.430  31.155  30.128  1.00  0.00     0.074 A 
ATOM     14  C   UNL A   1      37.961  32.654  32.036  1.00  0.00     0.049 A 
ATOM     15  N   UNL A   1      39.489  30.520  30.568  1.00  0.00    -0.248 NA
ATOM     16  C   UNL A   1      37.999  30.742  28.785  1.00  0.00     0.031 C 
ATOM     17  C   UNL A   1      37.231  33.671  32.798  1.00  0.00     0.029 A 
ATOM     18  N   UNL A   1      39.007  32.316  32.852  1.00  0.00    -0.354 N 
ATOM     19  C   UNL A   1      39.837  29.620  29.568  1.00  0.00     0.074 A 
ATOM     20  C   UNL A   1      38.859  29.770  28.511  1.00  0.00     0.031 C 
ATOM     21  C   UNL A   1      37.872  33.902  33.951  1.00  0.00     0.029 A 
ATOM     22  C   UNL A   1      39.007  32.994  34.046  1.00  0.00     0.049 A 
ATOM     23  H   UNL A   1      39.692  31.652  32.607  1.00  0.00     0.167 HD
ATOM     24  C   UNL A   1      40.881  28.756  29.540  1.00  0.00     0.037 A 
ATOM     25  C   UNL A   1      39.809  32.876  35.119  1.00  0.00     0.037 A 
ATOM     26  C   UNL A   1      41.849  28.623  30.600  1.00  0.00     0.049 A 
ATOM     27  C   UNL A   1      40.936  31.885  35.074  1.00  0.00     0.074 A 
ATOM     28  C   UNL A   1      42.969  27.811  30.650  1.00  0.00     0.029 A 
ATOM     29  N   UNL A   1      41.804  29.310  31.806  1.00  0.00    -0.354 N 
ATOM     30  N   UNL A   1      41.283  31.074  34.105  1.00  0.00    -0.248 NA
ATOM     31  C   UNL A   1      41.780  31.793  36.271  1.00  0.00     0.031 C 
ATOM     32  C   UNL A   1      43.560  27.956  31.909  1.00  0.00     0.029 A 
ATOM     33  C   UNL A   1      42.853  28.912  32.620  1.00  0.00     0.049 A 
ATOM     34  H   UNL A   1      41.125  29.982  32.048  1.00  0.00     0.167 HD
ATOM     35  C   UNL A   1      42.396  30.387  34.566  1.00  0.00     0.074 A 
ATOM     36  C   UNL A   1      42.678  30.894  35.894  1.00  0.00     0.031 C 
ATOM     37  C   UNL A   1      43.118  29.422  33.943  1.00  0.00     0.037 A 
BRANCH  24  38
ATOM     38  C   UNL A   1      41.012  27.859  28.340  1.00  0.00     0.064 A 
ATOM     39  C   UNL A   1      40.372  26.612  28.270  1.00  0.00     0.173 A 
ATOM     40  C   UNL A   1      41.766  28.269  27.228  1.00  0.00     0.173 A 
ATOM     41  F   UNL A   1      39.644  26.166  29.304  1.00  0.00    -0.203 F 
ATOM     42  C   UNL A   1      40.511  25.795  27.149  1.00  0.00     0.198 A 
ATOM     43  C   UNL A   1      41.874  27.465  26.095  1.00  0.00     0.198 A 
ATOM     44  F   UNL A   1      42.391  29.455  27.235  1.00  0.00    -0.203 F 
ATOM     45  F   UNL A   1      39.937  24.584  27.128  1.00  0.00    -0.200 F 
ATOM     46  C   UNL A   1      41.257  26.224  26.061  1.00  0.00     0.200 A 
ATOM     47  F   UNL A   1      42.581  27.890  25.039  1.00  0.00    -0.200 F 
ATOM     48  F   UNL A   1      41.385  25.440  24.982  1.00  0.00    -0.200 F 
ENDBRANCH  24  38
BRANCH  25  49
ATOM     49  C   UNL A   1      39.546  33.704  36.323  1.00  0.00     0.064 A 
ATOM     50  C   UNL A   1      38.784  33.213  37.390  1.00  0.00     0.173 A 
ATOM     51  C   UNL A   1      40.082  34.997  36.443  1.00  0.00     0.173 A 
ATOM     52  F   UNL A   1      38.240  31.990  37.317  1.00  0.00    -0.203 F 
ATOM     53  C   UNL A   1      38.555  33.989  38.524  1.00  0.00     0.198 A 
ATOM     54  C   UNL A   1      39.881  35.756  37.591  1.00  0.00     0.198 A 
ATOM     55  F   UNL A   1      40.828  35.508  35.453  1.00  0.00    -0.203 F 
ATOM     56  F   UNL A   1      37.786  33.512  39.514  1.00  0.00    -0.200 F 
ATOM     57  C   UNL A   1      39.109  35.255  38.628  1.00  0.00     0.200 A 
ATOM     58  F   UNL A   1      40.440  36.970  37.696  1.00  0.00    -0.200 F 
ATOM     59  F   UNL A   1      38.899  35.994  39.725  1.00  0.00    -0.200 F 
ENDBRANCH  25  49
BRANCH  37  60
ATOM     60  C   UNL A   1      44.304  28.872  34.684  1.00  0.00     0.064 A 
ATOM     61  C   UNL A   1      44.201  27.741  35.508  1.00  0.00     0.173 A 
ATOM     62  C   UNL A   1      45.566  29.468  34.541  1.00  0.00     0.173 A 
ATOM     63  F   UNL A   1      43.014  27.146  35.693  1.00  0.00    -0.203 F 
ATOM     64  C   UNL A   1      45.314  27.244  36.181  1.00  0.00     0.198 A 
ATOM     65  C   UNL A   1      46.683  28.947  35.188  1.00  0.00     0.198 A 
ATOM     66  F   UNL A   1      45.721  30.549  33.762  1.00  0.00    -0.203 F 
ATOM     67  F   UNL A   1      45.182  26.196  37.006  1.00  0.00    -0.200 F 
ATOM     68  C   UNL A   1      46.554  27.841  36.014  1.00  0.00     0.200 A 
ATOM     69  F   UNL A   1      47.883  29.516  35.012  1.00  0.00    -0.200 F 
ATOM     70  F   UNL A   1      47.626  27.355  36.656  1.00  0.00    -0.200 F 
ENDBRANCH  37  60
ENDBRANCH  11  12
ENDBRANCH   4   6
ENDBRANCH   1   2
BRANCH   1  71
ATOM     71  C   UNL A   1      31.054  31.771  26.471  1.00  0.00     0.042 C 
BRANCH  71  72
ATOM     72  C   UNL A   1      31.204  30.527  25.616  1.00  0.00     0.118 C 
BRANCH  72  73
ATOM     73  N   UNL A   1      30.644  30.700  24.287  1.00  0.00    -0.352 N 
ATOM     74  C   UNL A   1      30.272  29.759  23.367  1.00  0.00     0.252 C 
ATOM     75  H   UNL A   1      30.513  31.634  24.005  1.00  0.00     0.163 HD
ATOM     76  O   UNL A   1      29.914  30.106  22.245  1.00  0.00    -0.269 OA
BRANCH  74  77
ATOM     77  C   UNL A   1      30.345  28.323  23.684  1.00  0.00     0.060 A 
ATOM     78  C   UNL A   1      31.633  27.782  23.835  1.00  0.00     0.042 A 
ATOM     79  C   UNL A   1      29.215  27.495  23.737  1.00  0.00     0.053 A 
ATOM     80  C   UNL A   1      31.784  26.408  24.006  1.00  0.00     0.053 A 
ATOM     81  C   UNL A   1      29.369  26.141  24.025  1.00  0.00     0.023 A 
ATOM     82  Cl  UNL A   1      27.611  28.034  23.385  1.00  0.00    -0.083 Cl
ATOM     83  C   UNL A   1      30.646  25.597  24.134  1.00  0.00     0.028 A 
BRANCH  80  84
ATOM     84  N   UNL A   1      33.053  25.812  24.095  1.00  0.00    -0.250 N 
ATOM     85  C   UNL A   1      33.649  25.477  25.324  1.00  0.00     0.238 C 
ATOM     86  C   UNL A   1      33.640  25.129  23.009  1.00  0.00     0.238 C 
ATOM     87  O   UNL A   1      33.284  25.721  26.459  1.00  0.00    -0.274 OA
ATOM     88  C   UNL A   1      34.866  24.706  24.924  1.00  0.00     0.100 C 
ATOM     89  C   UNL A   1      34.297  23.991  23.696  1.00  0.00     0.100 C 
ATOM     90  O   UNL A   1      33.481  25.274  21.814  1.00  0.00    -0.274 OA
ATOM     91  C   UNL A   1      35.709  23.708  25.737  1.00  0.00     0.028 C 
ATOM     92  C   UNL A   1      35.199  22.830  23.313  1.00  0.00     0.028 C 
ATOM     93  C   UNL A   1      36.952  23.597  24.819  1.00  0.00    -0.026 C 
ATOM     94  C   UNL A   1      35.157  22.272  25.801  1.00  0.00     0.001 C 
ATOM     95  C   UNL A   1      36.670  23.201  23.554  1.00  0.00    -0.026 C 
ATOM     96  C   UNL A   1      34.864  21.735  24.391  1.00  0.00     0.001 C 
ATOM     97  C   UNL A   1      33.774  21.797  25.467  1.00  0.00     0.009 C 
ENDBRANCH  80  84
ENDBRANCH  74  77
ENDBRANCH  72  73
ENDBRANCH  71  72
ENDBRANCH   1  71
TORSDOF 11
ENDMDL
MODEL 3
REMARK VINA RESULT:     -14.2      4.987      9.110
REMARK SMILES O=C(NCCCNC(=O)c1cc(N2C(=O)[C@H]3[C@@H]4C=C[C@@H]([C@@H]5C[C@H]45)[C@@H]3C2=O)ccc1Cl)c1ccc(-c2c3nc(c(-c4c(F)c(F)c(F)c(F)c4F)c4ccc([nH]4)c(-c4c(F)c(F)c(F)c(F)c4F)c4nc(c(-c5c(F)c(F)c(F)c(F)c5F)c5ccc2[nH]5)C=C4)C=C3)cc1
REMARK SMILES IDX 4 1 3 2 1 3 2 4 31 6 32 7 93 8 33 9 92 10 34 11 35 12 36 13
REMARK SMILES IDX 86 14 37 15 91 16 85 17 87 18 38 19 90 20 84 21 83 22 39 24
REMARK SMILES IDX 71 25 51 26 70 27 52 28 55 29 69 30 88 31 53 32 54 33 68 35
REMARK SMILES IDX 89 36 56 37 40 38 41 39 49 40 42 41 43 42 47 43 50 44 44 45
REMARK SMILES IDX 45 46 48 47 46 48 72 49 73 50 81 51 74 52 75 53 79 54 82 55
REMARK SMILES IDX 76 56 77 57 80 58 78 59 57 60 58 61 66 62 59 63 60 64 64 65
REMARK SMILES IDX 67 66 61 67 62 68 65 69 63 70 5 71 6 72 7 73 8 74 9 76 10 77
REMARK SMILES IDX 11 78 29 79 12 80 28 81 30 82 27 83 13 84 14 85 25 86 15 87
REMARK SMILES IDX 16 88 24 89 26 90 17 91 20 92 18 93 23 94 19 95 21 96 22 97
REMARK H PARENT 3 5 87 23 55 34 7 75
REMARK Flexibility Score: inf
ROOT
ATOM      1  C   UNL A   1      38.602  20.209  25.479  1.00  0.00     0.118 C 
ENDROOT
BRANCH   1   2
ATOM      2  N   UNL A   1      39.709  19.287  25.701  1.00  0.00    -0.352 N 
ATOM      3  O   UNL A   1      41.838  18.636  26.073  1.00  0.00    -0.269 OA
ATOM      4  C   UNL A   1      41.001  19.533  26.100  1.00  0.00     0.251 C 
ATOM      5  H   UNL A   1      39.498  18.339  25.540  1.00  0.00     0.163 HD
BRANCH   4   6
ATOM      6  C   UNL A   1      41.390  20.890  26.535  1.00  0.00     0.039 A 
ATOM      7  C   UNL A   1      41.727  21.864  25.596  1.00  0.00     0.014 A 
ATOM      8  C   UNL A   1      41.420  21.193  27.899  1.00  0.00     0.014 A 
ATOM      9  C   UNL A   1      42.277  23.066  26.015  1.00  0.00     0.010 A 
ATOM     10  C   UNL A   1      41.853  22.453  28.319  1.00  0.00     0.010 A 
ATOM     11  C   UNL A   1      42.318  23.388  27.380  1.00  0.00    -0.014 A 
BRANCH  11  12
ATOM     12  C   UNL A   1      42.770  24.742  27.785  1.00  0.00     0.031 A 
ATOM     13  C   UNL A   1      41.791  25.817  28.155  1.00  0.00     0.074 A 
ATOM     14  C   UNL A   1      44.095  24.985  27.827  1.00  0.00     0.049 A 
ATOM     15  N   UNL A   1      42.024  27.053  28.522  1.00  0.00    -0.248 NA
ATOM     16  C   UNL A   1      40.364  25.468  28.101  1.00  0.00     0.031 C 
ATOM     17  C   UNL A   1      45.137  24.017  27.472  1.00  0.00     0.029 A 
ATOM     18  N   UNL A   1      44.794  26.105  28.191  1.00  0.00    -0.354 N 
ATOM     19  C   UNL A   1      40.778  27.634  28.719  1.00  0.00     0.074 A 
ATOM     20  C   UNL A   1      39.790  26.624  28.404  1.00  0.00     0.031 C 
ATOM     21  C   UNL A   1      46.339  24.571  27.672  1.00  0.00     0.029 A 
ATOM     22  C   UNL A   1      46.154  25.955  28.090  1.00  0.00     0.049 A 
ATOM     23  H   UNL A   1      44.363  26.936  28.496  1.00  0.00     0.167 HD
ATOM     24  C   UNL A   1      40.493  28.894  29.130  1.00  0.00     0.037 A 
ATOM     25  C   UNL A   1      47.149  26.840  28.276  1.00  0.00     0.037 A 
ATOM     26  C   UNL A   1      41.491  29.887  29.445  1.00  0.00     0.049 A 
ATOM     27  C   UNL A   1      46.802  28.239  28.696  1.00  0.00     0.074 A 
ATOM     28  C   UNL A   1      41.307  31.177  29.913  1.00  0.00     0.029 A 
ATOM     29  N   UNL A   1      42.861  29.706  29.307  1.00  0.00    -0.354 N 
ATOM     30  N   UNL A   1      45.623  28.763  28.926  1.00  0.00    -0.248 NA
ATOM     31  C   UNL A   1      47.923  29.167  28.883  1.00  0.00     0.031 C 
ATOM     32  C   UNL A   1      42.559  31.796  29.994  1.00  0.00     0.029 A 
ATOM     33  C   UNL A   1      43.531  30.872  29.646  1.00  0.00     0.049 A 
ATOM     34  H   UNL A   1      43.293  28.872  29.013  1.00  0.00     0.167 HD
ATOM     35  C   UNL A   1      45.858  30.077  29.301  1.00  0.00     0.074 A 
ATOM     36  C   UNL A   1      47.295  30.262  29.289  1.00  0.00     0.031 C 
ATOM     37  C   UNL A   1      44.963  31.043  29.624  1.00  0.00     0.037 A 
BRANCH  24  38
ATOM     38  C   UNL A   1      39.045  29.285  29.230  1.00  0.00     0.064 A 
ATOM     39  C   UNL A   1      38.371  29.339  30.460  1.00  0.00     0.173 A 
ATOM     40  C   UNL A   1      38.326  29.643  28.077  1.00  0.00     0.173 A 
ATOM     41  F   UNL A   1      39.005  29.003  31.593  1.00  0.00    -0.203 F 
ATOM     42  C   UNL A   1      37.027  29.701  30.528  1.00  0.00     0.198 A 
ATOM     43  C   UNL A   1      36.992  30.037  28.153  1.00  0.00     0.198 A 
ATOM     44  F   UNL A   1      38.921  29.619  26.875  1.00  0.00    -0.203 F 
ATOM     45  F   UNL A   1      36.391  29.691  31.707  1.00  0.00    -0.200 F 
ATOM     46  C   UNL A   1      36.341  30.055  29.376  1.00  0.00     0.200 A 
ATOM     47  F   UNL A   1      36.336  30.396  27.040  1.00  0.00    -0.200 F 
ATOM     48  F   UNL A   1      35.049  30.407  29.444  1.00  0.00    -0.200 F 
ENDBRANCH  24  38
BRANCH  25  49
ATOM     49  C   UNL A   1      48.554  26.423  28.036  1.00  0.00     0.064 A 
ATOM     50  C   UNL A   1      49.086  26.373  26.742  1.00  0.00     0.173 A 
ATOM     51  C   UNL A   1      49.404  26.097  29.106  1.00  0.00     0.173 A 
ATOM     52  F   UNL A   1      48.310  26.662  25.688  1.00  0.00    -0.203 F 
ATOM     53  C   UNL A   1      50.410  25.997  26.525  1.00  0.00     0.198 A 
ATOM     54  C   UNL A   1      50.735  25.757  28.890  1.00  0.00     0.198 A 
ATOM     55  F   UNL A   1      48.945  26.142  30.365  1.00  0.00    -0.203 F 
ATOM     56  F   UNL A   1      50.883  25.916  25.274  1.00  0.00    -0.200 F 
ATOM     57  C   UNL A   1      51.236  25.698  27.598  1.00  0.00     0.200 A 
ATOM     58  F   UNL A   1      51.535  25.492  29.933  1.00  0.00    -0.200 F 
ATOM     59  F   UNL A   1      52.512  25.350  27.389  1.00  0.00    -0.200 F 
ENDBRANCH  25  49
BRANCH  37  60
ATOM     60  C   UNL A   1      45.516  32.382  30.023  1.00  0.00     0.064 A 
ATOM     61  C   UNL A   1      45.861  32.673  31.351  1.00  0.00     0.173 A 
ATOM     62  C   UNL A   1      45.732  33.375  29.055  1.00  0.00     0.173 A 
ATOM     63  F   UNL A   1      45.657  31.764  32.316  1.00  0.00    -0.203 F 
ATOM     64  C   UNL A   1      46.378  33.918  31.699  1.00  0.00     0.198 A 
ATOM     65  C   UNL A   1      46.282  34.606  29.402  1.00  0.00     0.198 A 
ATOM     66  F   UNL A   1      45.423  33.147  27.770  1.00  0.00    -0.203 F 
ATOM     67  F   UNL A   1      46.649  34.193  32.982  1.00  0.00    -0.200 F 
ATOM     68  C   UNL A   1      46.596  34.879  30.724  1.00  0.00     0.200 A 
ATOM     69  F   UNL A   1      46.506  35.528  28.455  1.00  0.00    -0.200 F 
ATOM     70  F   UNL A   1      47.102  36.074  31.060  1.00  0.00    -0.200 F 
ENDBRANCH  37  60
ENDBRANCH  11  12
ENDBRANCH   4   6
ENDBRANCH   1   2
BRANCH   1  71
ATOM     71  C   UNL A   1      37.414  19.563  24.786  1.00  0.00     0.042 C 
BRANCH  71  72
ATOM     72  C   UNL A   1      36.123  20.346  24.932  1.00  0.00     0.118 C 
BRANCH  72  73
ATOM     73  N   UNL A   1      34.998  19.496  25.279  1.00  0.00    -0.352 N 
ATOM     74  C   UNL A   1      33.656  19.727  25.149  1.00  0.00     0.252 C 
ATOM     75  H   UNL A   1      35.236  18.623  25.666  1.00  0.00     0.163 HD
ATOM     76  O   UNL A   1      32.849  18.920  25.601  1.00  0.00    -0.269 OA
BRANCH  74  77
ATOM     77  C   UNL A   1      33.161  20.960  24.516  1.00  0.00     0.060 A 
ATOM     78  C   UNL A   1      33.319  22.146  25.254  1.00  0.00     0.042 A 
ATOM     79  C   UNL A   1      32.472  20.969  23.295  1.00  0.00     0.053 A 
ATOM     80  C   UNL A   1      32.758  23.329  24.779  1.00  0.00     0.053 A 
ATOM     81  C   UNL A   1      32.017  22.177  22.772  1.00  0.00     0.023 A 
ATOM     82  Cl  UNL A   1      32.070  19.541  22.409  1.00  0.00    -0.083 Cl
ATOM     83  C   UNL A   1      32.138  23.344  23.521  1.00  0.00     0.028 A 
BRANCH  80  84
ATOM     84  N   UNL A   1      32.834  24.526  25.512  1.00  0.00    -0.250 N 
ATOM     85  C   UNL A   1      33.841  25.483  25.298  1.00  0.00     0.238 C 
ATOM     86  C   UNL A   1      31.720  25.059  26.195  1.00  0.00     0.238 C 
ATOM     87  O   UNL A   1      34.832  25.429  24.594  1.00  0.00    -0.274 OA
ATOM     88  C   UNL A   1      33.407  26.641  26.140  1.00  0.00     0.100 C 
ATOM     89  C   UNL A   1      31.892  26.511  25.952  1.00  0.00     0.100 C 
ATOM     90  O   UNL A   1      30.748  24.502  26.664  1.00  0.00    -0.274 OA
ATOM     91  C   UNL A   1      33.796  28.126  26.045  1.00  0.00     0.028 C 
ATOM     92  C   UNL A   1      31.210  27.800  26.378  1.00  0.00     0.028 C 
ATOM     93  C   UNL A   1      33.254  28.632  27.405  1.00  0.00    -0.026 C 
ATOM     94  C   UNL A   1      33.021  28.950  24.999  1.00  0.00     0.001 C 
ATOM     95  C   UNL A   1      31.932  28.406  27.591  1.00  0.00    -0.026 C 
ATOM     96  C   UNL A   1      31.504  28.782  25.185  1.00  0.00     0.001 C 
ATOM     97  C   UNL A   1      32.191  28.446  23.856  1.00  0.00     0.009 C 
ENDBRANCH  80  84
ENDBRANCH  74  77
ENDBRANCH  72  73
ENDBRANCH  71  72
ENDBRANCH   1  71
TORSDOF 11
ENDMDL
