MODEL 1
REMARK VINA RESULT:     -12.6      0.000      0.000
REMARK SMILES CC(=O)N/N=C/c1ccc(O[C@H](C)C(=O)NCCCNC(=O)c2ccc(-c3c4nc(c(-c5c(F)c(F)c(F)c(F)c5F)c5ccc([nH]5)c(-c5c(F)c(F)c(F)c(F)c5F)c5nc(c(-c6c(F)c(F)c(F)c(F)c6F)c6ccc3[nH]6)C=C5)C=C4)cc2)cc1
REMARK SMILES IDX 17 1 16 2 14 3 15 4 12 6 13 7 11 8 10 9 7 10 8 11 87 12 9 13
REMARK SMILES IDX 86 14 6 15 5 16 4 17 1 18 2 19 3 20 18 22 19 23 20 24 21 25
REMARK SMILES IDX 22 27 23 28 24 29 85 30 25 31 84 32 26 33 27 34 28 35 78 36
REMARK SMILES IDX 29 37 83 38 77 39 79 40 30 41 82 42 76 43 75 44 31 46 63 47
REMARK SMILES IDX 43 48 62 49 44 50 47 51 61 52 80 53 45 54 46 55 60 57 81 58
REMARK SMILES IDX 48 59 32 60 33 61 41 62 34 63 35 64 39 65 42 66 36 67 37 68
REMARK SMILES IDX 40 69 38 70 64 71 65 72 73 73 66 74 67 75 71 76 74 77 68 78
REMARK SMILES IDX 69 79 72 80 70 81 49 82 50 83 58 84 51 85 52 86 56 87 59 88
REMARK SMILES IDX 53 89 54 90 57 91 55 92
REMARK H PARENT 16 5 4 21 20 26 79 45 47 56
REMARK Flexibility Score: inf
ROOT
ATOM      1  C   UNL A   1      32.603  26.872  26.100  1.00  0.00     0.118 C 
ENDROOT
BRANCH   1   2
ATOM      2  N   UNL A   1      31.720  25.909  26.704  1.00  0.00    -0.353 N 
ATOM      3  C   UNL A   1      31.499  24.601  26.405  1.00  0.00     0.260 C 
ATOM      4  O   UNL A   1      30.855  23.967  27.251  1.00  0.00    -0.271 OA
ATOM      5  H   UNL A   1      31.187  26.254  27.456  1.00  0.00     0.163 HD
BRANCH   3   6
ATOM      6  C   UNL A   1      31.873  23.929  25.044  1.00  0.00     0.258 C 
ATOM      7  C   UNL A   1      32.339  22.495  25.297  1.00  0.00     0.064 C 
BRANCH   6   8
ATOM      8  O   UNL A   1      31.206  24.176  23.807  1.00  0.00    -0.481 OA
BRANCH   8   9
ATOM      9  C   UNL A   1      30.681  25.377  23.451  1.00  0.00     0.120 A 
ATOM     10  C   UNL A   1      29.984  28.017  22.859  1.00  0.00    -0.005 A 
ATOM     11  C   UNL A   1      29.134  27.221  23.626  1.00  0.00     0.013 A 
ATOM     12  C   UNL A   1      31.121  27.471  22.272  1.00  0.00     0.013 A 
ATOM     13  C   UNL A   1      29.465  25.890  23.889  1.00  0.00     0.047 A 
ATOM     14  C   UNL A   1      31.466  26.146  22.577  1.00  0.00     0.047 A 
BRANCH  10  15
ATOM     15  C   UNL A   1      29.638  29.447  22.778  1.00  0.00     0.141 C 
ATOM     16  N   UNL A   1      29.759  30.127  21.691  1.00  0.00    -0.181 NA
BRANCH  16  17
ATOM     17  N   UNL A   1      29.307  31.418  21.622  1.00  0.00    -0.247 N 
ATOM     18  C   UNL A   1      27.652  31.578  23.503  1.00  0.00     0.116 C 
ATOM     19  C   UNL A   1      28.371  32.142  22.312  1.00  0.00     0.236 C 
ATOM     20  O   UNL A   1      28.129  33.296  21.941  1.00  0.00    -0.274 OA
ATOM     21  H   UNL A   1      29.757  31.943  20.921  1.00  0.00     0.193 HD
ENDBRANCH  16  17
ENDBRANCH  10  15
ENDBRANCH   8   9
ENDBRANCH   6   8
ENDBRANCH   3   6
ENDBRANCH   1   2
BRANCH   1  22
ATOM     22  C   UNL A   1      31.998  28.265  25.989  1.00  0.00     0.042 C 
BRANCH  22  23
ATOM     23  C   UNL A   1      32.996  29.293  25.474  1.00  0.00     0.118 C 
BRANCH  23  24
ATOM     24  N   UNL A   1      32.707  30.637  25.967  1.00  0.00    -0.352 N 
ATOM     25  C   UNL A   1      33.278  31.379  26.969  1.00  0.00     0.251 C 
ATOM     26  H   UNL A   1      31.971  31.090  25.496  1.00  0.00     0.163 HD
ATOM     27  O   UNL A   1      32.724  32.409  27.336  1.00  0.00    -0.269 OA
BRANCH  25  28
ATOM     28  C   UNL A   1      34.526  30.936  27.628  1.00  0.00     0.039 A 
ATOM     29  C   UNL A   1      35.542  31.875  27.833  1.00  0.00     0.014 A 
ATOM     30  C   UNL A   1      34.716  29.612  28.023  1.00  0.00     0.014 A 
ATOM     31  C   UNL A   1      36.711  31.498  28.494  1.00  0.00     0.010 A 
ATOM     32  C   UNL A   1      35.826  29.266  28.783  1.00  0.00     0.010 A 
ATOM     33  C   UNL A   1      36.844  30.200  29.012  1.00  0.00    -0.014 A 
BRANCH  33  34
ATOM     34  C   UNL A   1      38.050  29.793  29.776  1.00  0.00     0.031 A 
ATOM     35  C   UNL A   1      38.276  30.323  31.165  1.00  0.00     0.074 A 
ATOM     36  C   UNL A   1      38.966  28.996  29.192  1.00  0.00     0.049 A 
ATOM     37  N   UNL A   1      39.295  30.141  31.965  1.00  0.00    -0.248 NA
ATOM     38  C   UNL A   1      37.235  31.208  31.716  1.00  0.00     0.031 C 
ATOM     39  C   UNL A   1      38.885  28.466  27.830  1.00  0.00     0.029 A 
ATOM     40  N   UNL A   1      40.153  28.498  29.669  1.00  0.00    -0.354 N 
ATOM     41  C   UNL A   1      39.025  30.898  33.099  1.00  0.00     0.074 A 
ATOM     42  C   UNL A   1      37.784  31.598  32.855  1.00  0.00     0.031 C 
ATOM     43  C   UNL A   1      39.953  27.689  27.594  1.00  0.00     0.029 A 
ATOM     44  C   UNL A   1      40.817  27.702  28.769  1.00  0.00     0.049 A 
ATOM     45  H   UNL A   1      40.495  28.694  30.571  1.00  0.00     0.167 HD
ATOM     46  C   UNL A   1      39.732  30.976  34.251  1.00  0.00     0.037 A 
ATOM     47  C   UNL A   1      41.995  27.060  28.881  1.00  0.00     0.037 A 
ATOM     48  C   UNL A   1      40.951  30.253  34.495  1.00  0.00     0.049 A 
ATOM     49  C   UNL A   1      42.761  27.165  30.172  1.00  0.00     0.074 A 
ATOM     50  C   UNL A   1      41.717  30.215  35.646  1.00  0.00     0.029 A 
ATOM     51  N   UNL A   1      41.584  29.439  33.566  1.00  0.00    -0.354 N 
ATOM     52  N   UNL A   1      42.460  27.828  31.263  1.00  0.00    -0.248 NA
ATOM     53  C   UNL A   1      44.026  26.423  30.250  1.00  0.00     0.031 C 
ATOM     54  C   UNL A   1      42.842  29.423  35.396  1.00  0.00     0.029 A 
ATOM     55  C   UNL A   1      42.743  28.912  34.112  1.00  0.00     0.049 A 
ATOM     56  H   UNL A   1      41.257  29.261  32.655  1.00  0.00     0.167 HD
ATOM     57  C   UNL A   1      43.478  27.555  32.168  1.00  0.00     0.074 A 
ATOM     58  C   UNL A   1      44.395  26.653  31.502  1.00  0.00     0.031 C 
ATOM     59  C   UNL A   1      43.639  28.008  33.435  1.00  0.00     0.037 A 
BRANCH  46  60
ATOM     60  C   UNL A   1      39.199  31.872  35.334  1.00  0.00     0.064 A 
ATOM     61  C   UNL A   1      38.390  31.378  36.370  1.00  0.00     0.173 A 
ATOM     62  C   UNL A   1      39.525  33.236  35.355  1.00  0.00     0.173 A 
ATOM     63  F   UNL A   1      38.036  30.083  36.393  1.00  0.00    -0.203 F 
ATOM     64  C   UNL A   1      37.900  32.221  37.364  1.00  0.00     0.198 A 
ATOM     65  C   UNL A   1      39.063  34.070  36.372  1.00  0.00     0.198 A 
ATOM     66  F   UNL A   1      40.297  33.763  34.393  1.00  0.00    -0.203 F 
ATOM     67  F   UNL A   1      37.081  31.736  38.308  1.00  0.00    -0.200 F 
ATOM     68  C   UNL A   1      38.244  33.564  37.369  1.00  0.00     0.200 A 
ATOM     69  F   UNL A   1      39.408  35.365  36.382  1.00  0.00    -0.200 F 
ATOM     70  F   UNL A   1      37.778  34.373  38.330  1.00  0.00    -0.200 F 
ENDBRANCH  46  60
BRANCH  47  71
ATOM     71  C   UNL A   1      42.507  26.239  27.751  1.00  0.00     0.064 A 
ATOM     72  C   UNL A   1      43.449  26.758  26.852  1.00  0.00     0.173 A 
ATOM     73  C   UNL A   1      42.062  24.926  27.540  1.00  0.00     0.173 A 
ATOM     74  F   UNL A   1      43.894  28.014  27.000  1.00  0.00    -0.203 F 
ATOM     75  C   UNL A   1      43.903  26.007  25.769  1.00  0.00     0.198 A 
ATOM     76  C   UNL A   1      42.542  24.164  26.477  1.00  0.00     0.198 A 
ATOM     77  F   UNL A   1      41.169  24.376  28.377  1.00  0.00    -0.203 F 
ATOM     78  F   UNL A   1      44.760  26.550  24.894  1.00  0.00    -0.200 F 
ATOM     79  C   UNL A   1      43.453  24.709  25.585  1.00  0.00     0.200 A 
ATOM     80  F   UNL A   1      42.118  22.902  26.315  1.00  0.00    -0.200 F 
ATOM     81  F   UNL A   1      43.892  23.987  24.546  1.00  0.00    -0.200 F 
ENDBRANCH  47  71
BRANCH  59  82
ATOM     82  C   UNL A   1      44.826  27.498  34.202  1.00  0.00     0.064 A 
ATOM     83  C   UNL A   1      44.746  26.366  35.026  1.00  0.00     0.173 A 
ATOM     84  C   UNL A   1      46.070  28.139  34.086  1.00  0.00     0.173 A 
ATOM     85  F   UNL A   1      43.577  25.725  35.181  1.00  0.00    -0.203 F 
ATOM     86  C   UNL A   1      45.856  25.916  35.734  1.00  0.00     0.198 A 
ATOM     87  C   UNL A   1      47.187  27.664  34.766  1.00  0.00     0.198 A 
ATOM     88  F   UNL A   1      46.204  29.220  33.303  1.00  0.00    -0.203 F 
ATOM     89  F   UNL A   1      45.741  24.869  36.563  1.00  0.00    -0.200 F 
ATOM     90  C   UNL A   1      47.077  26.561  35.598  1.00  0.00     0.200 A 
ATOM     91  F   UNL A   1      48.370  28.277  34.617  1.00  0.00    -0.200 F 
ATOM     92  F   UNL A   1      48.147  26.123  36.275  1.00  0.00    -0.200 F 
ENDBRANCH  59  82
ENDBRANCH  33  34
ENDBRANCH  25  28
ENDBRANCH  23  24
ENDBRANCH  22  23
ENDBRANCH   1  22
TORSDOF 14
ENDMDL
MODEL 2
REMARK VINA RESULT:     -12.5      0.564      7.518
REMARK SMILES CC(=O)N/N=C/c1ccc(O[C@H](C)C(=O)NCCCNC(=O)c2ccc(-c3c4nc(c(-c5c(F)c(F)c(F)c(F)c5F)c5ccc([nH]5)c(-c5c(F)c(F)c(F)c(F)c5F)c5nc(c(-c6c(F)c(F)c(F)c(F)c6F)c6ccc3[nH]6)C=C5)C=C4)cc2)cc1
REMARK SMILES IDX 17 1 16 2 14 3 15 4 12 6 13 7 11 8 10 9 7 10 8 11 87 12 9 13
REMARK SMILES IDX 86 14 6 15 5 16 4 17 1 18 2 19 3 20 18 22 19 23 20 24 21 25
REMARK SMILES IDX 22 27 23 28 24 29 85 30 25 31 84 32 26 33 27 34 28 35 78 36
REMARK SMILES IDX 29 37 83 38 77 39 79 40 30 41 82 42 76 43 75 44 31 46 63 47
REMARK SMILES IDX 43 48 62 49 44 50 47 51 61 52 80 53 45 54 46 55 60 57 81 58
REMARK SMILES IDX 48 59 32 60 33 61 41 62 34 63 35 64 39 65 42 66 36 67 37 68
REMARK SMILES IDX 40 69 38 70 64 71 65 72 73 73 66 74 67 75 71 76 74 77 68 78
REMARK SMILES IDX 69 79 72 80 70 81 49 82 50 83 58 84 51 85 52 86 56 87 59 88
REMARK SMILES IDX 53 89 54 90 57 91 55 92
REMARK H PARENT 16 5 4 21 20 26 79 45 47 56
REMARK Flexibility Score: inf
ROOT
ATOM      1  C   UNL A   1      32.543  26.580  26.278  1.00  0.00     0.118 C 
ENDROOT
BRANCH   1   2
ATOM      2  N   UNL A   1      31.601  25.634  26.816  1.00  0.00    -0.353 N 
ATOM      3  C   UNL A   1      31.266  24.384  26.400  1.00  0.00     0.260 C 
ATOM      4  O   UNL A   1      30.596  23.721  27.203  1.00  0.00    -0.271 OA
ATOM      5  H   UNL A   1      31.119  25.944  27.617  1.00  0.00     0.163 HD
BRANCH   3   6
ATOM      6  C   UNL A   1      31.546  23.822  24.968  1.00  0.00     0.258 C 
ATOM      7  C   UNL A   1      32.043  22.381  25.076  1.00  0.00     0.064 C 
BRANCH   6   8
ATOM      8  O   UNL A   1      30.789  24.152  23.805  1.00  0.00    -0.481 OA
BRANCH   8   9
ATOM      9  C   UNL A   1      30.408  25.414  23.476  1.00  0.00     0.120 A 
ATOM     10  C   UNL A   1      30.013  28.133  22.967  1.00  0.00    -0.005 A 
ATOM     11  C   UNL A   1      29.047  27.399  23.657  1.00  0.00     0.013 A 
ATOM     12  C   UNL A   1      31.119  27.495  22.413  1.00  0.00     0.013 A 
ATOM     13  C   UNL A   1      29.228  26.033  23.877  1.00  0.00     0.047 A 
ATOM     14  C   UNL A   1      31.312  26.131  22.676  1.00  0.00     0.047 A 
BRANCH  10  15
ATOM     15  C   UNL A   1      29.819  29.592  22.931  1.00  0.00     0.141 C 
ATOM     16  N   UNL A   1      28.656  30.133  22.820  1.00  0.00    -0.181 NA
BRANCH  16  17
ATOM     17  N   UNL A   1      28.505  31.490  22.920  1.00  0.00    -0.247 N 
ATOM     18  C   UNL A   1      27.974  32.212  20.574  1.00  0.00     0.116 C 
ATOM     19  C   UNL A   1      28.260  32.495  22.020  1.00  0.00     0.236 C 
ATOM     20  O   UNL A   1      28.265  33.662  22.426  1.00  0.00    -0.274 OA
ATOM     21  H   UNL A   1      28.590  31.817  23.845  1.00  0.00     0.193 HD
ENDBRANCH  16  17
ENDBRANCH  10  15
ENDBRANCH   8   9
ENDBRANCH   6   8
ENDBRANCH   3   6
ENDBRANCH   1   2
BRANCH   1  22
ATOM     22  C   UNL A   1      31.963  27.975  26.090  1.00  0.00     0.042 C 
BRANCH  22  23
ATOM     23  C   UNL A   1      33.002  28.977  25.607  1.00  0.00     0.118 C 
BRANCH  23  24
ATOM     24  N   UNL A   1      32.665  30.347  25.986  1.00  0.00    -0.352 N 
ATOM     25  C   UNL A   1      33.210  31.190  26.920  1.00  0.00     0.251 C 
ATOM     26  H   UNL A   1      31.914  30.733  25.480  1.00  0.00     0.163 HD
ATOM     27  O   UNL A   1      32.620  32.227  27.200  1.00  0.00    -0.269 OA
BRANCH  25  28
ATOM     28  C   UNL A   1      34.472  30.849  27.610  1.00  0.00     0.039 A 
ATOM     29  C   UNL A   1      35.425  31.855  27.796  1.00  0.00     0.014 A 
ATOM     30  C   UNL A   1      34.738  29.553  28.054  1.00  0.00     0.014 A 
ATOM     31  C   UNL A   1      36.605  31.575  28.485  1.00  0.00     0.010 A 
ATOM     32  C   UNL A   1      35.856  29.304  28.840  1.00  0.00     0.010 A 
ATOM     33  C   UNL A   1      36.811  30.306  29.050  1.00  0.00    -0.014 A 
BRANCH  33  34
ATOM     34  C   UNL A   1      38.027  30.001  29.842  1.00  0.00     0.031 A 
ATOM     35  C   UNL A   1      39.073  29.072  29.289  1.00  0.00     0.074 A 
ATOM     36  C   UNL A   1      38.156  30.512  31.082  1.00  0.00     0.049 A 
ATOM     37  N   UNL A   1      40.168  28.629  29.851  1.00  0.00    -0.248 NA
ATOM     38  C   UNL A   1      38.839  28.540  27.936  1.00  0.00     0.031 C 
ATOM     39  C   UNL A   1      37.181  31.378  31.748  1.00  0.00     0.029 A 
ATOM     40  N   UNL A   1      39.159  30.370  32.009  1.00  0.00    -0.354 N 
ATOM     41  C   UNL A   1      40.739  27.758  28.931  1.00  0.00     0.074 A 
ATOM     42  C   UNL A   1      39.836  27.678  27.806  1.00  0.00     0.031 C 
ATOM     43  C   UNL A   1      37.650  31.720  32.958  1.00  0.00     0.029 A 
ATOM     44  C   UNL A   1      38.934  31.062  33.173  1.00  0.00     0.049 A 
ATOM     45  H   UNL A   1      39.963  29.825  31.852  1.00  0.00     0.167 HD
ATOM     46  C   UNL A   1      41.925  27.109  29.005  1.00  0.00     0.037 A 
ATOM     47  C   UNL A   1      39.680  31.150  34.290  1.00  0.00     0.037 A 
ATOM     48  C   UNL A   1      42.831  27.217  30.117  1.00  0.00     0.049 A 
ATOM     49  C   UNL A   1      40.994  30.417  34.346  1.00  0.00     0.074 A 
ATOM     50  C   UNL A   1      44.083  26.649  30.270  1.00  0.00     0.029 A 
ATOM     51  N   UNL A   1      42.578  27.945  31.271  1.00  0.00    -0.354 N 
ATOM     52  N   UNL A   1      41.556  29.654  33.441  1.00  0.00    -0.248 NA
ATOM     53  C   UNL A   1      41.781  30.570  35.577  1.00  0.00     0.031 C 
ATOM     54  C   UNL A   1      44.564  26.987  31.539  1.00  0.00     0.029 A 
ATOM     55  C   UNL A   1      43.642  27.821  32.151  1.00  0.00     0.049 A 
ATOM     56  H   UNL A   1      41.764  28.472  31.441  1.00  0.00     0.167 HD
ATOM     57  C   UNL A   1      42.777  29.263  33.976  1.00  0.00     0.074 A 
ATOM     58  C   UNL A   1      42.878  29.888  35.278  1.00  0.00     0.031 C 
ATOM     59  C   UNL A   1      43.728  28.460  33.440  1.00  0.00     0.037 A 
BRANCH  46  60
ATOM     60  C   UNL A   1      42.310  26.230  27.848  1.00  0.00     0.064 A 
ATOM     61  C   UNL A   1      41.796  24.931  27.704  1.00  0.00     0.173 A 
ATOM     62  C   UNL A   1      43.181  26.701  26.854  1.00  0.00     0.173 A 
ATOM     63  F   UNL A   1      40.969  24.425  28.632  1.00  0.00    -0.203 F 
ATOM     64  C   UNL A   1      42.166  24.127  26.629  1.00  0.00     0.198 A 
ATOM     65  C   UNL A   1      43.520  25.907  25.761  1.00  0.00     0.198 A 
ATOM     66  F   UNL A   1      43.700  27.935  26.937  1.00  0.00    -0.203 F 
ATOM     67  F   UNL A   1      41.709  22.870  26.547  1.00  0.00    -0.200 F 
ATOM     68  C   UNL A   1      43.021  24.618  25.654  1.00  0.00     0.200 A 
ATOM     69  F   UNL A   1      44.335  26.389  24.812  1.00  0.00    -0.200 F 
ATOM     70  F   UNL A   1      43.369  23.846  24.617  1.00  0.00    -0.200 F 
ENDBRANCH  46  60
BRANCH  47  71
ATOM     71  C   UNL A   1      39.219  31.984  35.432  1.00  0.00     0.064 A 
ATOM     72  C   UNL A   1      38.438  31.433  36.457  1.00  0.00     0.173 A 
ATOM     73  C   UNL A   1      39.540  33.346  35.519  1.00  0.00     0.173 A 
ATOM     74  F   UNL A   1      38.090  30.139  36.411  1.00  0.00    -0.203 F 
ATOM     75  C   UNL A   1      37.970  32.218  37.510  1.00  0.00     0.198 A 
ATOM     76  C   UNL A   1      39.100  34.123  36.589  1.00  0.00     0.198 A 
ATOM     77  F   UNL A   1      40.293  33.922  34.571  1.00  0.00    -0.203 F 
ATOM     78  F   UNL A   1      37.178  31.677  38.445  1.00  0.00    -0.200 F 
ATOM     79  C   UNL A   1      38.305  33.562  37.577  1.00  0.00     0.200 A 
ATOM     80  F   UNL A   1      39.443  35.417  36.661  1.00  0.00    -0.200 F 
ATOM     81  F   UNL A   1      37.858  34.315  38.590  1.00  0.00    -0.200 F 
ENDBRANCH  47  71
BRANCH  59  82
ATOM     82  C   UNL A   1      44.983  28.251  34.240  1.00  0.00     0.064 A 
ATOM     83  C   UNL A   1      46.071  29.131  34.154  1.00  0.00     0.173 A 
ATOM     84  C   UNL A   1      45.083  27.167  35.126  1.00  0.00     0.173 A 
ATOM     85  F   UNL A   1      46.031  30.176  33.313  1.00  0.00    -0.203 F 
ATOM     86  C   UNL A   1      47.227  28.914  34.898  1.00  0.00     0.198 A 
ATOM     87  C   UNL A   1      46.225  26.974  35.896  1.00  0.00     0.198 A 
ATOM     88  F   UNL A   1      44.067  26.301  35.254  1.00  0.00    -0.203 F 
ATOM     89  F   UNL A   1      48.278  29.733  34.754  1.00  0.00    -0.200 F 
ATOM     90  C   UNL A   1      47.301  27.840  35.773  1.00  0.00     0.200 A 
ATOM     91  F   UNL A   1      46.286  25.947  36.755  1.00  0.00    -0.200 F 
ATOM     92  F   UNL A   1      48.412  27.636  36.493  1.00  0.00    -0.200 F 
ENDBRANCH  59  82
ENDBRANCH  33  34
ENDBRANCH  25  28
ENDBRANCH  23  24
ENDBRANCH  22  23
ENDBRANCH   1  22
TORSDOF 14
ENDMDL
MODEL 3
REMARK VINA RESULT:     -12.2      5.723     11.057
REMARK SMILES CC(=O)N/N=C/c1ccc(O[C@H](C)C(=O)NCCCNC(=O)c2ccc(-c3c4nc(c(-c5c(F)c(F)c(F)c(F)c5F)c5ccc([nH]5)c(-c5c(F)c(F)c(F)c(F)c5F)c5nc(c(-c6c(F)c(F)c(F)c(F)c6F)c6ccc3[nH]6)C=C5)C=C4)cc2)cc1
REMARK SMILES IDX 17 1 16 2 14 3 15 4 12 6 13 7 11 8 10 9 7 10 8 11 87 12 9 13
REMARK SMILES IDX 86 14 6 15 5 16 4 17 1 18 2 19 3 20 18 22 19 23 20 24 21 25
REMARK SMILES IDX 22 27 23 28 24 29 85 30 25 31 84 32 26 33 27 34 28 35 78 36
REMARK SMILES IDX 29 37 83 38 77 39 79 40 30 41 82 42 76 43 75 44 31 46 63 47
REMARK SMILES IDX 43 48 62 49 44 50 47 51 61 52 80 53 45 54 46 55 60 57 81 58
REMARK SMILES IDX 48 59 32 60 33 61 41 62 34 63 35 64 39 65 42 66 36 67 37 68
REMARK SMILES IDX 40 69 38 70 64 71 65 72 73 73 66 74 67 75 71 76 74 77 68 78
REMARK SMILES IDX 69 79 72 80 70 81 49 82 50 83 58 84 51 85 52 86 56 87 59 88
REMARK SMILES IDX 53 89 54 90 57 91 55 92
REMARK H PARENT 16 5 4 21 20 26 79 45 47 56
REMARK Flexibility Score: inf
ROOT
ATOM      1  C   UNL A   1      42.376  22.626  25.948  1.00  0.00     0.118 C 
ENDROOT
BRANCH   1   2
ATOM      2  N   UNL A   1      43.067  22.678  24.687  1.00  0.00    -0.353 N 
ATOM      3  C   UNL A   1      44.302  22.228  24.334  1.00  0.00     0.260 C 
ATOM      4  O   UNL A   1      44.528  22.203  23.117  1.00  0.00    -0.271 OA
ATOM      5  H   UNL A   1      42.565  23.111  23.959  1.00  0.00     0.163 HD
BRANCH   3   6
ATOM      6  C   UNL A   1      45.445  21.895  25.348  1.00  0.00     0.258 C 
ATOM      7  C   UNL A   1      46.041  20.529  25.009  1.00  0.00     0.064 C 
BRANCH   6   8
ATOM      8  O   UNL A   1      46.332  22.858  25.914  1.00  0.00    -0.481 OA
BRANCH   8   9
ATOM      9  C   UNL A   1      46.263  24.193  25.673  1.00  0.00     0.120 A 
ATOM     10  C   UNL A   1      46.545  26.948  25.302  1.00  0.00    -0.005 A 
ATOM     11  C   UNL A   1      45.500  26.446  26.079  1.00  0.00     0.013 A 
ATOM     12  C   UNL A   1      47.377  26.082  24.599  1.00  0.00     0.013 A 
ATOM     13  C   UNL A   1      45.338  25.068  26.232  1.00  0.00     0.047 A 
ATOM     14  C   UNL A   1      47.232  24.701  24.793  1.00  0.00     0.047 A 
BRANCH  10  15
ATOM     15  C   UNL A   1      46.738  28.407  25.336  1.00  0.00     0.141 C 
ATOM     16  N   UNL A   1      45.781  29.227  25.603  1.00  0.00    -0.181 NA
BRANCH  16  17
ATOM     17  N   UNL A   1      46.028  30.565  25.751  1.00  0.00    -0.247 N 
ATOM     18  C   UNL A   1      44.286  31.322  27.392  1.00  0.00     0.116 C 
ATOM     19  C   UNL A   1      45.427  31.578  26.451  1.00  0.00     0.236 C 
ATOM     20  O   UNL A   1      45.853  32.729  26.305  1.00  0.00    -0.274 OA
ATOM     21  H   UNL A   1      46.815  30.866  25.241  1.00  0.00     0.193 HD
ENDBRANCH  16  17
ENDBRANCH  10  15
ENDBRANCH   8   9
ENDBRANCH   6   8
ENDBRANCH   3   6
ENDBRANCH   1   2
BRANCH   1  22
ATOM     22  C   UNL A   1      41.688  21.292  26.208  1.00  0.00     0.042 C 
BRANCH  22  23
ATOM     23  C   UNL A   1      40.403  21.448  27.009  1.00  0.00     0.118 C 
BRANCH  23  24
ATOM     24  N   UNL A   1      39.292  21.916  26.184  1.00  0.00    -0.352 N 
ATOM     25  C   UNL A   1      38.654  23.128  26.126  1.00  0.00     0.251 C 
ATOM     26  H   UNL A   1      38.940  21.242  25.561  1.00  0.00     0.163 HD
ATOM     27  O   UNL A   1      37.606  23.218  25.496  1.00  0.00    -0.269 OA
BRANCH  25  28
ATOM     28  C   UNL A   1      39.191  24.308  26.836  1.00  0.00     0.039 A 
ATOM     29  C   UNL A   1      39.961  25.228  26.117  1.00  0.00     0.014 A 
ATOM     30  C   UNL A   1      38.968  24.508  28.199  1.00  0.00     0.014 A 
ATOM     31  C   UNL A   1      40.443  26.374  26.749  1.00  0.00     0.010 A 
ATOM     32  C   UNL A   1      39.346  25.704  28.797  1.00  0.00     0.010 A 
ATOM     33  C   UNL A   1      40.103  26.642  28.084  1.00  0.00    -0.014 A 
BRANCH  33  34
ATOM     34  C   UNL A   1      40.547  27.886  28.760  1.00  0.00     0.031 A 
ATOM     35  C   UNL A   1      41.974  28.026  29.216  1.00  0.00     0.074 A 
ATOM     36  C   UNL A   1      39.651  28.858  29.017  1.00  0.00     0.049 A 
ATOM     37  N   UNL A   1      42.539  29.001  29.881  1.00  0.00    -0.248 NA
ATOM     38  C   UNL A   1      42.880  26.904  28.916  1.00  0.00     0.031 C 
ATOM     39  C   UNL A   1      38.228  28.811  28.675  1.00  0.00     0.029 A 
ATOM     40  N   UNL A   1      39.802  30.075  29.633  1.00  0.00    -0.354 N 
ATOM     41  C   UNL A   1      43.853  28.602  30.092  1.00  0.00     0.074 A 
ATOM     42  C   UNL A   1      43.984  27.269  29.549  1.00  0.00     0.031 C 
ATOM     43  C   UNL A   1      37.646  29.960  29.051  1.00  0.00     0.029 A 
ATOM     44  C   UNL A   1      38.641  30.805  29.701  1.00  0.00     0.049 A 
ATOM     45  H   UNL A   1      40.661  30.394  29.991  1.00  0.00     0.167 HD
ATOM     46  C   UNL A   1      44.867  29.298  30.658  1.00  0.00     0.037 A 
ATOM     47  C   UNL A   1      38.408  32.019  30.234  1.00  0.00     0.037 A 
ATOM     48  C   UNL A   1      44.734  30.636  31.170  1.00  0.00     0.049 A 
ATOM     49  C   UNL A   1      39.553  32.771  30.859  1.00  0.00     0.074 A 
ATOM     50  C   UNL A   1      45.709  31.454  31.712  1.00  0.00     0.029 A 
ATOM     51  N   UNL A   1      43.546  31.352  31.204  1.00  0.00    -0.354 N 
ATOM     52  N   UNL A   1      40.807  32.412  30.989  1.00  0.00    -0.248 NA
ATOM     53  C   UNL A   1      39.249  34.101  31.401  1.00  0.00     0.031 C 
ATOM     54  C   UNL A   1      45.101  32.644  32.124  1.00  0.00     0.029 A 
ATOM     55  C   UNL A   1      43.760  32.595  31.778  1.00  0.00     0.049 A 
ATOM     56  H   UNL A   1      42.679  31.027  30.869  1.00  0.00     0.167 HD
ATOM     57  C   UNL A   1      41.450  33.484  31.595  1.00  0.00     0.074 A 
ATOM     58  C   UNL A   1      40.448  34.512  31.790  1.00  0.00     0.031 C 
ATOM     59  C   UNL A   1      42.750  33.609  31.956  1.00  0.00     0.037 A 
BRANCH  46  60
ATOM     60  C   UNL A   1      46.208  28.625  30.748  1.00  0.00     0.064 A 
ATOM     61  C   UNL A   1      46.576  27.856  31.865  1.00  0.00     0.173 A 
ATOM     62  C   UNL A   1      47.127  28.723  29.692  1.00  0.00     0.173 A 
ATOM     63  F   UNL A   1      45.741  27.739  32.909  1.00  0.00    -0.203 F 
ATOM     64  C   UNL A   1      47.824  27.243  31.935  1.00  0.00     0.198 A 
ATOM     65  C   UNL A   1      48.360  28.078  29.751  1.00  0.00     0.198 A 
ATOM     66  F   UNL A   1      46.828  29.441  28.600  1.00  0.00    -0.203 F 
ATOM     67  F   UNL A   1      48.174  26.565  33.037  1.00  0.00    -0.200 F 
ATOM     68  C   UNL A   1      48.711  27.347  30.875  1.00  0.00     0.200 A 
ATOM     69  F   UNL A   1      49.210  28.168  28.719  1.00  0.00    -0.200 F 
ATOM     70  F   UNL A   1      49.908  26.749  30.941  1.00  0.00    -0.200 F 
ENDBRANCH  46  60
BRANCH  47  71
ATOM     71  C   UNL A   1      37.045  32.611  30.175  1.00  0.00     0.064 A 
ATOM     72  C   UNL A   1      36.615  33.320  29.045  1.00  0.00     0.173 A 
ATOM     73  C   UNL A   1      36.148  32.489  31.246  1.00  0.00     0.173 A 
ATOM     74  F   UNL A   1      37.442  33.479  28.001  1.00  0.00    -0.203 F 
ATOM     75  C   UNL A   1      35.354  33.911  28.999  1.00  0.00     0.198 A 
ATOM     76  C   UNL A   1      34.874  33.051  31.187  1.00  0.00     0.198 A 
ATOM     77  F   UNL A   1      36.504  31.811  32.348  1.00  0.00    -0.203 F 
ATOM     78  F   UNL A   1      34.992  34.631  27.929  1.00  0.00    -0.200 F 
ATOM     79  C   UNL A   1      34.482  33.771  30.069  1.00  0.00     0.200 A 
ATOM     80  F   UNL A   1      34.027  32.897  32.215  1.00  0.00    -0.200 F 
ATOM     81  F   UNL A   1      33.268  34.336  30.024  1.00  0.00    -0.200 F 
ENDBRANCH  47  71
BRANCH  59  82
ATOM     82  C   UNL A   1      43.175  34.919  32.555  1.00  0.00     0.064 A 
ATOM     83  C   UNL A   1      43.592  35.997  31.760  1.00  0.00     0.173 A 
ATOM     84  C   UNL A   1      43.138  35.106  33.945  1.00  0.00     0.173 A 
ATOM     85  F   UNL A   1      43.659  35.867  30.426  1.00  0.00    -0.203 F 
ATOM     86  C   UNL A   1      43.990  37.200  32.337  1.00  0.00     0.198 A 
ATOM     87  C   UNL A   1      43.499  36.321  34.517  1.00  0.00     0.198 A 
ATOM     88  F   UNL A   1      42.736  34.111  34.751  1.00  0.00    -0.203 F 
ATOM     89  F   UNL A   1      44.443  38.195  31.561  1.00  0.00    -0.200 F 
ATOM     90  C   UNL A   1      43.936  37.363  33.713  1.00  0.00     0.200 A 
ATOM     91  F   UNL A   1      43.428  36.484  35.845  1.00  0.00    -0.200 F 
ATOM     92  F   UNL A   1      44.314  38.524  34.267  1.00  0.00    -0.200 F 
ENDBRANCH  59  82
ENDBRANCH  33  34
ENDBRANCH  25  28
ENDBRANCH  23  24
ENDBRANCH  22  23
ENDBRANCH   1  22
TORSDOF 14
ENDMDL
