MODEL 1
REMARK VINA RESULT:     -12.0      0.000      0.000
REMARK SMILES CCOC(=O)[C@@H](/C=N/c1ccnn1C1CCCCC1)C(=O)NCCCNC(=O)c1ccc(-c2c3nc(c(-c4c(F)c(F)c(F)c(F)c4F)c4ccc([nH]4)c(-c4c(F)c(F)c(F)c(F)c4F)c4nc(c(-c5c(F)c(F)c(F)c(F)c5F)c5ccc2[nH]5)C=C4)C=C3)cc1
REMARK SMILES IDX 23 1 22 2 20 3 21 4 6 6 4 7 5 8 3 9 2 10 1 11 7 12 8 13 9 14
REMARK SMILES IDX 10 15 13 16 11 17 12 18 14 19 15 20 19 21 16 22 18 23 17 24
REMARK SMILES IDX 24 25 25 26 26 27 27 28 28 30 29 31 30 32 91 33 31 34 90 35
REMARK SMILES IDX 32 36 33 37 34 38 84 39 35 40 89 41 83 42 85 43 36 44 88 45
REMARK SMILES IDX 82 46 81 47 37 49 69 50 49 51 68 52 50 53 53 54 67 55 86 56
REMARK SMILES IDX 51 57 52 58 66 60 87 61 54 62 38 63 39 64 47 65 40 66 41 67
REMARK SMILES IDX 45 68 48 69 42 70 43 71 46 72 44 73 70 74 71 75 79 76 72 77
REMARK SMILES IDX 73 78 77 79 80 80 74 81 75 82 78 83 76 84 55 85 56 86 64 87
REMARK SMILES IDX 57 88 58 89 62 90 65 91 59 92 60 93 63 94 61 95
REMARK H PARENT 22 5 26 29 85 48 53 59
REMARK Flexibility Score: inf
ROOT
ATOM      1  C   UNL A   1      37.500  22.767  25.315  1.00  0.00     0.117 C 
ENDROOT
BRANCH   1   2
ATOM      2  N   UNL A   1      36.296  22.585  26.118  1.00  0.00    -0.355 N 
ATOM      3  C   UNL A   1      35.094  23.243  26.079  1.00  0.00     0.239 C 
ATOM      4  O   UNL A   1      34.205  22.830  26.830  1.00  0.00    -0.274 OA
ATOM      5  H   UNL A   1      36.355  21.875  26.797  1.00  0.00     0.163 HD
BRANCH   3   6
ATOM      6  C   UNL A   1      34.868  24.460  25.205  1.00  0.00     0.229 C 
BRANCH   6   7
ATOM      7  C   UNL A   1      34.384  24.037  23.845  1.00  0.00     0.324 C 
ATOM      8  O   UNL A   1      35.079  23.454  23.022  1.00  0.00    -0.251 OA
BRANCH   7   9
ATOM      9  O   UNL A   1      33.061  24.311  23.672  1.00  0.00    -0.465 OA
BRANCH   9  10
ATOM     10  C   UNL A   1      32.647  24.651  22.337  1.00  0.00     0.229 C 
ATOM     11  C   UNL A   1      33.114  26.046  21.991  1.00  0.00     0.049 C 
ENDBRANCH   9  10
ENDBRANCH   7   9
ENDBRANCH   6   7
BRANCH   6  12
ATOM     12  C   UNL A   1      34.055  25.555  25.840  1.00  0.00     0.111 C 
ATOM     13  N   UNL A   1      34.171  26.770  25.412  1.00  0.00    -0.240 NA
BRANCH  13  14
ATOM     14  C   UNL A   1      33.581  27.777  26.096  1.00  0.00     0.150 A 
ATOM     15  C   UNL A   1      34.001  28.652  27.080  1.00  0.00     0.070 A 
ATOM     16  N   UNL A   1      32.317  28.220  25.747  1.00  0.00    -0.245 N 
ATOM     17  C   UNL A   1      32.948  29.564  27.250  1.00  0.00     0.137 A 
ATOM     18  N   UNL A   1      31.915  29.304  26.450  1.00  0.00    -0.179 NA
BRANCH  16  19
ATOM     19  C   UNL A   1      31.438  27.690  24.703  1.00  0.00     0.110 C 
ATOM     20  C   UNL A   1      30.546  26.546  25.218  1.00  0.00     0.027 C 
ATOM     21  C   UNL A   1      30.628  28.795  24.006  1.00  0.00     0.027 C 
ATOM     22  C   UNL A   1      29.611  26.017  24.132  1.00  0.00     0.002 C 
ATOM     23  C   UNL A   1      29.697  28.230  22.935  1.00  0.00     0.002 C 
ATOM     24  C   UNL A   1      28.794  27.140  23.501  1.00  0.00     0.000 C 
ENDBRANCH  16  19
ENDBRANCH  13  14
ENDBRANCH   6  12
ENDBRANCH   3   6
ENDBRANCH   1   2
BRANCH   1  25
ATOM     25  C   UNL A   1      38.490  21.616  25.461  1.00  0.00     0.042 C 
BRANCH  25  26
ATOM     26  C   UNL A   1      39.552  21.886  26.503  1.00  0.00     0.118 C 
BRANCH  26  27
ATOM     27  N   UNL A   1      40.898  21.937  25.941  1.00  0.00    -0.352 N 
ATOM     28  C   UNL A   1      41.718  23.046  25.835  1.00  0.00     0.251 C 
ATOM     29  H   UNL A   1      41.263  21.088  25.601  1.00  0.00     0.163 HD
ATOM     30  O   UNL A   1      42.666  23.068  25.078  1.00  0.00    -0.269 OA
BRANCH  28  31
ATOM     31  C   UNL A   1      41.373  24.221  26.656  1.00  0.00     0.039 A 
ATOM     32  C   UNL A   1      41.945  24.389  27.916  1.00  0.00     0.014 A 
ATOM     33  C   UNL A   1      40.565  25.205  26.091  1.00  0.00     0.014 A 
ATOM     34  C   UNL A   1      41.782  25.609  28.564  1.00  0.00     0.010 A 
ATOM     35  C   UNL A   1      40.518  26.452  26.672  1.00  0.00     0.010 A 
ATOM     36  C   UNL A   1      41.099  26.656  27.922  1.00  0.00    -0.014 A 
BRANCH  36  37
ATOM     37  C   UNL A   1      41.087  27.990  28.522  1.00  0.00     0.031 A 
ATOM     38  C   UNL A   1      42.190  28.906  28.107  1.00  0.00     0.074 A 
ATOM     39  C   UNL A   1      40.062  28.471  29.257  1.00  0.00     0.049 A 
ATOM     40  N   UNL A   1      43.121  29.411  28.849  1.00  0.00    -0.248 NA
ATOM     41  C   UNL A   1      42.317  29.247  26.683  1.00  0.00     0.031 C 
ATOM     42  C   UNL A   1      38.754  27.861  29.511  1.00  0.00     0.029 A 
ATOM     43  N   UNL A   1      39.949  29.690  29.855  1.00  0.00    -0.354 N 
ATOM     44  C   UNL A   1      43.863  30.260  28.031  1.00  0.00     0.074 A 
ATOM     45  C   UNL A   1      43.406  30.021  26.685  1.00  0.00     0.031 C 
ATOM     46  C   UNL A   1      37.910  28.792  30.004  1.00  0.00     0.029 A 
ATOM     47  C   UNL A   1      38.663  30.003  30.268  1.00  0.00     0.049 A 
ATOM     48  H   UNL A   1      40.715  30.297  29.983  1.00  0.00     0.167 HD
ATOM     49  C   UNL A   1      44.662  31.233  28.555  1.00  0.00     0.037 A 
ATOM     50  C   UNL A   1      38.235  31.182  30.776  1.00  0.00     0.037 A 
ATOM     51  C   UNL A   1      44.903  31.011  29.957  1.00  0.00     0.049 A 
ATOM     52  C   UNL A   1      39.424  31.906  31.282  1.00  0.00     0.074 A 
ATOM     53  C   UNL A   1      45.490  30.007  30.701  1.00  0.00     0.029 A 
ATOM     54  N   UNL A   1      44.199  31.771  30.856  1.00  0.00    -0.354 N 
ATOM     55  N   UNL A   1      40.118  31.537  32.322  1.00  0.00    -0.248 NA
ATOM     56  C   UNL A   1      40.090  32.841  30.389  1.00  0.00     0.031 C 
ATOM     57  C   UNL A   1      44.716  29.933  31.898  1.00  0.00     0.029 A 
ATOM     58  C   UNL A   1      43.740  30.928  31.832  1.00  0.00     0.049 A 
ATOM     59  H   UNL A   1      44.052  32.744  30.808  1.00  0.00     0.167 HD
ATOM     60  C   UNL A   1      41.430  31.828  31.988  1.00  0.00     0.074 A 
ATOM     61  C   UNL A   1      41.337  32.741  30.853  1.00  0.00     0.031 C 
ATOM     62  C   UNL A   1      42.460  31.081  32.480  1.00  0.00     0.037 A 
BRANCH  49  63
ATOM     63  C   UNL A   1      44.943  32.574  27.916  1.00  0.00     0.064 A 
ATOM     64  C   UNL A   1      46.262  32.881  27.513  1.00  0.00     0.173 A 
ATOM     65  C   UNL A   1      44.059  33.670  27.977  1.00  0.00     0.173 A 
ATOM     66  F   UNL A   1      47.193  31.919  27.428  1.00  0.00    -0.203 F 
ATOM     67  C   UNL A   1      46.681  34.195  27.289  1.00  0.00     0.198 A 
ATOM     68  C   UNL A   1      44.469  34.975  27.699  1.00  0.00     0.198 A 
ATOM     69  F   UNL A   1      42.802  33.546  28.417  1.00  0.00    -0.203 F 
ATOM     70  F   UNL A   1      47.975  34.449  27.047  1.00  0.00    -0.200 F 
ATOM     71  C   UNL A   1      45.786  35.242  27.391  1.00  0.00     0.200 A 
ATOM     72  F   UNL A   1      43.589  35.980  27.818  1.00  0.00    -0.200 F 
ATOM     73  F   UNL A   1      46.199  36.508  27.245  1.00  0.00    -0.200 F 
ENDBRANCH  49  63
BRANCH  50  74
ATOM     74  C   UNL A   1      36.905  31.814  30.654  1.00  0.00     0.064 A 
ATOM     75  C   UNL A   1      36.040  31.893  31.756  1.00  0.00     0.173 A 
ATOM     76  C   UNL A   1      36.569  32.595  29.532  1.00  0.00     0.173 A 
ATOM     77  F   UNL A   1      36.309  31.208  32.877  1.00  0.00    -0.203 F 
ATOM     78  C   UNL A   1      34.923  32.733  31.748  1.00  0.00     0.198 A 
ATOM     79  C   UNL A   1      35.449  33.426  29.522  1.00  0.00     0.198 A 
ATOM     80  F   UNL A   1      37.373  32.640  28.459  1.00  0.00    -0.203 F 
ATOM     81  F   UNL A   1      34.159  32.836  32.845  1.00  0.00    -0.200 F 
ATOM     82  C   UNL A   1      34.636  33.508  30.637  1.00  0.00     0.200 A 
ATOM     83  F   UNL A   1      35.200  34.195  28.453  1.00  0.00    -0.200 F 
ATOM     84  F   UNL A   1      33.604  34.363  30.655  1.00  0.00    -0.200 F 
ENDBRANCH  50  74
BRANCH  62  85
ATOM     85  C   UNL A   1      42.172  30.163  33.635  1.00  0.00     0.064 A 
ATOM     86  C   UNL A   1      41.753  28.829  33.500  1.00  0.00     0.173 A 
ATOM     87  C   UNL A   1      42.457  30.622  34.928  1.00  0.00     0.173 A 
ATOM     88  F   UNL A   1      41.560  28.281  32.294  1.00  0.00    -0.203 F 
ATOM     89  C   UNL A   1      41.578  28.011  34.616  1.00  0.00     0.198 A 
ATOM     90  C   UNL A   1      42.320  29.792  36.037  1.00  0.00     0.198 A 
ATOM     91  F   UNL A   1      42.914  31.871  35.113  1.00  0.00    -0.203 F 
ATOM     92  F   UNL A   1      41.158  26.746  34.463  1.00  0.00    -0.200 F 
ATOM     93  C   UNL A   1      41.868  28.492  35.881  1.00  0.00     0.200 A 
ATOM     94  F   UNL A   1      42.651  30.247  37.253  1.00  0.00    -0.200 F 
ATOM     95  F   UNL A   1      41.737  27.694  36.952  1.00  0.00    -0.200 F 
ENDBRANCH  62  85
ENDBRANCH  36  37
ENDBRANCH  28  31
ENDBRANCH  26  27
ENDBRANCH  25  26
ENDBRANCH   1  25
TORSDOF 16
ENDMDL
MODEL 2
REMARK VINA RESULT:     -11.7      3.378      8.840
REMARK SMILES CCOC(=O)[C@@H](/C=N/c1ccnn1C1CCCCC1)C(=O)NCCCNC(=O)c1ccc(-c2c3nc(c(-c4c(F)c(F)c(F)c(F)c4F)c4ccc([nH]4)c(-c4c(F)c(F)c(F)c(F)c4F)c4nc(c(-c5c(F)c(F)c(F)c(F)c5F)c5ccc2[nH]5)C=C4)C=C3)cc1
REMARK SMILES IDX 23 1 22 2 20 3 21 4 6 6 4 7 5 8 3 9 2 10 1 11 7 12 8 13 9 14
REMARK SMILES IDX 10 15 13 16 11 17 12 18 14 19 15 20 19 21 16 22 18 23 17 24
REMARK SMILES IDX 24 25 25 26 26 27 27 28 28 30 29 31 30 32 91 33 31 34 90 35
REMARK SMILES IDX 32 36 33 37 34 38 84 39 35 40 89 41 83 42 85 43 36 44 88 45
REMARK SMILES IDX 82 46 81 47 37 49 69 50 49 51 68 52 50 53 53 54 67 55 86 56
REMARK SMILES IDX 51 57 52 58 66 60 87 61 54 62 38 63 39 64 47 65 40 66 41 67
REMARK SMILES IDX 45 68 48 69 42 70 43 71 46 72 44 73 70 74 71 75 79 76 72 77
REMARK SMILES IDX 73 78 77 79 80 80 74 81 75 82 78 83 76 84 55 85 56 86 64 87
REMARK SMILES IDX 57 88 58 89 62 90 65 91 59 92 60 93 63 94 61 95
REMARK H PARENT 22 5 26 29 85 48 53 59
REMARK Flexibility Score: inf
ROOT
ATOM      1  C   UNL A   1      33.481  29.321  26.828  1.00  0.00     0.117 C 
ENDROOT
BRANCH   1   2
ATOM      2  N   UNL A   1      33.744  29.217  25.397  1.00  0.00    -0.355 N 
ATOM      3  C   UNL A   1      32.888  28.988  24.351  1.00  0.00     0.239 C 
ATOM      4  O   UNL A   1      33.370  29.026  23.214  1.00  0.00    -0.274 OA
ATOM      5  H   UNL A   1      34.687  29.329  25.140  1.00  0.00     0.163 HD
BRANCH   3   6
ATOM      6  C   UNL A   1      31.428  28.641  24.563  1.00  0.00     0.229 C 
BRANCH   6   7
ATOM      7  C   UNL A   1      30.669  28.789  23.273  1.00  0.00     0.324 C 
ATOM      8  O   UNL A   1      30.394  27.855  22.530  1.00  0.00    -0.251 OA
BRANCH   7   9
ATOM      9  O   UNL A   1      30.262  30.072  23.070  1.00  0.00    -0.465 OA
BRANCH   9  10
ATOM     10  C   UNL A   1      28.930  30.397  23.503  1.00  0.00     0.229 C 
ATOM     11  C   UNL A   1      28.497  31.715  22.902  1.00  0.00     0.049 C 
ENDBRANCH   9  10
ENDBRANCH   7   9
ENDBRANCH   6   7
BRANCH   6  12
ATOM     12  C   UNL A   1      31.182  27.342  25.282  1.00  0.00     0.111 C 
ATOM     13  N   UNL A   1      31.982  26.344  25.094  1.00  0.00    -0.240 NA
BRANCH  13  14
ATOM     14  C   UNL A   1      31.662  25.129  25.594  1.00  0.00     0.150 A 
ATOM     15  C   UNL A   1      30.511  24.572  26.116  1.00  0.00     0.070 A 
ATOM     16  N   UNL A   1      32.557  24.076  25.511  1.00  0.00    -0.245 N 
ATOM     17  C   UNL A   1      30.802  23.212  26.308  1.00  0.00     0.137 A 
ATOM     18  N   UNL A   1      32.047  22.903  25.952  1.00  0.00    -0.179 NA
BRANCH  16  19
ATOM     19  C   UNL A   1      33.916  24.095  24.966  1.00  0.00     0.110 C 
ATOM     20  C   UNL A   1      34.971  23.712  26.019  1.00  0.00     0.027 C 
ATOM     21  C   UNL A   1      34.041  23.258  23.682  1.00  0.00     0.027 C 
ATOM     22  C   UNL A   1      36.383  23.706  25.437  1.00  0.00     0.002 C 
ATOM     23  C   UNL A   1      35.466  23.264  23.134  1.00  0.00     0.002 C 
ATOM     24  C   UNL A   1      36.472  22.827  24.193  1.00  0.00     0.000 C 
ENDBRANCH  16  19
ENDBRANCH  13  14
ENDBRANCH   6  12
ENDBRANCH   3   6
ENDBRANCH   1   2
BRANCH   1  25
ATOM     25  C   UNL A   1      33.135  30.740  27.266  1.00  0.00     0.042 C 
BRANCH  25  26
ATOM     26  C   UNL A   1      34.360  31.580  27.552  1.00  0.00     0.118 C 
BRANCH  26  27
ATOM     27  N   UNL A   1      34.330  32.194  28.876  1.00  0.00    -0.352 N 
ATOM     28  C   UNL A   1      35.143  31.894  29.954  1.00  0.00     0.251 C 
ATOM     29  H   UNL A   1      33.658  32.899  29.016  1.00  0.00     0.163 HD
ATOM     30  O   UNL A   1      34.844  32.211  31.086  1.00  0.00    -0.269 OA
BRANCH  28  31
ATOM     31  C   UNL A   1      36.378  31.137  29.679  1.00  0.00     0.039 A 
ATOM     32  C   UNL A   1      37.596  31.803  29.556  1.00  0.00     0.014 A 
ATOM     33  C   UNL A   1      36.309  29.746  29.667  1.00  0.00     0.014 A 
ATOM     34  C   UNL A   1      38.767  31.051  29.527  1.00  0.00     0.010 A 
ATOM     35  C   UNL A   1      37.470  29.014  29.772  1.00  0.00     0.010 A 
ATOM     36  C   UNL A   1      38.704  29.655  29.675  1.00  0.00    -0.014 A 
BRANCH  36  37
ATOM     37  C   UNL A   1      39.939  28.886  29.829  1.00  0.00     0.031 A 
ATOM     38  C   UNL A   1      40.437  28.719  31.226  1.00  0.00     0.074 A 
ATOM     39  C   UNL A   1      40.519  28.193  28.827  1.00  0.00     0.049 A 
ATOM     40  N   UNL A   1      41.545  29.157  31.729  1.00  0.00    -0.248 NA
ATOM     41  C   UNL A   1      39.569  28.043  32.202  1.00  0.00     0.031 C 
ATOM     42  C   UNL A   1      40.021  27.960  27.469  1.00  0.00     0.029 A 
ATOM     43  N   UNL A   1      41.659  27.447  28.864  1.00  0.00    -0.354 N 
ATOM     44  C   UNL A   1      41.599  28.685  33.039  1.00  0.00     0.074 A 
ATOM     45  C   UNL A   1      40.304  28.117  33.315  1.00  0.00     0.031 C 
ATOM     46  C   UNL A   1      40.723  26.959  26.896  1.00  0.00     0.029 A 
ATOM     47  C   UNL A   1      41.825  26.610  27.771  1.00  0.00     0.049 A 
ATOM     48  H   UNL A   1      42.309  27.498  29.602  1.00  0.00     0.167 HD
ATOM     49  C   UNL A   1      42.776  28.627  33.725  1.00  0.00     0.037 A 
ATOM     50  C   UNL A   1      42.791  25.678  27.599  1.00  0.00     0.037 A 
ATOM     51  C   UNL A   1      43.792  29.424  33.087  1.00  0.00     0.049 A 
ATOM     52  C   UNL A   1      43.911  26.024  28.504  1.00  0.00     0.074 A 
ATOM     53  C   UNL A   1      43.935  30.763  32.781  1.00  0.00     0.029 A 
ATOM     54  N   UNL A   1      44.744  28.773  32.345  1.00  0.00    -0.354 N 
ATOM     55  N   UNL A   1      44.679  27.067  28.352  1.00  0.00    -0.248 NA
ATOM     56  C   UNL A   1      43.938  25.419  29.826  1.00  0.00     0.031 C 
ATOM     57  C   UNL A   1      44.614  30.784  31.526  1.00  0.00     0.029 A 
ATOM     58  C   UNL A   1      44.888  29.463  31.172  1.00  0.00     0.049 A 
ATOM     59  H   UNL A   1      45.234  27.960  32.609  1.00  0.00     0.167 HD
ATOM     60  C   UNL A   1      44.931  27.507  29.641  1.00  0.00     0.074 A 
ATOM     61  C   UNL A   1      44.562  26.386  30.501  1.00  0.00     0.031 C 
ATOM     62  C   UNL A   1      45.144  28.829  29.901  1.00  0.00     0.037 A 
BRANCH  49  63
ATOM     63  C   UNL A   1      43.135  27.589  34.764  1.00  0.00     0.064 A 
ATOM     64  C   UNL A   1      43.419  28.006  36.083  1.00  0.00     0.173 A 
ATOM     65  C   UNL A   1      43.521  26.270  34.450  1.00  0.00     0.173 A 
ATOM     66  F   UNL A   1      43.106  29.244  36.492  1.00  0.00    -0.203 F 
ATOM     67  C   UNL A   1      44.123  27.197  36.981  1.00  0.00     0.198 A 
ATOM     68  C   UNL A   1      44.175  25.446  35.368  1.00  0.00     0.198 A 
ATOM     69  F   UNL A   1      43.389  25.765  33.219  1.00  0.00    -0.203 F 
ATOM     70  F   UNL A   1      44.491  27.689  38.172  1.00  0.00    -0.200 F 
ATOM     71  C   UNL A   1      44.508  25.922  36.619  1.00  0.00     0.200 A 
ATOM     72  F   UNL A   1      44.555  24.216  34.993  1.00  0.00    -0.200 F 
ATOM     73  F   UNL A   1      45.242  25.170  37.450  1.00  0.00    -0.200 F 
ENDBRANCH  49  63
BRANCH  50  74
ATOM     74  C   UNL A   1      42.719  24.394  26.871  1.00  0.00     0.064 A 
ATOM     75  C   UNL A   1      43.323  24.242  25.613  1.00  0.00     0.173 A 
ATOM     76  C   UNL A   1      42.296  23.215  27.513  1.00  0.00     0.173 A 
ATOM     77  F   UNL A   1      43.786  25.313  24.953  1.00  0.00    -0.203 F 
ATOM     78  C   UNL A   1      43.525  22.980  25.048  1.00  0.00     0.198 A 
ATOM     79  C   UNL A   1      42.489  21.956  26.944  1.00  0.00     0.198 A 
ATOM     80  F   UNL A   1      41.773  23.253  28.748  1.00  0.00    -0.203 F 
ATOM     81  F   UNL A   1      44.168  22.869  23.878  1.00  0.00    -0.200 F 
ATOM     82  C   UNL A   1      43.119  21.838  25.719  1.00  0.00     0.200 A 
ATOM     83  F   UNL A   1      42.122  20.858  27.617  1.00  0.00    -0.200 F 
ATOM     84  F   UNL A   1      43.373  20.626  25.207  1.00  0.00    -0.200 F 
ENDBRANCH  50  74
BRANCH  62  85
ATOM     85  C   UNL A   1      45.427  29.736  28.736  1.00  0.00     0.064 A 
ATOM     86  C   UNL A   1      44.438  30.393  27.986  1.00  0.00     0.173 A 
ATOM     87  C   UNL A   1      46.764  30.049  28.454  1.00  0.00     0.173 A 
ATOM     88  F   UNL A   1      43.138  30.230  28.260  1.00  0.00    -0.203 F 
ATOM     89  C   UNL A   1      44.776  31.281  26.966  1.00  0.00     0.198 A 
ATOM     90  C   UNL A   1      47.099  30.966  27.463  1.00  0.00     0.198 A 
ATOM     91  F   UNL A   1      47.751  29.494  29.176  1.00  0.00    -0.203 F 
ATOM     92  F   UNL A   1      43.813  31.881  26.249  1.00  0.00    -0.200 F 
ATOM     93  C   UNL A   1      46.106  31.572  26.711  1.00  0.00     0.200 A 
ATOM     94  F   UNL A   1      48.384  31.282  27.255  1.00  0.00    -0.200 F 
ATOM     95  F   UNL A   1      46.431  32.455  25.756  1.00  0.00    -0.200 F 
ENDBRANCH  62  85
ENDBRANCH  36  37
ENDBRANCH  28  31
ENDBRANCH  26  27
ENDBRANCH  25  26
ENDBRANCH   1  25
TORSDOF 16
ENDMDL
MODEL 3
REMARK VINA RESULT:     -11.6      3.274      8.692
REMARK SMILES CCOC(=O)[C@@H](/C=N/c1ccnn1C1CCCCC1)C(=O)NCCCNC(=O)c1ccc(-c2c3nc(c(-c4c(F)c(F)c(F)c(F)c4F)c4ccc([nH]4)c(-c4c(F)c(F)c(F)c(F)c4F)c4nc(c(-c5c(F)c(F)c(F)c(F)c5F)c5ccc2[nH]5)C=C4)C=C3)cc1
REMARK SMILES IDX 23 1 22 2 20 3 21 4 6 6 4 7 5 8 3 9 2 10 1 11 7 12 8 13 9 14
REMARK SMILES IDX 10 15 13 16 11 17 12 18 14 19 15 20 19 21 16 22 18 23 17 24
REMARK SMILES IDX 24 25 25 26 26 27 27 28 28 30 29 31 30 32 91 33 31 34 90 35
REMARK SMILES IDX 32 36 33 37 34 38 84 39 35 40 89 41 83 42 85 43 36 44 88 45
REMARK SMILES IDX 82 46 81 47 37 49 69 50 49 51 68 52 50 53 53 54 67 55 86 56
REMARK SMILES IDX 51 57 52 58 66 60 87 61 54 62 38 63 39 64 47 65 40 66 41 67
REMARK SMILES IDX 45 68 48 69 42 70 43 71 46 72 44 73 70 74 71 75 79 76 72 77
REMARK SMILES IDX 73 78 77 79 80 80 74 81 75 82 78 83 76 84 55 85 56 86 64 87
REMARK SMILES IDX 57 88 58 89 62 90 65 91 59 92 60 93 63 94 61 95
REMARK H PARENT 22 5 26 29 85 48 53 59
REMARK Flexibility Score: inf
ROOT
ATOM      1  C   UNL A   1      33.237  29.669  26.467  1.00  0.00     0.117 C 
ENDROOT
BRANCH   1   2
ATOM      2  N   UNL A   1      33.650  29.313  25.114  1.00  0.00    -0.355 N 
ATOM      3  C   UNL A   1      33.704  28.092  24.494  1.00  0.00     0.239 C 
ATOM      4  O   UNL A   1      34.023  28.083  23.301  1.00  0.00    -0.274 OA
ATOM      5  H   UNL A   1      33.937  30.071  24.556  1.00  0.00     0.163 HD
BRANCH   3   6
ATOM      6  C   UNL A   1      33.445  26.797  25.238  1.00  0.00     0.229 C 
BRANCH   6   7
ATOM      7  C   UNL A   1      31.990  26.429  25.144  1.00  0.00     0.324 C 
ATOM      8  O   UNL A   1      31.072  27.232  25.259  1.00  0.00    -0.251 OA
BRANCH   7   9
ATOM      9  O   UNL A   1      31.819  25.113  24.840  1.00  0.00    -0.465 OA
BRANCH   9  10
ATOM     10  C   UNL A   1      30.742  24.435  25.509  1.00  0.00     0.229 C 
ATOM     11  C   UNL A   1      31.289  23.547  26.603  1.00  0.00     0.049 C 
ENDBRANCH   9  10
ENDBRANCH   7   9
ENDBRANCH   6   7
BRANCH   6  12
ATOM     12  C   UNL A   1      34.391  25.675  24.906  1.00  0.00     0.111 C 
ATOM     13  N   UNL A   1      34.692  24.802  25.811  1.00  0.00    -0.240 NA
BRANCH  13  14
ATOM     14  C   UNL A   1      35.675  23.904  25.572  1.00  0.00     0.150 A 
ATOM     15  C   UNL A   1      37.036  23.875  25.812  1.00  0.00     0.070 A 
ATOM     16  N   UNL A   1      35.374  22.639  25.098  1.00  0.00    -0.245 N 
ATOM     17  C   UNL A   1      37.453  22.581  25.462  1.00  0.00     0.137 A 
ATOM     18  N   UNL A   1      36.451  21.825  25.018  1.00  0.00    -0.179 NA
BRANCH  16  19
ATOM     19  C   UNL A   1      34.057  22.104  24.746  1.00  0.00     0.110 C 
ATOM     20  C   UNL A   1      33.641  22.478  23.313  1.00  0.00     0.027 C 
ATOM     21  C   UNL A   1      33.952  20.593  25.010  1.00  0.00     0.027 C 
ATOM     22  C   UNL A   1      32.279  21.893  22.942  1.00  0.00     0.002 C 
ATOM     23  C   UNL A   1      32.584  20.039  24.619  1.00  0.00     0.002 C 
ATOM     24  C   UNL A   1      32.235  20.386  23.175  1.00  0.00     0.000 C 
ENDBRANCH  16  19
ENDBRANCH  13  14
ENDBRANCH   6  12
ENDBRANCH   3   6
ENDBRANCH   1   2
BRANCH   1  25
ATOM     25  C   UNL A   1      34.378  29.593  27.476  1.00  0.00     0.042 C 
BRANCH  25  26
ATOM     26  C   UNL A   1      35.220  30.849  27.504  1.00  0.00     0.118 C 
BRANCH  26  27
ATOM     27  N   UNL A   1      34.770  31.811  28.506  1.00  0.00    -0.352 N 
ATOM     28  C   UNL A   1      35.165  31.883  29.829  1.00  0.00     0.251 C 
ATOM     29  H   UNL A   1      34.116  32.482  28.205  1.00  0.00     0.163 HD
ATOM     30  O   UNL A   1      34.515  32.489  30.656  1.00  0.00    -0.269 OA
BRANCH  28  31
ATOM     31  C   UNL A   1      36.393  31.162  30.209  1.00  0.00     0.039 A 
ATOM     32  C   UNL A   1      36.321  29.845  30.659  1.00  0.00     0.014 A 
ATOM     33  C   UNL A   1      37.618  31.788  29.993  1.00  0.00     0.014 A 
ATOM     34  C   UNL A   1      37.503  29.120  30.790  1.00  0.00     0.010 A 
ATOM     35  C   UNL A   1      38.769  31.032  29.994  1.00  0.00     0.010 A 
ATOM     36  C   UNL A   1      38.725  29.705  30.419  1.00  0.00    -0.014 A 
BRANCH  36  37
ATOM     37  C   UNL A   1      39.937  28.887  30.380  1.00  0.00     0.031 A 
ATOM     38  C   UNL A   1      40.617  28.659  31.690  1.00  0.00     0.074 A 
ATOM     39  C   UNL A   1      40.345  28.204  29.290  1.00  0.00     0.049 A 
ATOM     40  N   UNL A   1      41.800  29.041  32.044  1.00  0.00    -0.248 NA
ATOM     41  C   UNL A   1      39.865  27.985  32.759  1.00  0.00     0.031 C 
ATOM     42  C   UNL A   1      39.655  28.032  28.008  1.00  0.00     0.029 A 
ATOM     43  N   UNL A   1      41.449  27.417  29.148  1.00  0.00    -0.354 N 
ATOM     44  C   UNL A   1      42.015  28.527  33.322  1.00  0.00     0.074 A 
ATOM     45  C   UNL A   1      40.749  27.999  33.760  1.00  0.00     0.031 C 
ATOM     46  C   UNL A   1      40.231  27.024  27.318  1.00  0.00     0.029 A 
ATOM     47  C   UNL A   1      41.429  26.609  28.022  1.00  0.00     0.049 A 
ATOM     48  H   UNL A   1      42.196  27.422  29.790  1.00  0.00     0.167 HD
ATOM     49  C   UNL A   1      43.273  28.406  33.836  1.00  0.00     0.037 A 
ATOM     50  C   UNL A   1      42.323  25.648  27.693  1.00  0.00     0.037 A 
ATOM     51  C   UNL A   1      44.222  29.184  33.083  1.00  0.00     0.049 A 
ATOM     52  C   UNL A   1      43.570  25.925  28.443  1.00  0.00     0.074 A 
ATOM     53  C   UNL A   1      44.375  30.526  32.794  1.00  0.00     0.029 A 
ATOM     54  N   UNL A   1      45.035  28.522  32.199  1.00  0.00    -0.354 N 
ATOM     55  N   UNL A   1      44.351  26.944  28.212  1.00  0.00    -0.248 NA
ATOM     56  C   UNL A   1      43.755  25.278  29.732  1.00  0.00     0.031 C 
ATOM     57  C   UNL A   1      44.875  30.561  31.458  1.00  0.00     0.029 A 
ATOM     58  C   UNL A   1      45.043  29.242  31.035  1.00  0.00     0.049 A 
ATOM     59  H   UNL A   1      45.524  27.685  32.371  1.00  0.00     0.167 HD
ATOM     60  C   UNL A   1      44.796  27.334  29.464  1.00  0.00     0.074 A 
ATOM     61  C   UNL A   1      44.505  26.202  30.338  1.00  0.00     0.031 C 
ATOM     62  C   UNL A   1      45.096  28.639  29.725  1.00  0.00     0.037 A 
BRANCH  49  63
ATOM     63  C   UNL A   1      43.730  27.323  34.788  1.00  0.00     0.064 A 
ATOM     64  C   UNL A   1      44.323  27.693  36.015  1.00  0.00     0.173 A 
ATOM     65  C   UNL A   1      43.902  25.975  34.414  1.00  0.00     0.173 A 
ATOM     66  F   UNL A   1      44.232  28.953  36.467  1.00  0.00    -0.203 F 
ATOM     67  C   UNL A   1      45.110  26.805  36.755  1.00  0.00     0.198 A 
ATOM     68  C   UNL A   1      44.643  25.078  35.184  1.00  0.00     0.198 A 
ATOM     69  F   UNL A   1      43.465  25.501  33.242  1.00  0.00    -0.203 F 
ATOM     70  F   UNL A   1      45.766  27.242  37.838  1.00  0.00    -0.200 F 
ATOM     71  C   UNL A   1      45.277  25.501  36.333  1.00  0.00     0.200 A 
ATOM     72  F   UNL A   1      44.807  23.819  34.751  1.00  0.00    -0.200 F 
ATOM     73  F   UNL A   1      46.085  24.667  37.001  1.00  0.00    -0.200 F 
ENDBRANCH  49  63
BRANCH  50  74
ATOM     74  C   UNL A   1      42.100  24.390  26.950  1.00  0.00     0.064 A 
ATOM     75  C   UNL A   1      43.043  23.923  26.022  1.00  0.00     0.173 A 
ATOM     76  C   UNL A   1      41.092  23.485  27.335  1.00  0.00     0.173 A 
ATOM     77  F   UNL A   1      44.055  24.711  25.633  1.00  0.00    -0.203 F 
ATOM     78  C   UNL A   1      43.002  22.613  25.536  1.00  0.00     0.198 A 
ATOM     79  C   UNL A   1      41.047  22.181  26.841  1.00  0.00     0.198 A 
ATOM     80  F   UNL A   1      40.189  23.818  28.269  1.00  0.00    -0.203 F 
ATOM     81  F   UNL A   1      43.960  22.180  24.705  1.00  0.00    -0.200 F 
ATOM     82  C   UNL A   1      42.011  21.740  25.956  1.00  0.00     0.200 A 
ATOM     83  F   UNL A   1      40.102  21.337  27.280  1.00  0.00    -0.200 F 
ATOM     84  F   UNL A   1      42.011  20.466  25.541  1.00  0.00    -0.200 F 
ENDBRANCH  50  74
BRANCH  62  85
ATOM     85  C   UNL A   1      45.252  29.570  28.556  1.00  0.00     0.064 A 
ATOM     86  C   UNL A   1      44.188  30.244  27.933  1.00  0.00     0.173 A 
ATOM     87  C   UNL A   1      46.551  29.889  28.136  1.00  0.00     0.173 A 
ATOM     88  F   UNL A   1      42.925  30.075  28.345  1.00  0.00    -0.203 F 
ATOM     89  C   UNL A   1      44.414  31.154  26.901  1.00  0.00     0.198 A 
ATOM     90  C   UNL A   1      46.777  30.827  27.134  1.00  0.00     0.198 A 
ATOM     91  F   UNL A   1      47.609  29.318  28.733  1.00  0.00    -0.203 F 
ATOM     92  F   UNL A   1      43.380  31.769  26.308  1.00  0.00    -0.200 F 
ATOM     93  C   UNL A   1      45.708  31.449  26.508  1.00  0.00     0.200 A 
ATOM     94  F   UNL A   1      48.032  31.146  26.792  1.00  0.00    -0.200 F 
ATOM     95  F   UNL A   1      45.930  32.353  25.542  1.00  0.00    -0.200 F 
ENDBRANCH  62  85
ENDBRANCH  36  37
ENDBRANCH  28  31
ENDBRANCH  26  27
ENDBRANCH  25  26
ENDBRANCH   1  25
TORSDOF 16
ENDMDL
