MODEL 1
REMARK VINA RESULT:     -12.8      0.000      0.000
REMARK SMILES CC(C)c1ccc(C(=O)NNC(=O)[C@@H]2CC=CC[C@@H]2C(=O)NCCCNC(=O)c2ccc(-c3c4nc(c(-c5c(F)c(F)c(F)c(F)c5F)c5ccc([nH]5)c(-c5c(F)c(F)c(F)c(F)c5F)c5nc(c(-c6c(F)c(F)c(F)c(F)c6F)c6ccc3[nH]6)C=C5)C=C4)cc2)cc1
REMARK SMILES IDX 23 1 22 2 20 3 21 4 19 6 14 7 15 8 16 9 18 10 17 11 12 12
REMARK SMILES IDX 11 13 13 15 10 16 8 17 9 18 7 20 4 21 5 22 93 23 6 24 92 25
REMARK SMILES IDX 2 26 1 27 3 28 24 29 25 30 26 31 27 32 28 34 29 35 30 36
REMARK SMILES IDX 91 37 31 38 90 39 32 40 33 41 34 42 84 43 35 44 89 45 83 46
REMARK SMILES IDX 85 47 36 48 88 49 82 50 81 51 37 53 69 54 49 55 68 56 50 57
REMARK SMILES IDX 53 58 67 59 86 60 51 61 52 62 66 64 87 65 54 66 38 67 39 68
REMARK SMILES IDX 47 69 40 70 41 71 45 72 48 73 42 74 43 75 46 76 44 77 70 78
REMARK SMILES IDX 71 79 79 80 72 81 73 82 77 83 80 84 74 85 75 86 78 87 76 88
REMARK SMILES IDX 55 89 56 90 64 91 57 92 58 93 62 94 65 95 59 96 60 97 63 98
REMARK SMILES IDX 61 99
REMARK H PARENT 22 5 11 14 10 19 26 33 85 52 53 63
REMARK Flexibility Score: inf
ROOT
ATOM      1  C   UNL A   1      31.657  30.494  26.733  1.00  0.00     0.117 C 
ENDROOT
BRANCH   1   2
ATOM      2  N   UNL A   1      32.498  30.183  25.589  1.00  0.00    -0.356 N 
ATOM      3  C   UNL A   1      32.319  29.267  24.595  1.00  0.00     0.224 C 
ATOM      4  O   UNL A   1      33.224  29.127  23.775  1.00  0.00    -0.275 OA
ATOM      5  H   UNL A   1      33.324  30.715  25.522  1.00  0.00     0.163 HD
BRANCH   3   6
ATOM      6  C   UNL A   1      31.015  28.478  24.539  1.00  0.00     0.095 C 
ATOM      7  C   UNL A   1      31.215  26.967  24.794  1.00  0.00     0.097 C 
ATOM      8  C   UNL A   1      31.814  26.239  23.569  1.00  0.00     0.041 C 
ATOM      9  C   UNL A   1      31.334  26.737  22.242  1.00  0.00    -0.030 C 
ATOM     10  C   UNL A   1      30.274  28.771  23.222  1.00  0.00     0.041 C 
ATOM     11  C   UNL A   1      30.636  27.868  22.085  1.00  0.00    -0.030 C 
BRANCH   7  12
ATOM     12  C   UNL A   1      32.087  26.680  26.023  1.00  0.00     0.242 C 
ATOM     13  N   UNL A   1      31.652  25.808  26.988  1.00  0.00    -0.267 N 
ATOM     14  H   UNL A   1      32.071  25.874  27.877  1.00  0.00     0.191 HD
ATOM     15  O   UNL A   1      33.206  27.172  26.179  1.00  0.00    -0.273 OA
BRANCH  13  16
ATOM     16  N   UNL A   1      30.671  24.838  26.820  1.00  0.00    -0.263 N 
ATOM     17  C   UNL A   1      30.905  23.499  26.565  1.00  0.00     0.269 C 
ATOM     18  O   UNL A   1      30.000  22.689  26.768  1.00  0.00    -0.267 OA
ATOM     19  H   UNL A   1      29.732  25.129  26.888  1.00  0.00     0.191 HD
BRANCH  17  20
ATOM     20  C   UNL A   1      32.212  23.016  26.047  1.00  0.00     0.041 A 
ATOM     21  C   UNL A   1      34.726  22.281  24.936  1.00  0.00    -0.045 A 
ATOM     22  C   UNL A   1      33.590  22.440  24.125  1.00  0.00     0.005 A 
ATOM     23  C   UNL A   1      34.559  22.466  26.319  1.00  0.00     0.005 A 
ATOM     24  C   UNL A   1      32.351  22.806  24.670  1.00  0.00     0.014 A 
ATOM     25  C   UNL A   1      33.335  22.873  26.862  1.00  0.00     0.014 A 
BRANCH  21  26
ATOM     26  C   UNL A   1      36.095  21.900  24.366  1.00  0.00     0.013 C 
ATOM     27  C   UNL A   1      36.610  22.842  23.266  1.00  0.00     0.012 C 
ATOM     28  C   UNL A   1      37.186  21.807  25.447  1.00  0.00     0.012 C 
ENDBRANCH  21  26
ENDBRANCH  17  20
ENDBRANCH  13  16
ENDBRANCH   7  12
ENDBRANCH   3   6
ENDBRANCH   1   2
BRANCH   1  29
ATOM     29  C   UNL A   1      31.420  31.995  26.878  1.00  0.00     0.042 C 
BRANCH  29  30
ATOM     30  C   UNL A   1      32.691  32.840  26.878  1.00  0.00     0.118 C 
BRANCH  30  31
ATOM     31  N   UNL A   1      32.512  34.126  27.536  1.00  0.00    -0.352 N 
ATOM     32  C   UNL A   1      33.108  34.654  28.652  1.00  0.00     0.251 C 
ATOM     33  H   UNL A   1      31.853  34.716  27.106  1.00  0.00     0.163 HD
ATOM     34  O   UNL A   1      32.674  35.701  29.120  1.00  0.00    -0.269 OA
BRANCH  32  35
ATOM     35  C   UNL A   1      34.255  33.984  29.306  1.00  0.00     0.039 A 
ATOM     36  C   UNL A   1      35.546  34.400  28.963  1.00  0.00     0.014 A 
ATOM     37  C   UNL A   1      34.084  32.911  30.184  1.00  0.00     0.014 A 
ATOM     38  C   UNL A   1      36.658  33.768  29.523  1.00  0.00     0.010 A 
ATOM     39  C   UNL A   1      35.192  32.325  30.796  1.00  0.00     0.010 A 
ATOM     40  C   UNL A   1      36.490  32.736  30.459  1.00  0.00    -0.014 A 
BRANCH  40  41
ATOM     41  C   UNL A   1      37.665  32.057  31.063  1.00  0.00     0.031 A 
ATOM     42  C   UNL A   1      38.119  32.421  32.449  1.00  0.00     0.074 A 
ATOM     43  C   UNL A   1      38.347  31.142  30.349  1.00  0.00     0.049 A 
ATOM     44  N   UNL A   1      39.144  31.971  33.130  1.00  0.00    -0.248 NA
ATOM     45  C   UNL A   1      37.335  33.447  33.155  1.00  0.00     0.031 C 
ATOM     46  C   UNL A   1      38.034  30.734  28.979  1.00  0.00     0.029 A 
ATOM     47  N   UNL A   1      39.448  30.392  30.676  1.00  0.00    -0.354 N 
ATOM     48  C   UNL A   1      39.137  32.671  34.330  1.00  0.00     0.074 A 
ATOM     49  C   UNL A   1      38.036  33.608  34.267  1.00  0.00     0.031 C 
ATOM     50  C   UNL A   1      38.907  29.790  28.592  1.00  0.00     0.029 A 
ATOM     51  C   UNL A   1      39.856  29.546  29.675  1.00  0.00     0.049 A 
ATOM     52  H   UNL A   1      39.903  30.454  31.548  1.00  0.00     0.167 HD
ATOM     53  C   UNL A   1      39.962  32.532  35.395  1.00  0.00     0.037 A 
ATOM     54  C   UNL A   1      40.879  28.672  29.635  1.00  0.00     0.037 A 
ATOM     55  C   UNL A   1      41.032  31.572  35.474  1.00  0.00     0.049 A 
ATOM     56  C   UNL A   1      41.760  28.513  30.845  1.00  0.00     0.074 A 
ATOM     57  C   UNL A   1      41.883  31.313  36.534  1.00  0.00     0.029 A 
ATOM     58  N   UNL A   1      41.392  30.709  34.451  1.00  0.00    -0.354 N 
ATOM     59  N   UNL A   1      41.707  29.138  31.995  1.00  0.00    -0.248 NA
ATOM     60  C   UNL A   1      42.837  27.516  30.752  1.00  0.00     0.031 C 
ATOM     61  C   UNL A   1      42.779  30.313  36.141  1.00  0.00     0.029 A 
ATOM     62  C   UNL A   1      42.461  29.923  34.850  1.00  0.00     0.049 A 
ATOM     63  H   UNL A   1      40.953  30.661  33.571  1.00  0.00     0.167 HD
ATOM     64  C   UNL A   1      42.719  28.593  32.773  1.00  0.00     0.074 A 
ATOM     65  C   UNL A   1      43.365  27.579  31.967  1.00  0.00     0.031 C 
ATOM     66  C   UNL A   1      43.083  28.908  34.040  1.00  0.00     0.037 A 
BRANCH  53  67
ATOM     67  C   UNL A   1      39.735  33.438  36.569  1.00  0.00     0.064 A 
ATOM     68  C   UNL A   1      40.386  34.676  36.680  1.00  0.00     0.173 A 
ATOM     69  C   UNL A   1      38.831  33.079  37.582  1.00  0.00     0.173 A 
ATOM     70  F   UNL A   1      41.269  35.060  35.746  1.00  0.00    -0.203 F 
ATOM     71  C   UNL A   1      40.163  35.508  37.774  1.00  0.00     0.198 A 
ATOM     72  C   UNL A   1      38.590  33.926  38.660  1.00  0.00     0.198 A 
ATOM     73  F   UNL A   1      38.179  31.909  37.521  1.00  0.00    -0.203 F 
ATOM     74  F   UNL A   1      40.833  36.664  37.882  1.00  0.00    -0.200 F 
ATOM     75  C   UNL A   1      39.261  35.135  38.759  1.00  0.00     0.200 A 
ATOM     76  F   UNL A   1      37.710  33.569  39.606  1.00  0.00    -0.200 F 
ATOM     77  F   UNL A   1      39.044  35.940  39.809  1.00  0.00    -0.200 F 
ENDBRANCH  53  67
BRANCH  54  78
ATOM     78  C   UNL A   1      41.101  27.847  28.421  1.00  0.00     0.064 A 
ATOM     79  C   UNL A   1      41.964  28.282  27.407  1.00  0.00     0.173 A 
ATOM     80  C   UNL A   1      40.457  26.614  28.250  1.00  0.00     0.173 A 
ATOM     81  F   UNL A   1      42.585  29.465  27.519  1.00  0.00    -0.203 F 
ATOM     82  C   UNL A   1      42.161  27.523  26.256  1.00  0.00     0.198 A 
ATOM     83  C   UNL A   1      40.674  25.843  27.109  1.00  0.00     0.198 A 
ATOM     84  F   UNL A   1      39.626  26.152  29.195  1.00  0.00    -0.203 F 
ATOM     85  F   UNL A   1      42.959  27.981  25.282  1.00  0.00    -0.200 F 
ATOM     86  C   UNL A   1      41.520  26.302  26.110  1.00  0.00     0.200 A 
ATOM     87  F   UNL A   1      40.062  24.659  26.976  1.00  0.00    -0.200 F 
ATOM     88  F   UNL A   1      41.711  25.570  25.003  1.00  0.00    -0.200 F 
ENDBRANCH  54  78
BRANCH  66  89
ATOM     89  C   UNL A   1      44.204  28.119  34.646  1.00  0.00     0.064 A 
ATOM     90  C   UNL A   1      45.535  28.556  34.571  1.00  0.00     0.173 A 
ATOM     91  C   UNL A   1      43.940  26.928  35.338  1.00  0.00     0.173 A 
ATOM     92  F   UNL A   1      45.838  29.681  33.908  1.00  0.00    -0.203 F 
ATOM     93  C   UNL A   1      46.564  27.815  35.147  1.00  0.00     0.198 A 
ATOM     94  C   UNL A   1      44.968  26.203  35.934  1.00  0.00     0.198 A 
ATOM     95  F   UNL A   1      42.683  26.470  35.442  1.00  0.00    -0.203 F 
ATOM     96  F   UNL A   1      47.833  28.228  35.025  1.00  0.00    -0.200 F 
ATOM     97  C   UNL A   1      46.279  26.643  35.832  1.00  0.00     0.200 A 
ATOM     98  F   UNL A   1      44.691  25.076  36.604  1.00  0.00    -0.200 F 
ATOM     99  F   UNL A   1      47.271  25.933  36.387  1.00  0.00    -0.200 F 
ENDBRANCH  66  89
ENDBRANCH  40  41
ENDBRANCH  32  35
ENDBRANCH  30  31
ENDBRANCH  29  30
ENDBRANCH   1  29
TORSDOF 14
ENDMDL
MODEL 2
REMARK VINA RESULT:     -12.8      0.150      1.643
REMARK SMILES CC(C)c1ccc(C(=O)NNC(=O)[C@@H]2CC=CC[C@@H]2C(=O)NCCCNC(=O)c2ccc(-c3c4nc(c(-c5c(F)c(F)c(F)c(F)c5F)c5ccc([nH]5)c(-c5c(F)c(F)c(F)c(F)c5F)c5nc(c(-c6c(F)c(F)c(F)c(F)c6F)c6ccc3[nH]6)C=C5)C=C4)cc2)cc1
REMARK SMILES IDX 23 1 22 2 20 3 21 4 19 6 14 7 15 8 16 9 18 10 17 11 12 12
REMARK SMILES IDX 11 13 13 15 10 16 8 17 9 18 7 20 4 21 5 22 93 23 6 24 92 25
REMARK SMILES IDX 2 26 1 27 3 28 24 29 25 30 26 31 27 32 28 34 29 35 30 36
REMARK SMILES IDX 91 37 31 38 90 39 32 40 33 41 34 42 84 43 35 44 89 45 83 46
REMARK SMILES IDX 85 47 36 48 88 49 82 50 81 51 37 53 69 54 49 55 68 56 50 57
REMARK SMILES IDX 53 58 67 59 86 60 51 61 52 62 66 64 87 65 54 66 38 67 39 68
REMARK SMILES IDX 47 69 40 70 41 71 45 72 48 73 42 74 43 75 46 76 44 77 70 78
REMARK SMILES IDX 71 79 79 80 72 81 73 82 77 83 80 84 74 85 75 86 78 87 76 88
REMARK SMILES IDX 55 89 56 90 64 91 57 92 58 93 62 94 65 95 59 96 60 97 63 98
REMARK SMILES IDX 61 99
REMARK H PARENT 22 5 11 14 10 19 26 33 85 52 53 63
REMARK Flexibility Score: inf
ROOT
ATOM      1  C   UNL A   1      31.778  30.514  26.850  1.00  0.00     0.117 C 
ENDROOT
BRANCH   1   2
ATOM      2  N   UNL A   1      32.590  30.188  25.690  1.00  0.00    -0.356 N 
ATOM      3  C   UNL A   1      32.362  29.295  24.685  1.00  0.00     0.224 C 
ATOM      4  O   UNL A   1      33.249  29.133  23.850  1.00  0.00    -0.275 OA
ATOM      5  H   UNL A   1      33.435  30.688  25.620  1.00  0.00     0.163 HD
BRANCH   3   6
ATOM      6  C   UNL A   1      31.028  28.559  24.636  1.00  0.00     0.095 C 
ATOM      7  C   UNL A   1      31.173  27.035  24.849  1.00  0.00     0.097 C 
ATOM      8  C   UNL A   1      31.720  26.315  23.595  1.00  0.00     0.041 C 
ATOM      9  C   UNL A   1      31.234  26.866  22.290  1.00  0.00    -0.030 C 
ATOM     10  C   UNL A   1      30.273  28.913  23.341  1.00  0.00     0.041 C 
ATOM     11  C   UNL A   1      30.578  28.026  22.176  1.00  0.00    -0.030 C 
BRANCH   7  12
ATOM     12  C   UNL A   1      32.057  26.683  26.053  1.00  0.00     0.242 C 
ATOM     13  N   UNL A   1      31.622  25.776  26.986  1.00  0.00    -0.267 N 
ATOM     14  H   UNL A   1      32.054  25.798  27.870  1.00  0.00     0.191 HD
ATOM     15  O   UNL A   1      33.185  27.152  26.215  1.00  0.00    -0.273 OA
BRANCH  13  16
ATOM     16  N   UNL A   1      30.625  24.829  26.790  1.00  0.00    -0.263 N 
ATOM     17  C   UNL A   1      30.837  23.493  26.498  1.00  0.00     0.269 C 
ATOM     18  O   UNL A   1      29.919  22.693  26.677  1.00  0.00    -0.267 OA
ATOM     19  H   UNL A   1      29.691  25.133  26.864  1.00  0.00     0.191 HD
BRANCH  17  20
ATOM     20  C   UNL A   1      32.137  23.002  25.968  1.00  0.00     0.041 A 
ATOM     21  C   UNL A   1      34.636  22.253  24.834  1.00  0.00    -0.045 A 
ATOM     22  C   UNL A   1      33.494  22.419  24.033  1.00  0.00     0.005 A 
ATOM     23  C   UNL A   1      34.483  22.440  26.218  1.00  0.00     0.005 A 
ATOM     24  C   UNL A   1      32.262  22.792  24.590  1.00  0.00     0.014 A 
ATOM     25  C   UNL A   1      33.266  22.853  26.772  1.00  0.00     0.014 A 
BRANCH  21  26
ATOM     26  C   UNL A   1      35.998  21.865  24.251  1.00  0.00     0.013 C 
ATOM     27  C   UNL A   1      36.653  22.953  23.387  1.00  0.00     0.012 C 
ATOM     28  C   UNL A   1      37.014  21.456  25.332  1.00  0.00     0.012 C 
ENDBRANCH  21  26
ENDBRANCH  17  20
ENDBRANCH  13  16
ENDBRANCH   7  12
ENDBRANCH   3   6
ENDBRANCH   1   2
BRANCH   1  29
ATOM     29  C   UNL A   1      31.429  31.999  26.907  1.00  0.00     0.042 C 
BRANCH  29  30
ATOM     30  C   UNL A   1      32.634  32.935  26.849  1.00  0.00     0.118 C 
BRANCH  30  31
ATOM     31  N   UNL A   1      32.440  34.151  27.623  1.00  0.00    -0.352 N 
ATOM     32  C   UNL A   1      33.062  34.602  28.758  1.00  0.00     0.251 C 
ATOM     33  H   UNL A   1      31.746  34.753  27.270  1.00  0.00     0.163 HD
ATOM     34  O   UNL A   1      32.613  35.589  29.332  1.00  0.00    -0.269 OA
BRANCH  32  35
ATOM     35  C   UNL A   1      34.255  33.920  29.309  1.00  0.00     0.039 A 
ATOM     36  C   UNL A   1      34.057  32.852  30.191  1.00  0.00     0.014 A 
ATOM     37  C   UNL A   1      35.552  34.360  29.034  1.00  0.00     0.014 A 
ATOM     38  C   UNL A   1      35.153  32.207  30.768  1.00  0.00     0.010 A 
ATOM     39  C   UNL A   1      36.649  33.672  29.556  1.00  0.00     0.010 A 
ATOM     40  C   UNL A   1      36.460  32.601  30.440  1.00  0.00    -0.014 A 
BRANCH  40  41
ATOM     41  C   UNL A   1      37.634  31.921  31.045  1.00  0.00     0.031 A 
ATOM     42  C   UNL A   1      38.079  32.274  32.437  1.00  0.00     0.074 A 
ATOM     43  C   UNL A   1      38.322  31.013  30.328  1.00  0.00     0.049 A 
ATOM     44  N   UNL A   1      39.101  31.822  33.121  1.00  0.00    -0.248 NA
ATOM     45  C   UNL A   1      37.287  33.292  33.147  1.00  0.00     0.031 C 
ATOM     46  C   UNL A   1      38.018  30.615  28.953  1.00  0.00     0.029 A 
ATOM     47  N   UNL A   1      39.424  30.264  30.656  1.00  0.00    -0.354 N 
ATOM     48  C   UNL A   1      39.085  32.513  34.326  1.00  0.00     0.074 A 
ATOM     49  C   UNL A   1      37.981  33.446  34.264  1.00  0.00     0.031 C 
ATOM     50  C   UNL A   1      38.897  29.677  28.563  1.00  0.00     0.029 A 
ATOM     51  C   UNL A   1      39.840  29.427  29.650  1.00  0.00     0.049 A 
ATOM     52  H   UNL A   1      39.873  30.320  31.531  1.00  0.00     0.167 HD
ATOM     53  C   UNL A   1      39.904  32.367  35.395  1.00  0.00     0.037 A 
ATOM     54  C   UNL A   1      40.866  28.556  29.609  1.00  0.00     0.037 A 
ATOM     55  C   UNL A   1      40.976  31.410  35.472  1.00  0.00     0.049 A 
ATOM     56  C   UNL A   1      41.740  28.391  30.823  1.00  0.00     0.074 A 
ATOM     57  C   UNL A   1      41.822  31.144  36.535  1.00  0.00     0.029 A 
ATOM     58  N   UNL A   1      41.344  30.556  34.444  1.00  0.00    -0.354 N 
ATOM     59  N   UNL A   1      41.678  29.006  31.978  1.00  0.00    -0.248 NA
ATOM     60  C   UNL A   1      42.820  27.398  30.728  1.00  0.00     0.031 C 
ATOM     61  C   UNL A   1      42.724  30.150  36.139  1.00  0.00     0.029 A 
ATOM     62  C   UNL A   1      42.413  29.770  34.843  1.00  0.00     0.049 A 
ATOM     63  H   UNL A   1      40.911  30.514  33.561  1.00  0.00     0.167 HD
ATOM     64  C   UNL A   1      42.688  28.458  32.757  1.00  0.00     0.074 A 
ATOM     65  C   UNL A   1      43.341  27.452  31.946  1.00  0.00     0.031 C 
ATOM     66  C   UNL A   1      43.043  28.763  34.029  1.00  0.00     0.037 A 
BRANCH  53  67
ATOM     67  C   UNL A   1      39.667  33.263  36.575  1.00  0.00     0.064 A 
ATOM     68  C   UNL A   1      38.768  32.915  37.594  1.00  0.00     0.173 A 
ATOM     69  C   UNL A   1      40.373  34.470  36.706  1.00  0.00     0.173 A 
ATOM     70  F   UNL A   1      38.060  31.779  37.509  1.00  0.00    -0.203 F 
ATOM     71  C   UNL A   1      38.561  33.754  38.685  1.00  0.00     0.198 A 
ATOM     72  C   UNL A   1      40.184  35.293  37.812  1.00  0.00     0.198 A 
ATOM     73  F   UNL A   1      41.249  34.846  35.762  1.00  0.00    -0.203 F 
ATOM     74  F   UNL A   1      37.661  33.424  39.622  1.00  0.00    -0.200 F 
ATOM     75  C   UNL A   1      39.273  34.939  38.796  1.00  0.00     0.200 A 
ATOM     76  F   UNL A   1      40.881  36.432  37.924  1.00  0.00    -0.200 F 
ATOM     77  F   UNL A   1      39.077  35.744  39.850  1.00  0.00    -0.200 F 
ENDBRANCH  53  67
BRANCH  54  78
ATOM     78  C   UNL A   1      41.097  27.742  28.390  1.00  0.00     0.064 A 
ATOM     79  C   UNL A   1      40.449  26.512  28.216  1.00  0.00     0.173 A 
ATOM     80  C   UNL A   1      41.966  28.173  27.378  1.00  0.00     0.173 A 
ATOM     81  F   UNL A   1      39.624  26.050  29.167  1.00  0.00    -0.203 F 
ATOM     82  C   UNL A   1      40.676  25.733  27.084  1.00  0.00     0.198 A 
ATOM     83  C   UNL A   1      42.174  27.404  26.234  1.00  0.00     0.198 A 
ATOM     84  F   UNL A   1      42.606  29.346  27.496  1.00  0.00    -0.203 F 
ATOM     85  F   UNL A   1      40.076  24.541  26.961  1.00  0.00    -0.200 F 
ATOM     86  C   UNL A   1      41.534  26.182  26.092  1.00  0.00     0.200 A 
ATOM     87  F   UNL A   1      42.995  27.847  25.272  1.00  0.00    -0.200 F 
ATOM     88  F   UNL A   1      41.751  25.433  25.001  1.00  0.00    -0.200 F 
ENDBRANCH  54  78
BRANCH  66  89
ATOM     89  C   UNL A   1      44.164  27.973  34.634  1.00  0.00     0.064 A 
ATOM     90  C   UNL A   1      45.494  28.412  34.566  1.00  0.00     0.173 A 
ATOM     91  C   UNL A   1      43.899  26.778  35.320  1.00  0.00     0.173 A 
ATOM     92  F   UNL A   1      45.798  29.541  33.909  1.00  0.00    -0.203 F 
ATOM     93  C   UNL A   1      46.522  27.669  35.143  1.00  0.00     0.198 A 
ATOM     94  C   UNL A   1      44.925  26.051  35.916  1.00  0.00     0.198 A 
ATOM     95  F   UNL A   1      42.642  26.318  35.417  1.00  0.00    -0.203 F 
ATOM     96  F   UNL A   1      47.791  28.085  35.027  1.00  0.00    -0.200 F 
ATOM     97  C   UNL A   1      46.236  26.493  35.821  1.00  0.00     0.200 A 
ATOM     98  F   UNL A   1      44.647  24.921  36.580  1.00  0.00    -0.200 F 
ATOM     99  F   UNL A   1      47.227  25.782  36.376  1.00  0.00    -0.200 F 
ENDBRANCH  66  89
ENDBRANCH  40  41
ENDBRANCH  32  35
ENDBRANCH  30  31
ENDBRANCH  29  30
ENDBRANCH   1  29
TORSDOF 14
ENDMDL
MODEL 3
REMARK VINA RESULT:     -12.6      3.937      8.534
REMARK SMILES CC(C)c1ccc(C(=O)NNC(=O)[C@@H]2CC=CC[C@@H]2C(=O)NCCCNC(=O)c2ccc(-c3c4nc(c(-c5c(F)c(F)c(F)c(F)c5F)c5ccc([nH]5)c(-c5c(F)c(F)c(F)c(F)c5F)c5nc(c(-c6c(F)c(F)c(F)c(F)c6F)c6ccc3[nH]6)C=C5)C=C4)cc2)cc1
REMARK SMILES IDX 23 1 22 2 20 3 21 4 19 6 14 7 15 8 16 9 18 10 17 11 12 12
REMARK SMILES IDX 11 13 13 15 10 16 8 17 9 18 7 20 4 21 5 22 93 23 6 24 92 25
REMARK SMILES IDX 2 26 1 27 3 28 24 29 25 30 26 31 27 32 28 34 29 35 30 36
REMARK SMILES IDX 91 37 31 38 90 39 32 40 33 41 34 42 84 43 35 44 89 45 83 46
REMARK SMILES IDX 85 47 36 48 88 49 82 50 81 51 37 53 69 54 49 55 68 56 50 57
REMARK SMILES IDX 53 58 67 59 86 60 51 61 52 62 66 64 87 65 54 66 38 67 39 68
REMARK SMILES IDX 47 69 40 70 41 71 45 72 48 73 42 74 43 75 46 76 44 77 70 78
REMARK SMILES IDX 71 79 79 80 72 81 73 82 77 83 80 84 74 85 75 86 78 87 76 88
REMARK SMILES IDX 55 89 56 90 64 91 57 92 58 93 62 94 65 95 59 96 60 97 63 98
REMARK SMILES IDX 61 99
REMARK H PARENT 22 5 11 14 10 19 26 33 85 52 53 63
REMARK Flexibility Score: inf
ROOT
ATOM      1  C   UNL A   1      34.386  24.101  24.373  1.00  0.00     0.117 C 
ENDROOT
BRANCH   1   2
ATOM      2  N   UNL A   1      34.189  25.390  23.731  1.00  0.00    -0.356 N 
ATOM      3  C   UNL A   1      33.698  26.556  24.242  1.00  0.00     0.224 C 
ATOM      4  O   UNL A   1      33.544  27.499  23.470  1.00  0.00    -0.275 OA
ATOM      5  H   UNL A   1      34.449  25.428  22.783  1.00  0.00     0.163 HD
BRANCH   3   6
ATOM      6  C   UNL A   1      33.380  26.637  25.731  1.00  0.00     0.095 C 
ATOM      7  C   UNL A   1      31.863  26.675  26.021  1.00  0.00     0.097 C 
ATOM      8  C   UNL A   1      31.242  28.059  25.720  1.00  0.00     0.041 C 
ATOM      9  C   UNL A   1      32.117  29.228  26.049  1.00  0.00    -0.030 C 
ATOM     10  C   UNL A   1      34.142  27.811  26.373  1.00  0.00     0.041 C 
ATOM     11  C   UNL A   1      33.415  29.118  26.349  1.00  0.00    -0.030 C 
BRANCH   7  12
ATOM     12  C   UNL A   1      31.082  25.599  25.256  1.00  0.00     0.242 C 
ATOM     13  N   UNL A   1      31.107  24.295  25.682  1.00  0.00    -0.267 N 
ATOM     14  H   UNL A   1      30.862  23.603  25.027  1.00  0.00     0.191 HD
ATOM     15  O   UNL A   1      30.382  25.852  24.274  1.00  0.00    -0.273 OA
BRANCH  13  16
ATOM     16  N   UNL A   1      31.448  23.868  26.959  1.00  0.00    -0.263 N 
ATOM     17  C   UNL A   1      32.314  22.830  27.251  1.00  0.00     0.269 C 
ATOM     18  O   UNL A   1      32.797  22.759  28.381  1.00  0.00    -0.267 OA
ATOM     19  H   UNL A   1      31.039  24.343  27.719  1.00  0.00     0.191 HD
BRANCH  17  20
ATOM     20  C   UNL A   1      32.670  21.798  26.241  1.00  0.00     0.041 A 
ATOM     21  C   UNL A   1      33.349  19.671  24.478  1.00  0.00    -0.045 A 
ATOM     22  C   UNL A   1      34.209  20.055  25.520  1.00  0.00     0.005 A 
ATOM     23  C   UNL A   1      32.159  20.403  24.325  1.00  0.00     0.005 A 
ATOM     24  C   UNL A   1      33.875  21.101  26.393  1.00  0.00     0.014 A 
ATOM     25  C   UNL A   1      31.802  21.418  25.219  1.00  0.00     0.014 A 
BRANCH  21  26
ATOM     26  C   UNL A   1      33.679  18.522  23.522  1.00  0.00     0.013 C 
ATOM     27  C   UNL A   1      34.326  17.301  24.195  1.00  0.00     0.012 C 
ATOM     28  C   UNL A   1      32.450  18.025  22.740  1.00  0.00     0.012 C 
ENDBRANCH  21  26
ENDBRANCH  17  20
ENDBRANCH  13  16
ENDBRANCH   7  12
ENDBRANCH   3   6
ENDBRANCH   1   2
BRANCH   1  29
ATOM     29  C   UNL A   1      35.856  23.693  24.399  1.00  0.00     0.042 C 
BRANCH  29  30
ATOM     30  C   UNL A   1      36.488  23.690  25.788  1.00  0.00     0.118 C 
BRANCH  30  31
ATOM     31  N   UNL A   1      37.572  22.727  25.913  1.00  0.00    -0.352 N 
ATOM     32  C   UNL A   1      38.879  22.891  26.292  1.00  0.00     0.251 C 
ATOM     33  H   UNL A   1      37.324  21.802  25.687  1.00  0.00     0.163 HD
ATOM     34  O   UNL A   1      39.660  21.954  26.161  1.00  0.00    -0.269 OA
BRANCH  32  35
ATOM     35  C   UNL A   1      39.368  24.173  26.847  1.00  0.00     0.039 A 
ATOM     36  C   UNL A   1      39.089  24.462  28.188  1.00  0.00     0.014 A 
ATOM     37  C   UNL A   1      40.023  25.121  26.056  1.00  0.00     0.014 A 
ATOM     38  C   UNL A   1      39.494  25.679  28.741  1.00  0.00     0.010 A 
ATOM     39  C   UNL A   1      40.488  26.307  26.627  1.00  0.00     0.010 A 
ATOM     40  C   UNL A   1      40.213  26.604  27.969  1.00  0.00    -0.014 A 
BRANCH  40  41
ATOM     41  C   UNL A   1      40.651  27.900  28.548  1.00  0.00     0.031 A 
ATOM     42  C   UNL A   1      42.098  28.128  28.886  1.00  0.00     0.074 A 
ATOM     43  C   UNL A   1      39.740  28.858  28.805  1.00  0.00     0.049 A 
ATOM     44  N   UNL A   1      42.667  29.173  29.435  1.00  0.00    -0.248 NA
ATOM     45  C   UNL A   1      43.028  27.024  28.596  1.00  0.00     0.031 C 
ATOM     46  C   UNL A   1      38.302  28.742  28.564  1.00  0.00     0.029 A 
ATOM     47  N   UNL A   1      39.890  30.116  29.332  1.00  0.00    -0.354 N 
ATOM     48  C   UNL A   1      44.010  28.845  29.572  1.00  0.00     0.074 A 
ATOM     49  C   UNL A   1      44.164  27.488  29.092  1.00  0.00     0.031 C 
ATOM     50  C   UNL A   1      37.704  29.892  28.918  1.00  0.00     0.029 A 
ATOM     51  C   UNL A   1      38.712  30.813  29.435  1.00  0.00     0.049 A 
ATOM     52  H   UNL A   1      40.761  30.484  29.608  1.00  0.00     0.167 HD
ATOM     53  C   UNL A   1      45.025  29.611  30.036  1.00  0.00     0.037 A 
ATOM     54  C   UNL A   1      38.473  32.056  29.894  1.00  0.00     0.037 A 
ATOM     55  C   UNL A   1      44.878  30.975  30.474  1.00  0.00     0.049 A 
ATOM     56  C   UNL A   1      39.624  32.899  30.373  1.00  0.00     0.074 A 
ATOM     57  C   UNL A   1      45.857  31.855  30.903  1.00  0.00     0.029 A 
ATOM     58  N   UNL A   1      43.673  31.658  30.531  1.00  0.00    -0.354 N 
ATOM     59  N   UNL A   1      40.897  32.599  30.442  1.00  0.00    -0.248 NA
ATOM     60  C   UNL A   1      39.302  34.260  30.827  1.00  0.00     0.031 C 
ATOM     61  C   UNL A   1      45.239  33.061  31.251  1.00  0.00     0.029 A 
ATOM     62  C   UNL A   1      43.881  32.945  31.001  1.00  0.00     0.049 A 
ATOM     63  H   UNL A   1      42.799  31.284  30.277  1.00  0.00     0.167 HD
ATOM     64  C   UNL A   1      41.533  33.737  30.917  1.00  0.00     0.074 A 
ATOM     65  C   UNL A   1      40.506  34.739  31.111  1.00  0.00     0.031 C 
ATOM     66  C   UNL A   1      42.849  33.934  31.174  1.00  0.00     0.037 A 
BRANCH  53  67
ATOM     67  C   UNL A   1      46.391  28.994  30.089  1.00  0.00     0.064 A 
ATOM     68  C   UNL A   1      46.853  28.326  31.233  1.00  0.00     0.173 A 
ATOM     69  C   UNL A   1      47.238  29.042  28.970  1.00  0.00     0.173 A 
ATOM     70  F   UNL A   1      46.087  28.263  32.332  1.00  0.00    -0.203 F 
ATOM     71  C   UNL A   1      48.122  27.755  31.266  1.00  0.00     0.198 A 
ATOM     72  C   UNL A   1      48.495  28.445  28.997  1.00  0.00     0.198 A 
ATOM     73  F   UNL A   1      46.842  29.663  27.849  1.00  0.00    -0.203 F 
ATOM     74  F   UNL A   1      48.560  27.164  32.387  1.00  0.00    -0.200 F 
ATOM     75  C   UNL A   1      48.939  27.809  30.147  1.00  0.00     0.200 A 
ATOM     76  F   UNL A   1      49.280  28.489  27.912  1.00  0.00    -0.200 F 
ATOM     77  F   UNL A   1      50.159  27.254  30.179  1.00  0.00    -0.200 F 
ENDBRANCH  53  67
BRANCH  54  78
ATOM     78  C   UNL A   1      37.090  32.595  29.883  1.00  0.00     0.064 A 
ATOM     79  C   UNL A   1      36.609  33.311  28.779  1.00  0.00     0.173 A 
ATOM     80  C   UNL A   1      36.225  32.408  30.969  1.00  0.00     0.173 A 
ATOM     81  F   UNL A   1      37.408  33.532  27.725  1.00  0.00    -0.203 F 
ATOM     82  C   UNL A   1      35.319  33.837  28.769  1.00  0.00     0.198 A 
ATOM     83  C   UNL A   1      34.926  32.914  30.949  1.00  0.00     0.198 A 
ATOM     84  F   UNL A   1      36.638  31.725  32.047  1.00  0.00    -0.203 F 
ATOM     85  F   UNL A   1      34.898  34.554  27.719  1.00  0.00    -0.200 F 
ATOM     86  C   UNL A   1      34.477  33.633  29.852  1.00  0.00     0.200 A 
ATOM     87  F   UNL A   1      34.112  32.705  31.992  1.00  0.00    -0.200 F 
ATOM     88  F   UNL A   1      33.235  34.138  29.842  1.00  0.00    -0.200 F 
ENDBRANCH  54  78
BRANCH  66  89
ATOM     89  C   UNL A   1      43.257  35.295  31.653  1.00  0.00     0.064 A 
ATOM     90  C   UNL A   1      43.684  36.291  30.762  1.00  0.00     0.173 A 
ATOM     91  C   UNL A   1      43.190  35.615  33.017  1.00  0.00     0.173 A 
ATOM     92  F   UNL A   1      43.779  36.026  29.451  1.00  0.00    -0.203 F 
ATOM     93  C   UNL A   1      44.051  37.552  31.224  1.00  0.00     0.198 A 
ATOM     94  C   UNL A   1      43.534  36.885  33.471  1.00  0.00     0.198 A 
ATOM     95  F   UNL A   1      42.783  34.699  33.908  1.00  0.00    -0.203 F 
ATOM     96  F   UNL A   1      44.499  38.475  30.360  1.00  0.00    -0.200 F 
ATOM     97  C   UNL A   1      43.971  37.850  32.576  1.00  0.00     0.200 A 
ATOM     98  F   UNL A   1      43.446  37.175  34.777  1.00  0.00    -0.200 F 
ATOM     99  F   UNL A   1      44.323  39.065  33.017  1.00  0.00    -0.200 F 
ENDBRANCH  66  89
ENDBRANCH  40  41
ENDBRANCH  32  35
ENDBRANCH  30  31
ENDBRANCH  29  30
ENDBRANCH   1  29
TORSDOF 14
ENDMDL
