MODEL 1
REMARK VINA RESULT:     -15.5      0.000      0.000
REMARK SMILES Cc1c(NC(=O)c2cccc(-c3cc4ccccc4oc3=O)c2)cccc1C(=O)NCCCNC(=O)c1ccc(-c2c3nc(c(-c4c(F)c(F)c(F)c(F)c4F)c4ccc([nH]4)c(-c4c(F)c(F)c(F)c(F)c4F)c4nc(c(-c5c(F)c(F)c(F)c(F)c5F)c5ccc2[nH]5)C=C4)C=C3)cc1
REMARK SMILES IDX 31 1 30 2 28 3 29 4 27 6 1 7 2 8 3 9 24 10 26 11 25 12 4 13
REMARK SMILES IDX 5 14 6 16 7 17 8 18 23 19 9 20 11 21 10 22 12 23 13 24 21 25
REMARK SMILES IDX 14 26 20 27 22 28 15 29 19 30 16 31 18 32 17 33 32 34 33 35
REMARK SMILES IDX 34 36 35 37 36 39 37 40 38 41 99 42 39 43 98 44 40 45 41 46
REMARK SMILES IDX 42 47 92 48 43 49 97 50 91 51 93 52 44 53 96 54 90 55 89 56
REMARK SMILES IDX 45 58 77 59 57 60 76 61 58 62 61 63 75 64 94 65 59 66 60 67
REMARK SMILES IDX 74 69 95 70 62 71 46 72 47 73 55 74 48 75 49 76 53 77 56 78
REMARK SMILES IDX 50 79 51 80 54 81 52 82 78 83 79 84 87 85 80 86 81 87 85 88
REMARK SMILES IDX 88 89 82 90 83 91 86 92 84 93 63 94 64 95 72 96 65 97 66 98
REMARK SMILES IDX 70 99 73 100 67 101 68 102 71 103 69 104
REMARK H PARENT 30 5 4 15 34 38 93 57 61 68
REMARK Flexibility Score: inf
ROOT
ATOM      1  C   UNL A   1      31.545  30.650  26.075  1.00  0.00     0.118 C 
ENDROOT
BRANCH   1   2
ATOM      2  N   UNL A   1      32.403  30.070  25.042  1.00  0.00    -0.352 N 
ATOM      3  C   UNL A   1      32.538  28.941  24.282  1.00  0.00     0.251 C 
ATOM      4  O   UNL A   1      33.510  29.027  23.515  1.00  0.00    -0.269 OA
ATOM      5  H   UNL A   1      33.123  30.704  24.820  1.00  0.00     0.163 HD
BRANCH   3   6
ATOM      6  C   UNL A   1      31.743  27.649  24.236  1.00  0.00     0.044 A 
ATOM      7  C   UNL A   1      31.475  27.138  26.713  1.00  0.00     0.047 C 
ATOM      8  C   UNL A   1      31.233  26.837  25.274  1.00  0.00    -0.015 A 
ATOM      9  C   UNL A   1      30.601  25.594  24.973  1.00  0.00     0.045 A 
ATOM     10  C   UNL A   1      30.500  25.138  23.662  1.00  0.00     0.026 A 
ATOM     11  C   UNL A   1      31.613  27.137  22.918  1.00  0.00     0.014 A 
ATOM     12  C   UNL A   1      31.019  25.905  22.633  1.00  0.00     0.003 A 
BRANCH   9  13
ATOM     13  N   UNL A   1      30.062  24.842  26.031  1.00  0.00    -0.322 N 
ATOM     14  C   UNL A   1      30.536  23.781  26.764  1.00  0.00     0.255 C 
ATOM     15  H   UNL A   1      29.163  25.136  26.304  1.00  0.00     0.170 HD
ATOM     16  O   UNL A   1      29.747  23.211  27.519  1.00  0.00    -0.269 OA
BRANCH  14  17
ATOM     17  C   UNL A   1      31.966  23.370  26.788  1.00  0.00     0.040 A 
ATOM     18  C   UNL A   1      32.389  22.582  27.865  1.00  0.00     0.014 A 
ATOM     19  C   UNL A   1      32.921  23.847  25.880  1.00  0.00     0.022 A 
ATOM     20  C   UNL A   1      33.730  22.231  27.999  1.00  0.00     0.001 A 
ATOM     21  C   UNL A   1      34.277  23.497  25.996  1.00  0.00    -0.010 A 
ATOM     22  C   UNL A   1      34.665  22.675  27.064  1.00  0.00     0.009 A 
BRANCH  21  23
ATOM     23  C   UNL A   1      35.353  24.065  25.137  1.00  0.00     0.068 A 
ATOM     24  C   UNL A   1      36.653  24.137  25.505  1.00  0.00     0.028 A 
ATOM     25  C   UNL A   1      35.265  23.620  23.703  1.00  0.00     0.344 A 
ATOM     26  C   UNL A   1      37.361  22.847  25.336  1.00  0.00     0.018 A 
ATOM     27  O   UNL A   1      35.843  22.361  23.494  1.00  0.00    -0.422 OA
ATOM     28  O   UNL A   1      34.667  24.242  22.851  1.00  0.00    -0.246 OA
ATOM     29  C   UNL A   1      38.455  22.484  26.113  1.00  0.00     0.012 A 
ATOM     30  C   UNL A   1      36.850  21.947  24.391  1.00  0.00     0.138 A 
ATOM     31  C   UNL A   1      38.981  21.196  25.982  1.00  0.00     0.001 A 
ATOM     32  C   UNL A   1      37.332  20.650  24.293  1.00  0.00     0.048 A 
ATOM     33  C   UNL A   1      38.399  20.273  25.106  1.00  0.00     0.004 A 
ENDBRANCH  21  23
ENDBRANCH  14  17
ENDBRANCH   9  13
ENDBRANCH   3   6
ENDBRANCH   1   2
BRANCH   1  34
ATOM     34  C   UNL A   1      32.342  31.505  27.065  1.00  0.00     0.042 C 
BRANCH  34  35
ATOM     35  C   UNL A   1      33.589  30.870  27.644  1.00  0.00     0.118 C 
BRANCH  35  36
ATOM     36  N   UNL A   1      34.370  31.754  28.509  1.00  0.00    -0.352 N 
ATOM     37  C   UNL A   1      35.543  31.456  29.187  1.00  0.00     0.251 C 
ATOM     38  H   UNL A   1      34.023  32.669  28.623  1.00  0.00     0.163 HD
ATOM     39  O   UNL A   1      36.110  32.280  29.890  1.00  0.00    -0.269 OA
BRANCH  37  40
ATOM     40  C   UNL A   1      36.162  30.140  28.914  1.00  0.00     0.039 A 
ATOM     41  C   UNL A   1      36.608  29.439  30.035  1.00  0.00     0.014 A 
ATOM     42  C   UNL A   1      36.712  29.919  27.655  1.00  0.00     0.014 A 
ATOM     43  C   UNL A   1      37.820  28.769  29.962  1.00  0.00     0.010 A 
ATOM     44  C   UNL A   1      37.966  29.345  27.605  1.00  0.00     0.010 A 
ATOM     45  C   UNL A   1      38.555  28.852  28.780  1.00  0.00    -0.014 A 
BRANCH  45  46
ATOM     46  C   UNL A   1      39.958  28.474  28.698  1.00  0.00     0.031 A 
ATOM     47  C   UNL A   1      40.284  27.071  28.385  1.00  0.00     0.074 A 
ATOM     48  C   UNL A   1      40.952  29.369  28.898  1.00  0.00     0.049 A 
ATOM     49  N   UNL A   1      41.379  26.487  28.725  1.00  0.00    -0.248 NA
ATOM     50  C   UNL A   1      39.343  26.191  27.708  1.00  0.00     0.031 C 
ATOM     51  C   UNL A   1      42.378  29.167  28.645  1.00  0.00     0.029 A 
ATOM     52  N   UNL A   1      40.893  30.605  29.563  1.00  0.00    -0.354 N 
ATOM     53  C   UNL A   1      41.405  25.254  28.118  1.00  0.00     0.074 A 
ATOM     54  C   UNL A   1      40.086  25.095  27.550  1.00  0.00     0.031 C 
ATOM     55  C   UNL A   1      43.080  30.037  29.386  1.00  0.00     0.029 A 
ATOM     56  C   UNL A   1      42.141  30.746  30.230  1.00  0.00     0.049 A 
ATOM     57  H   UNL A   1      40.142  31.243  29.566  1.00  0.00     0.167 HD
ATOM     58  C   UNL A   1      42.581  24.565  28.075  1.00  0.00     0.037 A 
ATOM     59  C   UNL A   1      42.207  30.838  31.592  1.00  0.00     0.037 A 
ATOM     60  C   UNL A   1      43.629  25.262  28.827  1.00  0.00     0.049 A 
ATOM     61  C   UNL A   1      42.918  29.681  32.259  1.00  0.00     0.074 A 
ATOM     62  C   UNL A   1      44.671  26.108  28.480  1.00  0.00     0.029 A 
ATOM     63  N   UNL A   1      43.495  25.378  30.200  1.00  0.00    -0.354 N 
ATOM     64  N   UNL A   1      43.467  28.681  31.627  1.00  0.00    -0.248 NA
ATOM     65  C   UNL A   1      42.945  29.507  33.712  1.00  0.00     0.031 C 
ATOM     66  C   UNL A   1      45.158  26.728  29.667  1.00  0.00     0.029 A 
ATOM     67  C   UNL A   1      44.425  26.250  30.738  1.00  0.00     0.049 A 
ATOM     68  H   UNL A   1      42.818  24.899  30.731  1.00  0.00     0.167 HD
ATOM     69  C   UNL A   1      43.846  27.725  32.533  1.00  0.00     0.074 A 
ATOM     70  C   UNL A   1      43.485  28.283  33.824  1.00  0.00     0.031 C 
ATOM     71  C   UNL A   1      44.384  26.524  32.166  1.00  0.00     0.037 A 
BRANCH  58  72
ATOM     72  C   UNL A   1      42.845  23.395  27.151  1.00  0.00     0.064 A 
ATOM     73  C   UNL A   1      42.255  22.139  27.402  1.00  0.00     0.173 A 
ATOM     74  C   UNL A   1      43.711  23.418  26.040  1.00  0.00     0.173 A 
ATOM     75  F   UNL A   1      41.315  21.983  28.344  1.00  0.00    -0.203 F 
ATOM     76  C   UNL A   1      42.608  20.986  26.695  1.00  0.00     0.198 A 
ATOM     77  C   UNL A   1      44.115  22.257  25.374  1.00  0.00     0.198 A 
ATOM     78  F   UNL A   1      44.141  24.568  25.510  1.00  0.00    -0.203 F 
ATOM     79  F   UNL A   1      42.016  19.820  26.986  1.00  0.00    -0.200 F 
ATOM     80  C   UNL A   1      43.572  21.036  25.710  1.00  0.00     0.200 A 
ATOM     81  F   UNL A   1      45.030  22.336  24.397  1.00  0.00    -0.200 F 
ATOM     82  F   UNL A   1      43.950  19.924  25.067  1.00  0.00    -0.200 F 
ENDBRANCH  58  72
BRANCH  59  83
ATOM     83  C   UNL A   1      41.038  31.567  32.150  1.00  0.00     0.064 A 
ATOM     84  C   UNL A   1      40.023  30.790  32.743  1.00  0.00     0.173 A 
ATOM     85  C   UNL A   1      41.152  32.905  32.541  1.00  0.00     0.173 A 
ATOM     86  F   UNL A   1      39.852  29.511  32.373  1.00  0.00    -0.203 F 
ATOM     87  C   UNL A   1      39.315  31.266  33.840  1.00  0.00     0.198 A 
ATOM     88  C   UNL A   1      40.406  33.389  33.612  1.00  0.00     0.198 A 
ATOM     89  F   UNL A   1      42.085  33.697  31.993  1.00  0.00    -0.203 F 
ATOM     90  F   UNL A   1      38.504  30.442  34.520  1.00  0.00    -0.200 F 
ATOM     91  C   UNL A   1      39.544  32.551  34.303  1.00  0.00     0.200 A 
ATOM     92  F   UNL A   1      40.609  34.641  34.045  1.00  0.00    -0.200 F 
ATOM     93  F   UNL A   1      38.978  32.958  35.448  1.00  0.00    -0.200 F 
ENDBRANCH  59  83
BRANCH  71  94
ATOM     94  C   UNL A   1      44.875  25.498  33.157  1.00  0.00     0.064 A 
ATOM     95  C   UNL A   1      44.018  24.857  34.070  1.00  0.00     0.173 A 
ATOM     96  C   UNL A   1      46.246  25.182  33.291  1.00  0.00     0.173 A 
ATOM     97  F   UNL A   1      42.718  25.179  34.139  1.00  0.00    -0.203 F 
ATOM     98  C   UNL A   1      44.477  23.882  34.959  1.00  0.00     0.198 A 
ATOM     99  C   UNL A   1      46.710  24.253  34.221  1.00  0.00     0.198 A 
ATOM    100  F   UNL A   1      47.179  25.745  32.513  1.00  0.00    -0.203 F 
ATOM    101  F   UNL A   1      43.604  23.237  35.745  1.00  0.00    -0.200 F 
ATOM    102  C   UNL A   1      45.823  23.580  35.034  1.00  0.00     0.200 A 
ATOM    103  F   UNL A   1      48.025  24.007  34.312  1.00  0.00    -0.200 F 
ATOM    104  F   UNL A   1      46.265  22.651  35.891  1.00  0.00    -0.200 F 
ENDBRANCH  71  94
ENDBRANCH  45  46
ENDBRANCH  37  40
ENDBRANCH  35  36
ENDBRANCH  34  35
ENDBRANCH   1  34
TORSDOF 13
ENDMDL
MODEL 2
REMARK VINA RESULT:     -15.3      0.726      1.295
REMARK SMILES Cc1c(NC(=O)c2cccc(-c3cc4ccccc4oc3=O)c2)cccc1C(=O)NCCCNC(=O)c1ccc(-c2c3nc(c(-c4c(F)c(F)c(F)c(F)c4F)c4ccc([nH]4)c(-c4c(F)c(F)c(F)c(F)c4F)c4nc(c(-c5c(F)c(F)c(F)c(F)c5F)c5ccc2[nH]5)C=C4)C=C3)cc1
REMARK SMILES IDX 31 1 30 2 28 3 29 4 27 6 1 7 2 8 3 9 24 10 26 11 25 12 4 13
REMARK SMILES IDX 5 14 6 16 7 17 8 18 23 19 9 20 11 21 10 22 12 23 13 24 21 25
REMARK SMILES IDX 14 26 20 27 22 28 15 29 19 30 16 31 18 32 17 33 32 34 33 35
REMARK SMILES IDX 34 36 35 37 36 39 37 40 38 41 99 42 39 43 98 44 40 45 41 46
REMARK SMILES IDX 42 47 92 48 43 49 97 50 91 51 93 52 44 53 96 54 90 55 89 56
REMARK SMILES IDX 45 58 77 59 57 60 76 61 58 62 61 63 75 64 94 65 59 66 60 67
REMARK SMILES IDX 74 69 95 70 62 71 46 72 47 73 55 74 48 75 49 76 53 77 56 78
REMARK SMILES IDX 50 79 51 80 54 81 52 82 78 83 79 84 87 85 80 86 81 87 85 88
REMARK SMILES IDX 88 89 82 90 83 91 86 92 84 93 63 94 64 95 72 96 65 97 66 98
REMARK SMILES IDX 70 99 73 100 67 101 68 102 71 103 69 104
REMARK H PARENT 30 5 4 15 34 38 93 57 61 68
REMARK Flexibility Score: inf
ROOT
ATOM      1  C   UNL A   1      31.531  30.647  25.893  1.00  0.00     0.118 C 
ENDROOT
BRANCH   1   2
ATOM      2  N   UNL A   1      32.450  30.035  24.934  1.00  0.00    -0.352 N 
ATOM      3  C   UNL A   1      32.628  28.884  24.216  1.00  0.00     0.251 C 
ATOM      4  O   UNL A   1      33.646  28.946  23.510  1.00  0.00    -0.269 OA
ATOM      5  H   UNL A   1      33.185  30.661  24.739  1.00  0.00     0.163 HD
BRANCH   3   6
ATOM      6  C   UNL A   1      31.833  27.593  24.157  1.00  0.00     0.044 A 
ATOM      7  C   UNL A   1      31.542  27.071  26.630  1.00  0.00     0.047 C 
ATOM      8  C   UNL A   1      31.313  26.777  25.188  1.00  0.00    -0.015 A 
ATOM      9  C   UNL A   1      30.683  25.535  24.877  1.00  0.00     0.045 A 
ATOM     10  C   UNL A   1      30.592  25.086  23.562  1.00  0.00     0.026 A 
ATOM     11  C   UNL A   1      31.713  27.087  22.837  1.00  0.00     0.014 A 
ATOM     12  C   UNL A   1      31.120  25.857  22.541  1.00  0.00     0.003 A 
BRANCH   9  13
ATOM     13  N   UNL A   1      30.134  24.780  25.926  1.00  0.00    -0.322 N 
ATOM     14  C   UNL A   1      30.607  23.726  26.670  1.00  0.00     0.255 C 
ATOM     15  H   UNL A   1      29.227  25.064  26.183  1.00  0.00     0.170 HD
ATOM     16  O   UNL A   1      29.812  23.148  27.413  1.00  0.00    -0.269 OA
BRANCH  14  17
ATOM     17  C   UNL A   1      32.042  23.332  26.721  1.00  0.00     0.040 A 
ATOM     18  C   UNL A   1      32.461  22.578  27.822  1.00  0.00     0.014 A 
ATOM     19  C   UNL A   1      33.001  23.797  25.811  1.00  0.00     0.022 A 
ATOM     20  C   UNL A   1      33.805  22.246  27.981  1.00  0.00     0.001 A 
ATOM     21  C   UNL A   1      34.360  23.466  25.951  1.00  0.00    -0.010 A 
ATOM     22  C   UNL A   1      34.745  22.677  27.044  1.00  0.00     0.009 A 
BRANCH  21  23
ATOM     23  C   UNL A   1      35.439  24.023  25.089  1.00  0.00     0.068 A 
ATOM     24  C   UNL A   1      36.727  24.153  25.482  1.00  0.00     0.028 A 
ATOM     25  C   UNL A   1      35.398  23.507  23.678  1.00  0.00     0.344 A 
ATOM     26  C   UNL A   1      37.476  22.878  25.393  1.00  0.00     0.018 A 
ATOM     27  O   UNL A   1      36.017  22.258  23.544  1.00  0.00    -0.422 OA
ATOM     28  O   UNL A   1      34.802  24.068  22.782  1.00  0.00    -0.246 OA
ATOM     29  C   UNL A   1      38.562  22.587  26.211  1.00  0.00     0.012 A 
ATOM     30  C   UNL A   1      37.015  21.918  24.482  1.00  0.00     0.138 A 
ATOM     31  C   UNL A   1      39.128  21.311  26.156  1.00  0.00     0.001 A 
ATOM     32  C   UNL A   1      37.537  20.634  24.459  1.00  0.00     0.048 A 
ATOM     33  C   UNL A   1      38.594  20.329  25.313  1.00  0.00     0.004 A 
ENDBRANCH  21  23
ENDBRANCH  14  17
ENDBRANCH   9  13
ENDBRANCH   3   6
ENDBRANCH   1   2
BRANCH   1  34
ATOM     34  C   UNL A   1      32.204  30.901  27.245  1.00  0.00     0.042 C 
BRANCH  34  35
ATOM     35  C   UNL A   1      33.715  30.817  27.267  1.00  0.00     0.118 C 
BRANCH  35  36
ATOM     36  N   UNL A   1      34.356  31.714  28.228  1.00  0.00    -0.352 N 
ATOM     37  C   UNL A   1      35.443  31.443  29.047  1.00  0.00     0.251 C 
ATOM     38  H   UNL A   1      33.971  32.618  28.303  1.00  0.00     0.163 HD
ATOM     39  O   UNL A   1      35.893  32.276  29.820  1.00  0.00    -0.269 OA
BRANCH  37  40
ATOM     40  C   UNL A   1      36.129  30.147  28.846  1.00  0.00     0.039 A 
ATOM     41  C   UNL A   1      36.596  29.527  30.006  1.00  0.00     0.014 A 
ATOM     42  C   UNL A   1      36.703  29.891  27.605  1.00  0.00     0.014 A 
ATOM     43  C   UNL A   1      37.841  28.914  29.977  1.00  0.00     0.010 A 
ATOM     44  C   UNL A   1      37.985  29.379  27.596  1.00  0.00     0.010 A 
ATOM     45  C   UNL A   1      38.583  28.975  28.799  1.00  0.00    -0.014 A 
BRANCH  45  46
ATOM     46  C   UNL A   1      40.005  28.663  28.749  1.00  0.00     0.031 A 
ATOM     47  C   UNL A   1      40.406  27.312  28.321  1.00  0.00     0.074 A 
ATOM     48  C   UNL A   1      40.948  29.574  29.080  1.00  0.00     0.049 A 
ATOM     49  N   UNL A   1      41.510  26.742  28.657  1.00  0.00    -0.248 NA
ATOM     50  C   UNL A   1      39.536  26.463  27.520  1.00  0.00     0.031 C 
ATOM     51  C   UNL A   1      42.391  29.455  28.878  1.00  0.00     0.029 A 
ATOM     52  N   UNL A   1      40.804  30.737  29.856  1.00  0.00    -0.354 N 
ATOM     53  C   UNL A   1      41.618  25.575  27.938  1.00  0.00     0.074 A 
ATOM     54  C   UNL A   1      40.334  25.418  27.295  1.00  0.00     0.031 C 
ATOM     55  C   UNL A   1      43.020  30.277  29.730  1.00  0.00     0.029 A 
ATOM     56  C   UNL A   1      42.014  30.863  30.592  1.00  0.00     0.049 A 
ATOM     57  H   UNL A   1      40.026  31.340  29.883  1.00  0.00     0.167 HD
ATOM     58  C   UNL A   1      42.825  24.941  27.887  1.00  0.00     0.037 A 
ATOM     59  C   UNL A   1      42.017  30.826  31.958  1.00  0.00     0.037 A 
ATOM     60  C   UNL A   1      43.807  25.604  28.750  1.00  0.00     0.049 A 
ATOM     61  C   UNL A   1      42.749  29.640  32.546  1.00  0.00     0.074 A 
ATOM     62  C   UNL A   1      44.824  26.521  28.534  1.00  0.00     0.029 A 
ATOM     63  N   UNL A   1      43.607  25.582  30.120  1.00  0.00    -0.354 N 
ATOM     64  N   UNL A   1      43.370  28.729  31.850  1.00  0.00    -0.248 NA
ATOM     65  C   UNL A   1      42.720  29.328  33.975  1.00  0.00     0.031 C 
ATOM     66  C   UNL A   1      45.230  27.043  29.797  1.00  0.00     0.029 A 
ATOM     67  C   UNL A   1      44.473  26.435  30.781  1.00  0.00     0.049 A 
ATOM     68  H   UNL A   1      42.930  25.028  30.570  1.00  0.00     0.167 HD
ATOM     69  C   UNL A   1      43.751  27.706  32.679  1.00  0.00     0.074 A 
ATOM     70  C   UNL A   1      43.309  28.122  33.998  1.00  0.00     0.031 C 
ATOM     71  C   UNL A   1      44.358  26.569  32.225  1.00  0.00     0.037 A 
BRANCH  58  72
ATOM     72  C   UNL A   1      43.180  23.878  26.870  1.00  0.00     0.064 A 
ATOM     73  C   UNL A   1      42.702  22.559  27.018  1.00  0.00     0.173 A 
ATOM     74  C   UNL A   1      44.033  24.066  25.764  1.00  0.00     0.173 A 
ATOM     75  F   UNL A   1      41.786  22.247  27.944  1.00  0.00    -0.203 F 
ATOM     76  C   UNL A   1      43.148  21.502  26.219  1.00  0.00     0.198 A 
ATOM     77  C   UNL A   1      44.531  23.001  25.005  1.00  0.00     0.198 A 
ATOM     78  F   UNL A   1      44.359  25.287  25.329  1.00  0.00    -0.203 F 
ATOM     79  F   UNL A   1      42.660  20.269  26.414  1.00  0.00    -0.200 F 
ATOM     80  C   UNL A   1      44.096  21.715  25.241  1.00  0.00     0.200 A 
ATOM     81  F   UNL A   1      45.428  23.238  24.038  1.00  0.00    -0.200 F 
ATOM     82  F   UNL A   1      44.563  20.696  24.508  1.00  0.00    -0.200 F 
ENDBRANCH  58  72
BRANCH  59  83
ATOM     83  C   UNL A   1      40.793  31.450  32.525  1.00  0.00     0.064 A 
ATOM     84  C   UNL A   1      40.677  32.850  32.412  1.00  0.00     0.173 A 
ATOM     85  C   UNL A   1      39.619  30.706  32.681  1.00  0.00     0.173 A 
ATOM     86  F   UNL A   1      41.778  33.609  32.297  1.00  0.00    -0.203 F 
ATOM     87  C   UNL A   1      39.435  33.446  32.227  1.00  0.00     0.198 A 
ATOM     88  C   UNL A   1      38.376  31.318  32.540  1.00  0.00     0.198 A 
ATOM     89  F   UNL A   1      39.671  29.373  32.817  1.00  0.00    -0.203 F 
ATOM     90  F   UNL A   1      39.360  34.748  31.913  1.00  0.00    -0.200 F 
ATOM     91  C   UNL A   1      38.289  32.670  32.243  1.00  0.00     0.200 A 
ATOM     92  F   UNL A   1      37.265  30.570  32.581  1.00  0.00    -0.200 F 
ATOM     93  F   UNL A   1      37.109  33.215  31.914  1.00  0.00    -0.200 F 
ENDBRANCH  59  83
BRANCH  71  94
ATOM     94  C   UNL A   1      44.849  25.472  33.138  1.00  0.00     0.064 A 
ATOM     95  C   UNL A   1      43.987  24.733  33.967  1.00  0.00     0.173 A 
ATOM     96  C   UNL A   1      46.225  25.180  33.283  1.00  0.00     0.173 A 
ATOM     97  F   UNL A   1      42.678  25.016  34.027  1.00  0.00    -0.203 F 
ATOM     98  C   UNL A   1      44.449  23.696  34.781  1.00  0.00     0.198 A 
ATOM     99  C   UNL A   1      46.690  24.185  34.142  1.00  0.00     0.198 A 
ATOM    100  F   UNL A   1      47.163  25.831  32.584  1.00  0.00    -0.203 F 
ATOM    101  F   UNL A   1      43.573  22.964  35.483  1.00  0.00    -0.200 F 
ATOM    102  C   UNL A   1      45.801  23.422  34.868  1.00  0.00     0.200 A 
ATOM    103  F   UNL A   1      48.008  23.965  34.248  1.00  0.00    -0.200 F 
ATOM    104  F   UNL A   1      46.244  22.433  35.654  1.00  0.00    -0.200 F 
ENDBRANCH  71  94
ENDBRANCH  45  46
ENDBRANCH  37  40
ENDBRANCH  35  36
ENDBRANCH  34  35
ENDBRANCH   1  34
TORSDOF 13
ENDMDL
MODEL 3
REMARK VINA RESULT:     -14.7      3.287      9.559
REMARK SMILES Cc1c(NC(=O)c2cccc(-c3cc4ccccc4oc3=O)c2)cccc1C(=O)NCCCNC(=O)c1ccc(-c2c3nc(c(-c4c(F)c(F)c(F)c(F)c4F)c4ccc([nH]4)c(-c4c(F)c(F)c(F)c(F)c4F)c4nc(c(-c5c(F)c(F)c(F)c(F)c5F)c5ccc2[nH]5)C=C4)C=C3)cc1
REMARK SMILES IDX 31 1 30 2 28 3 29 4 27 6 1 7 2 8 3 9 24 10 26 11 25 12 4 13
REMARK SMILES IDX 5 14 6 16 7 17 8 18 23 19 9 20 11 21 10 22 12 23 13 24 21 25
REMARK SMILES IDX 14 26 20 27 22 28 15 29 19 30 16 31 18 32 17 33 32 34 33 35
REMARK SMILES IDX 34 36 35 37 36 39 37 40 38 41 99 42 39 43 98 44 40 45 41 46
REMARK SMILES IDX 42 47 92 48 43 49 97 50 91 51 93 52 44 53 96 54 90 55 89 56
REMARK SMILES IDX 45 58 77 59 57 60 76 61 58 62 61 63 75 64 94 65 59 66 60 67
REMARK SMILES IDX 74 69 95 70 62 71 46 72 47 73 55 74 48 75 49 76 53 77 56 78
REMARK SMILES IDX 50 79 51 80 54 81 52 82 78 83 79 84 87 85 80 86 81 87 85 88
REMARK SMILES IDX 88 89 82 90 83 91 86 92 84 93 63 94 64 95 72 96 65 97 66 98
REMARK SMILES IDX 70 99 73 100 67 101 68 102 71 103 69 104
REMARK H PARENT 30 5 4 15 34 38 93 57 61 68
REMARK Flexibility Score: inf
ROOT
ATOM      1  C   UNL A   1      36.994  22.825  25.624  1.00  0.00     0.118 C 
ENDROOT
BRANCH   1   2
ATOM      2  N   UNL A   1      35.934  21.946  26.114  1.00  0.00    -0.352 N 
ATOM      3  C   UNL A   1      34.614  21.650  25.906  1.00  0.00     0.251 C 
ATOM      4  O   UNL A   1      34.230  20.744  26.661  1.00  0.00    -0.269 OA
ATOM      5  H   UNL A   1      36.287  21.377  26.836  1.00  0.00     0.163 HD
BRANCH   3   6
ATOM      6  C   UNL A   1      33.582  22.234  24.959  1.00  0.00     0.044 A 
ATOM      7  C   UNL A   1      35.065  23.177  23.120  1.00  0.00     0.047 C 
ATOM      8  C   UNL A   1      33.731  22.889  23.715  1.00  0.00    -0.015 A 
ATOM      9  C   UNL A   1      32.597  23.452  23.057  1.00  0.00     0.045 A 
ATOM     10  C   UNL A   1      31.331  23.398  23.634  1.00  0.00     0.026 A 
ATOM     11  C   UNL A   1      32.270  22.208  25.501  1.00  0.00     0.014 A 
ATOM     12  C   UNL A   1      31.169  22.787  24.864  1.00  0.00     0.003 A 
BRANCH   9  13
ATOM     13  N   UNL A   1      32.780  24.049  21.798  1.00  0.00    -0.322 N 
ATOM     14  C   UNL A   1      32.912  25.353  21.389  1.00  0.00     0.255 C 
ATOM     15  H   UNL A   1      32.825  23.400  21.059  1.00  0.00     0.170 HD
ATOM     16  O   UNL A   1      32.879  25.579  20.178  1.00  0.00    -0.269 OA
BRANCH  14  17
ATOM     17  C   UNL A   1      33.216  26.480  22.314  1.00  0.00     0.040 A 
ATOM     18  C   UNL A   1      33.776  27.634  21.755  1.00  0.00     0.014 A 
ATOM     19  C   UNL A   1      33.105  26.384  23.707  1.00  0.00     0.022 A 
ATOM     20  C   UNL A   1      34.166  28.695  22.570  1.00  0.00     0.001 A 
ATOM     21  C   UNL A   1      33.486  27.447  24.544  1.00  0.00    -0.010 A 
ATOM     22  C   UNL A   1      34.009  28.606  23.953  1.00  0.00     0.009 A 
BRANCH  21  23
ATOM     23  C   UNL A   1      33.503  27.363  26.031  1.00  0.00     0.068 A 
ATOM     24  C   UNL A   1      34.202  28.205  26.826  1.00  0.00     0.028 A 
ATOM     25  C   UNL A   1      32.144  27.126  26.628  1.00  0.00     0.344 A 
ATOM     26  C   UNL A   1      33.510  29.499  27.025  1.00  0.00     0.018 A 
ATOM     27  O   UNL A   1      31.402  28.306  26.763  1.00  0.00    -0.422 OA
ATOM     28  O   UNL A   1      31.708  26.019  26.868  1.00  0.00    -0.246 OA
ATOM     29  C   UNL A   1      34.190  30.683  27.289  1.00  0.00     0.012 A 
ATOM     30  C   UNL A   1      32.116  29.518  26.876  1.00  0.00     0.138 A 
ATOM     31  C   UNL A   1      33.475  31.881  27.330  1.00  0.00     0.001 A 
ATOM     32  C   UNL A   1      31.406  30.709  26.862  1.00  0.00     0.048 A 
ATOM     33  C   UNL A   1      32.097  31.899  27.080  1.00  0.00     0.004 A 
ENDBRANCH  21  23
ENDBRANCH  14  17
ENDBRANCH   9  13
ENDBRANCH   3   6
ENDBRANCH   1   2
BRANCH   1  34
ATOM     34  C   UNL A   1      38.296  22.062  25.368  1.00  0.00     0.042 C 
BRANCH  34  35
ATOM     35  C   UNL A   1      39.222  21.901  26.555  1.00  0.00     0.118 C 
BRANCH  35  36
ATOM     36  N   UNL A   1      40.610  22.282  26.294  1.00  0.00    -0.352 N 
ATOM     37  C   UNL A   1      41.132  23.563  26.192  1.00  0.00     0.251 C 
ATOM     38  H   UNL A   1      41.249  21.542  26.178  1.00  0.00     0.163 HD
ATOM     39  O   UNL A   1      42.317  23.761  25.966  1.00  0.00    -0.269 OA
BRANCH  37  40
ATOM     40  C   UNL A   1      40.223  24.687  26.510  1.00  0.00     0.039 A 
ATOM     41  C   UNL A   1      40.577  25.921  25.962  1.00  0.00     0.014 A 
ATOM     42  C   UNL A   1      39.446  24.600  27.662  1.00  0.00     0.014 A 
ATOM     43  C   UNL A   1      40.439  27.059  26.743  1.00  0.00     0.010 A 
ATOM     44  C   UNL A   1      39.405  25.710  28.481  1.00  0.00     0.010 A 
ATOM     45  C   UNL A   1      39.984  26.915  28.053  1.00  0.00    -0.014 A 
BRANCH  45  46
ATOM     46  C   UNL A   1      40.108  27.969  29.049  1.00  0.00     0.031 A 
ATOM     47  C   UNL A   1      39.108  29.051  29.046  1.00  0.00     0.074 A 
ATOM     48  C   UNL A   1      41.105  27.975  29.963  1.00  0.00     0.049 A 
ATOM     49  N   UNL A   1      39.319  30.236  29.502  1.00  0.00    -0.248 NA
ATOM     50  C   UNL A   1      37.790  28.885  28.451  1.00  0.00     0.031 C 
ATOM     51  C   UNL A   1      41.222  28.850  31.129  1.00  0.00     0.029 A 
ATOM     52  N   UNL A   1      42.338  27.301  29.915  1.00  0.00    -0.354 N 
ATOM     53  C   UNL A   1      38.121  30.911  29.492  1.00  0.00     0.074 A 
ATOM     54  C   UNL A   1      37.217  30.047  28.769  1.00  0.00     0.031 C 
ATOM     55  C   UNL A   1      42.508  28.910  31.502  1.00  0.00     0.029 A 
ATOM     56  C   UNL A   1      43.281  28.175  30.522  1.00  0.00     0.049 A 
ATOM     57  H   UNL A   1      42.511  26.407  29.539  1.00  0.00     0.167 HD
ATOM     58  C   UNL A   1      38.013  32.073  30.198  1.00  0.00     0.037 A 
ATOM     59  C   UNL A   1      44.345  28.664  29.818  1.00  0.00     0.037 A 
ATOM     60  C   UNL A   1      39.303  32.462  30.776  1.00  0.00     0.049 A 
ATOM     61  C   UNL A   1      44.323  30.163  29.619  1.00  0.00     0.074 A 
ATOM     62  C   UNL A   1      39.887  32.323  32.025  1.00  0.00     0.029 A 
ATOM     63  N   UNL A   1      40.331  32.821  29.920  1.00  0.00    -0.354 N 
ATOM     64  N   UNL A   1      43.408  30.963  30.093  1.00  0.00    -0.248 NA
ATOM     65  C   UNL A   1      45.276  30.856  28.752  1.00  0.00     0.031 C 
ATOM     66  C   UNL A   1      41.279  32.608  31.903  1.00  0.00     0.029 A 
ATOM     67  C   UNL A   1      41.540  32.935  30.585  1.00  0.00     0.049 A 
ATOM     68  H   UNL A   1      40.217  32.976  28.955  1.00  0.00     0.167 HD
ATOM     69  C   UNL A   1      43.585  32.216  29.567  1.00  0.00     0.074 A 
ATOM     70  C   UNL A   1      44.760  32.094  28.722  1.00  0.00     0.031 C 
ATOM     71  C   UNL A   1      42.733  33.255  29.817  1.00  0.00     0.037 A 
BRANCH  58  72
ATOM     72  C   UNL A   1      36.696  32.719  30.571  1.00  0.00     0.064 A 
ATOM     73  C   UNL A   1      35.959  33.443  29.610  1.00  0.00     0.173 A 
ATOM     74  C   UNL A   1      36.129  32.721  31.860  1.00  0.00     0.173 A 
ATOM     75  F   UNL A   1      36.298  33.434  28.315  1.00  0.00    -0.203 F 
ATOM     76  C   UNL A   1      34.838  34.211  29.943  1.00  0.00     0.198 A 
ATOM     77  C   UNL A   1      35.049  33.538  32.209  1.00  0.00     0.198 A 
ATOM     78  F   UNL A   1      36.548  31.880  32.811  1.00  0.00    -0.203 F 
ATOM     79  F   UNL A   1      34.185  34.883  28.986  1.00  0.00    -0.200 F 
ATOM     80  C   UNL A   1      34.410  34.294  31.251  1.00  0.00     0.200 A 
ATOM     81  F   UNL A   1      34.630  33.577  33.482  1.00  0.00    -0.200 F 
ATOM     82  F   UNL A   1      33.369  35.070  31.581  1.00  0.00    -0.200 F 
ENDBRANCH  58  72
BRANCH  59  83
ATOM     83  C   UNL A   1      44.853  27.672  28.834  1.00  0.00     0.064 A 
ATOM     84  C   UNL A   1      44.476  27.855  27.489  1.00  0.00     0.173 A 
ATOM     85  C   UNL A   1      46.016  26.940  29.095  1.00  0.00     0.173 A 
ATOM     86  F   UNL A   1      43.348  28.520  27.191  1.00  0.00    -0.203 F 
ATOM     87  C   UNL A   1      45.345  27.523  26.457  1.00  0.00     0.198 A 
ATOM     88  C   UNL A   1      46.861  26.570  28.052  1.00  0.00     0.198 A 
ATOM     89  F   UNL A   1      46.411  26.716  30.356  1.00  0.00    -0.203 F 
ATOM     90  F   UNL A   1      45.061  27.892  25.199  1.00  0.00    -0.200 F 
ATOM     91  C   UNL A   1      46.560  26.924  26.745  1.00  0.00     0.200 A 
ATOM     92  F   UNL A   1      48.025  25.968  28.329  1.00  0.00    -0.200 F 
ATOM     93  F   UNL A   1      47.463  26.743  25.771  1.00  0.00    -0.200 F 
ENDBRANCH  59  83
BRANCH  71  94
ATOM     94  C   UNL A   1      42.962  34.656  29.305  1.00  0.00     0.064 A 
ATOM     95  C   UNL A   1      42.958  34.971  27.934  1.00  0.00     0.173 A 
ATOM     96  C   UNL A   1      43.284  35.726  30.170  1.00  0.00     0.173 A 
ATOM     97  F   UNL A   1      42.808  34.014  27.007  1.00  0.00    -0.203 F 
ATOM     98  C   UNL A   1      43.135  36.277  27.473  1.00  0.00     0.198 A 
ATOM     99  C   UNL A   1      43.521  37.018  29.703  1.00  0.00     0.198 A 
ATOM    100  F   UNL A   1      43.361  35.563  31.497  1.00  0.00    -0.203 F 
ATOM    101  F   UNL A   1      43.032  36.538  26.163  1.00  0.00    -0.200 F 
ATOM    102  C   UNL A   1      43.416  37.301  28.358  1.00  0.00     0.200 A 
ATOM    103  F   UNL A   1      43.839  37.988  30.572  1.00  0.00    -0.200 F 
ATOM    104  F   UNL A   1      43.593  38.552  27.916  1.00  0.00    -0.200 F 
ENDBRANCH  71  94
ENDBRANCH  45  46
ENDBRANCH  37  40
ENDBRANCH  35  36
ENDBRANCH  34  35
ENDBRANCH   1  34
TORSDOF 13
ENDMDL
