MODEL 1
REMARK VINA RESULT:     -13.7      0.000      0.000
REMARK SMILES CN(C)C(=O)C[NH+]1CC[NH+]([C@@H](C(=O)NCCCNC(=O)c2ccc(-c3c4nc(c(-c5c(F)c(F)c(F)c(F)c5F)c5ccc([nH]5)c(-c5c(F)c(F)c(F)c(F)c5F)c5nc(c(-c6c(F)c(F)c(F)c(F)c6F)c6ccc3[nH]6)C=C5)C=C4)cc2)c2c[nH]c3ccc(Cl)cc23)CC1
REMARK SMILES IDX 15 1 14 2 12 3 13 4 11 6 10 7 7 8 8 9 95 10 9 12 94 13 6 15
REMARK SMILES IDX 4 16 1 17 2 18 3 19 5 20 84 21 85 22 93 23 86 24 87 25 92 26
REMARK SMILES IDX 88 28 90 29 89 30 91 31 16 32 17 33 18 34 19 35 20 37 21 38
REMARK SMILES IDX 22 39 83 40 23 41 82 42 24 43 25 44 26 45 76 46 27 47 81 48
REMARK SMILES IDX 75 49 77 50 28 51 80 52 74 53 73 54 29 56 61 57 41 58 60 59
REMARK SMILES IDX 42 60 45 61 59 62 78 63 43 64 44 65 58 67 79 68 46 69 30 70
REMARK SMILES IDX 31 71 39 72 32 73 33 74 37 75 40 76 34 77 35 78 38 79 36 80
REMARK SMILES IDX 62 81 63 82 71 83 64 84 65 85 69 86 72 87 66 88 67 89 70 90
REMARK SMILES IDX 68 91 47 92 48 93 56 94 49 95 50 96 54 97 57 98 51 99 52 100
REMARK SMILES IDX 55 101 53 102
REMARK H PARENT 14 5 7 11 10 14 86 27 18 36 77 55 45 66
REMARK Flexibility Score: inf
ROOT
ATOM      1  C   UNL A   1      31.266  30.887  25.882  1.00  0.00     0.118 C 
ENDROOT
BRANCH   1   2
ATOM      2  N   UNL A   1      32.537  30.179  25.956  1.00  0.00    -0.351 N 
ATOM      3  C   UNL A   1      33.032  28.975  25.523  1.00  0.00     0.283 C 
ATOM      4  O   UNL A   1      34.246  28.873  25.724  1.00  0.00    -0.268 OA
ATOM      5  H   UNL A   1      33.217  30.698  26.442  1.00  0.00     0.163 HD
BRANCH   3   6
ATOM      6  C   UNL A   1      32.186  27.878  24.801  1.00  0.00     0.308 C 
BRANCH   6   7
ATOM      7  N   UNL A   1      32.825  26.506  24.616  1.00  0.00    -0.312 N 
ATOM      8  N   UNL A   1      30.885  24.452  25.606  1.00  0.00    -0.318 N 
ATOM      9  C   UNL A   1      31.741  25.254  26.470  1.00  0.00     0.325 C 
ATOM     10  C   UNL A   1      30.911  24.842  24.192  1.00  0.00     0.325 C 
ATOM     11  H   UNL A   1      29.933  24.707  25.869  1.00  0.00     0.348 HD
ATOM     12  C   UNL A   1      33.048  25.698  25.824  1.00  0.00     0.325 C 
ATOM     13  C   UNL A   1      32.190  25.580  23.680  1.00  0.00     0.325 C 
ATOM     14  H   UNL A   1      33.703  26.861  24.237  1.00  0.00     0.349 HD
BRANCH   8  15
ATOM     15  C   UNL A   1      30.897  23.024  25.899  1.00  0.00     0.364 C 
BRANCH  15  16
ATOM     16  C   UNL A   1      32.129  22.662  26.754  1.00  0.00     0.277 C 
ATOM     17  C   UNL A   1      34.344  21.676  26.981  1.00  0.00     0.146 C 
ATOM     18  N   UNL A   1      33.249  22.104  26.133  1.00  0.00    -0.344 N 
ATOM     19  C   UNL A   1      33.507  22.158  24.703  1.00  0.00     0.146 C 
ATOM     20  O   UNL A   1      32.092  22.832  27.979  1.00  0.00    -0.268 OA
ENDBRANCH  15  16
ENDBRANCH   8  15
ENDBRANCH   6   7
BRANCH   6  21
ATOM     21  C   UNL A   1      31.559  28.278  23.423  1.00  0.00     0.044 A 
ATOM     22  C   UNL A   1      32.291  28.943  22.442  1.00  0.00     0.094 A 
ATOM     23  C   UNL A   1      30.166  28.444  23.017  1.00  0.00     0.011 A 
ATOM     24  N   UNL A   1      31.436  29.800  21.795  1.00  0.00    -0.361 N 
ATOM     25  C   UNL A   1      30.149  29.607  22.237  1.00  0.00     0.046 A 
ATOM     26  C   UNL A   1      28.904  27.914  23.385  1.00  0.00     0.031 A 
ATOM     27  H   UNL A   1      31.705  30.458  21.113  1.00  0.00     0.166 HD
ATOM     28  C   UNL A   1      29.001  30.393  22.056  1.00  0.00     0.028 A 
ATOM     29  C   UNL A   1      27.736  28.643  23.132  1.00  0.00     0.041 A 
ATOM     30  C   UNL A   1      27.790  29.900  22.545  1.00  0.00     0.022 A 
ATOM     31  Cl  UNL A   1      26.211  28.007  23.623  1.00  0.00    -0.084 Cl
ENDBRANCH   6  21
ENDBRANCH   3   6
ENDBRANCH   1   2
BRANCH   1  32
ATOM     32  C   UNL A   1      31.248  32.320  26.479  1.00  0.00     0.042 C 
BRANCH  32  33
ATOM     33  C   UNL A   1      32.504  32.819  27.213  1.00  0.00     0.118 C 
BRANCH  33  34
ATOM     34  N   UNL A   1      32.383  34.213  27.594  1.00  0.00    -0.352 N 
ATOM     35  C   UNL A   1      32.972  34.936  28.603  1.00  0.00     0.251 C 
ATOM     36  H   UNL A   1      31.769  34.735  27.029  1.00  0.00     0.163 HD
ATOM     37  O   UNL A   1      32.544  36.067  28.826  1.00  0.00    -0.269 OA
BRANCH  35  38
ATOM     38  C   UNL A   1      34.096  34.423  29.434  1.00  0.00     0.039 A 
ATOM     39  C   UNL A   1      35.382  34.458  28.873  1.00  0.00     0.014 A 
ATOM     40  C   UNL A   1      33.915  33.784  30.664  1.00  0.00     0.014 A 
ATOM     41  C   UNL A   1      36.469  33.862  29.526  1.00  0.00     0.010 A 
ATOM     42  C   UNL A   1      35.012  33.216  31.337  1.00  0.00     0.010 A 
ATOM     43  C   UNL A   1      36.296  33.230  30.766  1.00  0.00    -0.014 A 
BRANCH  43  44
ATOM     44  C   UNL A   1      37.452  32.573  31.443  1.00  0.00     0.031 A 
ATOM     45  C   UNL A   1      38.183  31.427  30.795  1.00  0.00     0.074 A 
ATOM     46  C   UNL A   1      37.858  33.005  32.654  1.00  0.00     0.049 A 
ATOM     47  N   UNL A   1      39.206  30.734  31.236  1.00  0.00    -0.248 NA
ATOM     48  C   UNL A   1      37.698  30.998  29.474  1.00  0.00     0.031 C 
ATOM     49  C   UNL A   1      37.242  34.096  33.406  1.00  0.00     0.029 A 
ATOM     50  N   UNL A   1      38.878  32.571  33.467  1.00  0.00    -0.354 N 
ATOM     51  C   UNL A   1      39.478  29.784  30.260  1.00  0.00     0.074 A 
ATOM     52  C   UNL A   1      38.496  29.973  29.212  1.00  0.00     0.031 C 
ATOM     53  C   UNL A   1      37.895  34.248  34.570  1.00  0.00     0.029 A 
ATOM     54  C   UNL A   1      38.955  33.246  34.660  1.00  0.00     0.049 A 
ATOM     55  H   UNL A   1      39.496  31.846  33.217  1.00  0.00     0.167 HD
ATOM     56  C   UNL A   1      40.461  28.850  30.232  1.00  0.00     0.037 A 
ATOM     57  C   UNL A   1      39.775  33.072  35.717  1.00  0.00     0.037 A 
ATOM     58  C   UNL A   1      41.450  28.664  31.264  1.00  0.00     0.049 A 
ATOM     59  C   UNL A   1      40.841  32.011  35.672  1.00  0.00     0.074 A 
ATOM     60  C   UNL A   1      42.516  27.779  31.289  1.00  0.00     0.029 A 
ATOM     61  N   UNL A   1      41.491  29.365  32.460  1.00  0.00    -0.354 N 
ATOM     62  N   UNL A   1      41.128  31.164  34.716  1.00  0.00    -0.248 NA
ATOM     63  C   UNL A   1      41.704  31.888  36.857  1.00  0.00     0.031 C 
ATOM     64  C   UNL A   1      43.171  27.911  32.519  1.00  0.00     0.029 A 
ATOM     65  C   UNL A   1      42.545  28.914  33.239  1.00  0.00     0.049 A 
ATOM     66  H   UNL A   1      40.862  30.079  32.717  1.00  0.00     0.167 HD
ATOM     67  C   UNL A   1      42.215  30.428  35.168  1.00  0.00     0.074 A 
ATOM     68  C   UNL A   1      42.547  30.936  36.482  1.00  0.00     0.031 C 
ATOM     69  C   UNL A   1      42.877  29.423  34.545  1.00  0.00     0.037 A 
BRANCH  56  70
ATOM     70  C   UNL A   1      40.517  27.934  29.042  1.00  0.00     0.064 A 
ATOM     71  C   UNL A   1      39.754  26.758  28.983  1.00  0.00     0.173 A 
ATOM     72  C   UNL A   1      41.297  28.267  27.925  1.00  0.00     0.173 A 
ATOM     73  F   UNL A   1      38.993  26.393  30.025  1.00  0.00    -0.203 F 
ATOM     74  C   UNL A   1      39.793  25.935  27.859  1.00  0.00     0.198 A 
ATOM     75  C   UNL A   1      41.311  27.457  26.792  1.00  0.00     0.198 A 
ATOM     76  F   UNL A   1      42.032  29.389  27.923  1.00  0.00    -0.203 F 
ATOM     77  F   UNL A   1      39.087  24.796  27.840  1.00  0.00    -0.200 F 
ATOM     78  C   UNL A   1      40.565  26.288  26.763  1.00  0.00     0.200 A 
ATOM     79  F   UNL A   1      42.046  27.808  25.727  1.00  0.00    -0.200 F 
ATOM     80  F   UNL A   1      40.594  25.500  25.680  1.00  0.00    -0.200 F 
ENDBRANCH  56  70
BRANCH  57  81
ATOM     81  C   UNL A   1      39.622  33.939  36.913  1.00  0.00     0.064 A 
ATOM     82  C   UNL A   1      38.854  33.525  38.010  1.00  0.00     0.173 A 
ATOM     83  C   UNL A   1      40.237  35.198  36.981  1.00  0.00     0.173 A 
ATOM     84  F   UNL A   1      38.224  32.341  37.979  1.00  0.00    -0.203 F 
ATOM     85  C   UNL A   1      38.698  34.343  39.127  1.00  0.00     0.198 A 
ATOM     86  C   UNL A   1      40.102  36.003  38.110  1.00  0.00     0.198 A 
ATOM     87  F   UNL A   1      40.979  35.640  35.957  1.00  0.00    -0.203 F 
ATOM     88  F   UNL A   1      37.926  33.942  40.146  1.00  0.00    -0.200 F 
ATOM     89  C   UNL A   1      39.328  35.578  39.180  1.00  0.00     0.200 A 
ATOM     90  F   UNL A   1      40.721  37.190  38.162  1.00  0.00    -0.200 F 
ATOM     91  F   UNL A   1      39.182  36.361  40.257  1.00  0.00    -0.200 F 
ENDBRANCH  57  81
BRANCH  69  92
ATOM     92  C   UNL A   1      44.053  28.821  35.260  1.00  0.00     0.064 A 
ATOM     93  C   UNL A   1      45.356  29.310  35.077  1.00  0.00     0.173 A 
ATOM     94  C   UNL A   1      43.870  27.768  36.169  1.00  0.00     0.173 A 
ATOM     95  F   UNL A   1      45.588  30.305  34.207  1.00  0.00    -0.203 F 
ATOM     96  C   UNL A   1      46.433  28.750  35.759  1.00  0.00     0.198 A 
ATOM     97  C   UNL A   1      44.946  27.230  36.870  1.00  0.00     0.198 A 
ATOM     98  F   UNL A   1      42.646  27.267  36.385  1.00  0.00    -0.203 F 
ATOM     99  F   UNL A   1      47.674  29.204  35.536  1.00  0.00    -0.200 F 
ATOM    100  C   UNL A   1      46.227  27.717  36.661  1.00  0.00     0.200 A 
ATOM    101  F   UNL A   1      44.743  26.238  37.749  1.00  0.00    -0.200 F 
ATOM    102  F   UNL A   1      47.264  27.185  37.322  1.00  0.00    -0.200 F 
ENDBRANCH  69  92
ENDBRANCH  43  44
ENDBRANCH  35  38
ENDBRANCH  33  34
ENDBRANCH  32  33
ENDBRANCH   1  32
TORSDOF 14
ENDMDL
MODEL 2
REMARK VINA RESULT:     -13.4      0.546      7.152
REMARK SMILES CN(C)C(=O)C[NH+]1CC[NH+]([C@@H](C(=O)NCCCNC(=O)c2ccc(-c3c4nc(c(-c5c(F)c(F)c(F)c(F)c5F)c5ccc([nH]5)c(-c5c(F)c(F)c(F)c(F)c5F)c5nc(c(-c6c(F)c(F)c(F)c(F)c6F)c6ccc3[nH]6)C=C5)C=C4)cc2)c2c[nH]c3ccc(Cl)cc23)CC1
REMARK SMILES IDX 15 1 14 2 12 3 13 4 11 6 10 7 7 8 8 9 95 10 9 12 94 13 6 15
REMARK SMILES IDX 4 16 1 17 2 18 3 19 5 20 84 21 85 22 93 23 86 24 87 25 92 26
REMARK SMILES IDX 88 28 90 29 89 30 91 31 16 32 17 33 18 34 19 35 20 37 21 38
REMARK SMILES IDX 22 39 83 40 23 41 82 42 24 43 25 44 26 45 76 46 27 47 81 48
REMARK SMILES IDX 75 49 77 50 28 51 80 52 74 53 73 54 29 56 61 57 41 58 60 59
REMARK SMILES IDX 42 60 45 61 59 62 78 63 43 64 44 65 58 67 79 68 46 69 30 70
REMARK SMILES IDX 31 71 39 72 32 73 33 74 37 75 40 76 34 77 35 78 38 79 36 80
REMARK SMILES IDX 62 81 63 82 71 83 64 84 65 85 69 86 72 87 66 88 67 89 70 90
REMARK SMILES IDX 68 91 47 92 48 93 56 94 49 95 50 96 54 97 57 98 51 99 52 100
REMARK SMILES IDX 55 101 53 102
REMARK H PARENT 14 5 7 11 10 14 86 27 18 36 77 55 45 66
REMARK Flexibility Score: inf
ROOT
ATOM      1  C   UNL A   1      31.322  30.825  25.846  1.00  0.00     0.118 C 
ENDROOT
BRANCH   1   2
ATOM      2  N   UNL A   1      32.575  30.085  25.905  1.00  0.00    -0.351 N 
ATOM      3  C   UNL A   1      33.035  28.871  25.460  1.00  0.00     0.283 C 
ATOM      4  O   UNL A   1      34.247  28.737  25.650  1.00  0.00    -0.268 OA
ATOM      5  H   UNL A   1      33.272  30.583  26.389  1.00  0.00     0.163 HD
BRANCH   3   6
ATOM      6  C   UNL A   1      32.155  27.801  24.739  1.00  0.00     0.308 C 
BRANCH   6   7
ATOM      7  N   UNL A   1      32.761  26.418  24.528  1.00  0.00    -0.312 N 
ATOM      8  N   UNL A   1      30.858  24.404  25.660  1.00  0.00    -0.318 N 
ATOM      9  C   UNL A   1      31.778  25.201  26.460  1.00  0.00     0.325 C 
ATOM     10  C   UNL A   1      30.801  24.779  24.243  1.00  0.00     0.325 C 
ATOM     11  H   UNL A   1      29.929  24.675  25.980  1.00  0.00     0.348 HD
ATOM     12  C   UNL A   1      33.048  25.618  25.728  1.00  0.00     0.325 C 
ATOM     13  C   UNL A   1      32.055  25.493  23.644  1.00  0.00     0.325 C 
ATOM     14  H   UNL A   1      33.619  26.756  24.092  1.00  0.00     0.349 HD
BRANCH   8  15
ATOM     15  C   UNL A   1      30.868  22.979  25.967  1.00  0.00     0.364 C 
BRANCH  15  16
ATOM     16  C   UNL A   1      32.143  22.608  26.753  1.00  0.00     0.277 C 
ATOM     17  C   UNL A   1      34.355  21.596  26.860  1.00  0.00     0.146 C 
ATOM     18  N   UNL A   1      33.219  22.031  26.072  1.00  0.00    -0.344 N 
ATOM     19  C   UNL A   1      33.394  22.071  24.630  1.00  0.00     0.146 C 
ATOM     20  O   UNL A   1      32.179  22.787  27.976  1.00  0.00    -0.268 OA
ENDBRANCH  15  16
ENDBRANCH   8  15
ENDBRANCH   6   7
BRANCH   6  21
ATOM     21  C   UNL A   1      31.517  28.231  23.374  1.00  0.00     0.044 A 
ATOM     22  C   UNL A   1      32.245  28.906  22.397  1.00  0.00     0.094 A 
ATOM     23  C   UNL A   1      30.121  28.416  22.986  1.00  0.00     0.011 A 
ATOM     24  N   UNL A   1      31.391  29.782  21.774  1.00  0.00    -0.361 N 
ATOM     25  C   UNL A   1      30.107  29.593  22.226  1.00  0.00     0.046 A 
ATOM     26  C   UNL A   1      28.859  27.892  23.359  1.00  0.00     0.031 A 
ATOM     27  H   UNL A   1      31.659  30.449  21.100  1.00  0.00     0.166 HD
ATOM     28  C   UNL A   1      28.964  30.392  22.072  1.00  0.00     0.028 A 
ATOM     29  C   UNL A   1      27.695  28.635  23.131  1.00  0.00     0.041 A 
ATOM     30  C   UNL A   1      27.754  29.902  22.565  1.00  0.00     0.022 A 
ATOM     31  Cl  UNL A   1      26.169  28.005  23.628  1.00  0.00    -0.084 Cl
ENDBRANCH   6  21
ENDBRANCH   3   6
ENDBRANCH   1   2
BRANCH   1  32
ATOM     32  C   UNL A   1      31.325  32.225  26.518  1.00  0.00     0.042 C 
BRANCH  32  33
ATOM     33  C   UNL A   1      32.641  32.737  27.128  1.00  0.00     0.118 C 
BRANCH  33  34
ATOM     34  N   UNL A   1      32.509  34.094  27.625  1.00  0.00    -0.352 N 
ATOM     35  C   UNL A   1      33.102  34.738  28.683  1.00  0.00     0.251 C 
ATOM     36  H   UNL A   1      31.883  34.653  27.112  1.00  0.00     0.163 HD
ATOM     37  O   UNL A   1      32.664  35.840  29.004  1.00  0.00    -0.269 OA
BRANCH  35  38
ATOM     38  C   UNL A   1      34.243  34.171  29.456  1.00  0.00     0.039 A 
ATOM     39  C   UNL A   1      35.533  34.375  28.944  1.00  0.00     0.014 A 
ATOM     40  C   UNL A   1      34.082  33.336  30.565  1.00  0.00     0.014 A 
ATOM     41  C   UNL A   1      36.645  33.753  29.528  1.00  0.00     0.010 A 
ATOM     42  C   UNL A   1      35.201  32.739  31.172  1.00  0.00     0.010 A 
ATOM     43  C   UNL A   1      36.492  32.923  30.648  1.00  0.00    -0.014 A 
BRANCH  43  44
ATOM     44  C   UNL A   1      37.676  32.242  31.247  1.00  0.00     0.031 A 
ATOM     45  C   UNL A   1      38.188  32.630  32.610  1.00  0.00     0.074 A 
ATOM     46  C   UNL A   1      38.304  31.261  30.569  1.00  0.00     0.049 A 
ATOM     47  N   UNL A   1      39.204  32.149  33.287  1.00  0.00    -0.248 NA
ATOM     48  C   UNL A   1      37.463  33.704  33.305  1.00  0.00     0.031 C 
ATOM     49  C   UNL A   1      37.929  30.786  29.239  1.00  0.00     0.029 A 
ATOM     50  N   UNL A   1      39.398  30.497  30.902  1.00  0.00    -0.354 N 
ATOM     51  C   UNL A   1      39.249  32.867  34.475  1.00  0.00     0.074 A 
ATOM     52  C   UNL A   1      38.172  33.834  34.418  1.00  0.00     0.031 C 
ATOM     53  C   UNL A   1      38.775  29.812  28.868  1.00  0.00     0.029 A 
ATOM     54  C   UNL A   1      39.771  29.614  29.919  1.00  0.00     0.049 A 
ATOM     55  H   UNL A   1      39.868  30.573  31.764  1.00  0.00     0.167 HD
ATOM     56  C   UNL A   1      40.099  32.727  35.522  1.00  0.00     0.037 A 
ATOM     57  C   UNL A   1      40.806  28.751  29.859  1.00  0.00     0.037 A 
ATOM     58  C   UNL A   1      41.165  31.758  35.594  1.00  0.00     0.049 A 
ATOM     59  C   UNL A   1      41.752  28.632  31.023  1.00  0.00     0.074 A 
ATOM     60  C   UNL A   1      42.037  31.510  36.642  1.00  0.00     0.029 A 
ATOM     61  N   UNL A   1      41.514  30.886  34.574  1.00  0.00    -0.354 N 
ATOM     62  N   UNL A   1      41.743  29.271  32.167  1.00  0.00    -0.248 NA
ATOM     63  C   UNL A   1      42.850  27.663  30.889  1.00  0.00     0.031 C 
ATOM     64  C   UNL A   1      42.943  30.522  36.238  1.00  0.00     0.029 A 
ATOM     65  C   UNL A   1      42.603  30.119  34.958  1.00  0.00     0.049 A 
ATOM     66  H   UNL A   1      41.055  30.821  33.705  1.00  0.00     0.167 HD
ATOM     67  C   UNL A   1      42.811  28.767  32.895  1.00  0.00     0.074 A 
ATOM     68  C   UNL A   1      43.441  27.758  32.072  1.00  0.00     0.031 C 
ATOM     69  C   UNL A   1      43.228  29.111  34.139  1.00  0.00     0.037 A 
BRANCH  56  70
ATOM     70  C   UNL A   1      39.925  33.656  36.690  1.00  0.00     0.064 A 
ATOM     71  C   UNL A   1      40.572  34.899  36.744  1.00  0.00     0.173 A 
ATOM     72  C   UNL A   1      39.053  33.324  37.738  1.00  0.00     0.173 A 
ATOM     73  F   UNL A   1      41.417  35.264  35.768  1.00  0.00    -0.203 F 
ATOM     74  C   UNL A   1      40.375  35.763  37.819  1.00  0.00     0.198 A 
ATOM     75  C   UNL A   1      38.837  34.202  38.797  1.00  0.00     0.198 A 
ATOM     76  F   UNL A   1      38.396  32.155  37.728  1.00  0.00    -0.203 F 
ATOM     77  F   UNL A   1      41.035  36.929  37.870  1.00  0.00    -0.200 F 
ATOM     78  C   UNL A   1      39.504  35.418  38.841  1.00  0.00     0.200 A 
ATOM     79  F   UNL A   1      37.982  33.874  39.776  1.00  0.00    -0.200 F 
ATOM     80  F   UNL A   1      39.309  36.254  39.869  1.00  0.00    -0.200 F 
ENDBRANCH  56  70
BRANCH  57  81
ATOM     81  C   UNL A   1      40.997  27.919  28.643  1.00  0.00     0.064 A 
ATOM     82  C   UNL A   1      41.845  28.337  27.608  1.00  0.00     0.173 A 
ATOM     83  C   UNL A   1      40.334  26.693  28.492  1.00  0.00     0.173 A 
ATOM     84  F   UNL A   1      42.478  29.517  27.696  1.00  0.00    -0.203 F 
ATOM     85  C   UNL A   1      42.014  27.565  26.462  1.00  0.00     0.198 A 
ATOM     86  C   UNL A   1      40.526  25.908  27.357  1.00  0.00     0.198 A 
ATOM     87  F   UNL A   1      39.511  26.250  29.452  1.00  0.00    -0.203 F 
ATOM     88  F   UNL A   1      42.798  28.006  25.468  1.00  0.00    -0.200 F 
ATOM     89  C   UNL A   1      41.360  26.347  26.339  1.00  0.00     0.200 A 
ATOM     90  F   UNL A   1      39.901  24.728  27.247  1.00  0.00    -0.200 F 
ATOM     91  F   UNL A   1      41.528  25.601  25.239  1.00  0.00    -0.200 F 
ENDBRANCH  57  81
BRANCH  69  92
ATOM     92  C   UNL A   1      44.404  28.369  34.706  1.00  0.00     0.064 A 
ATOM     93  C   UNL A   1      45.714  28.855  34.575  1.00  0.00     0.173 A 
ATOM     94  C   UNL A   1      44.215  27.177  35.423  1.00  0.00     0.173 A 
ATOM     95  F   UNL A   1      45.951  29.981  33.885  1.00  0.00    -0.203 F 
ATOM     96  C   UNL A   1      46.792  28.161  35.120  1.00  0.00     0.198 A 
ATOM     97  C   UNL A   1      45.293  26.502  35.990  1.00  0.00     0.198 A 
ATOM     98  F   UNL A   1      42.983  26.673  35.582  1.00  0.00    -0.203 F 
ATOM     99  F   UNL A   1      48.039  28.620  34.945  1.00  0.00    -0.200 F 
ATOM    100  C   UNL A   1      46.581  26.991  35.833  1.00  0.00     0.200 A 
ATOM    101  F   UNL A   1      45.085  25.377  36.687  1.00  0.00    -0.200 F 
ATOM    102  F   UNL A   1      47.618  26.329  36.362  1.00  0.00    -0.200 F 
ENDBRANCH  69  92
ENDBRANCH  43  44
ENDBRANCH  35  38
ENDBRANCH  33  34
ENDBRANCH  32  33
ENDBRANCH   1  32
TORSDOF 14
ENDMDL
MODEL 3
REMARK VINA RESULT:     -13.3      2.096      7.563
REMARK SMILES CN(C)C(=O)C[NH+]1CC[NH+]([C@@H](C(=O)NCCCNC(=O)c2ccc(-c3c4nc(c(-c5c(F)c(F)c(F)c(F)c5F)c5ccc([nH]5)c(-c5c(F)c(F)c(F)c(F)c5F)c5nc(c(-c6c(F)c(F)c(F)c(F)c6F)c6ccc3[nH]6)C=C5)C=C4)cc2)c2c[nH]c3ccc(Cl)cc23)CC1
REMARK SMILES IDX 15 1 14 2 12 3 13 4 11 6 10 7 7 8 8 9 95 10 9 12 94 13 6 15
REMARK SMILES IDX 4 16 1 17 2 18 3 19 5 20 84 21 85 22 93 23 86 24 87 25 92 26
REMARK SMILES IDX 88 28 90 29 89 30 91 31 16 32 17 33 18 34 19 35 20 37 21 38
REMARK SMILES IDX 22 39 83 40 23 41 82 42 24 43 25 44 26 45 76 46 27 47 81 48
REMARK SMILES IDX 75 49 77 50 28 51 80 52 74 53 73 54 29 56 61 57 41 58 60 59
REMARK SMILES IDX 42 60 45 61 59 62 78 63 43 64 44 65 58 67 79 68 46 69 30 70
REMARK SMILES IDX 31 71 39 72 32 73 33 74 37 75 40 76 34 77 35 78 38 79 36 80
REMARK SMILES IDX 62 81 63 82 71 83 64 84 65 85 69 86 72 87 66 88 67 89 70 90
REMARK SMILES IDX 68 91 47 92 48 93 56 94 49 95 50 96 54 97 57 98 51 99 52 100
REMARK SMILES IDX 55 101 53 102
REMARK H PARENT 14 5 7 11 10 14 86 27 18 36 77 55 45 66
REMARK Flexibility Score: inf
ROOT
ATOM      1  C   UNL A   1      32.438  27.275  26.493  1.00  0.00     0.118 C 
ENDROOT
BRANCH   1   2
ATOM      2  N   UNL A   1      31.368  26.294  26.617  1.00  0.00    -0.351 N 
ATOM      3  C   UNL A   1      30.932  25.203  25.909  1.00  0.00     0.283 C 
ATOM      4  O   UNL A   1      30.032  24.597  26.499  1.00  0.00    -0.268 OA
ATOM      5  H   UNL A   1      30.814  26.457  27.414  1.00  0.00     0.163 HD
BRANCH   3   6
ATOM      6  C   UNL A   1      31.534  24.732  24.548  1.00  0.00     0.308 C 
BRANCH   6   7
ATOM      7  N   UNL A   1      32.945  24.153  24.565  1.00  0.00    -0.312 N 
ATOM      8  N   UNL A   1      32.726  21.230  25.172  1.00  0.00    -0.318 N 
ATOM      9  C   UNL A   1      32.641  22.284  26.175  1.00  0.00     0.325 C 
ATOM     10  C   UNL A   1      32.759  21.709  23.787  1.00  0.00     0.325 C 
ATOM     11  H   UNL A   1      31.821  20.763  25.205  1.00  0.00     0.348 HD
ATOM     12  C   UNL A   1      33.411  23.551  25.823  1.00  0.00     0.325 C 
ATOM     13  C   UNL A   1      33.286  23.161  23.547  1.00  0.00     0.325 C 
ATOM     14  H   UNL A   1      33.414  25.040  24.380  1.00  0.00     0.349 HD
BRANCH   8  15
ATOM     15  C   UNL A   1      33.630  20.139  25.517  1.00  0.00     0.364 C 
BRANCH  15  16
ATOM     16  C   UNL A   1      33.151  18.821  24.876  1.00  0.00     0.277 C 
ATOM     17  C   UNL A   1      33.600  16.770  23.642  1.00  0.00     0.146 C 
ATOM     18  N   UNL A   1      34.094  17.945  24.332  1.00  0.00    -0.344 N 
ATOM     19  C   UNL A   1      35.517  17.985  24.627  1.00  0.00     0.146 C 
ATOM     20  O   UNL A   1      31.939  18.577  24.815  1.00  0.00    -0.268 OA
ENDBRANCH  15  16
ENDBRANCH   8  15
ENDBRANCH   6   7
BRANCH   6  21
ATOM     21  C   UNL A   1      31.480  25.763  23.370  1.00  0.00     0.044 A 
ATOM     22  C   UNL A   1      32.615  26.120  22.646  1.00  0.00     0.094 A 
ATOM     23  C   UNL A   1      30.497  26.794  23.044  1.00  0.00     0.011 A 
ATOM     24  N   UNL A   1      32.492  27.445  22.307  1.00  0.00    -0.361 N 
ATOM     25  C   UNL A   1      31.252  27.913  22.672  1.00  0.00     0.046 A 
ATOM     26  C   UNL A   1      29.108  27.005  23.232  1.00  0.00     0.031 A 
ATOM     27  H   UNL A   1      33.190  27.982  21.867  1.00  0.00     0.166 HD
ATOM     28  C   UNL A   1      30.768  29.227  22.755  1.00  0.00     0.028 A 
ATOM     29  C   UNL A   1      28.589  28.305  23.228  1.00  0.00     0.041 A 
ATOM     30  C   UNL A   1      29.419  29.406  23.069  1.00  0.00     0.022 A 
ATOM     31  Cl  UNL A   1      26.905  28.551  23.501  1.00  0.00    -0.084 Cl
ENDBRANCH   6  21
ENDBRANCH   3   6
ENDBRANCH   1   2
BRANCH   1  32
ATOM     32  C   UNL A   1      32.010  28.765  26.569  1.00  0.00     0.042 C 
BRANCH  32  33
ATOM     33  C   UNL A   1      32.824  29.798  25.770  1.00  0.00     0.118 C 
BRANCH  33  34
ATOM     34  N   UNL A   1      32.638  31.141  26.286  1.00  0.00    -0.352 N 
ATOM     35  C   UNL A   1      33.322  31.852  27.242  1.00  0.00     0.251 C 
ATOM     36  H   UNL A   1      31.888  31.631  25.879  1.00  0.00     0.163 HD
ATOM     37  O   UNL A   1      32.834  32.910  27.632  1.00  0.00    -0.269 OA
BRANCH  35  38
ATOM     38  C   UNL A   1      34.619  31.407  27.827  1.00  0.00     0.039 A 
ATOM     39  C   UNL A   1      34.675  30.110  28.359  1.00  0.00     0.014 A 
ATOM     40  C   UNL A   1      35.716  32.255  27.999  1.00  0.00     0.014 A 
ATOM     41  C   UNL A   1      35.807  29.668  29.056  1.00  0.00     0.010 A 
ATOM     42  C   UNL A   1      36.866  31.800  28.669  1.00  0.00     0.010 A 
ATOM     43  C   UNL A   1      36.916  30.510  29.224  1.00  0.00    -0.014 A 
BRANCH  43  44
ATOM     44  C   UNL A   1      38.107  30.043  29.991  1.00  0.00     0.031 A 
ATOM     45  C   UNL A   1      38.354  30.509  31.402  1.00  0.00     0.074 A 
ATOM     46  C   UNL A   1      38.982  29.189  29.424  1.00  0.00     0.049 A 
ATOM     47  N   UNL A   1      39.336  30.210  32.219  1.00  0.00    -0.248 NA
ATOM     48  C   UNL A   1      37.366  31.439  31.971  1.00  0.00     0.031 C 
ATOM     49  C   UNL A   1      38.879  28.661  28.065  1.00  0.00     0.029 A 
ATOM     50  N   UNL A   1      40.135  28.625  29.916  1.00  0.00    -0.354 N 
ATOM     51  C   UNL A   1      39.094  30.921  33.388  1.00  0.00     0.074 A 
ATOM     52  C   UNL A   1      37.884  31.686  33.166  1.00  0.00     0.031 C 
ATOM     53  C   UNL A   1      39.923  27.849  27.831  1.00  0.00     0.029 A 
ATOM     54  C   UNL A   1      40.786  27.824  29.011  1.00  0.00     0.049 A 
ATOM     55  H   UNL A   1      40.463  28.779  30.832  1.00  0.00     0.167 HD
ATOM     56  C   UNL A   1      39.805  30.927  34.543  1.00  0.00     0.037 A 
ATOM     57  C   UNL A   1      41.952  27.154  29.108  1.00  0.00     0.037 A 
ATOM     58  C   UNL A   1      41.002  30.158  34.777  1.00  0.00     0.049 A 
ATOM     59  C   UNL A   1      42.737  27.197  30.391  1.00  0.00     0.074 A 
ATOM     60  C   UNL A   1      41.753  30.061  35.938  1.00  0.00     0.029 A 
ATOM     61  N   UNL A   1      41.632  29.363  33.832  1.00  0.00    -0.354 N 
ATOM     62  N   UNL A   1      42.462  27.821  31.510  1.00  0.00    -0.248 NA
ATOM     63  C   UNL A   1      43.994  26.434  30.426  1.00  0.00     0.031 C 
ATOM     64  C   UNL A   1      42.863  29.248  35.679  1.00  0.00     0.029 A 
ATOM     65  C   UNL A   1      42.775  28.796  34.374  1.00  0.00     0.049 A 
ATOM     66  H   UNL A   1      41.314  29.222  32.910  1.00  0.00     0.167 HD
ATOM     67  C   UNL A   1      43.492  27.508  32.386  1.00  0.00     0.074 A 
ATOM     68  C   UNL A   1      44.393  26.626  31.676  1.00  0.00     0.031 C 
ATOM     69  C   UNL A   1      43.669  27.915  33.667  1.00  0.00     0.037 A 
BRANCH  56  70
ATOM     70  C   UNL A   1      39.315  31.808  35.657  1.00  0.00     0.064 A 
ATOM     71  C   UNL A   1      38.380  31.353  36.598  1.00  0.00     0.173 A 
ATOM     72  C   UNL A   1      39.833  33.102  35.820  1.00  0.00     0.173 A 
ATOM     73  F   UNL A   1      37.853  30.124  36.487  1.00  0.00    -0.203 F 
ATOM     74  C   UNL A   1      37.960  32.171  37.644  1.00  0.00     0.198 A 
ATOM     75  C   UNL A   1      39.432  33.906  36.883  1.00  0.00     0.198 A 
ATOM     76  F   UNL A   1      40.743  33.581  34.958  1.00  0.00    -0.203 F 
ATOM     77  F   UNL A   1      37.035  31.729  38.509  1.00  0.00    -0.200 F 
ATOM     78  C   UNL A   1      38.490  33.443  37.790  1.00  0.00     0.200 A 
ATOM     79  F   UNL A   1      39.958  35.130  37.032  1.00  0.00    -0.200 F 
ATOM     80  F   UNL A   1      38.092  34.226  38.802  1.00  0.00    -0.200 F 
ENDBRANCH  56  70
BRANCH  57  81
ATOM     81  C   UNL A   1      42.447  26.372  27.946  1.00  0.00     0.064 A 
ATOM     82  C   UNL A   1      43.279  26.960  26.983  1.00  0.00     0.173 A 
ATOM     83  C   UNL A   1      42.098  25.025  27.776  1.00  0.00     0.173 A 
ATOM     84  F   UNL A   1      43.618  28.253  27.089  1.00  0.00    -0.203 F 
ATOM     85  C   UNL A   1      43.733  26.231  25.886  1.00  0.00     0.198 A 
ATOM     86  C   UNL A   1      42.575  24.290  26.693  1.00  0.00     0.198 A 
ATOM     87  F   UNL A   1      41.303  24.418  28.668  1.00  0.00    -0.203 F 
ATOM     88  F   UNL A   1      44.493  26.827  24.957  1.00  0.00    -0.200 F 
ATOM     89  C   UNL A   1      43.387  24.896  25.744  1.00  0.00     0.200 A 
ATOM     90  F   UNL A   1      42.247  22.997  26.566  1.00  0.00    -0.200 F 
ATOM     91  F   UNL A   1      43.829  24.194  24.692  1.00  0.00    -0.200 F 
ENDBRANCH  57  81
BRANCH  69  92
ATOM     92  C   UNL A   1      44.868  27.387  34.402  1.00  0.00     0.064 A 
ATOM     93  C   UNL A   1      46.085  28.084  34.424  1.00  0.00     0.173 A 
ATOM     94  C   UNL A   1      44.787  26.187  35.126  1.00  0.00     0.173 A 
ATOM     95  F   UNL A   1      46.221  29.228  33.736  1.00  0.00    -0.203 F 
ATOM     96  C   UNL A   1      47.183  27.588  35.124  1.00  0.00     0.198 A 
ATOM     97  C   UNL A   1      45.878  25.708  35.846  1.00  0.00     0.198 A 
ATOM     98  F   UNL A   1      43.646  25.483  35.142  1.00  0.00    -0.203 F 
ATOM     99  F   UNL A   1      48.348  28.248  35.096  1.00  0.00    -0.200 F 
ATOM    100  C   UNL A   1      47.076  26.405  35.840  1.00  0.00     0.200 A 
ATOM    101  F   UNL A   1      45.769  24.570  36.546  1.00  0.00    -0.200 F 
ATOM    102  F   UNL A   1      48.131  25.932  36.518  1.00  0.00    -0.200 F 
ENDBRANCH  69  92
ENDBRANCH  43  44
ENDBRANCH  35  38
ENDBRANCH  33  34
ENDBRANCH  32  33
ENDBRANCH   1  32
TORSDOF 14
ENDMDL
