MODEL 1
REMARK VINA RESULT:     -10.8      0.000      0.000
REMARK SMILES C[C@@H]([NH2+]C1(CO)CCCCC1)[C@@H](C)C(=O)NCCCNC(=O)c1ccc(-c2c3nc(c(-c4c(F)c(F)c(F)c(F)c4F)c4ccc([nH]4)c(-c4c(F)c(F)c(F)c(F)c4F)c4nc(c(-c5c(F)c(F)c(F)c(F)c5F)c5ccc2[nH]5)C=C4)C=C3)cc1
REMARK SMILES IDX 14 1 15 2 16 3 12 5 13 6 2 7 1 8 3 9 4 12 7 13 11 14 8 15
REMARK SMILES IDX 10 16 9 17 5 18 6 19 17 21 18 22 19 23 20 24 21 25 22 27
REMARK SMILES IDX 23 28 24 29 85 30 25 31 84 32 26 33 27 34 28 35 78 36 29 37
REMARK SMILES IDX 83 38 77 39 79 40 30 41 82 42 76 43 75 44 31 46 63 47 43 48
REMARK SMILES IDX 62 49 44 50 47 51 61 52 80 53 45 54 46 55 60 57 81 58 48 59
REMARK SMILES IDX 32 60 33 61 41 62 34 63 35 64 39 65 42 66 36 67 37 68 40 69
REMARK SMILES IDX 38 70 64 71 65 72 73 73 66 74 67 75 71 76 74 77 68 78 69 79
REMARK SMILES IDX 72 80 70 81 49 82 50 83 58 84 51 85 52 86 56 87 59 88 53 89
REMARK SMILES IDX 54 90 57 91 55 92
REMARK H PARENT 16 4 3 10 3 11 6 20 20 26 79 45 47 56
REMARK Flexibility Score: inf
ROOT
ATOM      1  C   UNL A   1      32.912  36.372  30.512  1.00  0.00     0.228 C 
ATOM      2  O   UNL A   1      32.945  37.607  30.528  1.00  0.00    -0.275 OA
ATOM      3  N   UNL A   1      32.973  35.818  29.274  1.00  0.00    -0.356 N 
ATOM      4  H   UNL A   1      32.930  36.487  28.553  1.00  0.00     0.163 HD
ENDROOT
BRANCH   1   5
ATOM      5  C   UNL A   1      32.871  35.577  31.823  1.00  0.00     0.133 C 
ATOM      6  C   UNL A   1      31.491  35.855  32.448  1.00  0.00     0.024 C 
BRANCH   5   7
ATOM      7  C   UNL A   1      34.107  35.725  32.776  1.00  0.00     0.192 C 
ATOM      8  C   UNL A   1      33.926  36.947  33.706  1.00  0.00     0.076 C 
BRANCH   7   9
ATOM      9  N   UNL A   1      34.406  34.603  33.715  1.00  0.00    -0.337 N 
ATOM     10  H   UNL A   1      33.616  33.962  33.656  1.00  0.00     0.347 HD
ATOM     11  H   UNL A   1      34.577  35.096  34.591  1.00  0.00     0.347 HD
BRANCH   9  12
ATOM     12  C   UNL A   1      35.633  33.770  33.577  1.00  0.00     0.120 C 
ATOM     13  C   UNL A   1      35.334  32.470  32.802  1.00  0.00     0.071 C 
ATOM     14  C   UNL A   1      36.665  34.543  32.694  1.00  0.00     0.071 C 
ATOM     15  C   UNL A   1      36.549  31.611  32.476  1.00  0.00     0.007 C 
ATOM     16  C   UNL A   1      37.938  33.721  32.428  1.00  0.00     0.007 C 
ATOM     17  C   UNL A   1      37.627  32.394  31.745  1.00  0.00     0.001 C 
BRANCH  12  18
ATOM     18  C   UNL A   1      36.262  33.536  34.991  1.00  0.00     0.224 C 
BRANCH  18  19
ATOM     19  O   UNL A   1      35.449  34.031  36.061  1.00  0.00    -0.390 OA
ATOM     20  H   UNL A   1      34.514  33.977  35.808  1.00  0.00     0.210 HD
ENDBRANCH  18  19
ENDBRANCH  12  18
ENDBRANCH   9  12
ENDBRANCH   7   9
ENDBRANCH   5   7
ENDBRANCH   1   5
BRANCH   3  21
ATOM     21  C   UNL A   1      33.088  34.459  28.780  1.00  0.00     0.117 C 
BRANCH  21  22
ATOM     22  C   UNL A   1      34.525  33.975  28.585  1.00  0.00     0.042 C 
BRANCH  22  23
ATOM     23  C   UNL A   1      34.873  32.625  29.210  1.00  0.00     0.118 C 
BRANCH  23  24
ATOM     24  N   UNL A   1      34.212  31.504  28.571  1.00  0.00    -0.352 N 
ATOM     25  C   UNL A   1      34.715  30.293  28.162  1.00  0.00     0.251 C 
ATOM     26  H   UNL A   1      33.250  31.631  28.403  1.00  0.00     0.163 HD
ATOM     27  O   UNL A   1      33.998  29.531  27.520  1.00  0.00    -0.269 OA
BRANCH  25  28
ATOM     28  C   UNL A   1      36.116  29.900  28.448  1.00  0.00     0.039 A 
ATOM     29  C   UNL A   1      37.066  30.080  27.439  1.00  0.00     0.014 A 
ATOM     30  C   UNL A   1      36.497  29.309  29.657  1.00  0.00     0.014 A 
ATOM     31  C   UNL A   1      38.397  29.717  27.654  1.00  0.00     0.010 A 
ATOM     32  C   UNL A   1      37.843  29.010  29.898  1.00  0.00     0.010 A 
ATOM     33  C   UNL A   1      38.807  29.204  28.896  1.00  0.00    -0.014 A 
BRANCH  33  34
ATOM     34  C   UNL A   1      40.239  28.879  29.136  1.00  0.00     0.031 A 
ATOM     35  C   UNL A   1      41.141  29.840  29.859  1.00  0.00     0.074 A 
ATOM     36  C   UNL A   1      40.740  27.714  28.680  1.00  0.00     0.049 A 
ATOM     37  N   UNL A   1      42.407  29.710  30.177  1.00  0.00    -0.248 NA
ATOM     38  C   UNL A   1      40.552  31.126  30.258  1.00  0.00     0.031 C 
ATOM     39  C   UNL A   1      39.989  26.717  27.917  1.00  0.00     0.029 A 
ATOM     40  N   UNL A   1      41.998  27.172  28.788  1.00  0.00    -0.354 N 
ATOM     41  C   UNL A   1      42.765  30.897  30.803  1.00  0.00     0.074 A 
ATOM     42  C   UNL A   1      41.600  31.755  30.771  1.00  0.00     0.031 C 
ATOM     43  C   UNL A   1      40.792  25.676  27.645  1.00  0.00     0.029 A 
ATOM     44  C   UNL A   1      42.122  25.946  28.183  1.00  0.00     0.049 A 
ATOM     45  H   UNL A   1      42.740  27.619  29.256  1.00  0.00     0.167 HD
ATOM     46  C   UNL A   1      43.951  31.234  31.368  1.00  0.00     0.037 A 
ATOM     47  C   UNL A   1      43.187  25.129  28.065  1.00  0.00     0.037 A 
ATOM     48  C   UNL A   1      45.106  30.372  31.410  1.00  0.00     0.049 A 
ATOM     49  C   UNL A   1      44.493  25.519  28.704  1.00  0.00     0.074 A 
ATOM     50  C   UNL A   1      46.323  30.589  32.032  1.00  0.00     0.029 A 
ATOM     51  N   UNL A   1      45.192  29.133  30.790  1.00  0.00    -0.354 N 
ATOM     52  N   UNL A   1      44.791  26.604  29.376  1.00  0.00    -0.248 NA
ATOM     53  C   UNL A   1      45.604  24.567  28.576  1.00  0.00     0.031 C 
ATOM     54  C   UNL A   1      47.169  29.516  31.730  1.00  0.00     0.029 A 
ATOM     55  C   UNL A   1      46.457  28.595  30.978  1.00  0.00     0.049 A 
ATOM     56  H   UNL A   1      44.463  28.700  30.291  1.00  0.00     0.167 HD
ATOM     57  C   UNL A   1      46.116  26.459  29.766  1.00  0.00     0.074 A 
ATOM     58  C   UNL A   1      46.556  25.170  29.273  1.00  0.00     0.031 C 
ATOM     59  C   UNL A   1      46.894  27.317  30.471  1.00  0.00     0.037 A 
BRANCH  46  60
ATOM     60  C   UNL A   1      44.067  32.608  31.971  1.00  0.00     0.064 A 
ATOM     61  C   UNL A   1      43.744  32.860  33.313  1.00  0.00     0.173 A 
ATOM     62  C   UNL A   1      44.525  33.685  31.196  1.00  0.00     0.173 A 
ATOM     63  F   UNL A   1      43.295  31.869  34.099  1.00  0.00    -0.203 F 
ATOM     64  C   UNL A   1      43.831  34.146  33.844  1.00  0.00     0.198 A 
ATOM     65  C   UNL A   1      44.645  34.961  31.739  1.00  0.00     0.198 A 
ATOM     66  F   UNL A   1      44.858  33.500  29.910  1.00  0.00    -0.203 F 
ATOM     67  F   UNL A   1      43.454  34.373  35.110  1.00  0.00    -0.200 F 
ATOM     68  C   UNL A   1      44.287  35.193  33.058  1.00  0.00     0.200 A 
ATOM     69  F   UNL A   1      45.103  35.969  30.983  1.00  0.00    -0.200 F 
ATOM     70  F   UNL A   1      44.371  36.429  33.570  1.00  0.00    -0.200 F 
ENDBRANCH  46  60
BRANCH  47  71
ATOM     71  C   UNL A   1      43.047  23.852  27.318  1.00  0.00     0.064 A 
ATOM     72  C   UNL A   1      43.443  23.745  25.978  1.00  0.00     0.173 A 
ATOM     73  C   UNL A   1      42.542  22.702  27.943  1.00  0.00     0.173 A 
ATOM     74  F   UNL A   1      43.913  24.821  25.331  1.00  0.00    -0.203 F 
ATOM     75  C   UNL A   1      43.333  22.538  25.290  1.00  0.00     0.198 A 
ATOM     76  C   UNL A   1      42.460  21.489  27.263  1.00  0.00     0.198 A 
ATOM     77  F   UNL A   1      42.155  22.751  29.227  1.00  0.00    -0.203 F 
ATOM     78  F   UNL A   1      43.689  22.470  24.000  1.00  0.00    -0.200 F 
ATOM     79  C   UNL A   1      42.851  21.408  25.935  1.00  0.00     0.200 A 
ATOM     80  F   UNL A   1      42.012  20.397  27.898  1.00  0.00    -0.200 F 
ATOM     81  F   UNL A   1      42.762  20.245  25.279  1.00  0.00    -0.200 F 
ENDBRANCH  47  71
BRANCH  59  82
ATOM     82  C   UNL A   1      48.304  26.887  30.767  1.00  0.00     0.064 A 
ATOM     83  C   UNL A   1      49.377  27.256  29.942  1.00  0.00     0.173 A 
ATOM     84  C   UNL A   1      48.591  26.124  31.910  1.00  0.00     0.173 A 
ATOM     85  F   UNL A   1      49.158  27.973  28.829  1.00  0.00    -0.203 F 
ATOM     86  C   UNL A   1      50.679  26.853  30.233  1.00  0.00     0.198 A 
ATOM     87  C   UNL A   1      49.898  25.752  32.216  1.00  0.00     0.198 A 
ATOM     88  F   UNL A   1      47.605  25.749  32.738  1.00  0.00    -0.203 F 
ATOM     89  F   UNL A   1      51.680  27.172  29.400  1.00  0.00    -0.200 F 
ATOM     90  C   UNL A   1      50.938  26.108  31.374  1.00  0.00     0.200 A 
ATOM     91  F   UNL A   1      50.148  25.045  33.327  1.00  0.00    -0.200 F 
ATOM     92  F   UNL A   1      52.192  25.727  31.656  1.00  0.00    -0.200 F 
ENDBRANCH  59  82
ENDBRANCH  33  34
ENDBRANCH  25  28
ENDBRANCH  23  24
ENDBRANCH  22  23
ENDBRANCH  21  22
ENDBRANCH   3  21
TORSDOF 15
ENDMDL
MODEL 2
REMARK VINA RESULT:     -10.6      4.435     10.268
REMARK SMILES C[C@@H]([NH2+]C1(CO)CCCCC1)[C@@H](C)C(=O)NCCCNC(=O)c1ccc(-c2c3nc(c(-c4c(F)c(F)c(F)c(F)c4F)c4ccc([nH]4)c(-c4c(F)c(F)c(F)c(F)c4F)c4nc(c(-c5c(F)c(F)c(F)c(F)c5F)c5ccc2[nH]5)C=C4)C=C3)cc1
REMARK SMILES IDX 14 1 15 2 16 3 12 5 13 6 2 7 1 8 3 9 4 12 7 13 11 14 8 15
REMARK SMILES IDX 10 16 9 17 5 18 6 19 17 21 18 22 19 23 20 24 21 25 22 27
REMARK SMILES IDX 23 28 24 29 85 30 25 31 84 32 26 33 27 34 28 35 78 36 29 37
REMARK SMILES IDX 83 38 77 39 79 40 30 41 82 42 76 43 75 44 31 46 63 47 43 48
REMARK SMILES IDX 62 49 44 50 47 51 61 52 80 53 45 54 46 55 60 57 81 58 48 59
REMARK SMILES IDX 32 60 33 61 41 62 34 63 35 64 39 65 42 66 36 67 37 68 40 69
REMARK SMILES IDX 38 70 64 71 65 72 73 73 66 74 67 75 71 76 74 77 68 78 69 79
REMARK SMILES IDX 72 80 70 81 49 82 50 83 58 84 51 85 52 86 56 87 59 88 53 89
REMARK SMILES IDX 54 90 57 91 55 92
REMARK H PARENT 16 4 3 10 3 11 6 20 20 26 79 45 47 56
REMARK Flexibility Score: inf
ROOT
ATOM      1  C   UNL A   1      32.517  28.774  25.273  1.00  0.00     0.228 C 
ATOM      2  O   UNL A   1      33.689  28.452  25.049  1.00  0.00    -0.275 OA
ATOM      3  N   UNL A   1      32.294  30.112  25.316  1.00  0.00    -0.356 N 
ATOM      4  H   UNL A   1      33.124  30.640  25.264  1.00  0.00     0.163 HD
ENDROOT
BRANCH   1   5
ATOM      5  C   UNL A   1      31.429  27.703  25.418  1.00  0.00     0.133 C 
ATOM      6  C   UNL A   1      31.930  26.729  26.501  1.00  0.00     0.024 C 
BRANCH   5   7
ATOM      7  C   UNL A   1      30.896  27.055  24.094  1.00  0.00     0.192 C 
ATOM      8  C   UNL A   1      29.772  27.924  23.484  1.00  0.00     0.076 C 
BRANCH   7   9
ATOM      9  N   UNL A   1      31.858  26.873  22.967  1.00  0.00    -0.337 N 
ATOM     10  H   UNL A   1      32.641  27.500  23.154  1.00  0.00     0.347 HD
ATOM     11  H   UNL A   1      31.270  27.047  22.153  1.00  0.00     0.347 HD
BRANCH   9  12
ATOM     12  C   UNL A   1      32.452  25.545  22.648  1.00  0.00     0.120 C 
ATOM     13  C   UNL A   1      33.724  25.293  23.485  1.00  0.00     0.071 C 
ATOM     14  C   UNL A   1      31.448  24.430  23.088  1.00  0.00     0.071 C 
ATOM     15  C   UNL A   1      34.332  23.903  23.346  1.00  0.00     0.007 C 
ATOM     16  C   UNL A   1      32.014  23.016  22.872  1.00  0.00     0.007 C 
ATOM     17  C   UNL A   1      33.321  22.804  23.627  1.00  0.00     0.001 C 
BRANCH  12  18
ATOM     18  C   UNL A   1      32.676  25.434  21.103  1.00  0.00     0.224 C 
BRANCH  18  19
ATOM     19  O   UNL A   1      31.585  25.953  20.335  1.00  0.00    -0.390 OA
ATOM     20  H   UNL A   1      31.808  26.841  20.013  1.00  0.00     0.210 HD
ENDBRANCH  18  19
ENDBRANCH  12  18
ENDBRANCH   9  12
ENDBRANCH   7   9
ENDBRANCH   5   7
ENDBRANCH   1   5
BRANCH   3  21
ATOM     21  C   UNL A   1      31.105  30.935  25.419  1.00  0.00     0.117 C 
BRANCH  21  22
ATOM     22  C   UNL A   1      31.107  31.909  26.598  1.00  0.00     0.042 C 
BRANCH  22  23
ATOM     23  C   UNL A   1      32.448  32.562  26.932  1.00  0.00     0.118 C 
BRANCH  23  24
ATOM     24  N   UNL A   1      32.324  33.923  27.413  1.00  0.00    -0.352 N 
ATOM     25  C   UNL A   1      33.035  34.590  28.381  1.00  0.00     0.251 C 
ATOM     26  H   UNL A   1      31.618  34.454  26.978  1.00  0.00     0.163 HD
ATOM     27  O   UNL A   1      32.676  35.713  28.723  1.00  0.00    -0.269 OA
BRANCH  25  28
ATOM     28  C   UNL A   1      34.205  33.970  29.048  1.00  0.00     0.039 A 
ATOM     29  C   UNL A   1      33.964  33.024  30.048  1.00  0.00     0.014 A 
ATOM     30  C   UNL A   1      35.521  34.341  28.752  1.00  0.00     0.014 A 
ATOM     31  C   UNL A   1      35.031  32.418  30.714  1.00  0.00     0.010 A 
ATOM     32  C   UNL A   1      36.591  33.684  29.369  1.00  0.00     0.010 A 
ATOM     33  C   UNL A   1      36.358  32.719  30.363  1.00  0.00    -0.014 A 
BRANCH  33  34
ATOM     34  C   UNL A   1      37.487  32.022  31.035  1.00  0.00     0.031 A 
ATOM     35  C   UNL A   1      38.259  30.940  30.331  1.00  0.00     0.074 A 
ATOM     36  C   UNL A   1      37.811  32.351  32.301  1.00  0.00     0.049 A 
ATOM     37  N   UNL A   1      39.286  30.245  30.755  1.00  0.00    -0.248 NA
ATOM     38  C   UNL A   1      37.803  30.574  28.983  1.00  0.00     0.031 C 
ATOM     39  C   UNL A   1      37.111  33.342  33.117  1.00  0.00     0.029 A 
ATOM     40  N   UNL A   1      38.807  31.885  33.125  1.00  0.00    -0.354 N 
ATOM     41  C   UNL A   1      39.592  29.357  29.731  1.00  0.00     0.074 A 
ATOM     42  C   UNL A   1      38.608  29.563  28.690  1.00  0.00     0.031 C 
ATOM     43  C   UNL A   1      37.710  33.428  34.315  1.00  0.00     0.029 A 
ATOM     44  C   UNL A   1      38.815  32.474  34.365  1.00  0.00     0.049 A 
ATOM     45  H   UNL A   1      39.454  31.195  32.852  1.00  0.00     0.167 HD
ATOM     46  C   UNL A   1      40.610  28.463  29.659  1.00  0.00     0.037 A 
ATOM     47  C   UNL A   1      39.615  32.268  35.430  1.00  0.00     0.037 A 
ATOM     48  C   UNL A   1      41.596  28.268  30.693  1.00  0.00     0.049 A 
ATOM     49  C   UNL A   1      40.741  31.276  35.327  1.00  0.00     0.074 A 
ATOM     50  C   UNL A   1      42.712  27.449  30.678  1.00  0.00     0.029 A 
ATOM     51  N   UNL A   1      41.575  28.889  31.934  1.00  0.00    -0.354 N 
ATOM     52  N   UNL A   1      41.078  30.511  34.318  1.00  0.00    -0.248 NA
ATOM     53  C   UNL A   1      41.604  31.128  36.507  1.00  0.00     0.031 C 
ATOM     54  C   UNL A   1      43.326  27.520  31.934  1.00  0.00     0.029 A 
ATOM     55  C   UNL A   1      42.633  28.436  32.709  1.00  0.00     0.049 A 
ATOM     56  H   UNL A   1      40.907  29.551  32.223  1.00  0.00     0.167 HD
ATOM     57  C   UNL A   1      42.200  29.803  34.732  1.00  0.00     0.074 A 
ATOM     58  C   UNL A   1      42.498  30.248  36.078  1.00  0.00     0.031 C 
ATOM     59  C   UNL A   1      42.916  28.871  34.055  1.00  0.00     0.037 A 
BRANCH  46  60
ATOM     60  C   UNL A   1      40.696  27.608  28.424  1.00  0.00     0.064 A 
ATOM     61  C   UNL A   1      40.018  26.384  28.319  1.00  0.00     0.173 A 
ATOM     62  C   UNL A   1      41.455  28.030  27.322  1.00  0.00     0.173 A 
ATOM     63  F   UNL A   1      39.282  25.928  29.345  1.00  0.00    -0.203 F 
ATOM     64  C   UNL A   1      40.135  25.593  27.177  1.00  0.00     0.198 A 
ATOM     65  C   UNL A   1      41.541  27.255  26.168  1.00  0.00     0.198 A 
ATOM     66  F   UNL A   1      42.116  29.197  27.362  1.00  0.00    -0.203 F 
ATOM     67  F   UNL A   1      39.531  24.397  27.128  1.00  0.00    -0.200 F 
ATOM     68  C   UNL A   1      40.891  26.032  26.101  1.00  0.00     0.200 A 
ATOM     69  F   UNL A   1      42.258  27.689  25.122  1.00  0.00    -0.200 F 
ATOM     70  F   UNL A   1      41.001  25.271  25.003  1.00  0.00    -0.200 F 
ENDBRANCH  46  60
BRANCH  47  71
ATOM     71  C   UNL A   1      39.377  33.036  36.680  1.00  0.00     0.064 A 
ATOM     72  C   UNL A   1      40.042  34.244  36.929  1.00  0.00     0.173 A 
ATOM     73  C   UNL A   1      38.452  32.590  37.636  1.00  0.00     0.173 A 
ATOM     74  F   UNL A   1      40.950  34.701  36.056  1.00  0.00    -0.203 F 
ATOM     75  C   UNL A   1      39.796  34.973  38.092  1.00  0.00     0.198 A 
ATOM     76  C   UNL A   1      38.185  33.335  38.782  1.00  0.00     0.198 A 
ATOM     77  F   UNL A   1      37.785  31.442  37.440  1.00  0.00    -0.203 F 
ATOM     78  F   UNL A   1      40.469  36.109  38.322  1.00  0.00    -0.200 F 
ATOM     79  C   UNL A   1      38.861  34.523  39.012  1.00  0.00     0.200 A 
ATOM     80  F   UNL A   1      37.266  32.905  39.658  1.00  0.00    -0.200 F 
ATOM     81  F   UNL A   1      38.612  35.233  40.120  1.00  0.00    -0.200 F 
ENDBRANCH  47  71
BRANCH  59  82
ATOM     82  C   UNL A   1      44.107  28.276  34.753  1.00  0.00     0.064 A 
ATOM     83  C   UNL A   1      45.367  28.893  34.720  1.00  0.00     0.173 A 
ATOM     84  C   UNL A   1      43.979  27.090  35.493  1.00  0.00     0.173 A 
ATOM     85  F   UNL A   1      45.549  30.020  34.015  1.00  0.00    -0.203 F 
ATOM     86  C   UNL A   1      46.460  28.331  35.376  1.00  0.00     0.198 A 
ATOM     87  C   UNL A   1      45.066  26.549  36.177  1.00  0.00     0.198 A 
ATOM     88  F   UNL A   1      42.797  26.461  35.564  1.00  0.00    -0.203 F 
ATOM     89  F   UNL A   1      47.665  28.910  35.286  1.00  0.00    -0.200 F 
ATOM     90  C   UNL A   1      46.306  27.164  36.110  1.00  0.00     0.200 A 
ATOM     91  F   UNL A   1      44.911  25.430  36.898  1.00  0.00    -0.200 F 
ATOM     92  F   UNL A   1      47.356  26.628  36.747  1.00  0.00    -0.200 F 
ENDBRANCH  59  82
ENDBRANCH  33  34
ENDBRANCH  25  28
ENDBRANCH  23  24
ENDBRANCH  22  23
ENDBRANCH  21  22
ENDBRANCH   3  21
TORSDOF 15
ENDMDL
MODEL 3
REMARK VINA RESULT:     -10.6      4.385      7.651
REMARK SMILES C[C@@H]([NH2+]C1(CO)CCCCC1)[C@@H](C)C(=O)NCCCNC(=O)c1ccc(-c2c3nc(c(-c4c(F)c(F)c(F)c(F)c4F)c4ccc([nH]4)c(-c4c(F)c(F)c(F)c(F)c4F)c4nc(c(-c5c(F)c(F)c(F)c(F)c5F)c5ccc2[nH]5)C=C4)C=C3)cc1
REMARK SMILES IDX 14 1 15 2 16 3 12 5 13 6 2 7 1 8 3 9 4 12 7 13 11 14 8 15
REMARK SMILES IDX 10 16 9 17 5 18 6 19 17 21 18 22 19 23 20 24 21 25 22 27
REMARK SMILES IDX 23 28 24 29 85 30 25 31 84 32 26 33 27 34 28 35 78 36 29 37
REMARK SMILES IDX 83 38 77 39 79 40 30 41 82 42 76 43 75 44 31 46 63 47 43 48
REMARK SMILES IDX 62 49 44 50 47 51 61 52 80 53 45 54 46 55 60 57 81 58 48 59
REMARK SMILES IDX 32 60 33 61 41 62 34 63 35 64 39 65 42 66 36 67 37 68 40 69
REMARK SMILES IDX 38 70 64 71 65 72 73 73 66 74 67 75 71 76 74 77 68 78 69 79
REMARK SMILES IDX 72 80 70 81 49 82 50 83 58 84 51 85 52 86 56 87 59 88 53 89
REMARK SMILES IDX 54 90 57 91 55 92
REMARK H PARENT 16 4 3 10 3 11 6 20 20 26 79 45 47 56
REMARK Flexibility Score: inf
ROOT
ATOM      1  C   UNL A   1      32.511  28.711  25.201  1.00  0.00     0.228 C 
ATOM      2  O   UNL A   1      33.677  28.363  24.981  1.00  0.00    -0.275 OA
ATOM      3  N   UNL A   1      32.326  30.054  25.282  1.00  0.00    -0.356 N 
ATOM      4  H   UNL A   1      33.170  30.559  25.258  1.00  0.00     0.163 HD
ENDROOT
BRANCH   1   5
ATOM      5  C   UNL A   1      31.391  27.668  25.298  1.00  0.00     0.133 C 
ATOM      6  C   UNL A   1      31.807  26.700  26.421  1.00  0.00     0.024 C 
BRANCH   5   7
ATOM      7  C   UNL A   1      30.920  27.012  23.955  1.00  0.00     0.192 C 
ATOM      8  C   UNL A   1      29.825  27.876  23.289  1.00  0.00     0.076 C 
BRANCH   7   9
ATOM      9  N   UNL A   1      31.932  26.824  22.874  1.00  0.00    -0.337 N 
ATOM     10  H   UNL A   1      32.715  27.435  23.105  1.00  0.00     0.347 HD
ATOM     11  H   UNL A   1      31.388  27.014  22.034  1.00  0.00     0.347 HD
BRANCH   9  12
ATOM     12  C   UNL A   1      32.520  25.488  22.573  1.00  0.00     0.120 C 
ATOM     13  C   UNL A   1      33.814  25.258  23.380  1.00  0.00     0.071 C 
ATOM     14  C   UNL A   1      31.529  24.384  23.067  1.00  0.00     0.071 C 
ATOM     15  C   UNL A   1      34.420  23.865  23.259  1.00  0.00     0.007 C 
ATOM     16  C   UNL A   1      32.091  22.966  22.870  1.00  0.00     0.007 C 
ATOM     17  C   UNL A   1      33.419  22.773  23.594  1.00  0.00     0.001 C 
BRANCH  12  18
ATOM     18  C   UNL A   1      32.701  25.339  21.025  1.00  0.00     0.224 C 
BRANCH  18  19
ATOM     19  O   UNL A   1      31.655  25.961  20.271  1.00  0.00    -0.390 OA
ATOM     20  H   UNL A   1      30.910  26.166  20.858  1.00  0.00     0.210 HD
ENDBRANCH  18  19
ENDBRANCH  12  18
ENDBRANCH   9  12
ENDBRANCH   7   9
ENDBRANCH   5   7
ENDBRANCH   1   5
BRANCH   3  21
ATOM     21  C   UNL A   1      31.158  30.907  25.396  1.00  0.00     0.117 C 
BRANCH  21  22
ATOM     22  C   UNL A   1      31.160  31.823  26.620  1.00  0.00     0.042 C 
BRANCH  22  23
ATOM     23  C   UNL A   1      32.493  32.480  26.971  1.00  0.00     0.118 C 
BRANCH  23  24
ATOM     24  N   UNL A   1      32.358  33.839  27.457  1.00  0.00    -0.352 N 
ATOM     25  C   UNL A   1      33.089  34.522  28.398  1.00  0.00     0.251 C 
ATOM     26  H   UNL A   1      31.625  34.355  27.048  1.00  0.00     0.163 HD
ATOM     27  O   UNL A   1      32.719  35.637  28.753  1.00  0.00    -0.269 OA
BRANCH  25  28
ATOM     28  C   UNL A   1      34.297  33.928  29.021  1.00  0.00     0.039 A 
ATOM     29  C   UNL A   1      34.113  32.997  30.048  1.00  0.00     0.014 A 
ATOM     30  C   UNL A   1      35.592  34.310  28.659  1.00  0.00     0.014 A 
ATOM     31  C   UNL A   1      35.217  32.415  30.674  1.00  0.00     0.010 A 
ATOM     32  C   UNL A   1      36.698  33.676  29.238  1.00  0.00     0.010 A 
ATOM     33  C   UNL A   1      36.522  32.727  30.258  1.00  0.00    -0.014 A 
BRANCH  33  34
ATOM     34  C   UNL A   1      37.690  32.055  30.889  1.00  0.00     0.031 A 
ATOM     35  C   UNL A   1      38.141  32.424  32.275  1.00  0.00     0.074 A 
ATOM     36  C   UNL A   1      38.367  31.115  30.200  1.00  0.00     0.049 A 
ATOM     37  N   UNL A   1      39.121  31.925  32.989  1.00  0.00    -0.248 NA
ATOM     38  C   UNL A   1      37.410  33.512  32.940  1.00  0.00     0.031 C 
ATOM     39  C   UNL A   1      38.070  30.701  28.829  1.00  0.00     0.029 A 
ATOM     40  N   UNL A   1      39.445  30.341  30.555  1.00  0.00    -0.354 N 
ATOM     41  C   UNL A   1      39.128  32.642  34.178  1.00  0.00     0.074 A 
ATOM     42  C   UNL A   1      38.092  33.647  34.067  1.00  0.00     0.031 C 
ATOM     43  C   UNL A   1      38.928  29.735  28.466  1.00  0.00     0.029 A 
ATOM     44  C   UNL A   1      39.857  29.484  29.564  1.00  0.00     0.049 A 
ATOM     45  H   UNL A   1      39.880  30.394  31.436  1.00  0.00     0.167 HD
ATOM     46  C   UNL A   1      39.916  32.469  35.269  1.00  0.00     0.037 A 
ATOM     47  C   UNL A   1      40.873  28.600  29.535  1.00  0.00     0.037 A 
ATOM     48  C   UNL A   1      40.939  31.459  35.381  1.00  0.00     0.049 A 
ATOM     49  C   UNL A   1      41.731  28.419  30.758  1.00  0.00     0.074 A 
ATOM     50  C   UNL A   1      41.730  31.150  36.474  1.00  0.00     0.029 A 
ATOM     51  N   UNL A   1      41.324  30.605  34.357  1.00  0.00    -0.354 N 
ATOM     52  N   UNL A   1      41.667  29.038  31.910  1.00  0.00    -0.248 NA
ATOM     53  C   UNL A   1      42.796  27.409  30.677  1.00  0.00     0.031 C 
ATOM     54  C   UNL A   1      42.640  30.158  36.091  1.00  0.00     0.029 A 
ATOM     55  C   UNL A   1      42.371  29.799  34.780  1.00  0.00     0.049 A 
ATOM     56  H   UNL A   1      40.915  30.575  33.463  1.00  0.00     0.167 HD
ATOM     57  C   UNL A   1      42.667  28.484  32.699  1.00  0.00     0.074 A 
ATOM     58  C   UNL A   1      43.309  27.462  31.898  1.00  0.00     0.031 C 
ATOM     59  C   UNL A   1      43.018  28.794  33.972  1.00  0.00     0.037 A 
BRANCH  46  60
ATOM     60  C   UNL A   1      39.715  33.410  36.426  1.00  0.00     0.064 A 
ATOM     61  C   UNL A   1      38.860  33.101  37.495  1.00  0.00     0.173 A 
ATOM     62  C   UNL A   1      40.404  34.632  36.473  1.00  0.00     0.173 A 
ATOM     63  F   UNL A   1      38.172  31.949  37.501  1.00  0.00    -0.203 F 
ATOM     64  C   UNL A   1      38.667  34.000  38.543  1.00  0.00     0.198 A 
ATOM     65  C   UNL A   1      40.236  35.511  37.539  1.00  0.00     0.198 A 
ATOM     66  F   UNL A   1      41.243  34.974  35.483  1.00  0.00    -0.203 F 
ATOM     67  F   UNL A   1      37.795  33.710  39.519  1.00  0.00    -0.200 F 
ATOM     68  C   UNL A   1      39.359  35.201  38.566  1.00  0.00     0.200 A 
ATOM     69  F   UNL A   1      40.920  36.664  37.569  1.00  0.00    -0.200 F 
ATOM     70  F   UNL A   1      39.173  36.063  39.575  1.00  0.00    -0.200 F 
ENDBRANCH  46  60
BRANCH  47  71
ATOM     71  C   UNL A   1      41.117  27.810  28.300  1.00  0.00     0.064 A 
ATOM     72  C   UNL A   1      42.072  28.210  27.356  1.00  0.00     0.173 A 
ATOM     73  C   UNL A   1      40.417  26.618  28.055  1.00  0.00     0.173 A 
ATOM     74  F   UNL A   1      42.752  29.352  27.535  1.00  0.00    -0.203 F 
ATOM     75  C   UNL A   1      42.314  27.452  26.212  1.00  0.00     0.198 A 
ATOM     76  C   UNL A   1      40.681  25.846  26.927  1.00  0.00     0.198 A 
ATOM     77  F   UNL A   1      39.496  26.189  28.932  1.00  0.00    -0.203 F 
ATOM     78  F   UNL A   1      43.211  27.873  25.309  1.00  0.00    -0.200 F 
ATOM     79  C   UNL A   1      41.625  26.266  26.003  1.00  0.00     0.200 A 
ATOM     80  F   UNL A   1      40.027  24.691  26.740  1.00  0.00    -0.200 F 
ATOM     81  F   UNL A   1      41.871  25.529  24.912  1.00  0.00    -0.200 F 
ENDBRANCH  47  71
BRANCH  59  82
ATOM     82  C   UNL A   1      44.142  28.010  34.589  1.00  0.00     0.064 A 
ATOM     83  C   UNL A   1      43.939  26.730  35.130  1.00  0.00     0.173 A 
ATOM     84  C   UNL A   1      45.446  28.528  34.609  1.00  0.00     0.173 A 
ATOM     85  F   UNL A   1      42.710  26.192  35.150  1.00  0.00    -0.203 F 
ATOM     86  C   UNL A   1      44.993  26.014  35.693  1.00  0.00     0.198 A 
ATOM     87  C   UNL A   1      46.503  27.795  35.142  1.00  0.00     0.198 A 
ATOM     88  F   UNL A   1      45.698  29.743  34.100  1.00  0.00    -0.203 F 
ATOM     89  F   UNL A   1      44.765  24.817  36.252  1.00  0.00    -0.200 F 
ATOM     90  C   UNL A   1      46.274  26.544  35.692  1.00  0.00     0.200 A 
ATOM     91  F   UNL A   1      47.743  28.302  35.125  1.00  0.00    -0.200 F 
ATOM     92  F   UNL A   1      47.288  25.850  36.228  1.00  0.00    -0.200 F 
ENDBRANCH  59  82
ENDBRANCH  33  34
ENDBRANCH  25  28
ENDBRANCH  23  24
ENDBRANCH  22  23
ENDBRANCH  21  22
ENDBRANCH   3  21
TORSDOF 15
ENDMDL
