MODEL 1
REMARK VINA RESULT:     -12.7      0.000      0.000
REMARK SMILES CCOc1ccc(-n2ncc(C(=O)NCCCNC(=O)c3ccc(-c4c5nc(c(-c6c(F)c(F)c(F)c(F)c6F)c6ccc([nH]6)c(-c6c(F)c(F)c(F)c(F)c6F)c6nc(c(-c7c(F)c(F)c(F)c(F)c7F)c7ccc4[nH]7)C=C6)C=C5)cc3)c2C)nn1
REMARK SMILES IDX 15 1 14 2 12 3 13 4 11 6 8 7 9 8 84 9 10 10 85 11 7 12 4 13
REMARK SMILES IDX 5 14 87 15 6 16 86 17 3 18 2 19 1 20 16 21 17 22 18 23 19 24
REMARK SMILES IDX 20 26 21 27 22 28 83 29 23 30 82 31 24 32 25 33 26 34 76 35
REMARK SMILES IDX 27 36 81 37 75 38 77 39 28 40 80 41 74 42 73 43 29 45 61 46
REMARK SMILES IDX 41 47 60 48 42 49 45 50 59 51 78 52 43 53 44 54 58 56 79 57
REMARK SMILES IDX 46 58 30 59 31 60 39 61 32 62 33 63 37 64 40 65 34 66 35 67
REMARK SMILES IDX 38 68 36 69 62 70 63 71 71 72 64 73 65 74 69 75 72 76 66 77
REMARK SMILES IDX 67 78 70 79 68 80 47 81 48 82 56 83 49 84 50 85 54 86 57 87
REMARK SMILES IDX 51 88 52 89 55 90 53 91
REMARK H PARENT 14 5 18 25 77 44 45 55
REMARK Flexibility Score: inf
ROOT
ATOM      1  C   UNL A   1      36.705  20.409  24.846  1.00  0.00     0.118 C 
ENDROOT
BRANCH   1   2
ATOM      2  N   UNL A   1      35.389  19.819  25.033  1.00  0.00    -0.352 N 
ATOM      3  C   UNL A   1      34.123  20.350  25.041  1.00  0.00     0.254 C 
ATOM      4  O   UNL A   1      33.197  19.550  25.183  1.00  0.00    -0.269 OA
ATOM      5  H   UNL A   1      35.410  18.846  25.184  1.00  0.00     0.163 HD
BRANCH   3   6
ATOM      6  C   UNL A   1      33.885  21.774  24.842  1.00  0.00     0.081 A 
ATOM      7  N   UNL A   1      33.294  23.900  25.214  1.00  0.00    -0.217 N 
ATOM      8  N   UNL A   1      33.486  23.802  23.872  1.00  0.00    -0.174 NA
ATOM      9  C   UNL A   1      33.540  22.688  25.846  1.00  0.00     0.056 A 
ATOM     10  C   UNL A   1      33.936  22.569  23.686  1.00  0.00     0.149 A 
ATOM     11  C   UNL A   1      33.342  22.439  27.304  1.00  0.00     0.068 C 
BRANCH   7  12
ATOM     12  C   UNL A   1      32.884  25.152  25.751  1.00  0.00     0.176 A 
ATOM     13  C   UNL A   1      32.187  27.510  26.868  1.00  0.00     0.233 A 
ATOM     14  C   UNL A   1      33.441  27.410  26.304  1.00  0.00     0.074 A 
ATOM     15  N   UNL A   1      31.305  26.489  26.879  1.00  0.00    -0.110 NA
ATOM     16  C   UNL A   1      33.799  26.200  25.732  1.00  0.00     0.057 A 
ATOM     17  N   UNL A   1      31.652  25.297  26.292  1.00  0.00    -0.127 NA
BRANCH  13  18
ATOM     18  O   UNL A   1      31.850  28.661  27.532  1.00  0.00    -0.477 OA
BRANCH  18  19
ATOM     19  C   UNL A   1      32.526  29.786  26.967  1.00  0.00     0.228 C 
ATOM     20  C   UNL A   1      31.645  30.487  25.942  1.00  0.00     0.049 C 
ENDBRANCH  18  19
ENDBRANCH  13  18
ENDBRANCH   7  12
ENDBRANCH   3   6
ENDBRANCH   1   2
BRANCH   1  21
ATOM     21  C   UNL A   1      37.831  19.380  25.013  1.00  0.00     0.042 C 
BRANCH  21  22
ATOM     22  C   UNL A   1      39.067  19.995  25.652  1.00  0.00     0.118 C 
BRANCH  22  23
ATOM     23  N   UNL A   1      40.193  19.049  25.729  1.00  0.00    -0.352 N 
ATOM     24  C   UNL A   1      41.538  19.299  25.929  1.00  0.00     0.251 C 
ATOM     25  H   UNL A   1      39.954  18.100  25.620  1.00  0.00     0.163 HD
ATOM     26  O   UNL A   1      42.387  18.454  25.648  1.00  0.00    -0.269 OA
BRANCH  24  27
ATOM     27  C   UNL A   1      41.942  20.592  26.493  1.00  0.00     0.039 A 
ATOM     28  C   UNL A   1      42.484  21.626  25.721  1.00  0.00     0.014 A 
ATOM     29  C   UNL A   1      41.702  20.772  27.845  1.00  0.00     0.014 A 
ATOM     30  C   UNL A   1      42.708  22.862  26.325  1.00  0.00     0.010 A 
ATOM     31  C   UNL A   1      41.652  22.034  28.347  1.00  0.00     0.010 A 
ATOM     32  C   UNL A   1      42.272  23.054  27.643  1.00  0.00    -0.014 A 
BRANCH  32  33
ATOM     33  C   UNL A   1      42.356  24.335  28.330  1.00  0.00     0.031 A 
ATOM     34  C   UNL A   1      41.173  25.210  28.129  1.00  0.00     0.074 A 
ATOM     35  C   UNL A   1      43.287  24.546  29.290  1.00  0.00     0.049 A 
ATOM     36  N   UNL A   1      41.136  26.375  27.573  1.00  0.00    -0.248 NA
ATOM     37  C   UNL A   1      39.843  24.663  28.451  1.00  0.00     0.031 C 
ATOM     38  C   UNL A   1      44.302  23.608  29.798  1.00  0.00     0.029 A 
ATOM     39  N   UNL A   1      43.442  25.609  30.122  1.00  0.00    -0.354 N 
ATOM     40  C   UNL A   1      39.814  26.801  27.675  1.00  0.00     0.074 A 
ATOM     41  C   UNL A   1      39.042  25.636  28.015  1.00  0.00     0.031 C 
ATOM     42  C   UNL A   1      44.780  24.043  30.984  1.00  0.00     0.029 A 
ATOM     43  C   UNL A   1      44.248  25.368  31.232  1.00  0.00     0.049 A 
ATOM     44  H   UNL A   1      43.018  26.482  29.953  1.00  0.00     0.167 HD
ATOM     45  C   UNL A   1      39.519  28.128  27.755  1.00  0.00     0.037 A 
ATOM     46  C   UNL A   1      44.432  26.193  32.292  1.00  0.00     0.037 A 
ATOM     47  C   UNL A   1      40.634  28.925  27.301  1.00  0.00     0.049 A 
ATOM     48  C   UNL A   1      44.000  27.547  31.862  1.00  0.00     0.074 A 
ATOM     49  C   UNL A   1      41.344  29.014  26.119  1.00  0.00     0.029 A 
ATOM     50  N   UNL A   1      41.432  29.514  28.253  1.00  0.00    -0.354 N 
ATOM     51  N   UNL A   1      44.621  28.247  30.952  1.00  0.00    -0.248 NA
ATOM     52  C   UNL A   1      42.608  27.904  32.087  1.00  0.00     0.031 C 
ATOM     53  C   UNL A   1      42.705  29.185  26.517  1.00  0.00     0.029 A 
ATOM     54  C   UNL A   1      42.738  29.277  27.909  1.00  0.00     0.049 A 
ATOM     55  H   UNL A   1      41.121  30.015  29.041  1.00  0.00     0.167 HD
ATOM     56  C   UNL A   1      43.607  28.816  30.196  1.00  0.00     0.074 A 
ATOM     57  C   UNL A   1      42.391  28.631  30.986  1.00  0.00     0.031 C 
ATOM     58  C   UNL A   1      43.798  29.108  28.874  1.00  0.00     0.037 A 
BRANCH  45  59
ATOM     59  C   UNL A   1      38.420  28.708  28.622  1.00  0.00     0.064 A 
ATOM     60  C   UNL A   1      37.614  29.735  28.088  1.00  0.00     0.173 A 
ATOM     61  C   UNL A   1      38.324  28.535  30.021  1.00  0.00     0.173 A 
ATOM     62  F   UNL A   1      37.616  29.992  26.771  1.00  0.00    -0.203 F 
ATOM     63  C   UNL A   1      36.868  30.591  28.903  1.00  0.00     0.198 A 
ATOM     64  C   UNL A   1      37.537  29.358  30.825  1.00  0.00     0.198 A 
ATOM     65  F   UNL A   1      39.062  27.645  30.692  1.00  0.00    -0.203 F 
ATOM     66  F   UNL A   1      36.237  31.641  28.361  1.00  0.00    -0.200 F 
ATOM     67  C   UNL A   1      36.841  30.410  30.273  1.00  0.00     0.200 A 
ATOM     68  F   UNL A   1      37.535  29.171  32.153  1.00  0.00    -0.200 F 
ATOM     69  F   UNL A   1      36.190  31.272  31.063  1.00  0.00    -0.200 F 
ENDBRANCH  45  59
BRANCH  46  70
ATOM     70  C   UNL A   1      44.645  25.839  33.716  1.00  0.00     0.064 A 
ATOM     71  C   UNL A   1      43.560  25.591  34.574  1.00  0.00     0.173 A 
ATOM     72  C   UNL A   1      45.916  25.458  34.193  1.00  0.00     0.173 A 
ATOM     73  F   UNL A   1      42.312  25.883  34.180  1.00  0.00    -0.203 F 
ATOM     74  C   UNL A   1      43.733  24.976  35.819  1.00  0.00     0.198 A 
ATOM     75  C   UNL A   1      46.087  24.848  35.437  1.00  0.00     0.198 A 
ATOM     76  F   UNL A   1      47.004  25.580  33.418  1.00  0.00    -0.203 F 
ATOM     77  F   UNL A   1      42.665  24.700  36.583  1.00  0.00    -0.200 F 
ATOM     78  C   UNL A   1      44.995  24.595  36.245  1.00  0.00     0.200 A 
ATOM     79  F   UNL A   1      47.308  24.448  35.819  1.00  0.00    -0.200 F 
ATOM     80  F   UNL A   1      45.152  23.947  37.408  1.00  0.00    -0.200 F 
ENDBRANCH  46  70
BRANCH  58  81
ATOM     81  C   UNL A   1      45.201  29.029  28.334  1.00  0.00     0.064 A 
ATOM     82  C   UNL A   1      45.771  27.870  27.774  1.00  0.00     0.173 A 
ATOM     83  C   UNL A   1      45.945  30.211  28.249  1.00  0.00     0.173 A 
ATOM     84  F   UNL A   1      45.089  26.721  27.722  1.00  0.00    -0.203 F 
ATOM     85  C   UNL A   1      47.040  27.889  27.198  1.00  0.00     0.198 A 
ATOM     86  C   UNL A   1      47.197  30.237  27.640  1.00  0.00     0.198 A 
ATOM     87  F   UNL A   1      45.432  31.361  28.714  1.00  0.00    -0.203 F 
ATOM     88  F   UNL A   1      47.562  26.767  26.681  1.00  0.00    -0.200 F 
ATOM     89  C   UNL A   1      47.749  29.075  27.125  1.00  0.00     0.200 A 
ATOM     90  F   UNL A   1      47.857  31.397  27.528  1.00  0.00    -0.200 F 
ATOM     91  F   UNL A   1      48.952  29.105  26.535  1.00  0.00    -0.200 F 
ENDBRANCH  58  81
ENDBRANCH  32  33
ENDBRANCH  24  27
ENDBRANCH  22  23
ENDBRANCH  21  22
ENDBRANCH   1  21
TORSDOF 13
ENDMDL
MODEL 2
REMARK VINA RESULT:     -12.1      3.099      7.766
REMARK SMILES CCOc1ccc(-n2ncc(C(=O)NCCCNC(=O)c3ccc(-c4c5nc(c(-c6c(F)c(F)c(F)c(F)c6F)c6ccc([nH]6)c(-c6c(F)c(F)c(F)c(F)c6F)c6nc(c(-c7c(F)c(F)c(F)c(F)c7F)c7ccc4[nH]7)C=C6)C=C5)cc3)c2C)nn1
REMARK SMILES IDX 15 1 14 2 12 3 13 4 11 6 8 7 9 8 84 9 10 10 85 11 7 12 4 13
REMARK SMILES IDX 5 14 87 15 6 16 86 17 3 18 2 19 1 20 16 21 17 22 18 23 19 24
REMARK SMILES IDX 20 26 21 27 22 28 83 29 23 30 82 31 24 32 25 33 26 34 76 35
REMARK SMILES IDX 27 36 81 37 75 38 77 39 28 40 80 41 74 42 73 43 29 45 61 46
REMARK SMILES IDX 41 47 60 48 42 49 45 50 59 51 78 52 43 53 44 54 58 56 79 57
REMARK SMILES IDX 46 58 30 59 31 60 39 61 32 62 33 63 37 64 40 65 34 66 35 67
REMARK SMILES IDX 38 68 36 69 62 70 63 71 71 72 64 73 65 74 69 75 72 76 66 77
REMARK SMILES IDX 67 78 70 79 68 80 47 81 48 82 56 83 49 84 50 85 54 86 57 87
REMARK SMILES IDX 51 88 52 89 55 90 53 91
REMARK H PARENT 14 5 18 25 77 44 45 55
REMARK Flexibility Score: inf
ROOT
ATOM      1  C   UNL A   1      31.852  29.781  25.448  1.00  0.00     0.118 C 
ENDROOT
BRANCH   1   2
ATOM      2  N   UNL A   1      32.867  29.692  24.409  1.00  0.00    -0.352 N 
ATOM      3  C   UNL A   1      33.194  28.708  23.510  1.00  0.00     0.254 C 
ATOM      4  O   UNL A   1      34.097  28.974  22.715  1.00  0.00    -0.269 OA
ATOM      5  H   UNL A   1      33.429  30.497  24.337  1.00  0.00     0.163 HD
BRANCH   3   6
ATOM      6  C   UNL A   1      32.479  27.438  23.465  1.00  0.00     0.081 A 
ATOM      7  N   UNL A   1      31.986  25.270  23.713  1.00  0.00    -0.217 N 
ATOM      8  N   UNL A   1      31.041  25.767  22.871  1.00  0.00    -0.174 NA
ATOM      9  C   UNL A   1      32.875  26.260  24.109  1.00  0.00     0.056 A 
ATOM     10  C   UNL A   1      31.287  27.069  22.821  1.00  0.00     0.149 A 
ATOM     11  C   UNL A   1      34.073  26.025  24.967  1.00  0.00     0.068 C 
BRANCH   7  12
ATOM     12  C   UNL A   1      31.940  23.887  24.044  1.00  0.00     0.176 A 
ATOM     13  C   UNL A   1      31.941  21.284  24.760  1.00  0.00     0.233 A 
ATOM     14  C   UNL A   1      31.392  22.192  25.638  1.00  0.00     0.074 A 
ATOM     15  N   UNL A   1      32.467  21.640  23.570  1.00  0.00    -0.110 NA
ATOM     16  C   UNL A   1      31.391  23.529  25.271  1.00  0.00     0.057 A 
ATOM     17  N   UNL A   1      32.447  22.961  23.197  1.00  0.00    -0.127 NA
BRANCH  13  18
ATOM     18  O   UNL A   1      32.049  19.972  25.145  1.00  0.00    -0.477 OA
BRANCH  18  19
ATOM     19  C   UNL A   1      33.411  19.541  25.094  1.00  0.00     0.228 C 
ATOM     20  C   UNL A   1      33.555  18.311  24.209  1.00  0.00     0.049 C 
ENDBRANCH  18  19
ENDBRANCH  13  18
ENDBRANCH   7  12
ENDBRANCH   3   6
ENDBRANCH   1   2
BRANCH   1  21
ATOM     21  C   UNL A   1      32.402  29.396  26.829  1.00  0.00     0.042 C 
BRANCH  21  22
ATOM     22  C   UNL A   1      33.894  29.674  26.940  1.00  0.00     0.118 C 
BRANCH  22  23
ATOM     23  N   UNL A   1      34.190  31.108  27.097  1.00  0.00    -0.352 N 
ATOM     24  C   UNL A   1      35.182  31.722  27.837  1.00  0.00     0.251 C 
ATOM     25  H   UNL A   1      33.594  31.718  26.604  1.00  0.00     0.163 HD
ATOM     26  O   UNL A   1      35.106  32.916  28.129  1.00  0.00    -0.269 OA
BRANCH  24  27
ATOM     27  C   UNL A   1      36.340  30.930  28.267  1.00  0.00     0.039 A 
ATOM     28  C   UNL A   1      36.501  29.577  27.947  1.00  0.00     0.014 A 
ATOM     29  C   UNL A   1      37.320  31.611  28.972  1.00  0.00     0.014 A 
ATOM     30  C   UNL A   1      37.699  28.950  28.285  1.00  0.00     0.010 A 
ATOM     31  C   UNL A   1      38.572  31.086  29.040  1.00  0.00     0.010 A 
ATOM     32  C   UNL A   1      38.735  29.726  28.823  1.00  0.00    -0.014 A 
BRANCH  32  33
ATOM     33  C   UNL A   1      40.061  29.196  29.109  1.00  0.00     0.031 A 
ATOM     34  C   UNL A   1      40.347  29.027  30.556  1.00  0.00     0.074 A 
ATOM     35  C   UNL A   1      40.810  28.638  28.128  1.00  0.00     0.049 A 
ATOM     36  N   UNL A   1      41.263  29.608  31.255  1.00  0.00    -0.248 NA
ATOM     37  C   UNL A   1      39.407  28.225  31.359  1.00  0.00     0.031 C 
ATOM     38  C   UNL A   1      40.466  28.459  26.708  1.00  0.00     0.029 A 
ATOM     39  N   UNL A   1      41.997  27.984  28.218  1.00  0.00    -0.354 N 
ATOM     40  C   UNL A   1      41.155  29.078  32.538  1.00  0.00     0.074 A 
ATOM     41  C   UNL A   1      39.880  28.415  32.591  1.00  0.00     0.031 C 
ATOM     42  C   UNL A   1      41.288  27.546  26.147  1.00  0.00     0.029 A 
ATOM     43  C   UNL A   1      42.323  27.214  27.104  1.00  0.00     0.049 A 
ATOM     44  H   UNL A   1      42.582  28.049  29.008  1.00  0.00     0.167 HD
ATOM     45  C   UNL A   1      42.249  28.986  33.343  1.00  0.00     0.037 A 
ATOM     46  C   UNL A   1      43.355  26.340  26.999  1.00  0.00     0.037 A 
ATOM     47  C   UNL A   1      43.304  29.851  32.870  1.00  0.00     0.049 A 
ATOM     48  C   UNL A   1      44.315  26.678  28.081  1.00  0.00     0.074 A 
ATOM     49  C   UNL A   1      43.413  31.211  32.645  1.00  0.00     0.029 A 
ATOM     50  N   UNL A   1      44.339  29.279  32.170  1.00  0.00    -0.354 N 
ATOM     51  N   UNL A   1      44.995  27.791  28.119  1.00  0.00    -0.248 NA
ATOM     52  C   UNL A   1      44.143  26.004  29.358  1.00  0.00     0.031 C 
ATOM     53  C   UNL A   1      44.177  31.326  31.444  1.00  0.00     0.029 A 
ATOM     54  C   UNL A   1      44.561  30.043  31.053  1.00  0.00     0.049 A 
ATOM     55  H   UNL A   1      44.831  28.466  32.425  1.00  0.00     0.167 HD
ATOM     56  C   UNL A   1      44.957  28.180  29.450  1.00  0.00     0.074 A 
ATOM     57  C   UNL A   1      44.484  27.004  30.177  1.00  0.00     0.031 C 
ATOM     58  C   UNL A   1      45.020  29.500  29.796  1.00  0.00     0.037 A 
BRANCH  45  59
ATOM     59  C   UNL A   1      42.524  27.828  34.282  1.00  0.00     0.064 A 
ATOM     60  C   UNL A   1      43.077  26.646  33.749  1.00  0.00     0.173 A 
ATOM     61  C   UNL A   1      41.990  27.707  35.585  1.00  0.00     0.173 A 
ATOM     62  F   UNL A   1      43.617  26.637  32.520  1.00  0.00    -0.203 F 
ATOM     63  C   UNL A   1      42.996  25.422  34.417  1.00  0.00     0.198 A 
ATOM     64  C   UNL A   1      41.959  26.494  36.271  1.00  0.00     0.198 A 
ATOM     65  F   UNL A   1      41.379  28.716  36.213  1.00  0.00    -0.203 F 
ATOM     66  F   UNL A   1      43.404  24.303  33.805  1.00  0.00    -0.200 F 
ATOM     67  C   UNL A   1      42.424  25.345  35.673  1.00  0.00     0.200 A 
ATOM     68  F   UNL A   1      41.389  26.440  37.484  1.00  0.00    -0.200 F 
ATOM     69  F   UNL A   1      42.275  24.163  36.285  1.00  0.00    -0.200 F 
ENDBRANCH  45  59
BRANCH  46  70
ATOM     70  C   UNL A   1      43.415  25.061  26.251  1.00  0.00     0.064 A 
ATOM     71  C   UNL A   1      44.398  24.837  25.272  1.00  0.00     0.173 A 
ATOM     72  C   UNL A   1      42.693  23.929  26.680  1.00  0.00     0.173 A 
ATOM     73  F   UNL A   1      45.161  25.852  24.841  1.00  0.00    -0.203 F 
ATOM     74  C   UNL A   1      44.659  23.556  24.772  1.00  0.00     0.198 A 
ATOM     75  C   UNL A   1      42.952  22.653  26.177  1.00  0.00     0.198 A 
ATOM     76  F   UNL A   1      41.789  24.025  27.666  1.00  0.00    -0.203 F 
ATOM     77  F   UNL A   1      45.646  23.374  23.883  1.00  0.00    -0.200 F 
ATOM     78  C   UNL A   1      43.943  22.464  25.232  1.00  0.00     0.200 A 
ATOM     79  F   UNL A   1      42.280  21.599  26.660  1.00  0.00    -0.200 F 
ATOM     80  F   UNL A   1      44.238  21.228  24.801  1.00  0.00    -0.200 F 
ENDBRANCH  46  70
BRANCH  58  81
ATOM     81  C   UNL A   1      45.380  30.491  28.722  1.00  0.00     0.064 A 
ATOM     82  C   UNL A   1      44.445  31.129  27.884  1.00  0.00     0.173 A 
ATOM     83  C   UNL A   1      46.710  30.919  28.635  1.00  0.00     0.173 A 
ATOM     84  F   UNL A   1      43.140  30.853  27.972  1.00  0.00    -0.203 F 
ATOM     85  C   UNL A   1      44.834  32.113  26.977  1.00  0.00     0.198 A 
ATOM     86  C   UNL A   1      47.091  31.929  27.755  1.00  0.00     0.198 A 
ATOM     87  F   UNL A   1      47.638  30.390  29.447  1.00  0.00    -0.203 F 
ATOM     88  F   UNL A   1      43.922  32.696  26.184  1.00  0.00    -0.200 F 
ATOM     89  C   UNL A   1      46.156  32.517  26.919  1.00  0.00     0.200 A 
ATOM     90  F   UNL A   1      48.362  32.351  27.738  1.00  0.00    -0.200 F 
ATOM     91  F   UNL A   1      46.526  33.492  26.077  1.00  0.00    -0.200 F 
ENDBRANCH  58  81
ENDBRANCH  32  33
ENDBRANCH  24  27
ENDBRANCH  22  23
ENDBRANCH  21  22
ENDBRANCH   1  21
TORSDOF 13
ENDMDL
MODEL 3
REMARK VINA RESULT:     -12.1      2.560      7.176
REMARK SMILES CCOc1ccc(-n2ncc(C(=O)NCCCNC(=O)c3ccc(-c4c5nc(c(-c6c(F)c(F)c(F)c(F)c6F)c6ccc([nH]6)c(-c6c(F)c(F)c(F)c(F)c6F)c6nc(c(-c7c(F)c(F)c(F)c(F)c7F)c7ccc4[nH]7)C=C6)C=C5)cc3)c2C)nn1
REMARK SMILES IDX 15 1 14 2 12 3 13 4 11 6 8 7 9 8 84 9 10 10 85 11 7 12 4 13
REMARK SMILES IDX 5 14 87 15 6 16 86 17 3 18 2 19 1 20 16 21 17 22 18 23 19 24
REMARK SMILES IDX 20 26 21 27 22 28 83 29 23 30 82 31 24 32 25 33 26 34 76 35
REMARK SMILES IDX 27 36 81 37 75 38 77 39 28 40 80 41 74 42 73 43 29 45 61 46
REMARK SMILES IDX 41 47 60 48 42 49 45 50 59 51 78 52 43 53 44 54 58 56 79 57
REMARK SMILES IDX 46 58 30 59 31 60 39 61 32 62 33 63 37 64 40 65 34 66 35 67
REMARK SMILES IDX 38 68 36 69 62 70 63 71 71 72 64 73 65 74 69 75 72 76 66 77
REMARK SMILES IDX 67 78 70 79 68 80 47 81 48 82 56 83 49 84 50 85 54 86 57 87
REMARK SMILES IDX 51 88 52 89 55 90 53 91
REMARK H PARENT 14 5 18 25 77 44 45 55
REMARK Flexibility Score: inf
ROOT
ATOM      1  C   UNL A   1      36.832  20.534  25.330  1.00  0.00     0.118 C 
ENDROOT
BRANCH   1   2
ATOM      2  N   UNL A   1      35.634  19.829  24.904  1.00  0.00    -0.352 N 
ATOM      3  C   UNL A   1      34.295  20.094  25.053  1.00  0.00     0.254 C 
ATOM      4  O   UNL A   1      33.519  19.300  24.520  1.00  0.00    -0.269 OA
ATOM      5  H   UNL A   1      35.819  18.998  24.410  1.00  0.00     0.163 HD
BRANCH   3   6
ATOM      6  C   UNL A   1      33.820  21.276  25.762  1.00  0.00     0.081 A 
ATOM      7  N   UNL A   1      33.092  23.350  26.182  1.00  0.00    -0.217 N 
ATOM      8  N   UNL A   1      33.406  22.819  27.394  1.00  0.00    -0.174 NA
ATOM      9  C   UNL A   1      33.317  22.436  25.161  1.00  0.00     0.056 A 
ATOM     10  C   UNL A   1      33.734  21.561  27.134  1.00  0.00     0.149 A 
ATOM     11  C   UNL A   1      33.148  22.734  23.708  1.00  0.00     0.068 C 
BRANCH   7  12
ATOM     12  C   UNL A   1      32.613  24.689  26.132  1.00  0.00     0.176 A 
ATOM     13  C   UNL A   1      31.794  27.262  26.122  1.00  0.00     0.233 A 
ATOM     14  C   UNL A   1      33.007  26.970  25.537  1.00  0.00     0.074 A 
ATOM     15  N   UNL A   1      31.008  26.322  26.687  1.00  0.00    -0.110 NA
ATOM     16  C   UNL A   1      33.428  25.650  25.542  1.00  0.00     0.057 A 
ATOM     17  N   UNL A   1      31.415  25.011  26.673  1.00  0.00    -0.127 NA
BRANCH  13  18
ATOM     18  O   UNL A   1      31.405  28.573  26.222  1.00  0.00    -0.477 OA
BRANCH  18  19
ATOM     19  C   UNL A   1      32.270  29.289  27.108  1.00  0.00     0.228 C 
ATOM     20  C   UNL A   1      32.158  30.789  26.876  1.00  0.00     0.049 C 
ENDBRANCH  18  19
ENDBRANCH  13  18
ENDBRANCH   7  12
ENDBRANCH   3   6
ENDBRANCH   1   2
BRANCH   1  21
ATOM     21  C   UNL A   1      36.932  21.935  24.709  1.00  0.00     0.042 C 
BRANCH  21  22
ATOM     22  C   UNL A   1      37.954  22.801  25.433  1.00  0.00     0.118 C 
BRANCH  22  23
ATOM     23  N   UNL A   1      38.937  22.003  26.186  1.00  0.00    -0.352 N 
ATOM     24  C   UNL A   1      40.060  22.419  26.876  1.00  0.00     0.251 C 
ATOM     25  H   UNL A   1      38.771  21.033  26.198  1.00  0.00     0.163 HD
ATOM     26  O   UNL A   1      40.949  21.622  27.175  1.00  0.00    -0.269 OA
BRANCH  24  27
ATOM     27  C   UNL A   1      40.175  23.831  27.257  1.00  0.00     0.039 A 
ATOM     28  C   UNL A   1      39.102  24.727  27.202  1.00  0.00     0.014 A 
ATOM     29  C   UNL A   1      41.408  24.235  27.743  1.00  0.00     0.014 A 
ATOM     30  C   UNL A   1      39.278  26.011  27.715  1.00  0.00     0.010 A 
ATOM     31  C   UNL A   1      41.487  25.369  28.489  1.00  0.00     0.010 A 
ATOM     32  C   UNL A   1      40.480  26.314  28.370  1.00  0.00    -0.014 A 
BRANCH  32  33
ATOM     33  C   UNL A   1      40.725  27.585  29.036  1.00  0.00     0.031 A 
ATOM     34  C   UNL A   1      41.804  28.396  28.417  1.00  0.00     0.074 A 
ATOM     35  C   UNL A   1      39.838  28.080  29.932  1.00  0.00     0.049 A 
ATOM     36  N   UNL A   1      42.917  28.772  28.951  1.00  0.00    -0.248 NA
ATOM     37  C   UNL A   1      41.702  28.704  26.979  1.00  0.00     0.031 C 
ATOM     38  C   UNL A   1      38.559  27.496  30.367  1.00  0.00     0.029 A 
ATOM     39  N   UNL A   1      39.825  29.288  30.553  1.00  0.00    -0.354 N 
ATOM     40  C   UNL A   1      43.556  29.549  27.988  1.00  0.00     0.074 A 
ATOM     41  C   UNL A   1      42.877  29.290  26.747  1.00  0.00     0.031 C 
ATOM     42  C   UNL A   1      37.801  28.440  30.964  1.00  0.00     0.029 A 
ATOM     43  C   UNL A   1      38.601  29.637  31.120  1.00  0.00     0.049 A 
ATOM     44  H   UNL A   1      40.617  29.871  30.599  1.00  0.00     0.167 HD
ATOM     45  C   UNL A   1      44.398  30.554  28.358  1.00  0.00     0.037 A 
ATOM     46  C   UNL A   1      38.270  30.842  31.648  1.00  0.00     0.037 A 
ATOM     47  C   UNL A   1      44.820  30.387  29.728  1.00  0.00     0.049 A 
ATOM     48  C   UNL A   1      39.542  31.556  31.922  1.00  0.00     0.074 A 
ATOM     49  C   UNL A   1      45.480  29.391  30.424  1.00  0.00     0.029 A 
ATOM     50  N   UNL A   1      44.213  31.162  30.687  1.00  0.00    -0.354 N 
ATOM     51  N   UNL A   1      40.405  31.172  32.823  1.00  0.00    -0.248 NA
ATOM     52  C   UNL A   1      40.075  32.397  30.862  1.00  0.00     0.031 C 
ATOM     53  C   UNL A   1      44.827  29.331  31.692  1.00  0.00     0.029 A 
ATOM     54  C   UNL A   1      43.868  30.343  31.731  1.00  0.00     0.049 A 
ATOM     55  H   UNL A   1      44.052  32.132  30.632  1.00  0.00     0.167 HD
ATOM     56  C   UNL A   1      41.643  31.346  32.220  1.00  0.00     0.074 A 
ATOM     57  C   UNL A   1      41.380  32.173  31.044  1.00  0.00     0.031 C 
ATOM     58  C   UNL A   1      42.705  30.556  32.559  1.00  0.00     0.037 A 
BRANCH  45  59
ATOM     59  C   UNL A   1      44.501  31.887  27.645  1.00  0.00     0.064 A 
ATOM     60  C   UNL A   1      45.625  32.129  26.830  1.00  0.00     0.173 A 
ATOM     61  C   UNL A   1      43.734  33.031  27.965  1.00  0.00     0.173 A 
ATOM     62  F   UNL A   1      46.429  31.122  26.457  1.00  0.00    -0.203 F 
ATOM     63  C   UNL A   1      46.013  33.421  26.465  1.00  0.00     0.198 A 
ATOM     64  C   UNL A   1      44.094  34.313  27.555  1.00  0.00     0.198 A 
ATOM     65  F   UNL A   1      42.669  32.985  28.772  1.00  0.00    -0.203 F 
ATOM     66  F   UNL A   1      47.169  33.609  25.815  1.00  0.00    -0.200 F 
ATOM     67  C   UNL A   1      45.254  34.514  26.840  1.00  0.00     0.200 A 
ATOM     68  F   UNL A   1      43.349  35.359  27.939  1.00  0.00    -0.200 F 
ATOM     69  F   UNL A   1      45.661  35.758  26.558  1.00  0.00    -0.200 F 
ENDBRANCH  45  59
BRANCH  46  70
ATOM     70  C   UNL A   1      36.956  31.531  31.633  1.00  0.00     0.064 A 
ATOM     71  C   UNL A   1      36.353  31.971  32.823  1.00  0.00     0.173 A 
ATOM     72  C   UNL A   1      36.404  32.025  30.434  1.00  0.00     0.173 A 
ATOM     73  F   UNL A   1      36.845  31.584  34.009  1.00  0.00    -0.203 F 
ATOM     74  C   UNL A   1      35.280  32.870  32.815  1.00  0.00     0.198 A 
ATOM     75  C   UNL A   1      35.331  32.918  30.427  1.00  0.00     0.198 A 
ATOM     76  F   UNL A   1      36.958  31.727  29.250  1.00  0.00    -0.203 F 
ATOM     77  F   UNL A   1      34.771  33.314  33.973  1.00  0.00    -0.200 F 
ATOM     78  C   UNL A   1      34.777  33.351  31.617  1.00  0.00     0.200 A 
ATOM     79  F   UNL A   1      34.881  33.408  29.263  1.00  0.00    -0.200 F 
ATOM     80  F   UNL A   1      33.793  34.262  31.611  1.00  0.00    -0.200 F 
ENDBRANCH  46  70
BRANCH  58  81
ATOM     81  C   UNL A   1      42.563  29.671  33.769  1.00  0.00     0.064 A 
ATOM     82  C   UNL A   1      42.039  28.364  33.739  1.00  0.00     0.173 A 
ATOM     83  C   UNL A   1      43.112  30.110  34.978  1.00  0.00     0.173 A 
ATOM     84  F   UNL A   1      41.585  27.828  32.600  1.00  0.00    -0.203 F 
ATOM     85  C   UNL A   1      42.028  27.558  34.876  1.00  0.00     0.198 A 
ATOM     86  C   UNL A   1      43.136  29.291  36.104  1.00  0.00     0.198 A 
ATOM     87  F   UNL A   1      43.678  31.324  35.056  1.00  0.00    -0.203 F 
ATOM     88  F   UNL A   1      41.514  26.321  34.820  1.00  0.00    -0.200 F 
ATOM     89  C   UNL A   1      42.584  28.020  36.056  1.00  0.00     0.200 A 
ATOM     90  F   UNL A   1      43.719  29.724  37.230  1.00  0.00    -0.200 F 
ATOM     91  F   UNL A   1      42.613  27.233  37.140  1.00  0.00    -0.200 F 
ENDBRANCH  58  81
ENDBRANCH  32  33
ENDBRANCH  24  27
ENDBRANCH  22  23
ENDBRANCH  21  22
ENDBRANCH   1  21
TORSDOF 13
ENDMDL
