MODEL 1
REMARK VINA RESULT:     -13.4      0.000      0.000
REMARK SMILES O=C(NCCCNC(=O)c1ccc(-c2c3nc(c(-c4c(F)c(F)c(F)c(F)c4F)c4ccc([nH]4)c(-c4c(F)c(F)c(F)c(F)c4F)c4nc(c(-c5c(F)c(F)c(F)c(F)c5F)c5ccc2[nH]5)C=C4)C=C3)cc1)C1=Cc2cc(S(F)(F)(F)(F)F)ccc2O[C@@H]1C(F)(F)F
REMARK SMILES IDX 5 1 4 2 3 3 1 4 2 5 73 7 74 8 88 9 75 10 87 11 76 12 86 13
REMARK SMILES IDX 77 14 85 15 84 16 89 17 90 18 91 19 92 20 78 21 79 22 80 23
REMARK SMILES IDX 81 24 82 25 83 26 6 27 7 28 8 29 9 31 10 32 11 33 72 34
REMARK SMILES IDX 12 35 71 36 13 37 14 38 15 39 65 40 16 41 70 42 64 43 66 44
REMARK SMILES IDX 17 45 69 46 63 47 62 48 18 50 50 51 30 52 49 53 31 54 34 55
REMARK SMILES IDX 48 56 67 57 32 58 33 59 47 61 68 62 35 63 19 64 20 65 28 66
REMARK SMILES IDX 21 67 22 68 26 69 29 70 23 71 24 72 27 73 25 74 51 75 52 76
REMARK SMILES IDX 60 77 53 78 54 79 58 80 61 81 55 82 56 83 59 84 57 85 36 86
REMARK SMILES IDX 37 87 45 88 38 89 39 90 43 91 46 92 40 93 41 94 44 95 42 96
REMARK H PARENT 3 6 7 30 66 49 34 60
REMARK Flexibility Score: inf
ROOT
ATOM      1  C   UNL A   1      31.777  29.481  26.829  1.00  0.00     0.042 C 
ENDROOT
BRANCH   1   2
ATOM      2  C   UNL A   1      32.213  28.137  27.388  1.00  0.00     0.118 C 
BRANCH   2   3
ATOM      3  N   UNL A   1      33.376  27.646  26.635  1.00  0.00    -0.352 N 
ATOM      4  O   UNL A   1      34.295  25.954  25.243  1.00  0.00    -0.270 OA
ATOM      5  C   UNL A   1      33.290  26.379  25.894  1.00  0.00     0.251 C 
ATOM      6  H   UNL A   1      34.211  28.165  26.626  1.00  0.00     0.163 HD
BRANCH   5   7
ATOM      7  C   UNL A   1      31.999  25.577  25.907  1.00  0.00     0.067 C 
ATOM      8  C   UNL A   1      30.942  25.976  25.150  1.00  0.00     0.025 C 
ATOM      9  C   UNL A   1      31.888  24.328  26.769  1.00  0.00     0.314 C 
ATOM     10  C   UNL A   1      31.053  27.224  24.290  1.00  0.00     0.019 A 
ATOM     11  O   UNL A   1      33.254  26.560  23.693  1.00  0.00    -0.475 OA
ATOM     12  C   UNL A   1      30.008  28.134  24.294  1.00  0.00     0.036 A 
ATOM     13  C   UNL A   1      32.139  27.426  23.553  1.00  0.00     0.128 A 
ATOM     14  C   UNL A   1      30.080  29.095  23.257  1.00  0.00     0.107 A 
ATOM     15  C   UNL A   1      32.193  28.466  22.656  1.00  0.00     0.048 A 
ATOM     16  C   UNL A   1      31.172  29.370  22.566  1.00  0.00     0.028 A 
BRANCH   9  17
ATOM     17  C   UNL A   1      31.596  23.127  25.884  1.00  0.00     0.429 C 
ATOM     18  F   UNL A   1      32.101  23.336  24.671  1.00  0.00    -0.167 F 
ATOM     19  F   UNL A   1      32.150  22.041  26.414  1.00  0.00    -0.167 F 
ATOM     20  F   UNL A   1      30.280  22.954  25.791  1.00  0.00    -0.167 F 
ENDBRANCH   9  17
BRANCH  14  21
ATOM     21  S   UNL A   1      28.572  30.009  22.851  1.00  0.00     0.310 S 
ATOM     22  F   UNL A   1      29.310  30.852  21.729  1.00  0.00    -0.094 F 
ATOM     23  F   UNL A   1      29.007  31.124  23.877  1.00  0.00    -0.094 F 
ATOM     24  F   UNL A   1      27.277  30.795  22.503  1.00  0.00    -0.094 F 
ATOM     25  F   UNL A   1      28.224  28.955  21.729  1.00  0.00    -0.094 F 
ATOM     26  F   UNL A   1      29.938  29.259  23.113  1.00  0.00    -0.094 F 
ENDBRANCH  14  21
ENDBRANCH   5   7
ENDBRANCH   2   3
ENDBRANCH   1   2
BRANCH   1  27
ATOM     27  C   UNL A   1      32.995  30.375  26.654  1.00  0.00     0.118 C 
BRANCH  27  28
ATOM     28  N   UNL A   1      32.605  31.778  26.856  1.00  0.00    -0.352 N 
ATOM     29  C   UNL A   1      33.475  32.679  27.625  1.00  0.00     0.251 C 
ATOM     30  H   UNL A   1      31.761  32.114  26.476  1.00  0.00     0.163 HD
ATOM     31  O   UNL A   1      33.137  33.892  27.800  1.00  0.00    -0.269 OA
BRANCH  29  32
ATOM     32  C   UNL A   1      34.778  32.160  28.211  1.00  0.00     0.039 A 
ATOM     33  C   UNL A   1      35.903  32.966  28.290  1.00  0.00     0.014 A 
ATOM     34  C   UNL A   1      34.758  30.950  28.757  1.00  0.00     0.014 A 
ATOM     35  C   UNL A   1      37.066  32.285  28.720  1.00  0.00     0.010 A 
ATOM     36  C   UNL A   1      35.903  30.400  29.281  1.00  0.00     0.010 A 
ATOM     37  C   UNL A   1      37.065  31.118  29.337  1.00  0.00    -0.014 A 
BRANCH  37  38
ATOM     38  C   UNL A   1      38.292  30.600  30.071  1.00  0.00     0.031 A 
ATOM     39  C   UNL A   1      39.076  29.657  29.404  1.00  0.00     0.074 A 
ATOM     40  C   UNL A   1      38.508  31.002  31.377  1.00  0.00     0.049 A 
ATOM     41  N   UNL A   1      40.154  29.022  29.867  1.00  0.00    -0.248 NA
ATOM     42  C   UNL A   1      38.827  29.202  28.028  1.00  0.00     0.031 C 
ATOM     43  C   UNL A   1      37.727  31.959  32.054  1.00  0.00     0.029 A 
ATOM     44  N   UNL A   1      39.488  30.569  32.244  1.00  0.00    -0.354 N 
ATOM     45  C   UNL A   1      40.648  28.208  28.930  1.00  0.00     0.074 A 
ATOM     46  C   UNL A   1      39.797  28.308  27.736  1.00  0.00     0.031 C 
ATOM     47  C   UNL A   1      38.221  32.092  33.313  1.00  0.00     0.029 A 
ATOM     48  C   UNL A   1      39.319  31.222  33.444  1.00  0.00     0.049 A 
ATOM     49  H   UNL A   1      40.188  29.908  32.039  1.00  0.00     0.167 HD
ATOM     50  C   UNL A   1      41.774  27.390  29.024  1.00  0.00     0.037 A 
ATOM     51  C   UNL A   1      40.069  31.079  34.602  1.00  0.00     0.037 A 
ATOM     52  C   UNL A   1      42.550  27.279  30.168  1.00  0.00     0.049 A 
ATOM     53  C   UNL A   1      41.162  30.215  34.715  1.00  0.00     0.074 A 
ATOM     54  C   UNL A   1      43.693  26.465  30.277  1.00  0.00     0.029 A 
ATOM     55  N   UNL A   1      42.367  27.913  31.377  1.00  0.00    -0.354 N 
ATOM     56  N   UNL A   1      41.678  29.433  33.766  1.00  0.00    -0.248 NA
ATOM     57  C   UNL A   1      41.943  30.031  35.944  1.00  0.00     0.031 C 
ATOM     58  C   UNL A   1      44.187  26.598  31.537  1.00  0.00     0.029 A 
ATOM     59  C   UNL A   1      43.360  27.497  32.235  1.00  0.00     0.049 A 
ATOM     60  H   UNL A   1      41.649  28.553  31.590  1.00  0.00     0.167 HD
ATOM     61  C   UNL A   1      42.731  28.766  34.243  1.00  0.00     0.074 A 
ATOM     62  C   UNL A   1      42.913  29.136  35.653  1.00  0.00     0.031 C 
ATOM     63  C   UNL A   1      43.551  27.868  33.558  1.00  0.00     0.037 A 
BRANCH  50  64
ATOM     64  C   UNL A   1      42.172  26.574  27.805  1.00  0.00     0.064 A 
ATOM     65  C   UNL A   1      41.670  25.292  27.651  1.00  0.00     0.173 A 
ATOM     66  C   UNL A   1      42.993  27.105  26.908  1.00  0.00     0.173 A 
ATOM     67  F   UNL A   1      40.663  24.816  28.376  1.00  0.00    -0.203 F 
ATOM     68  C   UNL A   1      42.329  24.536  26.652  1.00  0.00     0.198 A 
ATOM     69  C   UNL A   1      43.491  26.344  25.878  1.00  0.00     0.198 A 
ATOM     70  F   UNL A   1      43.336  28.387  27.005  1.00  0.00    -0.203 F 
ATOM     71  F   UNL A   1      42.174  23.215  26.674  1.00  0.00    -0.200 F 
ATOM     72  C   UNL A   1      43.085  25.050  25.700  1.00  0.00     0.200 A 
ATOM     73  F   UNL A   1      44.382  26.871  25.044  1.00  0.00    -0.200 F 
ATOM     74  F   UNL A   1      43.434  24.348  24.626  1.00  0.00    -0.200 F 
ENDBRANCH  50  64
BRANCH  51  75
ATOM     75  C   UNL A   1      39.681  31.907  35.816  1.00  0.00     0.064 A 
ATOM     76  C   UNL A   1      38.656  31.471  36.639  1.00  0.00     0.173 A 
ATOM     77  C   UNL A   1      40.333  33.037  36.066  1.00  0.00     0.173 A 
ATOM     78  F   UNL A   1      38.151  30.241  36.580  1.00  0.00    -0.203 F 
ATOM     79  C   UNL A   1      38.196  32.452  37.548  1.00  0.00     0.198 A 
ATOM     80  C   UNL A   1      39.907  33.884  37.060  1.00  0.00     0.198 A 
ATOM     81  F   UNL A   1      41.406  33.352  35.347  1.00  0.00    -0.203 F 
ATOM     82  F   UNL A   1      37.007  32.260  38.114  1.00  0.00    -0.200 F 
ATOM     83  C   UNL A   1      38.862  33.544  37.874  1.00  0.00     0.200 A 
ATOM     84  F   UNL A   1      40.520  35.051  37.233  1.00  0.00    -0.200 F 
ATOM     85  F   UNL A   1      38.536  34.273  38.937  1.00  0.00    -0.200 F 
ENDBRANCH  51  75
BRANCH  63  86
ATOM     86  C   UNL A   1      44.725  27.259  34.307  1.00  0.00     0.064 A 
ATOM     87  C   UNL A   1      45.934  27.930  34.384  1.00  0.00     0.173 A 
ATOM     88  C   UNL A   1      44.529  26.115  34.955  1.00  0.00     0.173 A 
ATOM     89  F   UNL A   1      46.095  29.183  33.971  1.00  0.00    -0.203 F 
ATOM     90  C   UNL A   1      46.982  27.161  34.943  1.00  0.00     0.198 A 
ATOM     91  C   UNL A   1      45.570  25.488  35.595  1.00  0.00     0.198 A 
ATOM     92  F   UNL A   1      43.314  25.575  34.984  1.00  0.00    -0.203 F 
ATOM     93  F   UNL A   1      48.229  27.570  34.733  1.00  0.00    -0.200 F 
ATOM     94  C   UNL A   1      46.807  26.065  35.659  1.00  0.00     0.200 A 
ATOM     95  F   UNL A   1      45.370  24.300  36.160  1.00  0.00    -0.200 F 
ATOM     96  F   UNL A   1      47.782  25.552  36.403  1.00  0.00    -0.200 F 
ENDBRANCH  63  86
ENDBRANCH  37  38
ENDBRANCH  29  32
ENDBRANCH  27  28
ENDBRANCH   1  27
TORSDOF 12
ENDMDL
MODEL 2
REMARK VINA RESULT:     -13.4      3.778      7.147
REMARK SMILES O=C(NCCCNC(=O)c1ccc(-c2c3nc(c(-c4c(F)c(F)c(F)c(F)c4F)c4ccc([nH]4)c(-c4c(F)c(F)c(F)c(F)c4F)c4nc(c(-c5c(F)c(F)c(F)c(F)c5F)c5ccc2[nH]5)C=C4)C=C3)cc1)C1=Cc2cc(S(F)(F)(F)(F)F)ccc2O[C@@H]1C(F)(F)F
REMARK SMILES IDX 5 1 4 2 3 3 1 4 2 5 73 7 74 8 88 9 75 10 87 11 76 12 86 13
REMARK SMILES IDX 77 14 85 15 84 16 89 17 90 18 91 19 92 20 78 21 79 22 80 23
REMARK SMILES IDX 81 24 82 25 83 26 6 27 7 28 8 29 9 31 10 32 11 33 72 34
REMARK SMILES IDX 12 35 71 36 13 37 14 38 15 39 65 40 16 41 70 42 64 43 66 44
REMARK SMILES IDX 17 45 69 46 63 47 62 48 18 50 50 51 30 52 49 53 31 54 34 55
REMARK SMILES IDX 48 56 67 57 32 58 33 59 47 61 68 62 35 63 19 64 20 65 28 66
REMARK SMILES IDX 21 67 22 68 26 69 29 70 23 71 24 72 27 73 25 74 51 75 52 76
REMARK SMILES IDX 60 77 53 78 54 79 58 80 61 81 55 82 56 83 59 84 57 85 36 86
REMARK SMILES IDX 37 87 45 88 38 89 39 90 43 91 46 92 40 93 41 94 44 95 42 96
REMARK H PARENT 3 6 7 30 66 49 34 60
REMARK Flexibility Score: inf
ROOT
ATOM      1  C   UNL A   1      36.187  23.624  24.686  1.00  0.00     0.042 C 
ENDROOT
BRANCH   1   2
ATOM      2  C   UNL A   1      35.103  24.680  24.815  1.00  0.00     0.118 C 
BRANCH   2   3
ATOM      3  N   UNL A   1      34.128  24.518  23.727  1.00  0.00    -0.352 N 
ATOM      4  O   UNL A   1      31.872  24.117  23.098  1.00  0.00    -0.270 OA
ATOM      5  C   UNL A   1      32.715  24.257  24.039  1.00  0.00     0.251 C 
ATOM      6  H   UNL A   1      34.420  24.584  22.790  1.00  0.00     0.163 HD
BRANCH   5   7
ATOM      7  C   UNL A   1      32.262  24.157  25.486  1.00  0.00     0.067 C 
ATOM      8  C   UNL A   1      32.222  25.271  26.265  1.00  0.00     0.025 C 
ATOM      9  C   UNL A   1      31.855  22.810  26.064  1.00  0.00     0.314 C 
ATOM     10  C   UNL A   1      32.629  26.617  25.689  1.00  0.00     0.019 A 
ATOM     11  O   UNL A   1      31.478  26.053  23.688  1.00  0.00    -0.475 OA
ATOM     12  C   UNL A   1      33.458  27.440  26.432  1.00  0.00     0.036 A 
ATOM     13  C   UNL A   1      32.191  26.982  24.490  1.00  0.00     0.128 A 
ATOM     14  C   UNL A   1      33.538  28.766  25.944  1.00  0.00     0.107 A 
ATOM     15  C   UNL A   1      32.422  28.252  24.018  1.00  0.00     0.048 A 
ATOM     16  C   UNL A   1      33.184  29.138  24.727  1.00  0.00     0.028 A 
BRANCH   9  17
ATOM     17  C   UNL A   1      30.412  22.877  26.534  1.00  0.00     0.429 C 
ATOM     18  F   UNL A   1      29.750  21.812  26.090  1.00  0.00    -0.167 F 
ATOM     19  F   UNL A   1      30.379  22.895  27.864  1.00  0.00    -0.167 F 
ATOM     20  F   UNL A   1      29.841  23.982  26.062  1.00  0.00    -0.167 F 
ENDBRANCH   9  17
BRANCH  14  21
ATOM     21  S   UNL A   1      34.169  30.039  27.065  1.00  0.00     0.310 S 
ATOM     22  F   UNL A   1      34.351  28.997  28.247  1.00  0.00    -0.094 F 
ATOM     23  F   UNL A   1      32.700  30.268  27.586  1.00  0.00    -0.094 F 
ATOM     24  F   UNL A   1      34.711  31.132  28.028  1.00  0.00    -0.094 F 
ATOM     25  F   UNL A   1      35.649  29.697  26.634  1.00  0.00    -0.094 F 
ATOM     26  F   UNL A   1      33.647  28.849  26.166  1.00  0.00    -0.094 F 
ENDBRANCH  14  21
ENDBRANCH   5   7
ENDBRANCH   2   3
ENDBRANCH   1   2
BRANCH   1  27
ATOM     27  C   UNL A   1      37.150  23.741  25.857  1.00  0.00     0.118 C 
BRANCH  27  28
ATOM     28  N   UNL A   1      38.252  22.785  25.682  1.00  0.00    -0.352 N 
ATOM     29  C   UNL A   1      39.585  23.094  26.220  1.00  0.00     0.251 C 
ATOM     30  H   UNL A   1      38.098  21.938  25.205  1.00  0.00     0.163 HD
ATOM     31  O   UNL A   1      40.539  22.267  26.069  1.00  0.00    -0.269 OA
BRANCH  29  32
ATOM     32  C   UNL A   1      39.823  24.401  26.958  1.00  0.00     0.039 A 
ATOM     33  C   UNL A   1      39.530  24.531  28.306  1.00  0.00     0.014 A 
ATOM     34  C   UNL A   1      40.436  25.371  26.289  1.00  0.00     0.014 A 
ATOM     35  C   UNL A   1      39.668  25.850  28.798  1.00  0.00     0.010 A 
ATOM     36  C   UNL A   1      40.660  26.592  26.878  1.00  0.00     0.010 A 
ATOM     37  C   UNL A   1      40.342  26.809  28.190  1.00  0.00    -0.014 A 
BRANCH  37  38
ATOM     38  C   UNL A   1      40.742  28.087  28.910  1.00  0.00     0.031 A 
ATOM     39  C   UNL A   1      42.042  28.149  29.415  1.00  0.00     0.074 A 
ATOM     40  C   UNL A   1      39.784  29.064  29.117  1.00  0.00     0.049 A 
ATOM     41  N   UNL A   1      42.592  29.133  30.129  1.00  0.00    -0.248 NA
ATOM     42  C   UNL A   1      43.050  27.095  29.227  1.00  0.00     0.031 C 
ATOM     43  C   UNL A   1      38.473  29.014  28.603  1.00  0.00     0.029 A 
ATOM     44  N   UNL A   1      39.911  30.234  29.833  1.00  0.00    -0.354 N 
ATOM     45  C   UNL A   1      43.863  28.840  30.415  1.00  0.00     0.074 A 
ATOM     46  C   UNL A   1      44.174  27.522  29.844  1.00  0.00     0.031 C 
ATOM     47  C   UNL A   1      37.816  30.130  29.015  1.00  0.00     0.029 A 
ATOM     48  C   UNL A   1      38.705  30.898  29.791  1.00  0.00     0.049 A 
ATOM     49  H   UNL A   1      40.724  30.542  30.296  1.00  0.00     0.167 HD
ATOM     50  C   UNL A   1      44.774  29.621  31.126  1.00  0.00     0.037 A 
ATOM     51  C   UNL A   1      38.378  32.105  30.390  1.00  0.00     0.037 A 
ATOM     52  C   UNL A   1      44.460  30.849  31.689  1.00  0.00     0.049 A 
ATOM     53  C   UNL A   1      39.274  32.859  31.152  1.00  0.00     0.074 A 
ATOM     54  C   UNL A   1      45.369  31.652  32.403  1.00  0.00     0.029 A 
ATOM     55  N   UNL A   1      43.247  31.501  31.667  1.00  0.00    -0.354 N 
ATOM     56  N   UNL A   1      40.555  32.585  31.403  1.00  0.00    -0.248 NA
ATOM     57  C   UNL A   1      38.930  34.122  31.818  1.00  0.00     0.031 C 
ATOM     58  C   UNL A   1      44.711  32.769  32.814  1.00  0.00     0.029 A 
ATOM     59  C   UNL A   1      43.381  32.680  32.364  1.00  0.00     0.049 A 
ATOM     60  H   UNL A   1      42.426  31.179  31.228  1.00  0.00     0.167 HD
ATOM     61  C   UNL A   1      41.092  33.550  32.153  1.00  0.00     0.074 A 
ATOM     62  C   UNL A   1      40.053  34.549  32.436  1.00  0.00     0.031 C 
ATOM     63  C   UNL A   1      42.409  33.640  32.608  1.00  0.00     0.037 A 
BRANCH  50  64
ATOM     64  C   UNL A   1      46.190  29.096  31.295  1.00  0.00     0.064 A 
ATOM     65  C   UNL A   1      47.151  29.413  30.348  1.00  0.00     0.173 A 
ATOM     66  C   UNL A   1      46.484  28.344  32.348  1.00  0.00     0.173 A 
ATOM     67  F   UNL A   1      46.977  30.355  29.426  1.00  0.00    -0.203 F 
ATOM     68  C   UNL A   1      48.333  28.641  30.451  1.00  0.00     0.198 A 
ATOM     69  C   UNL A   1      47.709  27.730  32.451  1.00  0.00     0.198 A 
ATOM     70  F   UNL A   1      45.584  28.183  33.315  1.00  0.00    -0.203 F 
ATOM     71  F   UNL A   1      49.146  28.612  29.399  1.00  0.00    -0.200 F 
ATOM     72  C   UNL A   1      48.685  27.951  31.519  1.00  0.00     0.200 A 
ATOM     73  F   UNL A   1      47.948  26.909  33.469  1.00  0.00    -0.200 F 
ATOM     74  F   UNL A   1      49.923  27.492  31.681  1.00  0.00    -0.200 F 
ENDBRANCH  50  64
BRANCH  51  75
ATOM     75  C   UNL A   1      36.966  32.637  30.207  1.00  0.00     0.064 A 
ATOM     76  C   UNL A   1      36.677  33.441  29.117  1.00  0.00     0.173 A 
ATOM     77  C   UNL A   1      36.033  32.320  31.097  1.00  0.00     0.173 A 
ATOM     78  F   UNL A   1      37.495  33.577  28.078  1.00  0.00    -0.203 F 
ATOM     79  C   UNL A   1      35.431  34.105  29.211  1.00  0.00     0.198 A 
ATOM     80  C   UNL A   1      34.792  32.907  31.047  1.00  0.00     0.198 A 
ATOM     81  F   UNL A   1      36.303  31.428  32.046  1.00  0.00    -0.203 F 
ATOM     82  F   UNL A   1      35.227  35.152  28.415  1.00  0.00    -0.200 F 
ATOM     83  C   UNL A   1      34.456  33.758  30.032  1.00  0.00     0.200 A 
ATOM     84  F   UNL A   1      33.904  32.642  32.002  1.00  0.00    -0.200 F 
ATOM     85  F   UNL A   1      33.216  34.212  29.878  1.00  0.00    -0.200 F 
ENDBRANCH  51  75
BRANCH  63  86
ATOM     86  C   UNL A   1      42.802  34.863  33.419  1.00  0.00     0.064 A 
ATOM     87  C   UNL A   1      42.788  34.821  34.804  1.00  0.00     0.173 A 
ATOM     88  C   UNL A   1      43.241  35.934  32.767  1.00  0.00     0.173 A 
ATOM     89  F   UNL A   1      42.602  33.700  35.494  1.00  0.00    -0.203 F 
ATOM     90  C   UNL A   1      42.989  36.080  35.417  1.00  0.00     0.198 A 
ATOM     91  C   UNL A   1      43.549  37.088  33.445  1.00  0.00     0.198 A 
ATOM     92  F   UNL A   1      43.383  35.887  31.446  1.00  0.00    -0.203 F 
ATOM     93  F   UNL A   1      42.641  36.209  36.694  1.00  0.00    -0.200 F 
ATOM     94  C   UNL A   1      43.500  37.136  34.810  1.00  0.00     0.200 A 
ATOM     95  F   UNL A   1      43.900  38.174  32.763  1.00  0.00    -0.200 F 
ATOM     96  F   UNL A   1      43.942  38.189  35.491  1.00  0.00    -0.200 F 
ENDBRANCH  63  86
ENDBRANCH  37  38
ENDBRANCH  29  32
ENDBRANCH  27  28
ENDBRANCH   1  27
TORSDOF 12
ENDMDL
MODEL 3
REMARK VINA RESULT:     -13.4      1.762      3.548
REMARK SMILES O=C(NCCCNC(=O)c1ccc(-c2c3nc(c(-c4c(F)c(F)c(F)c(F)c4F)c4ccc([nH]4)c(-c4c(F)c(F)c(F)c(F)c4F)c4nc(c(-c5c(F)c(F)c(F)c(F)c5F)c5ccc2[nH]5)C=C4)C=C3)cc1)C1=Cc2cc(S(F)(F)(F)(F)F)ccc2O[C@@H]1C(F)(F)F
REMARK SMILES IDX 5 1 4 2 3 3 1 4 2 5 73 7 74 8 88 9 75 10 87 11 76 12 86 13
REMARK SMILES IDX 77 14 85 15 84 16 89 17 90 18 91 19 92 20 78 21 79 22 80 23
REMARK SMILES IDX 81 24 82 25 83 26 6 27 7 28 8 29 9 31 10 32 11 33 72 34
REMARK SMILES IDX 12 35 71 36 13 37 14 38 15 39 65 40 16 41 70 42 64 43 66 44
REMARK SMILES IDX 17 45 69 46 63 47 62 48 18 50 50 51 30 52 49 53 31 54 34 55
REMARK SMILES IDX 48 56 67 57 32 58 33 59 47 61 68 62 35 63 19 64 20 65 28 66
REMARK SMILES IDX 21 67 22 68 26 69 29 70 23 71 24 72 27 73 25 74 51 75 52 76
REMARK SMILES IDX 60 77 53 78 54 79 58 80 61 81 55 82 56 83 59 84 57 85 36 86
REMARK SMILES IDX 37 87 45 88 38 89 39 90 43 91 46 92 40 93 41 94 44 95 42 96
REMARK H PARENT 3 6 7 30 66 49 34 60
REMARK Flexibility Score: inf
ROOT
ATOM      1  C   UNL A   1      31.882  29.819  27.251  1.00  0.00     0.042 C 
ENDROOT
BRANCH   1   2
ATOM      2  C   UNL A   1      32.488  28.426  27.291  1.00  0.00     0.118 C 
BRANCH   2   3
ATOM      3  N   UNL A   1      31.423  27.433  27.494  1.00  0.00    -0.352 N 
ATOM      4  O   UNL A   1      29.890  25.906  26.512  1.00  0.00    -0.270 OA
ATOM      5  C   UNL A   1      30.811  26.764  26.337  1.00  0.00     0.251 C 
ATOM      6  H   UNL A   1      31.120  27.215  28.404  1.00  0.00     0.163 HD
BRANCH   5   7
ATOM      7  C   UNL A   1      31.280  27.100  24.930  1.00  0.00     0.067 C 
ATOM      8  C   UNL A   1      32.322  26.421  24.381  1.00  0.00     0.025 C 
ATOM      9  C   UNL A   1      30.584  28.195  24.138  1.00  0.00     0.314 C 
ATOM     10  C   UNL A   1      33.018  25.326  25.173  1.00  0.00     0.019 A 
ATOM     11  O   UNL A   1      30.892  24.594  25.937  1.00  0.00    -0.475 OA
ATOM     12  C   UNL A   1      34.403  25.287  25.185  1.00  0.00     0.036 A 
ATOM     13  C   UNL A   1      32.298  24.432  25.838  1.00  0.00     0.128 A 
ATOM     14  C   UNL A   1      34.938  24.082  25.699  1.00  0.00     0.107 A 
ATOM     15  C   UNL A   1      32.902  23.349  26.433  1.00  0.00     0.048 A 
ATOM     16  C   UNL A   1      34.262  23.216  26.432  1.00  0.00     0.028 A 
BRANCH   9  17
ATOM     17  C   UNL A   1      30.006  27.607  22.861  1.00  0.00     0.429 C 
ATOM     18  F   UNL A   1      29.077  28.426  22.375  1.00  0.00    -0.167 F 
ATOM     19  F   UNL A   1      30.976  27.456  21.963  1.00  0.00    -0.167 F 
ATOM     20  F   UNL A   1      29.459  26.424  23.126  1.00  0.00    -0.167 F 
ENDBRANCH   9  17
BRANCH  14  21
ATOM     21  S   UNL A   1      36.668  23.702  25.325  1.00  0.00     0.310 S 
ATOM     22  F   UNL A   1      36.602  22.328  26.114  1.00  0.00    -0.094 F 
ATOM     23  F   UNL A   1      37.080  24.384  26.685  1.00  0.00    -0.094 F 
ATOM     24  F   UNL A   1      38.154  23.376  25.005  1.00  0.00    -0.094 F 
ATOM     25  F   UNL A   1      36.224  22.901  24.039  1.00  0.00    -0.094 F 
ATOM     26  F   UNL A   1      35.147  23.927  25.694  1.00  0.00    -0.094 F 
ENDBRANCH  14  21
ENDBRANCH   5   7
ENDBRANCH   2   3
ENDBRANCH   1   2
BRANCH   1  27
ATOM     27  C   UNL A   1      32.825  30.760  26.520  1.00  0.00     0.118 C 
BRANCH  27  28
ATOM     28  N   UNL A   1      32.440  32.152  26.796  1.00  0.00    -0.352 N 
ATOM     29  C   UNL A   1      33.305  33.002  27.626  1.00  0.00     0.251 C 
ATOM     30  H   UNL A   1      31.603  32.514  26.425  1.00  0.00     0.163 HD
ATOM     31  O   UNL A   1      32.971  34.206  27.866  1.00  0.00    -0.269 OA
BRANCH  29  32
ATOM     32  C   UNL A   1      34.597  32.444  28.198  1.00  0.00     0.039 A 
ATOM     33  C   UNL A   1      35.800  33.115  28.049  1.00  0.00     0.014 A 
ATOM     34  C   UNL A   1      34.505  31.354  28.952  1.00  0.00     0.014 A 
ATOM     35  C   UNL A   1      36.924  32.387  28.507  1.00  0.00     0.010 A 
ATOM     36  C   UNL A   1      35.633  30.772  29.480  1.00  0.00     0.010 A 
ATOM     37  C   UNL A   1      36.862  31.350  29.322  1.00  0.00    -0.014 A 
BRANCH  37  38
ATOM     38  C   UNL A   1      38.092  30.825  30.044  1.00  0.00     0.031 A 
ATOM     39  C   UNL A   1      38.852  29.859  29.380  1.00  0.00     0.074 A 
ATOM     40  C   UNL A   1      38.336  31.246  31.339  1.00  0.00     0.049 A 
ATOM     41  N   UNL A   1      39.927  29.215  29.837  1.00  0.00    -0.248 NA
ATOM     42  C   UNL A   1      38.573  29.385  28.017  1.00  0.00     0.031 C 
ATOM     43  C   UNL A   1      37.581  32.226  32.012  1.00  0.00     0.029 A 
ATOM     44  N   UNL A   1      39.324  30.813  32.197  1.00  0.00    -0.354 N 
ATOM     45  C   UNL A   1      40.393  28.379  28.906  1.00  0.00     0.074 A 
ATOM     46  C   UNL A   1      39.524  28.472  27.724  1.00  0.00     0.031 C 
ATOM     47  C   UNL A   1      38.097  32.372  33.261  1.00  0.00     0.029 A 
ATOM     48  C   UNL A   1      39.184  31.488  33.389  1.00  0.00     0.049 A 
ATOM     49  H   UNL A   1      40.010  30.137  31.992  1.00  0.00     0.167 HD
ATOM     50  C   UNL A   1      41.508  27.545  28.996  1.00  0.00     0.037 A 
ATOM     51  C   UNL A   1      39.952  31.353  34.537  1.00  0.00     0.037 A 
ATOM     52  C   UNL A   1      42.302  27.441  30.128  1.00  0.00     0.049 A 
ATOM     53  C   UNL A   1      41.033  30.474  34.646  1.00  0.00     0.074 A 
ATOM     54  C   UNL A   1      43.433  26.611  30.233  1.00  0.00     0.029 A 
ATOM     55  N   UNL A   1      42.147  28.099  31.329  1.00  0.00    -0.354 N 
ATOM     56  N   UNL A   1      41.521  29.669  33.703  1.00  0.00    -0.248 NA
ATOM     57  C   UNL A   1      41.831  30.299  35.866  1.00  0.00     0.031 C 
ATOM     58  C   UNL A   1      43.950  26.758  31.482  1.00  0.00     0.029 A 
ATOM     59  C   UNL A   1      43.148  27.682  32.178  1.00  0.00     0.049 A 
ATOM     60  H   UNL A   1      41.443  28.753  31.542  1.00  0.00     0.167 HD
ATOM     61  C   UNL A   1      42.572  28.994  34.174  1.00  0.00     0.074 A 
ATOM     62  C   UNL A   1      42.783  29.385  35.575  1.00  0.00     0.031 C 
ATOM     63  C   UNL A   1      43.367  28.072  33.491  1.00  0.00     0.037 A 
BRANCH  50  64
ATOM     64  C   UNL A   1      41.873  26.703  27.784  1.00  0.00     0.064 A 
ATOM     65  C   UNL A   1      41.322  25.440  27.642  1.00  0.00     0.173 A 
ATOM     66  C   UNL A   1      42.714  27.193  26.882  1.00  0.00     0.173 A 
ATOM     67  F   UNL A   1      40.297  25.010  28.371  1.00  0.00    -0.203 F 
ATOM     68  C   UNL A   1      41.950  24.649  26.651  1.00  0.00     0.198 A 
ATOM     69  C   UNL A   1      43.182  26.403  25.860  1.00  0.00     0.198 A 
ATOM     70  F   UNL A   1      43.107  28.461  26.967  1.00  0.00    -0.203 F 
ATOM     71  F   UNL A   1      41.744  23.336  26.685  1.00  0.00    -0.200 F 
ATOM     72  C   UNL A   1      42.725  25.125  25.694  1.00  0.00     0.200 A 
ATOM     73  F   UNL A   1      44.093  26.888  25.020  1.00  0.00    -0.200 F 
ATOM     74  F   UNL A   1      43.046  24.399  24.626  1.00  0.00    -0.200 F 
ENDBRANCH  50  64
BRANCH  51  75
ATOM     75  C   UNL A   1      39.596  32.207  35.742  1.00  0.00     0.064 A 
ATOM     76  C   UNL A   1      38.623  31.768  36.625  1.00  0.00     0.173 A 
ATOM     77  C   UNL A   1      40.225  33.362  35.928  1.00  0.00     0.173 A 
ATOM     78  F   UNL A   1      38.153  30.524  36.627  1.00  0.00    -0.203 F 
ATOM     79  C   UNL A   1      38.177  32.764  37.526  1.00  0.00     0.198 A 
ATOM     80  C   UNL A   1      39.822  34.227  36.916  1.00  0.00     0.198 A 
ATOM     81  F   UNL A   1      41.255  33.684  35.150  1.00  0.00    -0.203 F 
ATOM     82  F   UNL A   1      37.022  32.557  38.153  1.00  0.00    -0.200 F 
ATOM     83  C   UNL A   1      38.826  33.883  37.788  1.00  0.00     0.200 A 
ATOM     84  F   UNL A   1      40.408  35.415  37.025  1.00  0.00    -0.200 F 
ATOM     85  F   UNL A   1      38.528  34.636  38.843  1.00  0.00    -0.200 F 
ENDBRANCH  51  75
BRANCH  63  86
ATOM     86  C   UNL A   1      44.543  27.457  34.231  1.00  0.00     0.064 A 
ATOM     87  C   UNL A   1      45.763  28.113  34.281  1.00  0.00     0.173 A 
ATOM     88  C   UNL A   1      44.342  26.325  34.898  1.00  0.00     0.173 A 
ATOM     89  F   UNL A   1      45.934  29.358  33.848  1.00  0.00    -0.203 F 
ATOM     90  C   UNL A   1      46.808  27.338  34.835  1.00  0.00     0.198 A 
ATOM     91  C   UNL A   1      45.384  25.693  35.531  1.00  0.00     0.198 A 
ATOM     92  F   UNL A   1      43.121  25.802  34.951  1.00  0.00    -0.203 F 
ATOM     93  F   UNL A   1      48.058  27.727  34.601  1.00  0.00    -0.200 F 
ATOM     94  C   UNL A   1      46.629  26.254  35.569  1.00  0.00     0.200 A 
ATOM     95  F   UNL A   1      45.177  24.516  36.115  1.00  0.00    -0.200 F 
ATOM     96  F   UNL A   1      47.609  25.738  36.306  1.00  0.00    -0.200 F 
ENDBRANCH  63  86
ENDBRANCH  37  38
ENDBRANCH  29  32
ENDBRANCH  27  28
ENDBRANCH   1  27
TORSDOF 12
ENDMDL
