MODEL 1
REMARK VINA RESULT:     -11.0      0.000      0.000
REMARK SMILES C[C@@H](O)[C@@H](NC(=O)CSc1ccncc1)C(=O)NCCCNC(=O)c1ccc(-c2c3nc(c(-c4c(F)c(F)c(F)c(F)c4F)c4ccc([nH]4)c(-c4c(F)c(F)c(F)c(F)c4F)c4nc(c(-c5c(F)c(F)c(F)c(F)c5F)c5ccc2[nH]5)C=C4)C=C3)cc1
REMARK SMILES IDX 19 1 18 2 16 3 17 4 4 6 2 7 1 8 3 9 5 11 6 12 7 14 8 15 9 16
REMARK SMILES IDX 10 17 11 18 15 19 12 20 14 21 13 22 20 23 21 24 22 25 23 26
REMARK SMILES IDX 24 28 25 29 26 30 87 31 27 32 86 33 28 34 29 35 30 36 80 37
REMARK SMILES IDX 31 38 85 39 79 40 81 41 32 42 84 43 78 44 77 45 33 47 65 48
REMARK SMILES IDX 45 49 64 50 46 51 49 52 63 53 82 54 47 55 48 56 62 58 83 59
REMARK SMILES IDX 50 60 34 61 35 62 43 63 36 64 37 65 41 66 44 67 38 68 39 69
REMARK SMILES IDX 42 70 40 71 66 72 67 73 75 74 68 75 69 76 73 77 76 78 70 79
REMARK SMILES IDX 71 80 74 81 72 82 51 83 52 84 60 85 53 86 54 87 58 88 61 89
REMARK SMILES IDX 55 90 56 91 59 92 57 93
REMARK H PARENT 18 5 3 10 5 13 22 27 81 46 49 57
REMARK Flexibility Score: inf
ROOT
ATOM      1  C   UNL A   1      42.031  20.284  27.806  1.00  0.00     0.117 C 
ENDROOT
BRANCH   1   2
ATOM      2  N   UNL A   1      41.931  19.193  26.872  1.00  0.00    -0.354 N 
ATOM      3  C   UNL A   1      42.909  18.770  26.018  1.00  0.00     0.245 C 
ATOM      4  O   UNL A   1      42.796  17.643  25.528  1.00  0.00    -0.273 OA
ATOM      5  H   UNL A   1      41.077  18.706  26.846  1.00  0.00     0.163 HD
BRANCH   3   6
ATOM      6  C   UNL A   1      44.094  19.689  25.663  1.00  0.00     0.200 C 
BRANCH   6   7
ATOM      7  C   UNL A   1      45.233  18.780  25.080  1.00  0.00     0.143 C 
ATOM      8  C   UNL A   1      46.559  19.497  24.857  1.00  0.00     0.041 C 
BRANCH   7   9
ATOM      9  O   UNL A   1      45.497  17.658  25.924  1.00  0.00    -0.391 OA
ATOM     10  H   UNL A   1      44.731  17.498  26.496  1.00  0.00     0.211 HD
ENDBRANCH   7   9
ENDBRANCH   6   7
BRANCH   6  11
ATOM     11  N   UNL A   1      43.794  20.814  24.731  1.00  0.00    -0.341 N 
ATOM     12  C   UNL A   1      44.206  22.113  24.672  1.00  0.00     0.231 C 
ATOM     13  H   UNL A   1      43.169  20.569  24.010  1.00  0.00     0.164 HD
ATOM     14  O   UNL A   1      44.307  22.598  23.541  1.00  0.00    -0.274 OA
BRANCH  12  15
ATOM     15  C   UNL A   1      44.470  22.956  25.899  1.00  0.00     0.174 C 
BRANCH  15  16
ATOM     16  S   UNL A   1      46.125  23.778  25.969  1.00  0.00    -0.116 SA
BRANCH  16  17
ATOM     17  C   UNL A   1      45.924  25.464  25.390  1.00  0.00     0.011 A 
ATOM     18  C   UNL A   1      47.013  26.168  24.892  1.00  0.00     0.035 A 
ATOM     19  C   UNL A   1      44.747  26.177  25.631  1.00  0.00     0.035 A 
ATOM     20  C   UNL A   1      46.863  27.526  24.633  1.00  0.00     0.112 A 
ATOM     21  C   UNL A   1      44.688  27.529  25.337  1.00  0.00     0.112 A 
ATOM     22  N   UNL A   1      45.721  28.222  24.832  1.00  0.00    -0.265 NA
ENDBRANCH  16  17
ENDBRANCH  15  16
ENDBRANCH  12  15
ENDBRANCH   6  11
ENDBRANCH   3   6
ENDBRANCH   1   2
BRANCH   1  23
ATOM     23  C   UNL A   1      40.932  21.311  27.684  1.00  0.00     0.042 C 
BRANCH  23  24
ATOM     24  C   UNL A   1      40.795  21.855  26.269  1.00  0.00     0.118 C 
BRANCH  24  25
ATOM     25  N   UNL A   1      39.426  22.210  25.891  1.00  0.00    -0.352 N 
ATOM     26  C   UNL A   1      38.661  23.332  26.123  1.00  0.00     0.251 C 
ATOM     27  H   UNL A   1      38.962  21.513  25.373  1.00  0.00     0.163 HD
ATOM     28  O   UNL A   1      37.477  23.349  25.816  1.00  0.00    -0.269 OA
BRANCH  26  29
ATOM     29  C   UNL A   1      39.248  24.510  26.786  1.00  0.00     0.039 A 
ATOM     30  C   UNL A   1      40.024  25.413  26.049  1.00  0.00     0.014 A 
ATOM     31  C   UNL A   1      39.041  24.716  28.143  1.00  0.00     0.014 A 
ATOM     32  C   UNL A   1      40.516  26.564  26.669  1.00  0.00     0.010 A 
ATOM     33  C   UNL A   1      39.390  25.924  28.714  1.00  0.00     0.010 A 
ATOM     34  C   UNL A   1      40.161  26.848  27.996  1.00  0.00    -0.014 A 
BRANCH  34  35
ATOM     35  C   UNL A   1      40.614  28.059  28.720  1.00  0.00     0.031 A 
ATOM     36  C   UNL A   1      42.024  28.105  29.245  1.00  0.00     0.074 A 
ATOM     37  C   UNL A   1      39.734  29.029  29.028  1.00  0.00     0.049 A 
ATOM     38  N   UNL A   1      42.568  28.932  30.099  1.00  0.00    -0.248 NA
ATOM     39  C   UNL A   1      42.924  27.028  28.797  1.00  0.00     0.031 C 
ATOM     40  C   UNL A   1      38.332  29.068  28.612  1.00  0.00     0.029 A 
ATOM     41  N   UNL A   1      39.888  30.155  29.793  1.00  0.00    -0.354 N 
ATOM     42  C   UNL A   1      43.853  28.450  30.318  1.00  0.00     0.074 A 
ATOM     43  C   UNL A   1      43.978  27.218  29.573  1.00  0.00     0.031 C 
ATOM     44  C   UNL A   1      37.759  30.176  29.108  1.00  0.00     0.029 A 
ATOM     45  C   UNL A   1      38.737  30.894  29.919  1.00  0.00     0.049 A 
ATOM     46  H   UNL A   1      40.741  30.412  30.211  1.00  0.00     0.167 HD
ATOM     47  C   UNL A   1      44.849  29.003  31.049  1.00  0.00     0.037 A 
ATOM     48  C   UNL A   1      38.502  32.016  30.623  1.00  0.00     0.037 A 
ATOM     49  C   UNL A   1      44.719  30.251  31.750  1.00  0.00     0.049 A 
ATOM     50  C   UNL A   1      39.623  32.617  31.428  1.00  0.00     0.074 A 
ATOM     51  C   UNL A   1      45.677  30.945  32.465  1.00  0.00     0.029 A 
ATOM     52  N   UNL A   1      43.549  30.996  31.819  1.00  0.00    -0.354 N 
ATOM     53  N   UNL A   1      40.852  32.189  31.585  1.00  0.00    -0.248 NA
ATOM     54  C   UNL A   1      39.322  33.861  32.147  1.00  0.00     0.031 C 
ATOM     55  C   UNL A   1      45.072  32.083  33.011  1.00  0.00     0.029 A 
ATOM     56  C   UNL A   1      43.754  32.132  32.583  1.00  0.00     0.049 A 
ATOM     57  H   UNL A   1      42.698  30.751  31.387  1.00  0.00     0.167 HD
ATOM     58  C   UNL A   1      41.483  33.126  32.392  1.00  0.00     0.074 A 
ATOM     59  C   UNL A   1      40.500  34.152  32.680  1.00  0.00     0.031 C 
ATOM     60  C   UNL A   1      42.761  33.141  32.850  1.00  0.00     0.037 A 
BRANCH  47  61
ATOM     61  C   UNL A   1      46.154  28.257  31.119  1.00  0.00     0.064 A 
ATOM     62  C   UNL A   1      46.402  27.289  32.106  1.00  0.00     0.173 A 
ATOM     63  C   UNL A   1      47.173  28.517  30.192  1.00  0.00     0.173 A 
ATOM     64  F   UNL A   1      45.468  27.007  33.027  1.00  0.00    -0.203 F 
ATOM     65  C   UNL A   1      47.635  26.648  32.192  1.00  0.00     0.198 A 
ATOM     66  C   UNL A   1      48.391  27.845  30.255  1.00  0.00     0.198 A 
ATOM     67  F   UNL A   1      46.992  29.428  29.223  1.00  0.00    -0.203 F 
ATOM     68  F   UNL A   1      47.874  25.787  33.190  1.00  0.00    -0.200 F 
ATOM     69  C   UNL A   1      48.628  26.922  31.263  1.00  0.00     0.200 A 
ATOM     70  F   UNL A   1      49.344  28.100  29.347  1.00  0.00    -0.200 F 
ATOM     71  F   UNL A   1      49.814  26.307  31.345  1.00  0.00    -0.200 F 
ENDBRANCH  47  61
BRANCH  48  72
ATOM     72  C   UNL A   1      37.165  32.664  30.556  1.00  0.00     0.064 A 
ATOM     73  C   UNL A   1      36.839  33.510  29.487  1.00  0.00     0.173 A 
ATOM     74  C   UNL A   1      36.184  32.437  31.532  1.00  0.00     0.173 A 
ATOM     75  F   UNL A   1      37.750  33.769  28.537  1.00  0.00    -0.203 F 
ATOM     76  C   UNL A   1      35.589  34.119  29.405  1.00  0.00     0.198 A 
ATOM     77  C   UNL A   1      34.924  33.024  31.434  1.00  0.00     0.198 A 
ATOM     78  F   UNL A   1      36.442  31.628  32.569  1.00  0.00    -0.203 F 
ATOM     79  F   UNL A   1      35.318  34.954  28.393  1.00  0.00    -0.200 F 
ATOM     80  C   UNL A   1      34.630  33.870  30.375  1.00  0.00     0.200 A 
ATOM     81  F   UNL A   1      33.994  32.767  32.363  1.00  0.00    -0.200 F 
ATOM     82  F   UNL A   1      33.423  34.446  30.291  1.00  0.00    -0.200 F 
ENDBRANCH  48  72
BRANCH  60  83
ATOM     83  C   UNL A   1      43.180  34.326  33.672  1.00  0.00     0.064 A 
ATOM     84  C   UNL A   1      43.601  35.525  33.081  1.00  0.00     0.173 A 
ATOM     85  C   UNL A   1      43.117  34.269  35.073  1.00  0.00     0.173 A 
ATOM     86  F   UNL A   1      43.692  35.626  31.746  1.00  0.00    -0.203 F 
ATOM     87  C   UNL A   1      43.976  36.615  33.863  1.00  0.00     0.198 A 
ATOM     88  C   UNL A   1      43.456  35.373  35.850  1.00  0.00     0.198 A 
ATOM     89  F   UNL A   1      42.711  33.149  35.688  1.00  0.00    -0.203 F 
ATOM     90  F   UNL A   1      44.428  37.733  33.278  1.00  0.00    -0.200 F 
ATOM     91  C   UNL A   1      43.894  36.541  35.245  1.00  0.00     0.200 A 
ATOM     92  F   UNL A   1      43.359  35.304  37.185  1.00  0.00    -0.200 F 
ATOM     93  F   UNL A   1      44.245  37.594  35.996  1.00  0.00    -0.200 F 
ENDBRANCH  60  83
ENDBRANCH  34  35
ENDBRANCH  26  29
ENDBRANCH  24  25
ENDBRANCH  23  24
ENDBRANCH   1  23
TORSDOF 16
ENDMDL
MODEL 2
REMARK VINA RESULT:     -11.0      5.964     10.673
REMARK SMILES C[C@@H](O)[C@@H](NC(=O)CSc1ccncc1)C(=O)NCCCNC(=O)c1ccc(-c2c3nc(c(-c4c(F)c(F)c(F)c(F)c4F)c4ccc([nH]4)c(-c4c(F)c(F)c(F)c(F)c4F)c4nc(c(-c5c(F)c(F)c(F)c(F)c5F)c5ccc2[nH]5)C=C4)C=C3)cc1
REMARK SMILES IDX 19 1 18 2 16 3 17 4 4 6 2 7 1 8 3 9 5 11 6 12 7 14 8 15 9 16
REMARK SMILES IDX 10 17 11 18 15 19 12 20 14 21 13 22 20 23 21 24 22 25 23 26
REMARK SMILES IDX 24 28 25 29 26 30 87 31 27 32 86 33 28 34 29 35 30 36 80 37
REMARK SMILES IDX 31 38 85 39 79 40 81 41 32 42 84 43 78 44 77 45 33 47 65 48
REMARK SMILES IDX 45 49 64 50 46 51 49 52 63 53 82 54 47 55 48 56 62 58 83 59
REMARK SMILES IDX 50 60 34 61 35 62 43 63 36 64 37 65 41 66 44 67 38 68 39 69
REMARK SMILES IDX 42 70 40 71 66 72 67 73 75 74 68 75 69 76 73 77 76 78 70 79
REMARK SMILES IDX 71 80 74 81 72 82 51 83 52 84 60 85 53 86 54 87 58 88 61 89
REMARK SMILES IDX 55 90 56 91 59 92 57 93
REMARK H PARENT 18 5 3 10 5 13 22 27 81 46 49 57
REMARK Flexibility Score: inf
ROOT
ATOM      1  C   UNL A   1      31.882  30.762  26.283  1.00  0.00     0.117 C 
ENDROOT
BRANCH   1   2
ATOM      2  N   UNL A   1      31.515  29.695  27.177  1.00  0.00    -0.354 N 
ATOM      3  C   UNL A   1      31.594  28.358  26.912  1.00  0.00     0.245 C 
ATOM      4  O   UNL A   1      31.561  27.581  27.870  1.00  0.00    -0.273 OA
ATOM      5  H   UNL A   1      31.177  29.954  28.064  1.00  0.00     0.163 HD
BRANCH   3   6
ATOM      6  C   UNL A   1      31.689  27.848  25.461  1.00  0.00     0.200 C 
BRANCH   6   7
ATOM      7  C   UNL A   1      33.097  27.175  25.294  1.00  0.00     0.143 C 
ATOM      8  C   UNL A   1      33.776  27.460  23.960  1.00  0.00     0.041 C 
BRANCH   7   9
ATOM      9  O   UNL A   1      34.002  27.581  26.322  1.00  0.00    -0.391 OA
ATOM     10  H   UNL A   1      33.565  27.505  27.184  1.00  0.00     0.211 HD
ENDBRANCH   7   9
ENDBRANCH   6   7
BRANCH   6  11
ATOM     11  N   UNL A   1      30.609  26.919  25.022  1.00  0.00    -0.341 N 
ATOM     12  C   UNL A   1      30.000  26.697  23.821  1.00  0.00     0.231 C 
ATOM     13  H   UNL A   1      30.265  26.349  25.746  1.00  0.00     0.164 HD
ATOM     14  O   UNL A   1      29.631  25.538  23.607  1.00  0.00    -0.274 OA
BRANCH  12  15
ATOM     15  C   UNL A   1      29.719  27.793  22.818  1.00  0.00     0.174 C 
BRANCH  15  16
ATOM     16  S   UNL A   1      28.078  28.629  22.977  1.00  0.00    -0.116 SA
BRANCH  16  17
ATOM     17  C   UNL A   1      28.294  30.350  22.520  1.00  0.00     0.011 A 
ATOM     18  C   UNL A   1      28.482  31.317  23.498  1.00  0.00     0.035 A 
ATOM     19  C   UNL A   1      28.053  30.788  21.215  1.00  0.00     0.035 A 
ATOM     20  C   UNL A   1      28.454  32.656  23.124  1.00  0.00     0.112 A 
ATOM     21  C   UNL A   1      28.048  32.145  20.933  1.00  0.00     0.112 A 
ATOM     22  N   UNL A   1      28.253  33.094  21.860  1.00  0.00    -0.265 NA
ENDBRANCH  16  17
ENDBRANCH  15  16
ENDBRANCH  12  15
ENDBRANCH   6  11
ENDBRANCH   3   6
ENDBRANCH   1   2
BRANCH   1  23
ATOM     23  C   UNL A   1      31.559  32.144  26.797  1.00  0.00     0.042 C 
BRANCH  23  24
ATOM     24  C   UNL A   1      32.799  32.906  27.245  1.00  0.00     0.118 C 
BRANCH  24  25
ATOM     25  N   UNL A   1      32.533  34.270  27.705  1.00  0.00    -0.352 N 
ATOM     26  C   UNL A   1      33.080  35.032  28.713  1.00  0.00     0.251 C 
ATOM     27  H   UNL A   1      31.826  34.731  27.196  1.00  0.00     0.163 HD
ATOM     28  O   UNL A   1      32.598  36.120  28.999  1.00  0.00    -0.269 OA
BRANCH  26  29
ATOM     29  C   UNL A   1      34.225  34.528  29.491  1.00  0.00     0.039 A 
ATOM     30  C   UNL A   1      34.008  33.829  30.685  1.00  0.00     0.014 A 
ATOM     31  C   UNL A   1      35.520  34.757  29.045  1.00  0.00     0.014 A 
ATOM     32  C   UNL A   1      35.096  33.292  31.377  1.00  0.00     0.010 A 
ATOM     33  C   UNL A   1      36.576  34.097  29.639  1.00  0.00     0.010 A 
ATOM     34  C   UNL A   1      36.384  33.384  30.831  1.00  0.00    -0.014 A 
BRANCH  34  35
ATOM     35  C   UNL A   1      37.588  32.819  31.484  1.00  0.00     0.031 A 
ATOM     36  C   UNL A   1      38.301  31.670  30.823  1.00  0.00     0.074 A 
ATOM     37  C   UNL A   1      37.941  33.229  32.716  1.00  0.00     0.049 A 
ATOM     38  N   UNL A   1      39.212  30.866  31.306  1.00  0.00    -0.248 NA
ATOM     39  C   UNL A   1      37.880  31.343  29.449  1.00  0.00     0.031 C 
ATOM     40  C   UNL A   1      37.295  34.302  33.473  1.00  0.00     0.029 A 
ATOM     41  N   UNL A   1      38.916  32.765  33.559  1.00  0.00    -0.354 N 
ATOM     42  C   UNL A   1      39.436  29.919  30.314  1.00  0.00     0.074 A 
ATOM     43  C   UNL A   1      38.512  30.200  29.239  1.00  0.00     0.031 C 
ATOM     44  C   UNL A   1      37.907  34.429  34.661  1.00  0.00     0.029 A 
ATOM     45  C   UNL A   1      38.949  33.414  34.769  1.00  0.00     0.049 A 
ATOM     46  H   UNL A   1      39.535  32.037  33.322  1.00  0.00     0.167 HD
ATOM     47  C   UNL A   1      40.354  28.924  30.289  1.00  0.00     0.037 A 
ATOM     48  C   UNL A   1      39.727  33.199  35.846  1.00  0.00     0.037 A 
ATOM     49  C   UNL A   1      41.294  28.685  31.350  1.00  0.00     0.049 A 
ATOM     50  C   UNL A   1      40.743  32.089  35.798  1.00  0.00     0.074 A 
ATOM     51  C   UNL A   1      42.314  27.754  31.409  1.00  0.00     0.029 A 
ATOM     52  N   UNL A   1      41.327  29.393  32.544  1.00  0.00    -0.354 N 
ATOM     53  N   UNL A   1      40.991  31.233  34.836  1.00  0.00    -0.248 NA
ATOM     54  C   UNL A   1      41.591  31.921  36.985  1.00  0.00     0.031 C 
ATOM     55  C   UNL A   1      42.931  27.864  32.660  1.00  0.00     0.029 A 
ATOM     56  C   UNL A   1      42.337  28.905  33.357  1.00  0.00     0.049 A 
ATOM     57  H   UNL A   1      40.721  30.133  32.778  1.00  0.00     0.167 HD
ATOM     58  C   UNL A   1      42.044  30.448  35.284  1.00  0.00     0.074 A 
ATOM     59  C   UNL A   1      42.394  30.939  36.602  1.00  0.00     0.031 C 
ATOM     60  C   UNL A   1      42.669  29.416  34.662  1.00  0.00     0.037 A 
BRANCH  47  61
ATOM     61  C   UNL A   1      40.376  28.032  29.077  1.00  0.00     0.064 A 
ATOM     62  C   UNL A   1      41.140  28.344  27.941  1.00  0.00     0.173 A 
ATOM     63  C   UNL A   1      39.619  26.852  29.048  1.00  0.00     0.173 A 
ATOM     64  F   UNL A   1      41.875  29.467  27.908  1.00  0.00    -0.203 F 
ATOM     65  C   UNL A   1      41.107  27.539  26.807  1.00  0.00     0.198 A 
ATOM     66  C   UNL A   1      39.619  26.026  27.926  1.00  0.00     0.198 A 
ATOM     67  F   UNL A   1      38.872  26.498  30.105  1.00  0.00    -0.203 F 
ATOM     68  F   UNL A   1      41.783  27.901  25.708  1.00  0.00    -0.200 F 
ATOM     69  C   UNL A   1      40.351  26.376  26.801  1.00  0.00     0.200 A 
ATOM     70  F   UNL A   1      38.900  24.895  27.928  1.00  0.00    -0.200 F 
ATOM     71  F   UNL A   1      40.317  25.601  25.710  1.00  0.00    -0.200 F 
ENDBRANCH  47  61
BRANCH  48  72
ATOM     72  C   UNL A   1      39.605  34.083  37.035  1.00  0.00     0.064 A 
ATOM     73  C   UNL A   1      38.821  33.695  38.130  1.00  0.00     0.173 A 
ATOM     74  C   UNL A   1      40.279  35.309  37.116  1.00  0.00     0.173 A 
ATOM     75  F   UNL A   1      38.144  32.538  38.093  1.00  0.00    -0.203 F 
ATOM     76  C   UNL A   1      38.702  34.508  39.256  1.00  0.00     0.198 A 
ATOM     77  C   UNL A   1      40.183  36.108  38.254  1.00  0.00     0.198 A 
ATOM     78  F   UNL A   1      41.051  35.721  36.100  1.00  0.00    -0.203 F 
ATOM     79  F   UNL A   1      37.914  34.131  40.272  1.00  0.00    -0.200 F 
ATOM     80  C   UNL A   1      39.389  35.710  39.320  1.00  0.00     0.200 A 
ATOM     81  F   UNL A   1      40.863  37.261  38.320  1.00  0.00    -0.200 F 
ATOM     82  F   UNL A   1      39.284  36.487  40.406  1.00  0.00    -0.200 F 
ENDBRANCH  48  72
BRANCH  60  83
ATOM     83  C   UNL A   1      43.824  28.781  35.382  1.00  0.00     0.064 A 
ATOM     84  C   UNL A   1      45.146  29.203  35.177  1.00  0.00     0.173 A 
ATOM     85  C   UNL A   1      43.597  27.763  36.321  1.00  0.00     0.173 A 
ATOM     86  F   UNL A   1      45.418  30.163  34.279  1.00  0.00    -0.203 F 
ATOM     87  C   UNL A   1      46.201  28.607  35.862  1.00  0.00     0.198 A 
ATOM     88  C   UNL A   1      44.650  27.196  37.031  1.00  0.00     0.198 A 
ATOM     89  F   UNL A   1      42.350  27.330  36.560  1.00  0.00    -0.203 F 
ATOM     90  F   UNL A   1      47.461  28.987  35.611  1.00  0.00    -0.200 F 
ATOM     91  C   UNL A   1      45.952  27.611  36.795  1.00  0.00     0.200 A 
ATOM     92  F   UNL A   1      44.404  26.246  37.945  1.00  0.00    -0.200 F 
ATOM     93  F   UNL A   1      46.967  27.045  37.461  1.00  0.00    -0.200 F 
ENDBRANCH  60  83
ENDBRANCH  34  35
ENDBRANCH  26  29
ENDBRANCH  24  25
ENDBRANCH  23  24
ENDBRANCH   1  23
TORSDOF 16
ENDMDL
MODEL 3
REMARK VINA RESULT:     -10.7      5.047      9.021
REMARK SMILES C[C@@H](O)[C@@H](NC(=O)CSc1ccncc1)C(=O)NCCCNC(=O)c1ccc(-c2c3nc(c(-c4c(F)c(F)c(F)c(F)c4F)c4ccc([nH]4)c(-c4c(F)c(F)c(F)c(F)c4F)c4nc(c(-c5c(F)c(F)c(F)c(F)c5F)c5ccc2[nH]5)C=C4)C=C3)cc1
REMARK SMILES IDX 19 1 18 2 16 3 17 4 4 6 2 7 1 8 3 9 5 11 6 12 7 14 8 15 9 16
REMARK SMILES IDX 10 17 11 18 15 19 12 20 14 21 13 22 20 23 21 24 22 25 23 26
REMARK SMILES IDX 24 28 25 29 26 30 87 31 27 32 86 33 28 34 29 35 30 36 80 37
REMARK SMILES IDX 31 38 85 39 79 40 81 41 32 42 84 43 78 44 77 45 33 47 65 48
REMARK SMILES IDX 45 49 64 50 46 51 49 52 63 53 82 54 47 55 48 56 62 58 83 59
REMARK SMILES IDX 50 60 34 61 35 62 43 63 36 64 37 65 41 66 44 67 38 68 39 69
REMARK SMILES IDX 42 70 40 71 66 72 67 73 75 74 68 75 69 76 73 77 76 78 70 79
REMARK SMILES IDX 71 80 74 81 72 82 51 83 52 84 60 85 53 86 54 87 58 88 61 89
REMARK SMILES IDX 55 90 56 91 59 92 57 93
REMARK H PARENT 18 5 3 10 5 13 22 27 81 46 49 57
REMARK Flexibility Score: inf
ROOT
ATOM      1  C   UNL A   1      33.493  26.314  25.497  1.00  0.00     0.117 C 
ENDROOT
BRANCH   1   2
ATOM      2  N   UNL A   1      34.094  26.136  24.201  1.00  0.00    -0.354 N 
ATOM      3  C   UNL A   1      33.525  25.519  23.125  1.00  0.00     0.245 C 
ATOM      4  O   UNL A   1      34.016  25.732  22.014  1.00  0.00    -0.273 OA
ATOM      5  H   UNL A   1      35.003  26.495  24.079  1.00  0.00     0.163 HD
BRANCH   3   6
ATOM      6  C   UNL A   1      32.328  24.565  23.309  1.00  0.00     0.200 C 
BRANCH   6   7
ATOM      7  C   UNL A   1      31.046  25.323  22.810  1.00  0.00     0.143 C 
ATOM      8  C   UNL A   1      29.965  25.497  23.870  1.00  0.00     0.041 C 
BRANCH   7   9
ATOM      9  O   UNL A   1      31.363  26.624  22.312  1.00  0.00    -0.391 OA
ATOM     10  H   UNL A   1      30.624  27.226  22.492  1.00  0.00     0.211 HD
ENDBRANCH   7   9
ENDBRANCH   6   7
BRANCH   6  11
ATOM     11  N   UNL A   1      32.442  23.236  22.644  1.00  0.00    -0.341 N 
ATOM     12  C   UNL A   1      32.259  21.956  23.079  1.00  0.00     0.231 C 
ATOM     13  H   UNL A   1      32.703  23.293  21.697  1.00  0.00     0.164 HD
ATOM     14  O   UNL A   1      31.826  21.157  22.243  1.00  0.00    -0.274 OA
BRANCH  12  15
ATOM     15  C   UNL A   1      32.614  21.495  24.475  1.00  0.00     0.174 C 
BRANCH  15  16
ATOM     16  S   UNL A   1      34.231  20.616  24.645  1.00  0.00    -0.116 SA
BRANCH  16  17
ATOM     17  C   UNL A   1      33.888  18.861  24.792  1.00  0.00     0.011 A 
ATOM     18  C   UNL A   1      34.791  17.926  24.304  1.00  0.00     0.035 A 
ATOM     19  C   UNL A   1      32.628  18.400  25.184  1.00  0.00     0.035 A 
ATOM     20  C   UNL A   1      34.408  16.591  24.261  1.00  0.00     0.112 A 
ATOM     21  C   UNL A   1      32.336  17.048  25.112  1.00  0.00     0.112 A 
ATOM     22  N   UNL A   1      33.204  16.127  24.667  1.00  0.00    -0.265 NA
ENDBRANCH  16  17
ENDBRANCH  15  16
ENDBRANCH  12  15
ENDBRANCH   6  11
ENDBRANCH   3   6
ENDBRANCH   1   2
BRANCH   1  23
ATOM     23  C   UNL A   1      32.635  27.550  25.620  1.00  0.00     0.042 C 
BRANCH  23  24
ATOM     24  C   UNL A   1      33.409  28.830  25.332  1.00  0.00     0.118 C 
BRANCH  24  25
ATOM     25  N   UNL A   1      32.794  30.040  25.880  1.00  0.00    -0.352 N 
ATOM     26  C   UNL A   1      33.179  30.906  26.880  1.00  0.00     0.251 C 
ATOM     27  H   UNL A   1      31.940  30.282  25.452  1.00  0.00     0.163 HD
ATOM     28  O   UNL A   1      32.425  31.792  27.257  1.00  0.00    -0.269 OA
BRANCH  26  29
ATOM     29  C   UNL A   1      34.487  30.747  27.539  1.00  0.00     0.039 A 
ATOM     30  C   UNL A   1      35.350  31.844  27.656  1.00  0.00     0.014 A 
ATOM     31  C   UNL A   1      34.868  29.506  28.033  1.00  0.00     0.014 A 
ATOM     32  C   UNL A   1      36.557  31.701  28.347  1.00  0.00     0.010 A 
ATOM     33  C   UNL A   1      35.978  29.404  28.846  1.00  0.00     0.010 A 
ATOM     34  C   UNL A   1      36.855  30.489  28.986  1.00  0.00    -0.014 A 
BRANCH  34  35
ATOM     35  C   UNL A   1      38.096  30.261  29.762  1.00  0.00     0.031 A 
ATOM     36  C   UNL A   1      39.139  29.328  29.206  1.00  0.00     0.074 A 
ATOM     37  C   UNL A   1      38.215  30.762  31.005  1.00  0.00     0.049 A 
ATOM     38  N   UNL A   1      40.176  28.792  29.795  1.00  0.00    -0.248 NA
ATOM     39  C   UNL A   1      38.946  28.888  27.813  1.00  0.00     0.031 C 
ATOM     40  C   UNL A   1      37.248  31.639  31.664  1.00  0.00     0.029 A 
ATOM     41  N   UNL A   1      39.193  30.575  31.946  1.00  0.00    -0.354 N 
ATOM     42  C   UNL A   1      40.727  27.925  28.860  1.00  0.00     0.074 A 
ATOM     43  C   UNL A   1      39.867  27.945  27.699  1.00  0.00     0.031 C 
ATOM     44  C   UNL A   1      37.692  31.934  32.896  1.00  0.00     0.029 A 
ATOM     45  C   UNL A   1      38.945  31.224  33.131  1.00  0.00     0.049 A 
ATOM     46  H   UNL A   1      39.997  30.029  31.789  1.00  0.00     0.167 HD
ATOM     47  C   UNL A   1      41.867  27.200  28.950  1.00  0.00     0.037 A 
ATOM     48  C   UNL A   1      39.648  31.228  34.278  1.00  0.00     0.037 A 
ATOM     49  C   UNL A   1      42.734  27.224  30.097  1.00  0.00     0.049 A 
ATOM     50  C   UNL A   1      40.914  30.419  34.358  1.00  0.00     0.074 A 
ATOM     51  C   UNL A   1      43.948  26.589  30.278  1.00  0.00     0.029 A 
ATOM     52  N   UNL A   1      42.472  27.930  31.265  1.00  0.00    -0.354 N 
ATOM     53  N   UNL A   1      41.462  29.646  33.452  1.00  0.00    -0.248 NA
ATOM     54  C   UNL A   1      41.662  30.489  35.621  1.00  0.00     0.031 C 
ATOM     55  C   UNL A   1      44.396  26.868  31.573  1.00  0.00     0.029 A 
ATOM     56  C   UNL A   1      43.492  27.728  32.179  1.00  0.00     0.049 A 
ATOM     57  H   UNL A   1      41.678  28.491  31.419  1.00  0.00     0.167 HD
ATOM     58  C   UNL A   1      42.635  29.164  34.019  1.00  0.00     0.074 A 
ATOM     59  C   UNL A   1      42.722  29.744  35.344  1.00  0.00     0.031 C 
ATOM     60  C   UNL A   1      43.559  28.323  33.490  1.00  0.00     0.037 A 
BRANCH  47  61
ATOM     61  C   UNL A   1      42.231  26.331  27.777  1.00  0.00     0.064 A 
ATOM     62  C   UNL A   1      41.666  25.058  27.594  1.00  0.00     0.173 A 
ATOM     63  C   UNL A   1      43.163  26.772  26.826  1.00  0.00     0.173 A 
ATOM     64  F   UNL A   1      40.778  24.579  28.479  1.00  0.00    -0.203 F 
ATOM     65  C   UNL A   1      42.055  24.243  26.535  1.00  0.00     0.198 A 
ATOM     66  C   UNL A   1      43.519  25.971  25.744  1.00  0.00     0.198 A 
ATOM     67  F   UNL A   1      43.733  27.981  26.945  1.00  0.00    -0.203 F 
ATOM     68  F   UNL A   1      41.559  23.003  26.427  1.00  0.00    -0.200 F 
ATOM     69  C   UNL A   1      42.977  24.702  25.606  1.00  0.00     0.200 A 
ATOM     70  F   UNL A   1      44.400  26.422  24.839  1.00  0.00    -0.200 F 
ATOM     71  F   UNL A   1      43.353  23.918  24.588  1.00  0.00    -0.200 F 
ENDBRANCH  47  61
BRANCH  48  72
ATOM     72  C   UNL A   1      39.192  32.064  35.421  1.00  0.00     0.064 A 
ATOM     73  C   UNL A   1      38.422  31.502  36.449  1.00  0.00     0.173 A 
ATOM     74  C   UNL A   1      39.530  33.421  35.526  1.00  0.00     0.173 A 
ATOM     75  F   UNL A   1      38.061  30.213  36.385  1.00  0.00    -0.203 F 
ATOM     76  C   UNL A   1      37.994  32.269  37.531  1.00  0.00     0.198 A 
ATOM     77  C   UNL A   1      39.126  34.180  36.622  1.00  0.00     0.198 A 
ATOM     78  F   UNL A   1      40.274  34.004  34.574  1.00  0.00    -0.203 F 
ATOM     79  F   UNL A   1      37.226  31.716  38.479  1.00  0.00    -0.200 F 
ATOM     80  C   UNL A   1      38.352  33.605  37.620  1.00  0.00     0.200 A 
ATOM     81  F   UNL A   1      39.489  35.466  36.714  1.00  0.00    -0.200 F 
ATOM     82  F   UNL A   1      37.950  34.341  38.665  1.00  0.00    -0.200 F 
ENDBRANCH  48  72
BRANCH  60  83
ATOM     83  C   UNL A   1      44.765  28.016  34.330  1.00  0.00     0.064 A 
ATOM     84  C   UNL A   1      44.808  26.906  35.186  1.00  0.00     0.173 A 
ATOM     85  C   UNL A   1      45.910  28.823  34.242  1.00  0.00     0.173 A 
ATOM     86  F   UNL A   1      43.735  26.111  35.316  1.00  0.00    -0.203 F 
ATOM     87  C   UNL A   1      45.941  26.634  35.948  1.00  0.00     0.198 A 
ATOM     88  C   UNL A   1      47.054  28.527  34.977  1.00  0.00     0.198 A 
ATOM     89  F   UNL A   1      45.924  29.891  33.431  1.00  0.00    -0.203 F 
ATOM     90  F   UNL A   1      45.941  25.600  36.801  1.00  0.00    -0.200 F 
ATOM     91  C   UNL A   1      47.065  27.438  35.836  1.00  0.00     0.200 A 
ATOM     92  F   UNL A   1      48.145  29.295  34.853  1.00  0.00    -0.200 F 
ATOM     93  F   UNL A   1      48.159  27.170  36.562  1.00  0.00    -0.200 F 
ENDBRANCH  60  83
ENDBRANCH  34  35
ENDBRANCH  26  29
ENDBRANCH  24  25
ENDBRANCH  23  24
ENDBRANCH   1  23
TORSDOF 16
ENDMDL
