MODEL 1
REMARK VINA RESULT:     -13.0      0.000      0.000
REMARK SMILES CC1([C@@H]2C[C@H](C(F)(F)F)n3nc(C(=O)NCCCNC(=O)c4ccc(-c5c6nc(c(-c7c(F)c(F)c(F)c(F)c7F)c7ccc([nH]7)c(-c7c(F)c(F)c(F)c(F)c7F)c7nc(c(-c8c(F)c(F)c(F)c(F)c8F)c8ccc5[nH]8)C=C7)C=C6)cc4)cc3N2)CC1
REMARK SMILES IDX 17 1 16 2 15 3 13 4 14 5 12 7 3 8 4 9 87 10 5 11 86 12 10 14
REMARK SMILES IDX 85 15 11 16 2 17 1 18 88 19 89 20 6 21 7 22 8 23 9 24 18 25
REMARK SMILES IDX 19 26 20 27 21 29 22 30 23 31 84 32 24 33 83 34 25 35 26 36
REMARK SMILES IDX 27 37 77 38 28 39 82 40 76 41 78 42 29 43 81 44 75 45 74 46
REMARK SMILES IDX 30 48 62 49 42 50 61 51 43 52 46 53 60 54 79 55 44 56 45 57
REMARK SMILES IDX 59 59 80 60 47 61 31 62 32 63 40 64 33 65 34 66 38 67 41 68
REMARK SMILES IDX 35 69 36 70 39 71 37 72 63 73 64 74 72 75 65 76 66 77 70 78
REMARK SMILES IDX 73 79 67 80 68 81 71 82 69 83 48 84 49 85 57 86 50 87 51 88
REMARK SMILES IDX 55 89 58 90 52 91 53 92 56 93 54 94
REMARK H PARENT 15 6 87 13 19 28 78 47 46 58
REMARK Flexibility Score: inf
ROOT
ATOM      1  C   UNL A   1      37.870  19.702  24.814  1.00  0.00     0.042 C 
ENDROOT
BRANCH   1   2
ATOM      2  C   UNL A   1      36.546  20.442  25.001  1.00  0.00     0.118 C 
BRANCH   2   3
ATOM      3  N   UNL A   1      35.424  19.527  25.001  1.00  0.00    -0.351 N 
ATOM      4  C   UNL A   1      34.076  19.726  24.793  1.00  0.00     0.271 C 
ATOM      5  O   UNL A   1      33.382  18.705  24.786  1.00  0.00    -0.267 OA
ATOM      6  H   UNL A   1      35.668  18.592  25.183  1.00  0.00     0.163 HD
BRANCH   4   7
ATOM      7  C   UNL A   1      33.515  21.074  24.570  1.00  0.00     0.152 A 
ATOM      8  C   UNL A   1      31.953  25.317  23.678  1.00  0.00     0.089 C 
ATOM      9  C   UNL A   1      30.657  24.569  24.056  1.00  0.00     0.062 C 
ATOM     10  N   UNL A   1      32.989  24.361  23.316  1.00  0.00    -0.367 N 
ATOM     11  C   UNL A   1      30.835  23.329  24.958  1.00  0.00     0.216 C 
ATOM     12  C   UNL A   1      33.081  23.155  23.905  1.00  0.00     0.126 A 
ATOM     13  H   UNL A   1      33.641  24.603  22.619  1.00  0.00     0.162 HD
ATOM     14  N   UNL A   1      32.091  22.659  24.698  1.00  0.00    -0.237 N 
ATOM     15  C   UNL A   1      34.058  22.197  23.884  1.00  0.00     0.082 A 
ATOM     16  N   UNL A   1      32.293  21.385  25.060  1.00  0.00    -0.165 NA
BRANCH   8  17
ATOM     17  C   UNL A   1      32.466  26.356  24.686  1.00  0.00    -0.012 C 
ATOM     18  C   UNL A   1      31.374  27.138  25.383  1.00  0.00     0.013 C 
ATOM     19  C   UNL A   1      33.678  27.209  24.304  1.00  0.00     0.009 C 
ATOM     20  C   UNL A   1      33.804  26.199  25.397  1.00  0.00     0.009 C 
ENDBRANCH   8  17
BRANCH  11  21
ATOM     21  C   UNL A   1      30.631  23.637  26.426  1.00  0.00     0.410 C 
ATOM     22  F   UNL A   1      29.733  24.655  26.548  1.00  0.00    -0.169 F 
ATOM     23  F   UNL A   1      30.120  22.604  27.126  1.00  0.00    -0.169 F 
ATOM     24  F   UNL A   1      31.747  24.044  27.057  1.00  0.00    -0.169 F 
ENDBRANCH  11  21
ENDBRANCH   4   7
ENDBRANCH   2   3
ENDBRANCH   1   2
BRANCH   1  25
ATOM     25  C   UNL A   1      38.970  20.200  25.749  1.00  0.00     0.118 C 
BRANCH  25  26
ATOM     26  N   UNL A   1      40.021  19.207  25.936  1.00  0.00    -0.352 N 
ATOM     27  C   UNL A   1      41.369  19.367  26.127  1.00  0.00     0.251 C 
ATOM     28  H   UNL A   1      39.713  18.272  25.923  1.00  0.00     0.163 HD
ATOM     29  O   UNL A   1      42.114  18.396  26.047  1.00  0.00    -0.269 OA
BRANCH  27  30
ATOM     30  C   UNL A   1      41.934  20.701  26.421  1.00  0.00     0.039 A 
ATOM     31  C   UNL A   1      42.155  21.588  25.364  1.00  0.00     0.014 A 
ATOM     32  C   UNL A   1      42.284  21.064  27.724  1.00  0.00     0.014 A 
ATOM     33  C   UNL A   1      42.672  22.860  25.619  1.00  0.00     0.010 A 
ATOM     34  C   UNL A   1      42.729  22.357  27.988  1.00  0.00     0.010 A 
ATOM     35  C   UNL A   1      42.931  23.266  26.938  1.00  0.00    -0.014 A 
BRANCH  35  36
ATOM     36  C   UNL A   1      43.414  24.635  27.245  1.00  0.00     0.031 A 
ATOM     37  C   UNL A   1      42.469  25.659  27.807  1.00  0.00     0.074 A 
ATOM     38  C   UNL A   1      44.683  24.974  26.948  1.00  0.00     0.049 A 
ATOM     39  N   UNL A   1      42.672  26.930  28.049  1.00  0.00    -0.248 NA
ATOM     40  C   UNL A   1      41.105  25.200  28.112  1.00  0.00     0.031 C 
ATOM     41  C   UNL A   1      45.682  24.078  26.364  1.00  0.00     0.029 A 
ATOM     42  N   UNL A   1      45.344  26.168  27.081  1.00  0.00    -0.354 N 
ATOM     43  C   UNL A   1      41.460  27.423  28.515  1.00  0.00     0.074 A 
ATOM     44  C   UNL A   1      40.513  26.329  28.471  1.00  0.00     0.031 C 
ATOM     45  C   UNL A   1      46.835  24.747  26.209  1.00  0.00     0.029 A 
ATOM     46  C   UNL A   1      46.644  26.129  26.640  1.00  0.00     0.049 A 
ATOM     47  H   UNL A   1      44.928  26.977  27.458  1.00  0.00     0.167 HD
ATOM     48  C   UNL A   1      41.169  28.669  28.962  1.00  0.00     0.037 A 
ATOM     49  C   UNL A   1      47.574  27.101  26.580  1.00  0.00     0.037 A 
ATOM     50  C   UNL A   1      42.121  29.747  29.019  1.00  0.00     0.049 A 
ATOM     51  C   UNL A   1      47.221  28.481  27.062  1.00  0.00     0.074 A 
ATOM     52  C   UNL A   1      41.944  31.033  29.501  1.00  0.00     0.029 A 
ATOM     53  N   UNL A   1      43.434  29.665  28.576  1.00  0.00    -0.354 N 
ATOM     54  N   UNL A   1      46.090  28.922  27.557  1.00  0.00    -0.248 NA
ATOM     55  C   UNL A   1      48.277  29.499  26.980  1.00  0.00     0.031 C 
ATOM     56  C   UNL A   1      43.133  31.742  29.303  1.00  0.00     0.029 A 
ATOM     57  C   UNL A   1      44.071  30.884  28.752  1.00  0.00     0.049 A 
ATOM     58  H   UNL A   1      43.851  28.860  28.192  1.00  0.00     0.167 HD
ATOM     59  C   UNL A   1      46.306  30.255  27.877  1.00  0.00     0.074 A 
ATOM     60  C   UNL A   1      47.682  30.548  27.530  1.00  0.00     0.031 C 
ATOM     61  C   UNL A   1      45.444  31.156  28.411  1.00  0.00     0.037 A 
BRANCH  48  62
ATOM     62  C   UNL A   1      39.764  28.931  29.420  1.00  0.00     0.064 A 
ATOM     63  C   UNL A   1      39.365  28.696  30.746  1.00  0.00     0.173 A 
ATOM     64  C   UNL A   1      38.806  29.444  28.532  1.00  0.00     0.173 A 
ATOM     65  F   UNL A   1      40.237  28.197  31.635  1.00  0.00    -0.203 F 
ATOM     66  C   UNL A   1      38.055  28.931  31.155  1.00  0.00     0.198 A 
ATOM     67  C   UNL A   1      37.504  29.710  28.953  1.00  0.00     0.198 A 
ATOM     68  F   UNL A   1      39.132  29.694  27.256  1.00  0.00    -0.203 F 
ATOM     69  F   UNL A   1      37.685  28.644  32.411  1.00  0.00    -0.200 F 
ATOM     70  C   UNL A   1      37.127  29.442  30.261  1.00  0.00     0.200 A 
ATOM     71  F   UNL A   1      36.614  30.218  28.090  1.00  0.00    -0.200 F 
ATOM     72  F   UNL A   1      35.868  29.672  30.656  1.00  0.00    -0.200 F 
ENDBRANCH  48  62
BRANCH  49  73
ATOM     73  C   UNL A   1      48.935  26.795  26.067  1.00  0.00     0.064 A 
ATOM     74  C   UNL A   1      49.922  26.281  26.919  1.00  0.00     0.173 A 
ATOM     75  C   UNL A   1      49.278  27.005  24.724  1.00  0.00     0.173 A 
ATOM     76  F   UNL A   1      49.648  26.081  28.217  1.00  0.00    -0.203 F 
ATOM     77  C   UNL A   1      51.206  26.008  26.452  1.00  0.00     0.198 A 
ATOM     78  C   UNL A   1      50.554  26.703  24.251  1.00  0.00     0.198 A 
ATOM     79  F   UNL A   1      48.368  27.488  23.865  1.00  0.00    -0.203 F 
ATOM     80  F   UNL A   1      52.143  25.559  27.300  1.00  0.00    -0.200 F 
ATOM     81  C   UNL A   1      51.519  26.214  25.118  1.00  0.00     0.200 A 
ATOM     82  F   UNL A   1      50.848  26.888  22.957  1.00  0.00    -0.200 F 
ATOM     83  F   UNL A   1      52.752  25.944  24.667  1.00  0.00    -0.200 F 
ENDBRANCH  49  73
BRANCH  61  84
ATOM     84  C   UNL A   1      45.975  32.531  28.697  1.00  0.00     0.064 A 
ATOM     85  C   UNL A   1      45.903  33.562  27.748  1.00  0.00     0.173 A 
ATOM     86  C   UNL A   1      46.527  32.830  29.952  1.00  0.00     0.173 A 
ATOM     87  F   UNL A   1      45.400  33.323  26.528  1.00  0.00    -0.203 F 
ATOM     88  C   UNL A   1      46.389  34.835  28.037  1.00  0.00     0.198 A 
ATOM     89  C   UNL A   1      46.981  34.111  30.248  1.00  0.00     0.198 A 
ATOM     90  F   UNL A   1      46.613  31.881  30.896  1.00  0.00    -0.203 F 
ATOM     91  F   UNL A   1      46.356  35.791  27.100  1.00  0.00    -0.200 F 
ATOM     92  C   UNL A   1      46.919  35.110  29.289  1.00  0.00     0.200 A 
ATOM     93  F   UNL A   1      47.480  34.378  31.463  1.00  0.00    -0.200 F 
ATOM     94  F   UNL A   1      47.378  36.338  29.569  1.00  0.00    -0.200 F 
ENDBRANCH  61  84
ENDBRANCH  35  36
ENDBRANCH  27  30
ENDBRANCH  25  26
ENDBRANCH   1  25
TORSDOF 12
ENDMDL
MODEL 2
REMARK VINA RESULT:     -13.0      0.084      1.595
REMARK SMILES CC1([C@@H]2C[C@H](C(F)(F)F)n3nc(C(=O)NCCCNC(=O)c4ccc(-c5c6nc(c(-c7c(F)c(F)c(F)c(F)c7F)c7ccc([nH]7)c(-c7c(F)c(F)c(F)c(F)c7F)c7nc(c(-c8c(F)c(F)c(F)c(F)c8F)c8ccc5[nH]8)C=C7)C=C6)cc4)cc3N2)CC1
REMARK SMILES IDX 17 1 16 2 15 3 13 4 14 5 12 7 3 8 4 9 87 10 5 11 86 12 10 14
REMARK SMILES IDX 85 15 11 16 2 17 1 18 88 19 89 20 6 21 7 22 8 23 9 24 18 25
REMARK SMILES IDX 19 26 20 27 21 29 22 30 23 31 84 32 24 33 83 34 25 35 26 36
REMARK SMILES IDX 27 37 77 38 28 39 82 40 76 41 78 42 29 43 81 44 75 45 74 46
REMARK SMILES IDX 30 48 62 49 42 50 61 51 43 52 46 53 60 54 79 55 44 56 45 57
REMARK SMILES IDX 59 59 80 60 47 61 31 62 32 63 40 64 33 65 34 66 38 67 41 68
REMARK SMILES IDX 35 69 36 70 39 71 37 72 63 73 64 74 72 75 65 76 66 77 70 78
REMARK SMILES IDX 73 79 67 80 68 81 71 82 69 83 48 84 49 85 57 86 50 87 51 88
REMARK SMILES IDX 55 89 58 90 52 91 53 92 56 93 54 94
REMARK H PARENT 15 6 87 13 19 28 78 47 46 58
REMARK Flexibility Score: inf
ROOT
ATOM      1  C   UNL A   1      37.872  19.707  24.825  1.00  0.00     0.042 C 
ENDROOT
BRANCH   1   2
ATOM      2  C   UNL A   1      36.549  20.448  25.013  1.00  0.00     0.118 C 
BRANCH   2   3
ATOM      3  N   UNL A   1      35.425  19.536  25.002  1.00  0.00    -0.351 N 
ATOM      4  C   UNL A   1      34.078  19.740  24.797  1.00  0.00     0.271 C 
ATOM      5  O   UNL A   1      33.382  18.721  24.779  1.00  0.00    -0.267 OA
ATOM      6  H   UNL A   1      35.668  18.598  25.173  1.00  0.00     0.163 HD
BRANCH   4   7
ATOM      7  C   UNL A   1      33.519  21.092  24.590  1.00  0.00     0.152 A 
ATOM      8  C   UNL A   1      31.972  25.351  23.755  1.00  0.00     0.089 C 
ATOM      9  C   UNL A   1      30.667  24.591  24.072  1.00  0.00     0.062 C 
ATOM     10  N   UNL A   1      33.022  24.408  23.403  1.00  0.00    -0.367 N 
ATOM     11  C   UNL A   1      30.820  23.329  24.948  1.00  0.00     0.216 C 
ATOM     12  C   UNL A   1      33.099  23.188  23.964  1.00  0.00     0.126 A 
ATOM     13  H   UNL A   1      33.695  24.670  22.734  1.00  0.00     0.162 HD
ATOM     14  N   UNL A   1      32.086  22.669  24.711  1.00  0.00    -0.237 N 
ATOM     15  C   UNL A   1      34.080  22.233  23.951  1.00  0.00     0.082 A 
ATOM     16  N   UNL A   1      32.280  21.387  25.048  1.00  0.00    -0.165 NA
BRANCH   8  17
ATOM     17  C   UNL A   1      32.448  26.367  24.805  1.00  0.00    -0.012 C 
ATOM     18  C   UNL A   1      31.340  27.205  25.407  1.00  0.00     0.013 C 
ATOM     19  C   UNL A   1      33.730  27.156  24.530  1.00  0.00     0.009 C 
ATOM     20  C   UNL A   1      33.710  26.144  25.628  1.00  0.00     0.009 C 
ENDBRANCH   8  17
BRANCH  11  21
ATOM     21  C   UNL A   1      30.568  23.599  26.415  1.00  0.00     0.410 C 
ATOM     22  F   UNL A   1      29.747  24.680  26.535  1.00  0.00    -0.169 F 
ATOM     23  F   UNL A   1      29.943  22.586  27.049  1.00  0.00    -0.169 F 
ATOM     24  F   UNL A   1      31.679  23.892  27.114  1.00  0.00    -0.169 F 
ENDBRANCH  11  21
ENDBRANCH   4   7
ENDBRANCH   2   3
ENDBRANCH   1   2
BRANCH   1  25
ATOM     25  C   UNL A   1      38.970  20.196  25.768  1.00  0.00     0.118 C 
BRANCH  25  26
ATOM     26  N   UNL A   1      40.024  19.204  25.943  1.00  0.00    -0.352 N 
ATOM     27  C   UNL A   1      41.373  19.366  26.125  1.00  0.00     0.251 C 
ATOM     28  H   UNL A   1      39.717  18.268  25.928  1.00  0.00     0.163 HD
ATOM     29  O   UNL A   1      42.119  18.396  26.034  1.00  0.00    -0.269 OA
BRANCH  27  30
ATOM     30  C   UNL A   1      41.938  20.700  26.420  1.00  0.00     0.039 A 
ATOM     31  C   UNL A   1      42.237  21.555  25.357  1.00  0.00     0.014 A 
ATOM     32  C   UNL A   1      42.211  21.091  27.733  1.00  0.00     0.014 A 
ATOM     33  C   UNL A   1      42.756  22.827  25.612  1.00  0.00     0.010 A 
ATOM     34  C   UNL A   1      42.657  22.385  27.991  1.00  0.00     0.010 A 
ATOM     35  C   UNL A   1      42.938  23.263  26.934  1.00  0.00    -0.014 A 
BRANCH  35  36
ATOM     36  C   UNL A   1      43.421  24.633  27.237  1.00  0.00     0.031 A 
ATOM     37  C   UNL A   1      42.476  25.660  27.795  1.00  0.00     0.074 A 
ATOM     38  C   UNL A   1      44.690  24.971  26.939  1.00  0.00     0.049 A 
ATOM     39  N   UNL A   1      42.678  26.932  28.032  1.00  0.00    -0.248 NA
ATOM     40  C   UNL A   1      41.112  25.202  28.100  1.00  0.00     0.031 C 
ATOM     41  C   UNL A   1      45.689  24.074  26.359  1.00  0.00     0.029 A 
ATOM     42  N   UNL A   1      45.351  26.166  27.068  1.00  0.00    -0.354 N 
ATOM     43  C   UNL A   1      41.466  27.426  28.496  1.00  0.00     0.074 A 
ATOM     44  C   UNL A   1      40.520  26.332  28.456  1.00  0.00     0.031 C 
ATOM     45  C   UNL A   1      46.842  24.742  26.202  1.00  0.00     0.029 A 
ATOM     46  C   UNL A   1      46.651  26.125  26.627  1.00  0.00     0.049 A 
ATOM     47  H   UNL A   1      44.935  26.976  27.442  1.00  0.00     0.167 HD
ATOM     48  C   UNL A   1      41.175  28.674  28.938  1.00  0.00     0.037 A 
ATOM     49  C   UNL A   1      47.581  27.097  26.564  1.00  0.00     0.037 A 
ATOM     50  C   UNL A   1      42.128  29.752  28.992  1.00  0.00     0.049 A 
ATOM     51  C   UNL A   1      47.228  28.479  27.041  1.00  0.00     0.074 A 
ATOM     52  C   UNL A   1      41.950  31.039  29.469  1.00  0.00     0.029 A 
ATOM     53  N   UNL A   1      43.441  29.668  28.550  1.00  0.00    -0.354 N 
ATOM     54  N   UNL A   1      46.097  28.922  27.535  1.00  0.00    -0.248 NA
ATOM     55  C   UNL A   1      48.284  29.497  26.956  1.00  0.00     0.031 C 
ATOM     56  C   UNL A   1      43.139  31.748  29.270  1.00  0.00     0.029 A 
ATOM     57  C   UNL A   1      44.077  30.888  28.722  1.00  0.00     0.049 A 
ATOM     58  H   UNL A   1      43.858  28.862  28.169  1.00  0.00     0.167 HD
ATOM     59  C   UNL A   1      46.313  30.256  27.850  1.00  0.00     0.074 A 
ATOM     60  C   UNL A   1      47.689  30.548  27.502  1.00  0.00     0.031 C 
ATOM     61  C   UNL A   1      45.451  31.158  28.381  1.00  0.00     0.037 A 
BRANCH  48  62
ATOM     62  C   UNL A   1      39.770  28.937  29.396  1.00  0.00     0.064 A 
ATOM     63  C   UNL A   1      38.786  29.417  28.516  1.00  0.00     0.173 A 
ATOM     64  C   UNL A   1      39.392  28.687  30.724  1.00  0.00     0.173 A 
ATOM     65  F   UNL A   1      39.095  29.682  27.238  1.00  0.00    -0.203 F 
ATOM     66  C   UNL A   1      37.489  29.669  28.957  1.00  0.00     0.198 A 
ATOM     67  C   UNL A   1      38.085  28.909  31.153  1.00  0.00     0.198 A 
ATOM     68  F   UNL A   1      40.288  28.222  31.606  1.00  0.00    -0.203 F 
ATOM     69  F   UNL A   1      36.584  30.181  28.111  1.00  0.00    -0.200 F 
ATOM     70  C   UNL A   1      37.138  29.411  30.273  1.00  0.00     0.200 A 
ATOM     71  F   UNL A   1      37.744  28.644  32.422  1.00  0.00    -0.200 F 
ATOM     72  F   UNL A   1      35.890  29.650  30.694  1.00  0.00    -0.200 F 
ENDBRANCH  48  62
BRANCH  49  73
ATOM     73  C   UNL A   1      48.942  26.790  26.053  1.00  0.00     0.064 A 
ATOM     74  C   UNL A   1      49.920  26.249  26.900  1.00  0.00     0.173 A 
ATOM     75  C   UNL A   1      49.295  27.023  24.717  1.00  0.00     0.173 A 
ATOM     76  F   UNL A   1      49.636  26.026  28.192  1.00  0.00    -0.203 F 
ATOM     77  C   UNL A   1      51.204  25.974  26.435  1.00  0.00     0.198 A 
ATOM     78  C   UNL A   1      50.571  26.720  24.245  1.00  0.00     0.198 A 
ATOM     79  F   UNL A   1      48.395  27.532  23.862  1.00  0.00    -0.203 F 
ATOM     80  F   UNL A   1      52.132  25.500  27.278  1.00  0.00    -0.200 F 
ATOM     81  C   UNL A   1      51.526  26.204  25.107  1.00  0.00     0.200 A 
ATOM     82  F   UNL A   1      50.874  26.928  22.957  1.00  0.00    -0.200 F 
ATOM     83  F   UNL A   1      52.760  25.933  24.658  1.00  0.00    -0.200 F 
ENDBRANCH  49  73
BRANCH  61  84
ATOM     84  C   UNL A   1      45.981  32.535  28.662  1.00  0.00     0.064 A 
ATOM     85  C   UNL A   1      46.614  32.850  29.873  1.00  0.00     0.173 A 
ATOM     86  C   UNL A   1      45.888  33.541  27.687  1.00  0.00     0.173 A 
ATOM     87  F   UNL A   1      46.713  31.929  30.843  1.00  0.00    -0.203 F 
ATOM     88  C   UNL A   1      47.111  34.129  30.108  1.00  0.00     0.198 A 
ATOM     89  C   UNL A   1      46.415  34.809  27.914  1.00  0.00     0.198 A 
ATOM     90  F   UNL A   1      45.297  33.289  26.510  1.00  0.00    -0.203 F 
ATOM     91  F   UNL A   1      47.668  34.423  31.291  1.00  0.00    -0.200 F 
ATOM     92  C   UNL A   1      47.019  35.104  29.125  1.00  0.00     0.200 A 
ATOM     93  F   UNL A   1      46.337  35.744  26.957  1.00  0.00    -0.200 F 
ATOM     94  F   UNL A   1      47.506  36.332  29.351  1.00  0.00    -0.200 F 
ENDBRANCH  61  84
ENDBRANCH  35  36
ENDBRANCH  27  30
ENDBRANCH  25  26
ENDBRANCH   1  25
TORSDOF 12
ENDMDL
MODEL 3
REMARK VINA RESULT:     -12.9      0.042      1.593
REMARK SMILES CC1([C@@H]2C[C@H](C(F)(F)F)n3nc(C(=O)NCCCNC(=O)c4ccc(-c5c6nc(c(-c7c(F)c(F)c(F)c(F)c7F)c7ccc([nH]7)c(-c7c(F)c(F)c(F)c(F)c7F)c7nc(c(-c8c(F)c(F)c(F)c(F)c8F)c8ccc5[nH]8)C=C7)C=C6)cc4)cc3N2)CC1
REMARK SMILES IDX 17 1 16 2 15 3 13 4 14 5 12 7 3 8 4 9 87 10 5 11 86 12 10 14
REMARK SMILES IDX 85 15 11 16 2 17 1 18 88 19 89 20 6 21 7 22 8 23 9 24 18 25
REMARK SMILES IDX 19 26 20 27 21 29 22 30 23 31 84 32 24 33 83 34 25 35 26 36
REMARK SMILES IDX 27 37 77 38 28 39 82 40 76 41 78 42 29 43 81 44 75 45 74 46
REMARK SMILES IDX 30 48 62 49 42 50 61 51 43 52 46 53 60 54 79 55 44 56 45 57
REMARK SMILES IDX 59 59 80 60 47 61 31 62 32 63 40 64 33 65 34 66 38 67 41 68
REMARK SMILES IDX 35 69 36 70 39 71 37 72 63 73 64 74 72 75 65 76 66 77 70 78
REMARK SMILES IDX 73 79 67 80 68 81 71 82 69 83 48 84 49 85 57 86 50 87 51 88
REMARK SMILES IDX 55 89 58 90 52 91 53 92 56 93 54 94
REMARK H PARENT 15 6 87 13 19 28 78 47 46 58
REMARK Flexibility Score: inf
ROOT
ATOM      1  C   UNL A   1      37.901  19.725  24.816  1.00  0.00     0.042 C 
ENDROOT
BRANCH   1   2
ATOM      2  C   UNL A   1      36.574  20.459  25.001  1.00  0.00     0.118 C 
BRANCH   2   3
ATOM      3  N   UNL A   1      35.456  19.539  25.001  1.00  0.00    -0.351 N 
ATOM      4  C   UNL A   1      34.107  19.731  24.789  1.00  0.00     0.271 C 
ATOM      5  O   UNL A   1      33.418  18.708  24.783  1.00  0.00    -0.267 OA
ATOM      6  H   UNL A   1      35.704  18.606  25.186  1.00  0.00     0.163 HD
BRANCH   4   7
ATOM      7  C   UNL A   1      33.541  21.076  24.560  1.00  0.00     0.152 A 
ATOM      8  C   UNL A   1      31.964  25.310  23.651  1.00  0.00     0.089 C 
ATOM      9  C   UNL A   1      30.669  24.557  24.023  1.00  0.00     0.062 C 
ATOM     10  N   UNL A   1      33.007  24.359  23.297  1.00  0.00    -0.367 N 
ATOM     11  C   UNL A   1      30.848  23.319  24.928  1.00  0.00     0.216 C 
ATOM     12  C   UNL A   1      33.101  23.155  23.889  1.00  0.00     0.126 A 
ATOM     13  H   UNL A   1      33.661  24.603  22.604  1.00  0.00     0.162 HD
ATOM     14  N   UNL A   1      32.108  22.655  24.676  1.00  0.00    -0.237 N 
ATOM     15  C   UNL A   1      34.082  22.201  23.875  1.00  0.00     0.082 A 
ATOM     16  N   UNL A   1      32.314  21.383  25.042  1.00  0.00    -0.165 NA
BRANCH   8  17
ATOM     17  C   UNL A   1      32.466  26.354  24.661  1.00  0.00    -0.012 C 
ATOM     18  C   UNL A   1      31.366  27.138  25.344  1.00  0.00     0.013 C 
ATOM     19  C   UNL A   1      33.681  27.206  24.288  1.00  0.00     0.009 C 
ATOM     20  C   UNL A   1      33.796  26.201  25.386  1.00  0.00     0.009 C 
ENDBRANCH   8  17
BRANCH  11  21
ATOM     21  C   UNL A   1      30.634  23.629  26.394  1.00  0.00     0.410 C 
ATOM     22  F   UNL A   1      29.756  24.665  26.508  1.00  0.00    -0.169 F 
ATOM     23  F   UNL A   1      30.093  22.605  27.086  1.00  0.00    -0.169 F 
ATOM     24  F   UNL A   1      31.751  24.011  27.039  1.00  0.00    -0.169 F 
ENDBRANCH  11  21
ENDBRANCH   4   7
ENDBRANCH   2   3
ENDBRANCH   1   2
BRANCH   1  25
ATOM     25  C   UNL A   1      38.986  20.198  25.781  1.00  0.00     0.118 C 
BRANCH  25  26
ATOM     26  N   UNL A   1      40.042  19.206  25.947  1.00  0.00    -0.352 N 
ATOM     27  C   UNL A   1      41.391  19.369  26.125  1.00  0.00     0.251 C 
ATOM     28  H   UNL A   1      39.736  18.270  25.929  1.00  0.00     0.163 HD
ATOM     29  O   UNL A   1      42.138  18.400  26.027  1.00  0.00    -0.269 OA
BRANCH  27  30
ATOM     30  C   UNL A   1      41.956  20.702  26.425  1.00  0.00     0.039 A 
ATOM     31  C   UNL A   1      42.270  21.555  25.364  1.00  0.00     0.014 A 
ATOM     32  C   UNL A   1      42.213  21.095  27.740  1.00  0.00     0.014 A 
ATOM     33  C   UNL A   1      42.789  22.825  25.624  1.00  0.00     0.010 A 
ATOM     34  C   UNL A   1      42.659  22.388  28.002  1.00  0.00     0.010 A 
ATOM     35  C   UNL A   1      42.955  23.264  26.947  1.00  0.00    -0.014 A 
BRANCH  35  36
ATOM     36  C   UNL A   1      43.437  24.633  27.253  1.00  0.00     0.031 A 
ATOM     37  C   UNL A   1      42.492  25.658  27.813  1.00  0.00     0.074 A 
ATOM     38  C   UNL A   1      44.706  24.973  26.956  1.00  0.00     0.049 A 
ATOM     39  N   UNL A   1      42.693  26.929  28.054  1.00  0.00    -0.248 NA
ATOM     40  C   UNL A   1      41.128  25.199  28.117  1.00  0.00     0.031 C 
ATOM     41  C   UNL A   1      45.706  24.077  26.374  1.00  0.00     0.029 A 
ATOM     42  N   UNL A   1      45.367  26.167  27.088  1.00  0.00    -0.354 N 
ATOM     43  C   UNL A   1      41.481  27.422  28.519  1.00  0.00     0.074 A 
ATOM     44  C   UNL A   1      40.535  26.328  28.475  1.00  0.00     0.031 C 
ATOM     45  C   UNL A   1      46.859  24.746  26.219  1.00  0.00     0.029 A 
ATOM     46  C   UNL A   1      46.667  26.128  26.648  1.00  0.00     0.049 A 
ATOM     47  H   UNL A   1      44.950  26.976  27.464  1.00  0.00     0.167 HD
ATOM     48  C   UNL A   1      41.190  28.668  28.964  1.00  0.00     0.037 A 
ATOM     49  C   UNL A   1      47.596  27.100  26.587  1.00  0.00     0.037 A 
ATOM     50  C   UNL A   1      42.141  29.747  29.021  1.00  0.00     0.049 A 
ATOM     51  C   UNL A   1      47.242  28.481  27.068  1.00  0.00     0.074 A 
ATOM     52  C   UNL A   1      41.963  31.033  29.501  1.00  0.00     0.029 A 
ATOM     53  N   UNL A   1      43.455  29.665  28.579  1.00  0.00    -0.354 N 
ATOM     54  N   UNL A   1      46.111  28.922  27.562  1.00  0.00    -0.248 NA
ATOM     55  C   UNL A   1      48.299  29.500  26.986  1.00  0.00     0.031 C 
ATOM     56  C   UNL A   1      43.152  31.742  29.304  1.00  0.00     0.029 A 
ATOM     57  C   UNL A   1      44.090  30.884  28.754  1.00  0.00     0.049 A 
ATOM     58  H   UNL A   1      43.872  28.860  28.195  1.00  0.00     0.167 HD
ATOM     59  C   UNL A   1      46.327  30.256  27.880  1.00  0.00     0.074 A 
ATOM     60  C   UNL A   1      47.702  30.549  27.534  1.00  0.00     0.031 C 
ATOM     61  C   UNL A   1      45.464  31.156  28.414  1.00  0.00     0.037 A 
BRANCH  48  62
ATOM     62  C   UNL A   1      39.784  28.930  29.422  1.00  0.00     0.064 A 
ATOM     63  C   UNL A   1      38.802  29.419  28.545  1.00  0.00     0.173 A 
ATOM     64  C   UNL A   1      39.404  28.669  30.747  1.00  0.00     0.173 A 
ATOM     65  F   UNL A   1      39.113  29.696  27.270  1.00  0.00    -0.203 F 
ATOM     66  C   UNL A   1      37.505  29.671  28.986  1.00  0.00     0.198 A 
ATOM     67  C   UNL A   1      38.096  28.889  31.176  1.00  0.00     0.198 A 
ATOM     68  F   UNL A   1      40.298  28.194  31.626  1.00  0.00    -0.203 F 
ATOM     69  F   UNL A   1      36.602  30.192  28.144  1.00  0.00    -0.200 F 
ATOM     70  C   UNL A   1      37.152  29.400  30.299  1.00  0.00     0.200 A 
ATOM     71  F   UNL A   1      37.754  28.613  32.442  1.00  0.00    -0.200 F 
ATOM     72  F   UNL A   1      35.903  29.638  30.721  1.00  0.00    -0.200 F 
ENDBRANCH  48  62
BRANCH  49  73
ATOM     73  C   UNL A   1      48.958  26.795  26.076  1.00  0.00     0.064 A 
ATOM     74  C   UNL A   1      49.280  27.003  24.727  1.00  0.00     0.173 A 
ATOM     75  C   UNL A   1      49.964  26.296  26.916  1.00  0.00     0.173 A 
ATOM     76  F   UNL A   1      48.346  27.461  23.880  1.00  0.00    -0.203 F 
ATOM     77  C   UNL A   1      50.548  26.703  24.235  1.00  0.00     0.198 A 
ATOM     78  C   UNL A   1      51.240  26.025  26.429  1.00  0.00     0.198 A 
ATOM     79  F   UNL A   1      49.710  26.086  28.217  1.00  0.00    -0.203 F 
ATOM     80  F   UNL A   1      50.815  26.869  22.931  1.00  0.00    -0.200 F 
ATOM     81  C   UNL A   1      51.529  26.221  25.087  1.00  0.00     0.200 A 
ATOM     82  F   UNL A   1      52.191  25.574  27.259  1.00  0.00    -0.200 F 
ATOM     83  F   UNL A   1      52.751  25.939  24.614  1.00  0.00    -0.200 F 
ENDBRANCH  49  73
BRANCH  61  84
ATOM     84  C   UNL A   1      45.994  32.532  28.698  1.00  0.00     0.064 A 
ATOM     85  C   UNL A   1      45.898  33.570  27.758  1.00  0.00     0.173 A 
ATOM     86  C   UNL A   1      46.571  32.825  29.944  1.00  0.00     0.173 A 
ATOM     87  F   UNL A   1      45.371  33.337  26.547  1.00  0.00    -0.203 F 
ATOM     88  C   UNL A   1      46.384  34.842  28.047  1.00  0.00     0.198 A 
ATOM     89  C   UNL A   1      47.025  34.106  30.240  1.00  0.00     0.198 A 
ATOM     90  F   UNL A   1      46.680  31.870  30.879  1.00  0.00    -0.203 F 
ATOM     91  F   UNL A   1      46.328  35.805  27.117  1.00  0.00    -0.200 F 
ATOM     92  C   UNL A   1      46.938  35.111  29.290  1.00  0.00     0.200 A 
ATOM     93  F   UNL A   1      47.547  34.367  31.447  1.00  0.00    -0.200 F 
ATOM     94  F   UNL A   1      47.397  36.339  29.568  1.00  0.00    -0.200 F 
ENDBRANCH  61  84
ENDBRANCH  35  36
ENDBRANCH  27  30
ENDBRANCH  25  26
ENDBRANCH   1  25
TORSDOF 12
ENDMDL
