MODEL 1
REMARK VINA RESULT:     -12.8      0.000      0.000
REMARK SMILES C[C@@H]1CN(S(=O)(=O)c2ccc(Cl)c(C(=O)NCCCNC(=O)c3ccc(-c4c5nc(c(-c6c(F)c(F)c(F)c(F)c6F)c6ccc([nH]6)c(-c6c(F)c(F)c(F)c(F)c6F)c6nc(c(-c7c(F)c(F)c(F)c(F)c7F)c7ccc4[nH]7)C=C6)C=C5)cc3)c2Cl)C[C@H]1C
REMARK SMILES IDX 18 1 17 2 16 3 14 4 15 5 13 7 8 8 9 9 86 10 10 11 87 12
REMARK SMILES IDX 11 13 12 14 5 15 6 16 7 17 4 18 1 19 2 20 3 21 89 22 88 23
REMARK SMILES IDX 90 24 19 25 20 26 21 27 22 29 23 30 24 31 85 32 25 33 84 34
REMARK SMILES IDX 26 35 27 36 28 37 78 38 29 39 83 40 77 41 79 42 30 43 82 44
REMARK SMILES IDX 76 45 75 46 31 48 63 49 43 50 62 51 44 52 47 53 61 54 80 55
REMARK SMILES IDX 45 56 46 57 60 59 81 60 48 61 32 62 33 63 41 64 34 65 35 66
REMARK SMILES IDX 39 67 42 68 36 69 37 70 40 71 38 72 64 73 65 74 73 75 66 76
REMARK SMILES IDX 67 77 71 78 74 79 68 80 69 81 72 82 70 83 49 84 50 85 58 86
REMARK SMILES IDX 51 87 52 88 56 89 59 90 53 91 54 92 57 93 55 94
REMARK H PARENT 16 6 20 28 79 47 47 58
REMARK Flexibility Score: inf
ROOT
ATOM      1  C   UNL A   1      33.497  29.041  23.299  1.00  0.00     0.042 C 
ENDROOT
BRANCH   1   2
ATOM      2  C   UNL A   1      34.019  27.784  22.590  1.00  0.00     0.118 C 
BRANCH   2   3
ATOM      3  N   UNL A   1      33.031  27.301  21.640  1.00  0.00    -0.352 N 
ATOM      4  C   UNL A   1      32.066  26.329  21.688  1.00  0.00     0.254 C 
ATOM      5  O   UNL A   1      31.618  25.950  20.603  1.00  0.00    -0.269 OA
ATOM      6  H   UNL A   1      33.059  27.775  20.777  1.00  0.00     0.163 HD
BRANCH   4   7
ATOM      7  C   UNL A   1      31.488  25.710  22.915  1.00  0.00     0.078 A 
ATOM      8  C   UNL A   1      31.940  24.098  24.717  1.00  0.00     0.102 A 
ATOM      9  C   UNL A   1      31.077  24.823  25.549  1.00  0.00     0.025 A 
ATOM     10  C   UNL A   1      32.104  24.502  23.379  1.00  0.00     0.075 A 
ATOM     11  C   UNL A   1      30.371  25.908  25.066  1.00  0.00     0.023 A 
ATOM     12  Cl  UNL A   1      32.954  23.497  22.243  1.00  0.00    -0.082 Cl
ATOM     13  C   UNL A   1      30.624  26.396  23.785  1.00  0.00     0.055 A 
ATOM     14  Cl  UNL A   1      29.904  27.931  23.516  1.00  0.00    -0.083 Cl
BRANCH   8  15
ATOM     15  S   UNL A   1      32.991  22.925  25.566  1.00  0.00     0.244 S 
ATOM     16  O   UNL A   1      32.450  21.610  25.278  1.00  0.00    -0.207 OA
ATOM     17  O   UNL A   1      33.188  23.325  26.941  1.00  0.00    -0.207 OA
BRANCH  15  18
ATOM     18  N   UNL A   1      34.508  23.003  24.782  1.00  0.00    -0.197 NA
ATOM     19  C   UNL A   1      37.726  21.100  24.998  1.00  0.00     0.009 C 
ATOM     20  C   UNL A   1      36.586  21.990  25.470  1.00  0.00     0.005 C 
ATOM     21  C   UNL A   1      35.310  21.755  24.670  1.00  0.00     0.106 C 
ATOM     22  C   UNL A   1      36.825  23.483  25.271  1.00  0.00     0.005 C 
ATOM     23  C   UNL A   1      35.406  24.051  25.381  1.00  0.00     0.106 C 
ATOM     24  C   UNL A   1      37.778  24.074  26.301  1.00  0.00     0.009 C 
ENDBRANCH  15  18
ENDBRANCH   8  15
ENDBRANCH   4   7
ENDBRANCH   2   3
ENDBRANCH   1   2
BRANCH   1  25
ATOM     25  C   UNL A   1      33.322  28.922  24.808  1.00  0.00     0.118 C 
BRANCH  25  26
ATOM     26  N   UNL A   1      32.697  30.099  25.383  1.00  0.00    -0.352 N 
ATOM     27  C   UNL A   1      32.990  30.787  26.537  1.00  0.00     0.251 C 
ATOM     28  H   UNL A   1      31.944  30.462  24.864  1.00  0.00     0.163 HD
ATOM     29  O   UNL A   1      32.180  31.611  26.955  1.00  0.00    -0.269 OA
BRANCH  27  30
ATOM     30  C   UNL A   1      34.248  30.559  27.293  1.00  0.00     0.039 A 
ATOM     31  C   UNL A   1      34.519  29.267  27.763  1.00  0.00     0.014 A 
ATOM     32  C   UNL A   1      35.118  31.600  27.626  1.00  0.00     0.014 A 
ATOM     33  C   UNL A   1      35.670  29.015  28.521  1.00  0.00     0.010 A 
ATOM     34  C   UNL A   1      36.303  31.337  28.316  1.00  0.00     0.010 A 
ATOM     35  C   UNL A   1      36.586  30.044  28.785  1.00  0.00    -0.014 A 
BRANCH  35  36
ATOM     36  C   UNL A   1      37.819  29.802  29.581  1.00  0.00     0.031 A 
ATOM     37  C   UNL A   1      38.892  28.887  29.052  1.00  0.00     0.074 A 
ATOM     38  C   UNL A   1      37.957  30.359  30.800  1.00  0.00     0.049 A 
ATOM     39  N   UNL A   1      39.989  28.468  29.633  1.00  0.00    -0.248 NA
ATOM     40  C   UNL A   1      38.693  28.354  27.695  1.00  0.00     0.031 C 
ATOM     41  C   UNL A   1      36.984  31.247  31.439  1.00  0.00     0.029 A 
ATOM     42  N   UNL A   1      38.967  30.252  31.725  1.00  0.00    -0.354 N 
ATOM     43  C   UNL A   1      40.597  27.612  28.722  1.00  0.00     0.074 A 
ATOM     44  C   UNL A   1      39.726  27.534  27.569  1.00  0.00     0.031 C 
ATOM     45  C   UNL A   1      37.452  31.617  32.642  1.00  0.00     0.029 A 
ATOM     46  C   UNL A   1      38.736  30.963  32.878  1.00  0.00     0.049 A 
ATOM     47  H   UNL A   1      39.780  29.718  31.577  1.00  0.00     0.167 HD
ATOM     48  C   UNL A   1      41.784  26.967  28.826  1.00  0.00     0.037 A 
ATOM     49  C   UNL A   1      39.471  31.067  34.002  1.00  0.00     0.037 A 
ATOM     50  C   UNL A   1      42.665  27.065  29.961  1.00  0.00     0.049 A 
ATOM     51  C   UNL A   1      40.778  30.325  34.098  1.00  0.00     0.074 A 
ATOM     52  C   UNL A   1      43.904  26.475  30.147  1.00  0.00     0.029 A 
ATOM     53  N   UNL A   1      42.401  27.809  31.100  1.00  0.00    -0.354 N 
ATOM     54  N   UNL A   1      41.358  29.550  33.217  1.00  0.00    -0.248 NA
ATOM     55  C   UNL A   1      41.534  30.478  35.351  1.00  0.00     0.031 C 
ATOM     56  C   UNL A   1      44.375  26.839  31.413  1.00  0.00     0.029 A 
ATOM     57  C   UNL A   1      43.449  27.686  31.998  1.00  0.00     0.049 A 
ATOM     58  H   UNL A   1      41.589  28.345  31.250  1.00  0.00     0.167 HD
ATOM     59  C   UNL A   1      42.557  29.149  33.790  1.00  0.00     0.074 A 
ATOM     60  C   UNL A   1      42.628  29.775  35.094  1.00  0.00     0.031 C 
ATOM     61  C   UNL A   1      43.513  28.333  33.283  1.00  0.00     0.037 A 
BRANCH  48  62
ATOM     62  C   UNL A   1      42.206  26.102  27.674  1.00  0.00     0.064 A 
ATOM     63  C   UNL A   1      43.139  26.550  26.726  1.00  0.00     0.173 A 
ATOM     64  C   UNL A   1      41.707  24.798  27.537  1.00  0.00     0.173 A 
ATOM     65  F   UNL A   1      43.639  27.793  26.808  1.00  0.00    -0.203 F 
ATOM     66  C   UNL A   1      43.534  25.736  25.669  1.00  0.00     0.198 A 
ATOM     67  C   UNL A   1      42.125  23.976  26.493  1.00  0.00     0.198 A 
ATOM     68  F   UNL A   1      40.819  24.318  28.419  1.00  0.00    -0.203 F 
ATOM     69  F   UNL A   1      44.392  26.203  24.751  1.00  0.00    -0.200 F 
ATOM     70  C   UNL A   1      43.033  24.448  25.556  1.00  0.00     0.200 A 
ATOM     71  F   UNL A   1      41.648  22.728  26.392  1.00  0.00    -0.200 F 
ATOM     72  F   UNL A   1      43.419  23.663  24.541  1.00  0.00    -0.200 F 
ENDBRANCH  48  62
BRANCH  49  73
ATOM     73  C   UNL A   1      39.005  31.924  35.122  1.00  0.00     0.064 A 
ATOM     74  C   UNL A   1      39.270  33.300  35.131  1.00  0.00     0.173 A 
ATOM     75  C   UNL A   1      38.304  31.388  36.212  1.00  0.00     0.173 A 
ATOM     76  F   UNL A   1      39.958  33.855  34.122  1.00  0.00    -0.203 F 
ATOM     77  C   UNL A   1      38.871  34.105  36.196  1.00  0.00     0.198 A 
ATOM     78  C   UNL A   1      37.881  32.199  37.265  1.00  0.00     0.198 A 
ATOM     79  F   UNL A   1      38.023  30.078  36.253  1.00  0.00    -0.203 F 
ATOM     80  F   UNL A   1      39.180  35.410  36.199  1.00  0.00    -0.200 F 
ATOM     81  C   UNL A   1      38.173  33.555  37.259  1.00  0.00     0.200 A 
ATOM     82  F   UNL A   1      37.197  31.665  38.285  1.00  0.00    -0.200 F 
ATOM     83  F   UNL A   1      37.790  34.329  38.284  1.00  0.00    -0.200 F 
ENDBRANCH  49  73
BRANCH  61  84
ATOM     84  C   UNL A   1      44.739  28.109  34.117  1.00  0.00     0.064 A 
ATOM     85  C   UNL A   1      45.846  28.966  34.043  1.00  0.00     0.173 A 
ATOM     86  C   UNL A   1      44.788  27.046  35.032  1.00  0.00     0.173 A 
ATOM     87  F   UNL A   1      45.852  29.986  33.171  1.00  0.00    -0.203 F 
ATOM     88  C   UNL A   1      46.967  28.754  34.841  1.00  0.00     0.198 A 
ATOM     89  C   UNL A   1      45.900  26.852  35.846  1.00  0.00     0.198 A 
ATOM     90  F   UNL A   1      43.751  26.202  35.143  1.00  0.00    -0.203 F 
ATOM     91  F   UNL A   1      48.032  29.561  34.724  1.00  0.00    -0.200 F 
ATOM     92  C   UNL A   1      46.991  27.703  35.745  1.00  0.00     0.200 A 
ATOM     93  F   UNL A   1      45.917  25.844  36.726  1.00  0.00    -0.200 F 
ATOM     94  F   UNL A   1      48.069  27.505  36.516  1.00  0.00    -0.200 F 
ENDBRANCH  61  84
ENDBRANCH  35  36
ENDBRANCH  27  30
ENDBRANCH  25  26
ENDBRANCH   1  25
TORSDOF 12
ENDMDL
MODEL 2
REMARK VINA RESULT:     -12.6      2.152      3.463
REMARK SMILES C[C@@H]1CN(S(=O)(=O)c2ccc(Cl)c(C(=O)NCCCNC(=O)c3ccc(-c4c5nc(c(-c6c(F)c(F)c(F)c(F)c6F)c6ccc([nH]6)c(-c6c(F)c(F)c(F)c(F)c6F)c6nc(c(-c7c(F)c(F)c(F)c(F)c7F)c7ccc4[nH]7)C=C6)C=C5)cc3)c2Cl)C[C@H]1C
REMARK SMILES IDX 18 1 17 2 16 3 14 4 15 5 13 7 8 8 9 9 86 10 10 11 87 12
REMARK SMILES IDX 11 13 12 14 5 15 6 16 7 17 4 18 1 19 2 20 3 21 89 22 88 23
REMARK SMILES IDX 90 24 19 25 20 26 21 27 22 29 23 30 24 31 85 32 25 33 84 34
REMARK SMILES IDX 26 35 27 36 28 37 78 38 29 39 83 40 77 41 79 42 30 43 82 44
REMARK SMILES IDX 76 45 75 46 31 48 63 49 43 50 62 51 44 52 47 53 61 54 80 55
REMARK SMILES IDX 45 56 46 57 60 59 81 60 48 61 32 62 33 63 41 64 34 65 35 66
REMARK SMILES IDX 39 67 42 68 36 69 37 70 40 71 38 72 64 73 65 74 73 75 66 76
REMARK SMILES IDX 67 77 71 78 74 79 68 80 69 81 72 82 70 83 49 84 50 85 58 86
REMARK SMILES IDX 51 87 52 88 56 89 59 90 53 91 54 92 57 93 55 94
REMARK H PARENT 16 6 20 28 79 47 47 58
REMARK Flexibility Score: inf
ROOT
ATOM      1  C   UNL A   1      31.026  31.918  26.312  1.00  0.00     0.042 C 
ENDROOT
BRANCH   1   2
ATOM      2  C   UNL A   1      31.118  30.665  25.429  1.00  0.00     0.118 C 
BRANCH   2   3
ATOM      3  N   UNL A   1      30.290  30.827  24.246  1.00  0.00    -0.352 N 
ATOM      4  C   UNL A   1      29.928  29.991  23.222  1.00  0.00     0.254 C 
ATOM      5  O   UNL A   1      29.485  30.533  22.206  1.00  0.00    -0.269 OA
ATOM      6  H   UNL A   1      29.906  31.729  24.163  1.00  0.00     0.163 HD
BRANCH   4   7
ATOM      7  C   UNL A   1      29.988  28.502  23.226  1.00  0.00     0.078 A 
ATOM      8  C   UNL A   1      31.427  26.582  23.771  1.00  0.00     0.102 A 
ATOM      9  C   UNL A   1      30.277  25.818  24.006  1.00  0.00     0.025 A 
ATOM     10  C   UNL A   1      31.290  27.910  23.323  1.00  0.00     0.075 A 
ATOM     11  C   UNL A   1      29.019  26.341  23.778  1.00  0.00     0.023 A 
ATOM     12  Cl  UNL A   1      32.671  28.812  22.774  1.00  0.00    -0.082 Cl
ATOM     13  C   UNL A   1      28.866  27.690  23.462  1.00  0.00     0.055 A 
ATOM     14  Cl  UNL A   1      27.232  28.204  23.562  1.00  0.00    -0.083 Cl
BRANCH   8  15
ATOM     15  S   UNL A   1      32.944  25.867  24.394  1.00  0.00     0.244 S 
ATOM     16  O   UNL A   1      33.364  26.704  25.501  1.00  0.00    -0.207 OA
ATOM     17  O   UNL A   1      33.865  25.611  23.310  1.00  0.00    -0.207 OA
BRANCH  15  18
ATOM     18  N   UNL A   1      32.508  24.359  25.070  1.00  0.00    -0.197 NA
ATOM     19  C   UNL A   1      33.919  22.107  27.707  1.00  0.00     0.009 C 
ATOM     20  C   UNL A   1      33.873  22.878  26.398  1.00  0.00     0.005 C 
ATOM     21  C   UNL A   1      32.920  24.066  26.468  1.00  0.00     0.106 C 
ATOM     22  C   UNL A   1      33.321  22.088  25.216  1.00  0.00     0.005 C 
ATOM     23  C   UNL A   1      32.967  23.201  24.225  1.00  0.00     0.106 C 
ATOM     24  C   UNL A   1      34.323  21.091  24.650  1.00  0.00     0.009 C 
ENDBRANCH  15  18
ENDBRANCH   8  15
ENDBRANCH   4   7
ENDBRANCH   2   3
ENDBRANCH   1   2
BRANCH   1  25
ATOM     25  C   UNL A   1      32.347  32.424  26.877  1.00  0.00     0.118 C 
BRANCH  25  26
ATOM     26  N   UNL A   1      32.265  33.807  27.310  1.00  0.00    -0.352 N 
ATOM     27  C   UNL A   1      32.963  34.476  28.287  1.00  0.00     0.251 C 
ATOM     28  H   UNL A   1      31.604  34.353  26.827  1.00  0.00     0.163 HD
ATOM     29  O   UNL A   1      32.564  35.581  28.649  1.00  0.00    -0.269 OA
BRANCH  27  30
ATOM     30  C   UNL A   1      34.177  33.902  28.922  1.00  0.00     0.039 A 
ATOM     31  C   UNL A   1      34.020  32.841  29.825  1.00  0.00     0.014 A 
ATOM     32  C   UNL A   1      35.451  34.438  28.718  1.00  0.00     0.014 A 
ATOM     33  C   UNL A   1      35.132  32.300  30.482  1.00  0.00     0.010 A 
ATOM     34  C   UNL A   1      36.569  33.850  29.314  1.00  0.00     0.010 A 
ATOM     35  C   UNL A   1      36.421  32.784  30.215  1.00  0.00    -0.014 A 
BRANCH  35  36
ATOM     36  C   UNL A   1      37.619  32.221  30.894  1.00  0.00     0.031 A 
ATOM     37  C   UNL A   1      38.426  31.138  30.229  1.00  0.00     0.074 A 
ATOM     38  C   UNL A   1      37.956  32.642  32.129  1.00  0.00     0.049 A 
ATOM     39  N   UNL A   1      39.438  30.449  30.693  1.00  0.00    -0.248 NA
ATOM     40  C   UNL A   1      38.026  30.765  28.862  1.00  0.00     0.031 C 
ATOM     41  C   UNL A   1      37.248  33.668  32.895  1.00  0.00     0.029 A 
ATOM     42  N   UNL A   1      38.975  32.250  32.963  1.00  0.00    -0.354 N 
ATOM     43  C   UNL A   1      39.781  29.553  29.688  1.00  0.00     0.074 A 
ATOM     44  C   UNL A   1      38.842  29.752  28.606  1.00  0.00     0.031 C 
ATOM     45  C   UNL A   1      37.862  33.836  34.077  1.00  0.00     0.029 A 
ATOM     46  C   UNL A   1      38.982  32.905  34.171  1.00  0.00     0.049 A 
ATOM     47  H   UNL A   1      39.638  31.564  32.719  1.00  0.00     0.167 HD
ATOM     48  C   UNL A   1      40.800  28.660  29.659  1.00  0.00     0.037 A 
ATOM     49  C   UNL A   1      39.794  32.762  35.236  1.00  0.00     0.037 A 
ATOM     50  C   UNL A   1      41.753  28.479  30.723  1.00  0.00     0.049 A 
ATOM     51  C   UNL A   1      40.908  31.750  35.184  1.00  0.00     0.074 A 
ATOM     52  C   UNL A   1      42.840  27.623  30.775  1.00  0.00     0.029 A 
ATOM     53  N   UNL A   1      41.735  29.174  31.922  1.00  0.00    -0.354 N 
ATOM     54  N   UNL A   1      41.243  30.936  34.214  1.00  0.00    -0.248 NA
ATOM     55  C   UNL A   1      41.759  31.640  36.379  1.00  0.00     0.031 C 
ATOM     56  C   UNL A   1      43.461  27.779  32.018  1.00  0.00     0.029 A 
ATOM     57  C   UNL A   1      42.786  28.760  32.724  1.00  0.00     0.049 A 
ATOM     58  H   UNL A   1      41.073  29.861  32.168  1.00  0.00     0.167 HD
ATOM     59  C   UNL A   1      42.358  30.243  34.665  1.00  0.00     0.074 A 
ATOM     60  C   UNL A   1      42.650  30.738  35.994  1.00  0.00     0.031 C 
ATOM     61  C   UNL A   1      43.075  29.280  34.036  1.00  0.00     0.037 A 
BRANCH  48  62
ATOM     62  C   UNL A   1      40.945  27.813  28.428  1.00  0.00     0.064 A 
ATOM     63  C   UNL A   1      40.284  26.581  28.306  1.00  0.00     0.173 A 
ATOM     64  C   UNL A   1      41.718  28.253  27.342  1.00  0.00     0.173 A 
ATOM     65  F   UNL A   1      39.541  26.111  29.319  1.00  0.00    -0.203 F 
ATOM     66  C   UNL A   1      40.415  25.809  27.155  1.00  0.00     0.198 A 
ATOM     67  C   UNL A   1      41.824  27.491  26.182  1.00  0.00     0.198 A 
ATOM     68  F   UNL A   1      42.363  29.427  27.404  1.00  0.00    -0.203 F 
ATOM     69  F   UNL A   1      39.811  24.614  27.080  1.00  0.00    -0.200 F 
ATOM     70  C   UNL A   1      41.178  26.266  26.092  1.00  0.00     0.200 A 
ATOM     71  F   UNL A   1      42.552  27.940  25.150  1.00  0.00    -0.200 F 
ATOM     72  F   UNL A   1      41.298  25.524  24.982  1.00  0.00    -0.200 F 
ENDBRANCH  48  62
BRANCH  49  73
ATOM     73  C   UNL A   1      39.603  33.613  36.439  1.00  0.00     0.064 A 
ATOM     74  C   UNL A   1      38.817  33.170  37.512  1.00  0.00     0.173 A 
ATOM     75  C   UNL A   1      40.182  34.886  36.536  1.00  0.00     0.173 A 
ATOM     76  F   UNL A   1      38.223  31.969  37.455  1.00  0.00    -0.203 F 
ATOM     77  C   UNL A   1      38.599  33.977  38.627  1.00  0.00     0.198 A 
ATOM     78  C   UNL A   1      39.986  35.682  37.664  1.00  0.00     0.198 A 
ATOM     79  F   UNL A   1      40.944  35.356  35.538  1.00  0.00    -0.203 F 
ATOM     80  F   UNL A   1      37.804  33.547  39.617  1.00  0.00    -0.200 F 
ATOM     81  C   UNL A   1      39.188  35.229  38.704  1.00  0.00     0.200 A 
ATOM     82  F   UNL A   1      40.566  36.887  37.740  1.00  0.00    -0.200 F 
ATOM     83  F   UNL A   1      38.978  36.005  39.777  1.00  0.00    -0.200 F 
ENDBRANCH  49  73
BRANCH  61  84
ATOM     84  C   UNL A   1      44.272  28.734  34.754  1.00  0.00     0.064 A 
ATOM     85  C   UNL A   1      44.186  27.598  35.570  1.00  0.00     0.173 A 
ATOM     86  C   UNL A   1      45.531  29.333  34.589  1.00  0.00     0.173 A 
ATOM     87  F   UNL A   1      43.002  27.000  35.772  1.00  0.00    -0.203 F 
ATOM     88  C   UNL A   1      45.313  27.093  36.213  1.00  0.00     0.198 A 
ATOM     89  C   UNL A   1      46.660  28.812  35.213  1.00  0.00     0.198 A 
ATOM     90  F   UNL A   1      45.666  30.420  33.814  1.00  0.00    -0.203 F 
ATOM     91  F   UNL A   1      45.200  26.031  37.023  1.00  0.00    -0.200 F 
ATOM     92  C   UNL A   1      46.549  27.695  36.029  1.00  0.00     0.200 A 
ATOM     93  F   UNL A   1      47.854  29.387  35.026  1.00  0.00    -0.200 F 
ATOM     94  F   UNL A   1      47.633  27.204  36.645  1.00  0.00    -0.200 F 
ENDBRANCH  61  84
ENDBRANCH  35  36
ENDBRANCH  27  30
ENDBRANCH  25  26
ENDBRANCH   1  25
TORSDOF 12
ENDMDL
MODEL 3
REMARK VINA RESULT:     -12.5      4.533      9.842
REMARK SMILES C[C@@H]1CN(S(=O)(=O)c2ccc(Cl)c(C(=O)NCCCNC(=O)c3ccc(-c4c5nc(c(-c6c(F)c(F)c(F)c(F)c6F)c6ccc([nH]6)c(-c6c(F)c(F)c(F)c(F)c6F)c6nc(c(-c7c(F)c(F)c(F)c(F)c7F)c7ccc4[nH]7)C=C6)C=C5)cc3)c2Cl)C[C@H]1C
REMARK SMILES IDX 18 1 17 2 16 3 14 4 15 5 13 7 8 8 9 9 86 10 10 11 87 12
REMARK SMILES IDX 11 13 12 14 5 15 6 16 7 17 4 18 1 19 2 20 3 21 89 22 88 23
REMARK SMILES IDX 90 24 19 25 20 26 21 27 22 29 23 30 24 31 85 32 25 33 84 34
REMARK SMILES IDX 26 35 27 36 28 37 78 38 29 39 83 40 77 41 79 42 30 43 82 44
REMARK SMILES IDX 76 45 75 46 31 48 63 49 43 50 62 51 44 52 47 53 61 54 80 55
REMARK SMILES IDX 45 56 46 57 60 59 81 60 48 61 32 62 33 63 41 64 34 65 35 66
REMARK SMILES IDX 39 67 42 68 36 69 37 70 40 71 38 72 64 73 65 74 73 75 66 76
REMARK SMILES IDX 67 77 71 78 74 79 68 80 69 81 72 82 70 83 49 84 50 85 58 86
REMARK SMILES IDX 51 87 52 88 56 89 59 90 53 91 54 92 57 93 55 94
REMARK H PARENT 16 6 20 28 79 47 47 58
REMARK Flexibility Score: inf
ROOT
ATOM      1  C   UNL A   1      37.730  19.636  24.937  1.00  0.00     0.042 C 
ENDROOT
BRANCH   1   2
ATOM      2  C   UNL A   1      36.576  20.605  24.643  1.00  0.00     0.118 C 
BRANCH   2   3
ATOM      3  N   UNL A   1      35.638  20.614  25.753  1.00  0.00    -0.352 N 
ATOM      4  C   UNL A   1      34.373  21.115  25.921  1.00  0.00     0.254 C 
ATOM      5  O   UNL A   1      33.986  21.242  27.085  1.00  0.00    -0.269 OA
ATOM      6  H   UNL A   1      35.985  20.164  26.557  1.00  0.00     0.163 HD
BRANCH   4   7
ATOM      7  C   UNL A   1      33.415  21.488  24.841  1.00  0.00     0.078 A 
ATOM      8  C   UNL A   1      32.883  23.225  23.183  1.00  0.00     0.102 A 
ATOM      9  C   UNL A   1      32.285  22.243  22.383  1.00  0.00     0.025 A 
ATOM     10  C   UNL A   1      33.398  22.864  24.442  1.00  0.00     0.075 A 
ATOM     11  C   UNL A   1      32.172  20.939  22.824  1.00  0.00     0.023 A 
ATOM     12  Cl  UNL A   1      33.914  24.078  25.574  1.00  0.00    -0.082 Cl
ATOM     13  C   UNL A   1      32.793  20.543  24.008  1.00  0.00     0.055 A 
ATOM     14  Cl  UNL A   1      32.823  18.837  24.192  1.00  0.00    -0.083 Cl
BRANCH   8  15
ATOM     15  S   UNL A   1      33.215  24.773  22.350  1.00  0.00     0.244 S 
ATOM     16  O   UNL A   1      32.970  24.538  20.940  1.00  0.00    -0.207 OA
ATOM     17  O   UNL A   1      34.490  25.309  22.767  1.00  0.00    -0.207 OA
BRANCH  15  18
ATOM     18  N   UNL A   1      32.001  25.857  22.874  1.00  0.00    -0.197 NA
ATOM     19  C   UNL A   1      31.625  28.274  25.709  1.00  0.00     0.009 C 
ATOM     20  C   UNL A   1      31.798  26.926  25.027  1.00  0.00     0.005 C 
ATOM     21  C   UNL A   1      32.414  27.063  23.639  1.00  0.00     0.106 C 
ATOM     22  C   UNL A   1      30.494  26.193  24.733  1.00  0.00     0.005 C 
ATOM     23  C   UNL A   1      30.933  25.169  23.681  1.00  0.00     0.106 C 
ATOM     24  C   UNL A   1      29.886  25.545  25.969  1.00  0.00     0.009 C 
ENDBRANCH  15  18
ENDBRANCH   8  15
ENDBRANCH   4   7
ENDBRANCH   2   3
ENDBRANCH   1   2
BRANCH   1  25
ATOM     25  C   UNL A   1      38.877  20.209  25.760  1.00  0.00     0.118 C 
BRANCH  25  26
ATOM     26  N   UNL A   1      39.965  19.261  25.919  1.00  0.00    -0.352 N 
ATOM     27  C   UNL A   1      41.314  19.474  26.081  1.00  0.00     0.251 C 
ATOM     28  H   UNL A   1      39.694  18.316  25.910  1.00  0.00     0.163 HD
ATOM     29  O   UNL A   1      42.082  18.524  25.955  1.00  0.00    -0.269 OA
BRANCH  27  30
ATOM     30  C   UNL A   1      41.868  20.817  26.394  1.00  0.00     0.039 A 
ATOM     31  C   UNL A   1      42.120  21.140  27.734  1.00  0.00     0.014 A 
ATOM     32  C   UNL A   1      42.060  21.792  25.411  1.00  0.00     0.014 A 
ATOM     33  C   UNL A   1      42.599  22.410  28.079  1.00  0.00     0.010 A 
ATOM     34  C   UNL A   1      42.608  23.033  25.746  1.00  0.00     0.010 A 
ATOM     35  C   UNL A   1      42.870  23.362  27.085  1.00  0.00    -0.014 A 
BRANCH  35  36
ATOM     36  C   UNL A   1      43.385  24.716  27.424  1.00  0.00     0.031 A 
ATOM     37  C   UNL A   1      42.460  25.752  28.004  1.00  0.00     0.074 A 
ATOM     38  C   UNL A   1      44.668  25.034  27.166  1.00  0.00     0.049 A 
ATOM     39  N   UNL A   1      42.687  27.014  28.272  1.00  0.00    -0.248 NA
ATOM     40  C   UNL A   1      41.086  25.316  28.302  1.00  0.00     0.031 C 
ATOM     41  C   UNL A   1      45.664  24.132  26.586  1.00  0.00     0.029 A 
ATOM     42  N   UNL A   1      45.354  26.211  27.347  1.00  0.00    -0.354 N 
ATOM     43  C   UNL A   1      41.486  27.523  28.751  1.00  0.00     0.074 A 
ATOM     44  C   UNL A   1      40.519  26.448  28.693  1.00  0.00     0.031 C 
ATOM     45  C   UNL A   1      46.834  24.781  26.476  1.00  0.00     0.029 A 
ATOM     46  C   UNL A   1      46.664  26.155  26.939  1.00  0.00     0.049 A 
ATOM     47  H   UNL A   1      44.945  27.019  27.734  1.00  0.00     0.167 HD
ATOM     48  C   UNL A   1      41.217  28.767  29.216  1.00  0.00     0.037 A 
ATOM     49  C   UNL A   1      47.617  27.108  26.928  1.00  0.00     0.037 A 
ATOM     50  C   UNL A   1      42.184  29.830  29.300  1.00  0.00     0.049 A 
ATOM     51  C   UNL A   1      47.286  28.486  27.436  1.00  0.00     0.074 A 
ATOM     52  C   UNL A   1      42.017  31.115  29.787  1.00  0.00     0.029 A 
ATOM     53  N   UNL A   1      43.504  29.726  28.891  1.00  0.00    -0.354 N 
ATOM     54  N   UNL A   1      46.158  28.943  27.918  1.00  0.00    -0.248 NA
ATOM     55  C   UNL A   1      48.368  29.482  27.397  1.00  0.00     0.031 C 
ATOM     56  C   UNL A   1      43.229  31.798  29.645  1.00  0.00     0.029 A 
ATOM     57  C   UNL A   1      44.161  30.927  29.106  1.00  0.00     0.049 A 
ATOM     58  H   UNL A   1      43.915  28.919  28.505  1.00  0.00     0.167 HD
ATOM     59  C   UNL A   1      46.399  30.264  28.271  1.00  0.00     0.074 A 
ATOM     60  C   UNL A   1      47.786  30.534  27.955  1.00  0.00     0.031 C 
ATOM     61  C   UNL A   1      45.548  31.172  28.806  1.00  0.00     0.037 A 
BRANCH  48  62
ATOM     62  C   UNL A   1      39.818  29.044  29.684  1.00  0.00     0.064 A 
ATOM     63  C   UNL A   1      38.821  29.474  28.794  1.00  0.00     0.173 A 
ATOM     64  C   UNL A   1      39.457  28.842  31.025  1.00  0.00     0.173 A 
ATOM     65  F   UNL A   1      39.117  29.691  27.504  1.00  0.00    -0.203 F 
ATOM     66  C   UNL A   1      37.523  29.717  29.235  1.00  0.00     0.198 A 
ATOM     67  C   UNL A   1      38.151  29.060  31.457  1.00  0.00     0.198 A 
ATOM     68  F   UNL A   1      40.369  28.425  31.915  1.00  0.00    -0.203 F 
ATOM     69  F   UNL A   1      36.599  30.170  28.376  1.00  0.00    -0.200 F 
ATOM     70  C   UNL A   1      37.187  29.503  30.563  1.00  0.00     0.200 A 
ATOM     71  F   UNL A   1      37.825  28.842  32.738  1.00  0.00    -0.200 F 
ATOM     72  F   UNL A   1      35.935  29.732  30.985  1.00  0.00    -0.200 F 
ENDBRANCH  48  62
BRANCH  49  73
ATOM     73  C   UNL A   1      48.984  26.790  26.442  1.00  0.00     0.064 A 
ATOM     74  C   UNL A   1      49.329  26.982  25.097  1.00  0.00     0.173 A 
ATOM     75  C   UNL A   1      49.966  26.273  27.300  1.00  0.00     0.173 A 
ATOM     76  F   UNL A   1      48.417  27.451  24.233  1.00  0.00    -0.203 F 
ATOM     77  C   UNL A   1      50.596  26.650  24.623  1.00  0.00     0.198 A 
ATOM     78  C   UNL A   1      51.242  25.966  26.831  1.00  0.00     0.198 A 
ATOM     79  F   UNL A   1      49.688  26.072  28.596  1.00  0.00    -0.203 F 
ATOM     80  F   UNL A   1      50.884  26.799  23.322  1.00  0.00    -0.200 F 
ATOM     81  C   UNL A   1      51.553  26.147  25.491  1.00  0.00     0.200 A 
ATOM     82  F   UNL A   1      52.167  25.491  27.675  1.00  0.00    -0.200 F 
ATOM     83  F   UNL A   1      52.772  25.827  25.035  1.00  0.00    -0.200 F 
ENDBRANCH  49  73
BRANCH  61  84
ATOM     84  C   UNL A   1      46.103  32.527  29.130  1.00  0.00     0.064 A 
ATOM     85  C   UNL A   1      46.693  32.804  30.371  1.00  0.00     0.173 A 
ATOM     86  C   UNL A   1      46.081  33.549  28.168  1.00  0.00     0.173 A 
ATOM     87  F   UNL A   1      46.722  31.864  31.328  1.00  0.00    -0.203 F 
ATOM     88  C   UNL A   1      47.222  34.062  30.646  1.00  0.00     0.198 A 
ATOM     89  C   UNL A   1      46.633  34.798  28.437  1.00  0.00     0.198 A 
ATOM     90  F   UNL A   1      45.532  33.332  26.963  1.00  0.00    -0.203 F 
ATOM     91  F   UNL A   1      47.743  34.318  31.854  1.00  0.00    -0.200 F 
ATOM     92  C   UNL A   1      47.198  35.055  29.678  1.00  0.00     0.200 A 
ATOM     93  F   UNL A   1      46.619  35.752  27.497  1.00  0.00    -0.200 F 
ATOM     94  F   UNL A   1      47.713  36.263  29.943  1.00  0.00    -0.200 F 
ENDBRANCH  61  84
ENDBRANCH  35  36
ENDBRANCH  27  30
ENDBRANCH  25  26
ENDBRANCH   1  25
TORSDOF 12
ENDMDL
