MODEL 1
REMARK VINA RESULT:     -13.3      0.000      0.000
REMARK SMILES O=C(COc1ccc(Br)cc1/C=C1\NC(=O)N(Cc2ccc(F)cc2)C1=O)NCCCNC(=O)c1ccc(-c2c3nc(c(-c4c(F)c(F)c(F)c(F)c4F)c4ccc([nH]4)c(-c4c(F)c(F)c(F)c(F)c4F)c4nc(c(-c5c(F)c(F)c(F)c(F)c5F)c5ccc2[nH]5)C=C4)C=C3)cc1
REMARK SMILES IDX 1 1 2 2 28 3 3 5 4 6 5 7 6 8 11 9 7 10 10 11 8 12 9 13 12 14
REMARK SMILES IDX 13 15 14 16 26 17 15 18 17 20 27 21 16 22 18 23 19 24 20 25
REMARK SMILES IDX 25 26 21 27 24 28 22 29 23 30 29 31 30 32 31 33 32 34 33 35
REMARK SMILES IDX 34 37 35 38 36 39 97 40 37 41 96 42 38 43 39 44 40 45 90 46
REMARK SMILES IDX 41 47 95 48 89 49 91 50 42 51 94 52 88 53 87 54 43 56 75 57
REMARK SMILES IDX 55 58 74 59 56 60 59 61 73 62 92 63 57 64 58 65 72 67 93 68
REMARK SMILES IDX 60 69 44 70 45 71 53 72 46 73 47 74 51 75 54 76 48 77 49 78
REMARK SMILES IDX 52 79 50 80 76 81 77 82 85 83 78 84 79 85 83 86 86 87 80 88
REMARK SMILES IDX 81 89 84 90 82 91 61 92 62 93 70 94 63 95 64 96 68 97 71 98
REMARK SMILES IDX 65 99 66 100 69 101 67 102
REMARK H PARENT 28 4 14 19 32 36 91 55 59 66
REMARK Flexibility Score: inf
ROOT
ATOM      1  O   UNL A   1      33.842  29.368  26.139  1.00  0.00    -0.271 OA
ATOM      2  C   UNL A   1      32.716  28.929  26.349  1.00  0.00     0.257 C 
ATOM      3  N   UNL A   1      31.558  29.617  26.047  1.00  0.00    -0.353 N 
ATOM      4  H   UNL A   1      30.699  29.135  26.072  1.00  0.00     0.163 HD
ENDROOT
BRANCH   2   5
ATOM      5  C   UNL A   1      32.471  27.569  27.003  1.00  0.00     0.329 C 
BRANCH   5   6
ATOM      6  O   UNL A   1      32.012  26.555  26.110  1.00  0.00    -0.483 OA
BRANCH   6   7
ATOM      7  C   UNL A   1      33.001  25.822  25.500  1.00  0.00     0.127 A 
ATOM      8  C   UNL A   1      33.770  24.885  26.196  1.00  0.00     0.048 A 
ATOM      9  C   UNL A   1      33.127  25.921  24.103  1.00  0.00     0.020 A 
ATOM     10  C   UNL A   1      34.648  24.041  25.513  1.00  0.00     0.019 A 
ATOM     11  C   UNL A   1      34.008  25.070  23.422  1.00  0.00     0.027 A 
ATOM     12  C   UNL A   1      34.758  24.131  24.130  1.00  0.00     0.018 A 
ATOM     13  Br  UNL A   1      35.914  22.957  23.207  1.00  0.00    -0.051 Br
BRANCH   9  14
ATOM     14  C   UNL A   1      32.361  26.900  23.326  1.00  0.00     0.044 C 
ATOM     15  C   UNL A   1      31.029  26.986  23.341  1.00  0.00     0.109 C 
ATOM     16  N   UNL A   1      30.132  26.241  24.045  1.00  0.00    -0.303 N 
ATOM     17  C   UNL A   1      30.241  27.990  22.571  1.00  0.00     0.278 C 
ATOM     18  C   UNL A   1      28.847  26.716  23.822  1.00  0.00     0.329 C 
ATOM     19  H   UNL A   1      30.361  25.480  24.627  1.00  0.00     0.172 HD
ATOM     20  N   UNL A   1      28.943  27.792  22.966  1.00  0.00    -0.254 N 
ATOM     21  O   UNL A   1      30.693  28.783  21.760  1.00  0.00    -0.267 OA
ATOM     22  O   UNL A   1      27.835  26.232  24.302  1.00  0.00    -0.248 OA
BRANCH  20  23
ATOM     23  C   UNL A   1      27.824  28.595  22.530  1.00  0.00     0.166 C 
BRANCH  23  24
ATOM     24  C   UNL A   1      28.134  30.078  22.597  1.00  0.00    -0.028 A 
ATOM     25  C   UNL A   1      28.493  30.673  23.820  1.00  0.00     0.008 A 
ATOM     26  C   UNL A   1      28.051  30.884  21.451  1.00  0.00     0.008 A 
ATOM     27  C   UNL A   1      28.748  32.043  23.899  1.00  0.00     0.039 A 
ATOM     28  C   UNL A   1      28.325  32.253  21.530  1.00  0.00     0.039 A 
ATOM     29  C   UNL A   1      28.664  32.819  22.753  1.00  0.00     0.123 A 
ATOM     30  F   UNL A   1      28.914  34.133  22.828  1.00  0.00    -0.207 F 
ENDBRANCH  23  24
ENDBRANCH  20  23
ENDBRANCH   9  14
ENDBRANCH   6   7
ENDBRANCH   5   6
ENDBRANCH   2   5
BRANCH   3  31
ATOM     31  C   UNL A   1      31.560  31.020  25.694  1.00  0.00     0.117 C 
BRANCH  31  32
ATOM     32  C   UNL A   1      31.388  31.939  26.892  1.00  0.00     0.042 C 
BRANCH  32  33
ATOM     33  C   UNL A   1      32.645  32.720  27.264  1.00  0.00     0.118 C 
BRANCH  33  34
ATOM     34  N   UNL A   1      32.375  34.105  27.633  1.00  0.00    -0.352 N 
ATOM     35  C   UNL A   1      32.983  34.918  28.558  1.00  0.00     0.251 C 
ATOM     36  H   UNL A   1      31.637  34.526  27.138  1.00  0.00     0.163 HD
ATOM     37  O   UNL A   1      32.502  36.019  28.807  1.00  0.00    -0.269 OA
BRANCH  35  38
ATOM     38  C   UNL A   1      34.193  34.468  29.283  1.00  0.00     0.039 A 
ATOM     39  C   UNL A   1      34.040  33.909  30.555  1.00  0.00     0.014 A 
ATOM     40  C   UNL A   1      35.468  34.598  28.727  1.00  0.00     0.014 A 
ATOM     41  C   UNL A   1      35.152  33.396  31.227  1.00  0.00     0.010 A 
ATOM     42  C   UNL A   1      36.563  34.020  29.363  1.00  0.00     0.010 A 
ATOM     43  C   UNL A   1      36.415  33.399  30.612  1.00  0.00    -0.014 A 
BRANCH  43  44
ATOM     44  C   UNL A   1      37.579  32.716  31.235  1.00  0.00     0.031 A 
ATOM     45  C   UNL A   1      38.252  31.567  30.542  1.00  0.00     0.074 A 
ATOM     46  C   UNL A   1      37.981  33.090  32.466  1.00  0.00     0.049 A 
ATOM     47  N   UNL A   1      39.216  30.792  30.975  1.00  0.00    -0.248 NA
ATOM     48  C   UNL A   1      37.768  31.229  29.195  1.00  0.00     0.031 C 
ATOM     49  C   UNL A   1      37.389  34.170  33.256  1.00  0.00     0.029 A 
ATOM     50  N   UNL A   1      38.974  32.596  33.276  1.00  0.00    -0.354 N 
ATOM     51  C   UNL A   1      39.447  29.875  29.959  1.00  0.00     0.074 A 
ATOM     52  C   UNL A   1      38.494  30.157  28.907  1.00  0.00     0.031 C 
ATOM     53  C   UNL A   1      38.042  34.274  34.422  1.00  0.00     0.029 A 
ATOM     54  C   UNL A   1      39.066  33.235  34.488  1.00  0.00     0.049 A 
ATOM     55  H   UNL A   1      39.565  31.853  33.013  1.00  0.00     0.167 HD
ATOM     56  C   UNL A   1      40.386  28.900  29.904  1.00  0.00     0.037 A 
ATOM     57  C   UNL A   1      39.872  33.004  35.544  1.00  0.00     0.037 A 
ATOM     58  C   UNL A   1      41.345  28.638  30.944  1.00  0.00     0.049 A 
ATOM     59  C   UNL A   1      40.880  31.890  35.472  1.00  0.00     0.074 A 
ATOM     60  C   UNL A   1      42.370  27.707  30.952  1.00  0.00     0.029 A 
ATOM     61  N   UNL A   1      41.399  29.301  32.161  1.00  0.00    -0.354 N 
ATOM     62  N   UNL A   1      41.123  31.062  34.485  1.00  0.00    -0.248 NA
ATOM     63  C   UNL A   1      41.721  31.673  36.658  1.00  0.00     0.031 C 
ATOM     64  C   UNL A   1      43.007  27.768  32.193  1.00  0.00     0.029 A 
ATOM     65  C   UNL A   1      42.420  28.778  32.938  1.00  0.00     0.049 A 
ATOM     66  H   UNL A   1      40.800  30.035  32.432  1.00  0.00     0.167 HD
ATOM     67  C   UNL A   1      42.157  30.244  34.919  1.00  0.00     0.074 A 
ATOM     68  C   UNL A   1      42.504  30.680  36.256  1.00  0.00     0.031 C 
ATOM     69  C   UNL A   1      42.762  29.224  34.265  1.00  0.00     0.037 A 
BRANCH  56  70
ATOM     70  C   UNL A   1      40.440  28.043  28.674  1.00  0.00     0.064 A 
ATOM     71  C   UNL A   1      39.788  26.800  28.643  1.00  0.00     0.173 A 
ATOM     72  C   UNL A   1      41.211  28.407  27.560  1.00  0.00     0.173 A 
ATOM     73  F   UNL A   1      39.044  26.400  29.685  1.00  0.00    -0.203 F 
ATOM     74  C   UNL A   1      39.922  25.948  27.550  1.00  0.00     0.198 A 
ATOM     75  C   UNL A   1      41.318  27.564  26.456  1.00  0.00     0.198 A 
ATOM     76  F   UNL A   1      41.848  29.588  27.536  1.00  0.00    -0.203 F 
ATOM     77  F   UNL A   1      39.322  24.749  27.560  1.00  0.00    -0.200 F 
ATOM     78  C   UNL A   1      40.684  26.331  26.457  1.00  0.00     0.200 A 
ATOM     79  F   UNL A   1      42.037  27.946  25.392  1.00  0.00    -0.200 F 
ATOM     80  F   UNL A   1      40.807  25.512  25.404  1.00  0.00    -0.200 F 
ENDBRANCH  56  70
BRANCH  57  81
ATOM     81  C   UNL A   1      39.766  33.868  36.748  1.00  0.00     0.064 A 
ATOM     82  C   UNL A   1      38.946  33.517  37.832  1.00  0.00     0.173 A 
ATOM     83  C   UNL A   1      40.459  35.083  36.823  1.00  0.00     0.173 A 
ATOM     84  F   UNL A   1      38.259  32.365  37.807  1.00  0.00    -0.203 F 
ATOM     85  C   UNL A   1      38.804  34.361  38.931  1.00  0.00     0.198 A 
ATOM     86  C   UNL A   1      40.339  35.914  37.936  1.00  0.00     0.198 A 
ATOM     87  F   UNL A   1      41.273  35.453  35.823  1.00  0.00    -0.203 F 
ATOM     88  F   UNL A   1      37.982  34.021  39.932  1.00  0.00    -0.200 F 
ATOM     89  C   UNL A   1      39.503  35.557  38.983  1.00  0.00     0.200 A 
ATOM     90  F   UNL A   1      41.035  37.058  37.994  1.00  0.00    -0.200 F 
ATOM     91  F   UNL A   1      39.374  36.365  40.045  1.00  0.00    -0.200 F 
ENDBRANCH  57  81
BRANCH  69  92
ATOM     92  C   UNL A   1      43.882  28.507  34.961  1.00  0.00     0.064 A 
ATOM     93  C   UNL A   1      45.204  28.964  34.833  1.00  0.00     0.173 A 
ATOM     94  C   UNL A   1      43.663  27.313  35.661  1.00  0.00     0.173 A 
ATOM     95  F   UNL A   1      45.466  30.097  34.165  1.00  0.00    -0.203 F 
ATOM     96  C   UNL A   1      46.267  28.235  35.358  1.00  0.00     0.198 A 
ATOM     97  C   UNL A   1      44.727  26.601  36.210  1.00  0.00     0.198 A 
ATOM     98  F   UNL A   1      42.417  26.843  35.822  1.00  0.00    -0.203 F 
ATOM     99  F   UNL A   1      47.524  28.665  35.183  1.00  0.00    -0.200 F 
ATOM    100  C   UNL A   1      46.027  27.055  36.046  1.00  0.00     0.200 A 
ATOM    101  F   UNL A   1      44.493  25.473  36.893  1.00  0.00    -0.200 F 
ATOM    102  F   UNL A   1      47.052  26.353  36.550  1.00  0.00    -0.200 F 
ENDBRANCH  69  92
ENDBRANCH  43  44
ENDBRANCH  35  38
ENDBRANCH  33  34
ENDBRANCH  32  33
ENDBRANCH  31  32
ENDBRANCH   3  31
TORSDOF 15
ENDMDL
MODEL 2
REMARK VINA RESULT:     -13.2      6.316     10.522
REMARK SMILES O=C(COc1ccc(Br)cc1/C=C1\NC(=O)N(Cc2ccc(F)cc2)C1=O)NCCCNC(=O)c1ccc(-c2c3nc(c(-c4c(F)c(F)c(F)c(F)c4F)c4ccc([nH]4)c(-c4c(F)c(F)c(F)c(F)c4F)c4nc(c(-c5c(F)c(F)c(F)c(F)c5F)c5ccc2[nH]5)C=C4)C=C3)cc1
REMARK SMILES IDX 1 1 2 2 28 3 3 5 4 6 5 7 6 8 11 9 7 10 10 11 8 12 9 13 12 14
REMARK SMILES IDX 13 15 14 16 26 17 15 18 17 20 27 21 16 22 18 23 19 24 20 25
REMARK SMILES IDX 25 26 21 27 24 28 22 29 23 30 29 31 30 32 31 33 32 34 33 35
REMARK SMILES IDX 34 37 35 38 36 39 97 40 37 41 96 42 38 43 39 44 40 45 90 46
REMARK SMILES IDX 41 47 95 48 89 49 91 50 42 51 94 52 88 53 87 54 43 56 75 57
REMARK SMILES IDX 55 58 74 59 56 60 59 61 73 62 92 63 57 64 58 65 72 67 93 68
REMARK SMILES IDX 60 69 44 70 45 71 53 72 46 73 47 74 51 75 54 76 48 77 49 78
REMARK SMILES IDX 52 79 50 80 76 81 77 82 85 83 78 84 79 85 83 86 86 87 80 88
REMARK SMILES IDX 81 89 84 90 82 91 61 92 62 93 70 94 63 95 64 96 68 97 71 98
REMARK SMILES IDX 65 99 66 100 69 101 67 102
REMARK H PARENT 28 4 14 19 32 36 91 55 59 66
REMARK Flexibility Score: inf
ROOT
ATOM      1  O   UNL A   1      39.654  23.674  27.381  1.00  0.00    -0.271 OA
ATOM      2  C   UNL A   1      39.174  23.013  26.466  1.00  0.00     0.257 C 
ATOM      3  N   UNL A   1      39.650  21.776  26.082  1.00  0.00    -0.353 N 
ATOM      4  H   UNL A   1      39.108  21.227  25.469  1.00  0.00     0.163 HD
ENDROOT
BRANCH   2   5
ATOM      5  C   UNL A   1      37.999  23.508  25.623  1.00  0.00     0.329 C 
BRANCH   5   6
ATOM      6  O   UNL A   1      36.724  23.396  26.255  1.00  0.00    -0.483 OA
BRANCH   6   7
ATOM      7  C   UNL A   1      35.851  22.518  25.658  1.00  0.00     0.127 A 
ATOM      8  C   UNL A   1      36.174  21.174  25.451  1.00  0.00     0.048 A 
ATOM      9  C   UNL A   1      34.545  22.967  25.395  1.00  0.00     0.020 A 
ATOM     10  C   UNL A   1      35.206  20.276  24.997  1.00  0.00     0.019 A 
ATOM     11  C   UNL A   1      33.577  22.060  24.942  1.00  0.00     0.027 A 
ATOM     12  C   UNL A   1      33.911  20.719  24.753  1.00  0.00     0.018 A 
ATOM     13  Br  UNL A   1      32.595  19.490  24.182  1.00  0.00    -0.051 Br
BRANCH   9  14
ATOM     14  C   UNL A   1      34.158  24.369  25.575  1.00  0.00     0.044 C 
ATOM     15  C   UNL A   1      33.927  25.214  24.569  1.00  0.00     0.109 C 
ATOM     16  N   UNL A   1      33.983  24.982  23.227  1.00  0.00    -0.303 N 
ATOM     17  C   UNL A   1      33.512  26.636  24.740  1.00  0.00     0.278 C 
ATOM     18  C   UNL A   1      33.596  26.121  22.535  1.00  0.00     0.329 C 
ATOM     19  H   UNL A   1      34.256  24.132  22.811  1.00  0.00     0.172 HD
ATOM     20  N   UNL A   1      33.279  27.087  23.466  1.00  0.00    -0.254 N 
ATOM     21  O   UNL A   1      33.431  27.232  25.802  1.00  0.00    -0.267 OA
ATOM     22  O   UNL A   1      33.569  26.219  21.320  1.00  0.00    -0.248 OA
BRANCH  20  23
ATOM     23  C   UNL A   1      32.781  28.404  23.144  1.00  0.00     0.166 C 
BRANCH  23  24
ATOM     24  C   UNL A   1      31.269  28.425  23.037  1.00  0.00    -0.028 A 
ATOM     25  C   UNL A   1      30.619  29.480  22.371  1.00  0.00     0.008 A 
ATOM     26  C   UNL A   1      30.492  27.409  23.614  1.00  0.00     0.008 A 
ATOM     27  C   UNL A   1      29.227  29.527  22.297  1.00  0.00     0.039 A 
ATOM     28  C   UNL A   1      29.097  27.449  23.522  1.00  0.00     0.039 A 
ATOM     29  C   UNL A   1      28.479  28.510  22.870  1.00  0.00     0.123 A 
ATOM     30  F   UNL A   1      27.142  28.551  22.794  1.00  0.00    -0.207 F 
ENDBRANCH  23  24
ENDBRANCH  20  23
ENDBRANCH   9  14
ENDBRANCH   6   7
ENDBRANCH   5   6
ENDBRANCH   2   5
BRANCH   3  31
ATOM     31  C   UNL A   1      40.918  21.255  26.548  1.00  0.00     0.117 C 
BRANCH  31  32
ATOM     32  C   UNL A   1      41.225  19.864  26.018  1.00  0.00     0.042 C 
BRANCH  32  33
ATOM     33  C   UNL A   1      42.613  19.350  26.385  1.00  0.00     0.118 C 
BRANCH  33  34
ATOM     34  N   UNL A   1      43.391  18.917  25.231  1.00  0.00    -0.352 N 
ATOM     35  C   UNL A   1      44.290  19.603  24.451  1.00  0.00     0.251 C 
ATOM     36  H   UNL A   1      43.249  17.980  24.968  1.00  0.00     0.163 HD
ATOM     37  O   UNL A   1      44.733  19.079  23.433  1.00  0.00    -0.269 OA
BRANCH  35  38
ATOM     38  C   UNL A   1      44.706  20.978  24.806  1.00  0.00     0.039 A 
ATOM     39  C   UNL A   1      44.490  22.002  23.878  1.00  0.00     0.014 A 
ATOM     40  C   UNL A   1      45.310  21.265  26.032  1.00  0.00     0.014 A 
ATOM     41  C   UNL A   1      44.791  23.323  24.218  1.00  0.00     0.010 A 
ATOM     42  C   UNL A   1      45.540  22.589  26.399  1.00  0.00     0.010 A 
ATOM     43  C   UNL A   1      45.268  23.633  25.502  1.00  0.00    -0.014 A 
BRANCH  43  44
ATOM     44  C   UNL A   1      45.443  25.042  25.941  1.00  0.00     0.031 A 
ATOM     45  C   UNL A   1      46.793  25.697  25.891  1.00  0.00     0.074 A 
ATOM     46  C   UNL A   1      44.391  25.707  26.456  1.00  0.00     0.049 A 
ATOM     47  N   UNL A   1      47.153  26.881  26.320  1.00  0.00    -0.248 NA
ATOM     48  C   UNL A   1      47.889  24.914  25.300  1.00  0.00     0.031 C 
ATOM     49  C   UNL A   1      43.035  25.171  26.588  1.00  0.00     0.029 A 
ATOM     50  N   UNL A   1      44.295  26.974  26.978  1.00  0.00    -0.354 N 
ATOM     51  C   UNL A   1      48.512  26.981  26.058  1.00  0.00     0.074 A 
ATOM     52  C   UNL A   1      48.925  25.722  25.475  1.00  0.00     0.031 C 
ATOM     53  C   UNL A   1      42.241  26.105  27.129  1.00  0.00     0.029 A 
ATOM     54  C   UNL A   1      43.038  27.291  27.432  1.00  0.00     0.049 A 
ATOM     55  H   UNL A   1      45.056  27.598  27.022  1.00  0.00     0.167 HD
ATOM     56  C   UNL A   1      49.333  28.038  26.266  1.00  0.00     0.037 A 
ATOM     57  C   UNL A   1      42.578  28.403  28.039  1.00  0.00     0.037 A 
ATOM     58  C   UNL A   1      48.912  29.294  26.825  1.00  0.00     0.049 A 
ATOM     59  C   UNL A   1      43.520  29.547  28.294  1.00  0.00     0.074 A 
ATOM     60  C   UNL A   1      49.663  30.441  27.022  1.00  0.00     0.029 A 
ATOM     61  N   UNL A   1      47.633  29.572  27.282  1.00  0.00    -0.354 N 
ATOM     62  N   UNL A   1      44.792  29.648  27.994  1.00  0.00    -0.248 NA
ATOM     63  C   UNL A   1      42.969  30.728  28.973  1.00  0.00     0.031 C 
ATOM     64  C   UNL A   1      48.854  31.392  27.648  1.00  0.00     0.029 A 
ATOM     65  C   UNL A   1      47.582  30.861  27.788  1.00  0.00     0.049 A 
ATOM     66  H   UNL A   1      46.874  28.945  27.252  1.00  0.00     0.167 HD
ATOM     67  C   UNL A   1      45.187  30.907  28.425  1.00  0.00     0.074 A 
ATOM     68  C   UNL A   1      44.018  31.540  28.999  1.00  0.00     0.031 C 
ATOM     69  C   UNL A   1      46.411  31.484  28.350  1.00  0.00     0.037 A 
BRANCH  56  70
ATOM     70  C   UNL A   1      50.776  27.895  25.877  1.00  0.00     0.064 A 
ATOM     71  C   UNL A   1      51.179  28.104  24.549  1.00  0.00     0.173 A 
ATOM     72  C   UNL A   1      51.743  27.462  26.796  1.00  0.00     0.173 A 
ATOM     73  F   UNL A   1      50.293  28.512  23.629  1.00  0.00    -0.203 F 
ATOM     74  C   UNL A   1      52.494  27.868  24.154  1.00  0.00     0.198 A 
ATOM     75  C   UNL A   1      53.063  27.255  26.404  1.00  0.00     0.198 A 
ATOM     76  F   UNL A   1      51.410  27.254  28.080  1.00  0.00    -0.203 F 
ATOM     77  F   UNL A   1      52.846  28.038  22.872  1.00  0.00    -0.200 F 
ATOM     78  C   UNL A   1      53.434  27.446  25.081  1.00  0.00     0.200 A 
ATOM     79  F   UNL A   1      53.975  26.868  27.305  1.00  0.00    -0.200 F 
ATOM     80  F   UNL A   1      54.700  27.225  24.700  1.00  0.00    -0.200 F 
ENDBRANCH  56  70
BRANCH  57  81
ATOM     81  C   UNL A   1      41.146  28.487  28.423  1.00  0.00     0.064 A 
ATOM     82  C   UNL A   1      40.176  28.982  27.538  1.00  0.00     0.173 A 
ATOM     83  C   UNL A   1      40.723  28.104  29.703  1.00  0.00     0.173 A 
ATOM     84  F   UNL A   1      40.530  29.365  26.301  1.00  0.00    -0.203 F 
ATOM     85  C   UNL A   1      38.845  29.115  27.927  1.00  0.00     0.198 A 
ATOM     86  C   UNL A   1      39.386  28.210  30.082  1.00  0.00     0.198 A 
ATOM     87  F   UNL A   1      41.607  27.604  30.579  1.00  0.00    -0.203 F 
ATOM     88  F   UNL A   1      37.949  29.629  27.075  1.00  0.00    -0.200 F 
ATOM     89  C   UNL A   1      38.451  28.726  29.197  1.00  0.00     0.200 A 
ATOM     90  F   UNL A   1      39.004  27.811  31.303  1.00  0.00    -0.200 F 
ATOM     91  F   UNL A   1      37.168  28.845  29.569  1.00  0.00    -0.200 F 
ENDBRANCH  57  81
BRANCH  69  92
ATOM     92  C   UNL A   1      46.564  32.880  28.878  1.00  0.00     0.064 A 
ATOM     93  C   UNL A   1      46.985  33.096  30.201  1.00  0.00     0.173 A 
ATOM     94  C   UNL A   1      46.191  33.996  28.117  1.00  0.00     0.173 A 
ATOM     95  F   UNL A   1      47.344  32.060  30.974  1.00  0.00    -0.203 F 
ATOM     96  C   UNL A   1      47.001  34.376  30.748  1.00  0.00     0.198 A 
ATOM     97  C   UNL A   1      46.236  35.278  28.658  1.00  0.00     0.198 A 
ATOM     98  F   UNL A   1      45.794  33.843  26.844  1.00  0.00    -0.203 F 
ATOM     99  F   UNL A   1      47.361  34.552  32.026  1.00  0.00    -0.200 F 
ATOM    100  C   UNL A   1      46.626  35.465  29.976  1.00  0.00     0.200 A 
ATOM    101  F   UNL A   1      45.895  36.333  27.905  1.00  0.00    -0.200 F 
ATOM    102  F   UNL A   1      46.641  36.697  30.504  1.00  0.00    -0.200 F 
ENDBRANCH  69  92
ENDBRANCH  43  44
ENDBRANCH  35  38
ENDBRANCH  33  34
ENDBRANCH  32  33
ENDBRANCH  31  32
ENDBRANCH   3  31
TORSDOF 15
ENDMDL
MODEL 3
REMARK VINA RESULT:     -13.1      2.284      4.538
REMARK SMILES O=C(COc1ccc(Br)cc1/C=C1\NC(=O)N(Cc2ccc(F)cc2)C1=O)NCCCNC(=O)c1ccc(-c2c3nc(c(-c4c(F)c(F)c(F)c(F)c4F)c4ccc([nH]4)c(-c4c(F)c(F)c(F)c(F)c4F)c4nc(c(-c5c(F)c(F)c(F)c(F)c5F)c5ccc2[nH]5)C=C4)C=C3)cc1
REMARK SMILES IDX 1 1 2 2 28 3 3 5 4 6 5 7 6 8 11 9 7 10 10 11 8 12 9 13 12 14
REMARK SMILES IDX 13 15 14 16 26 17 15 18 17 20 27 21 16 22 18 23 19 24 20 25
REMARK SMILES IDX 25 26 21 27 24 28 22 29 23 30 29 31 30 32 31 33 32 34 33 35
REMARK SMILES IDX 34 37 35 38 36 39 97 40 37 41 96 42 38 43 39 44 40 45 90 46
REMARK SMILES IDX 41 47 95 48 89 49 91 50 42 51 94 52 88 53 87 54 43 56 75 57
REMARK SMILES IDX 55 58 74 59 56 60 59 61 73 62 92 63 57 64 58 65 72 67 93 68
REMARK SMILES IDX 60 69 44 70 45 71 53 72 46 73 47 74 51 75 54 76 48 77 49 78
REMARK SMILES IDX 52 79 50 80 76 81 77 82 85 83 78 84 79 85 83 86 86 87 80 88
REMARK SMILES IDX 81 89 84 90 82 91 61 92 62 93 70 94 63 95 64 96 68 97 71 98
REMARK SMILES IDX 65 99 66 100 69 101 67 102
REMARK H PARENT 28 4 14 19 32 36 91 55 59 66
REMARK Flexibility Score: inf
ROOT
ATOM      1  O   UNL A   1      33.930  28.035  26.581  1.00  0.00    -0.271 OA
ATOM      2  C   UNL A   1      33.606  28.698  25.602  1.00  0.00     0.257 C 
ATOM      3  N   UNL A   1      32.844  29.847  25.672  1.00  0.00    -0.353 N 
ATOM      4  H   UNL A   1      32.777  30.423  24.875  1.00  0.00     0.163 HD
ENDROOT
BRANCH   2   5
ATOM      5  C   UNL A   1      33.993  28.303  24.176  1.00  0.00     0.329 C 
BRANCH   5   6
ATOM      6  O   UNL A   1      33.076  27.416  23.537  1.00  0.00    -0.483 OA
BRANCH   6   7
ATOM      7  C   UNL A   1      31.786  27.879  23.439  1.00  0.00     0.127 A 
ATOM      8  C   UNL A   1      31.425  28.893  22.547  1.00  0.00     0.048 A 
ATOM      9  C   UNL A   1      30.786  27.197  24.155  1.00  0.00     0.020 A 
ATOM     10  C   UNL A   1      30.082  29.222  22.355  1.00  0.00     0.019 A 
ATOM     11  C   UNL A   1      29.439  27.530  23.956  1.00  0.00     0.027 A 
ATOM     12  C   UNL A   1      29.095  28.535  23.052  1.00  0.00     0.018 A 
ATOM     13  Br  UNL A   1      27.278  28.954  22.754  1.00  0.00    -0.051 Br
BRANCH   9  14
ATOM     14  C   UNL A   1      31.109  26.140  25.117  1.00  0.00     0.044 C 
ATOM     15  C   UNL A   1      31.664  24.973  24.784  1.00  0.00     0.109 C 
ATOM     16  N   UNL A   1      32.045  24.527  23.555  1.00  0.00    -0.303 N 
ATOM     17  C   UNL A   1      32.016  23.899  25.757  1.00  0.00     0.278 C 
ATOM     18  C   UNL A   1      32.648  23.282  23.671  1.00  0.00     0.329 C 
ATOM     19  H   UNL A   1      31.913  25.015  22.710  1.00  0.00     0.172 HD
ATOM     20  N   UNL A   1      32.656  22.946  25.007  1.00  0.00    -0.254 N 
ATOM     21  O   UNL A   1      31.754  23.902  26.949  1.00  0.00    -0.267 OA
ATOM     22  O   UNL A   1      33.070  22.626  22.733  1.00  0.00    -0.248 OA
BRANCH  20  23
ATOM     23  C   UNL A   1      33.246  21.742  25.546  1.00  0.00     0.166 C 
BRANCH  23  24
ATOM     24  C   UNL A   1      34.760  21.781  25.486  1.00  0.00    -0.028 A 
ATOM     25  C   UNL A   1      35.481  20.666  25.020  1.00  0.00     0.008 A 
ATOM     26  C   UNL A   1      35.470  22.915  25.910  1.00  0.00     0.008 A 
ATOM     27  C   UNL A   1      36.876  20.678  24.992  1.00  0.00     0.039 A 
ATOM     28  C   UNL A   1      36.867  22.931  25.865  1.00  0.00     0.039 A 
ATOM     29  C   UNL A   1      37.555  21.812  25.413  1.00  0.00     0.123 A 
ATOM     30  F   UNL A   1      38.894  21.826  25.381  1.00  0.00    -0.207 F 
ENDBRANCH  23  24
ENDBRANCH  20  23
ENDBRANCH   9  14
ENDBRANCH   6   7
ENDBRANCH   5   6
ENDBRANCH   2   5
BRANCH   3  31
ATOM     31  C   UNL A   1      32.138  30.236  26.874  1.00  0.00     0.117 C 
BRANCH  31  32
ATOM     32  C   UNL A   1      31.760  31.708  26.897  1.00  0.00     0.042 C 
BRANCH  32  33
ATOM     33  C   UNL A   1      32.947  32.654  27.050  1.00  0.00     0.118 C 
BRANCH  33  34
ATOM     34  N   UNL A   1      32.577  33.964  27.571  1.00  0.00    -0.352 N 
ATOM     35  C   UNL A   1      33.088  34.684  28.624  1.00  0.00     0.251 C 
ATOM     36  H   UNL A   1      31.840  34.405  27.091  1.00  0.00     0.163 HD
ATOM     37  O   UNL A   1      32.529  35.718  28.980  1.00  0.00    -0.269 OA
BRANCH  35  38
ATOM     38  C   UNL A   1      34.284  34.210  29.355  1.00  0.00     0.039 A 
ATOM     39  C   UNL A   1      34.101  33.473  30.529  1.00  0.00     0.014 A 
ATOM     40  C   UNL A   1      35.575  34.491  28.903  1.00  0.00     0.014 A 
ATOM     41  C   UNL A   1      35.208  32.939  31.194  1.00  0.00     0.010 A 
ATOM     42  C   UNL A   1      36.672  33.896  29.522  1.00  0.00     0.010 A 
ATOM     43  C   UNL A   1      36.499  33.101  30.665  1.00  0.00    -0.014 A 
BRANCH  43  44
ATOM     44  C   UNL A   1      37.670  32.408  31.262  1.00  0.00     0.031 A 
ATOM     45  C   UNL A   1      38.349  31.286  30.531  1.00  0.00     0.074 A 
ATOM     46  C   UNL A   1      38.075  32.747  32.502  1.00  0.00     0.049 A 
ATOM     47  N   UNL A   1      39.321  30.506  30.935  1.00  0.00    -0.248 NA
ATOM     48  C   UNL A   1      37.862  30.986  29.176  1.00  0.00     0.031 C 
ATOM     49  C   UNL A   1      37.478  33.798  33.327  1.00  0.00     0.029 A 
ATOM     50  N   UNL A   1      39.076  32.236  33.292  1.00  0.00    -0.354 N 
ATOM     51  C   UNL A   1      39.555  29.623  29.890  1.00  0.00     0.074 A 
ATOM     52  C   UNL A   1      38.595  29.930  28.852  1.00  0.00     0.031 C 
ATOM     53  C   UNL A   1      38.135  33.870  34.493  1.00  0.00     0.029 A 
ATOM     54  C   UNL A   1      39.168  32.838  34.523  1.00  0.00     0.049 A 
ATOM     55  H   UNL A   1      39.671  31.507  33.003  1.00  0.00     0.167 HD
ATOM     56  C   UNL A   1      40.501  28.658  29.802  1.00  0.00     0.037 A 
ATOM     57  C   UNL A   1      39.980  32.582  35.568  1.00  0.00     0.037 A 
ATOM     58  C   UNL A   1      41.467  28.371  30.829  1.00  0.00     0.049 A 
ATOM     59  C   UNL A   1      40.996  31.478  35.457  1.00  0.00     0.074 A 
ATOM     60  C   UNL A   1      42.499  27.448  30.804  1.00  0.00     0.029 A 
ATOM     61  N   UNL A   1      41.521  28.996  32.065  1.00  0.00    -0.354 N 
ATOM     62  N   UNL A   1      41.241  30.683  34.445  1.00  0.00    -0.248 NA
ATOM     63  C   UNL A   1      41.844  31.231  36.632  1.00  0.00     0.031 C 
ATOM     64  C   UNL A   1      43.141  27.476  32.044  1.00  0.00     0.029 A 
ATOM     65  C   UNL A   1      42.549  28.458  32.822  1.00  0.00     0.049 A 
ATOM     66  H   UNL A   1      40.918  29.717  32.361  1.00  0.00     0.167 HD
ATOM     67  C   UNL A   1      42.283  29.860  34.849  1.00  0.00     0.074 A 
ATOM     68  C   UNL A   1      42.633  30.257  36.196  1.00  0.00     0.031 C 
ATOM     69  C   UNL A   1      42.894  28.865  34.160  1.00  0.00     0.037 A 
BRANCH  56  70
ATOM     70  C   UNL A   1      40.556  27.839  28.545  1.00  0.00     0.064 A 
ATOM     71  C   UNL A   1      39.900  26.600  28.473  1.00  0.00     0.173 A 
ATOM     72  C   UNL A   1      41.333  28.235  27.446  1.00  0.00     0.173 A 
ATOM     73  F   UNL A   1      39.151  26.171  29.500  1.00  0.00    -0.203 F 
ATOM     74  C   UNL A   1      40.034  25.782  27.354  1.00  0.00     0.198 A 
ATOM     75  C   UNL A   1      41.441  27.427  26.317  1.00  0.00     0.198 A 
ATOM     76  F   UNL A   1      41.974  29.413  27.462  1.00  0.00    -0.203 F 
ATOM     77  F   UNL A   1      39.430  24.587  27.325  1.00  0.00    -0.200 F 
ATOM     78  C   UNL A   1      40.802  26.197  26.277  1.00  0.00     0.200 A 
ATOM     79  F   UNL A   1      42.166  27.839  25.268  1.00  0.00    -0.200 F 
ATOM     80  F   UNL A   1      40.925  25.411  25.198  1.00  0.00    -0.200 F 
ENDBRANCH  56  70
BRANCH  57  81
ATOM     81  C   UNL A   1      39.873  33.406  36.798  1.00  0.00     0.064 A 
ATOM     82  C   UNL A   1      40.672  34.543  36.991  1.00  0.00     0.173 A 
ATOM     83  C   UNL A   1      38.988  33.052  37.825  1.00  0.00     0.173 A 
ATOM     84  F   UNL A   1      41.538  34.924  36.039  1.00  0.00    -0.203 F 
ATOM     85  C   UNL A   1      40.609  35.277  38.174  1.00  0.00     0.198 A 
ATOM     86  C   UNL A   1      38.905  33.802  38.996  1.00  0.00     0.198 A 
ATOM     87  F   UNL A   1      38.186  31.986  37.679  1.00  0.00    -0.203 F 
ATOM     88  F   UNL A   1      41.415  36.333  38.348  1.00  0.00    -0.200 F 
ATOM     89  C   UNL A   1      39.723  34.907  39.174  1.00  0.00     0.200 A 
ATOM     90  F   UNL A   1      38.030  33.457  39.951  1.00  0.00    -0.200 F 
ATOM     91  F   UNL A   1      39.656  35.618  40.308  1.00  0.00    -0.200 F 
ENDBRANCH  57  81
BRANCH  69  92
ATOM     92  C   UNL A   1      44.022  28.136  34.830  1.00  0.00     0.064 A 
ATOM     93  C   UNL A   1      45.345  28.581  34.674  1.00  0.00     0.173 A 
ATOM     94  C   UNL A   1      43.808  26.942  35.531  1.00  0.00     0.173 A 
ATOM     95  F   UNL A   1      45.603  29.715  34.004  1.00  0.00    -0.203 F 
ATOM     96  C   UNL A   1      46.413  27.841  35.173  1.00  0.00     0.198 A 
ATOM     97  C   UNL A   1      44.877  26.219  36.053  1.00  0.00     0.198 A 
ATOM     98  F   UNL A   1      42.561  26.482  35.717  1.00  0.00    -0.203 F 
ATOM     99  F   UNL A   1      47.669  28.261  34.971  1.00  0.00    -0.200 F 
ATOM    100  C   UNL A   1      46.178  26.661  35.862  1.00  0.00     0.200 A 
ATOM    101  F   UNL A   1      44.649  25.090  36.738  1.00  0.00    -0.200 F 
ATOM    102  F   UNL A   1      47.207  25.949  36.342  1.00  0.00    -0.200 F 
ENDBRANCH  69  92
ENDBRANCH  43  44
ENDBRANCH  35  38
ENDBRANCH  33  34
ENDBRANCH  32  33
ENDBRANCH  31  32
ENDBRANCH   3  31
TORSDOF 15
ENDMDL
