MODEL 1
REMARK VINA RESULT:     -12.7      0.000      0.000
REMARK SMILES O=C(CN1C(=O)/C(=C2/Sc3ccccc3N2CCCS(=O)(=O)[O-])SC1=S)NCCCNC(=O)c1ccc(-c2c3nc(c(-c4c(F)c(F)c(F)c(F)c4F)c4ccc([nH]4)c(-c4c(F)c(F)c(F)c(F)c4F)c4nc(c(-c5c(F)c(F)c(F)c(F)c5F)c5ccc2[nH]5)C=C4)C=C3)cc1
REMARK SMILES IDX 1 1 2 2 27 3 3 5 4 6 5 7 25 8 6 9 7 10 24 11 26 12 8 13 9 14
REMARK SMILES IDX 16 15 10 16 15 17 11 18 14 19 12 20 13 21 17 22 18 23 19 24
REMARK SMILES IDX 20 25 21 26 22 27 23 28 28 29 29 30 30 31 31 32 32 33 33 35
REMARK SMILES IDX 34 36 35 37 96 38 36 39 95 40 37 41 38 42 39 43 89 44 40 45
REMARK SMILES IDX 94 46 88 47 90 48 41 49 93 50 87 51 86 52 42 54 74 55 54 56
REMARK SMILES IDX 73 57 55 58 58 59 72 60 91 61 56 62 57 63 71 65 92 66 59 67
REMARK SMILES IDX 43 68 44 69 52 70 45 71 46 72 50 73 53 74 47 75 48 76 51 77
REMARK SMILES IDX 49 78 75 79 76 80 84 81 77 82 78 83 82 84 85 85 79 86 80 87
REMARK SMILES IDX 83 88 81 89 60 90 61 91 69 92 62 93 63 94 67 95 70 96 64 97
REMARK SMILES IDX 65 98 68 99 66 100
REMARK H PARENT 27 4 31 34 90 53 58 64
REMARK Flexibility Score: inf
ROOT
ATOM      1  O   UNL A   1      36.195  23.539  23.108  1.00  0.00    -0.273 OA
ATOM      2  C   UNL A   1      35.980  23.297  24.296  1.00  0.00     0.240 C 
ATOM      3  N   UNL A   1      36.691  22.345  24.979  1.00  0.00    -0.354 N 
ATOM      4  H   UNL A   1      36.710  22.368  25.963  1.00  0.00     0.163 HD
ENDROOT
BRANCH   2   5
ATOM      5  C   UNL A   1      34.902  24.079  25.057  1.00  0.00     0.227 C 
BRANCH   5   6
ATOM      6  N   UNL A   1      33.472  24.106  24.707  1.00  0.00    -0.283 N 
ATOM      7  C   UNL A   1      33.067  25.206  23.968  1.00  0.00     0.269 C 
ATOM      8  C   UNL A   1      32.634  23.043  24.499  1.00  0.00     0.148 C 
ATOM      9  O   UNL A   1      33.846  25.887  23.312  1.00  0.00    -0.268 OA
ATOM     10  C   UNL A   1      31.591  25.279  23.853  1.00  0.00     0.111 C 
ATOM     11  S   UNL A   1      31.038  23.639  24.065  1.00  0.00    -0.052 SA
ATOM     12  S   UNL A   1      32.950  21.415  24.617  1.00  0.00    -0.052 S 
ATOM     13  C   UNL A   1      30.824  26.384  23.669  1.00  0.00     0.100 C 
ATOM     14  S   UNL A   1      29.017  26.122  23.632  1.00  0.00    -0.068 SA
ATOM     15  N   UNL A   1      31.152  27.759  23.525  1.00  0.00    -0.334 N 
ATOM     16  C   UNL A   1      28.775  27.864  23.408  1.00  0.00     0.037 A 
ATOM     17  C   UNL A   1      29.988  28.576  23.407  1.00  0.00     0.056 A 
ATOM     18  C   UNL A   1      27.546  28.483  23.213  1.00  0.00     0.017 A 
ATOM     19  C   UNL A   1      29.937  29.962  23.263  1.00  0.00     0.027 A 
ATOM     20  C   UNL A   1      27.516  29.864  23.029  1.00  0.00     0.001 A 
ATOM     21  C   UNL A   1      28.704  30.600  23.065  1.00  0.00     0.002 A 
BRANCH  15  22
ATOM     22  C   UNL A   1      32.406  28.362  23.051  1.00  0.00     0.124 C 
BRANCH  22  23
ATOM     23  C   UNL A   1      33.179  29.125  24.142  1.00  0.00     0.037 C 
BRANCH  23  24
ATOM     24  C   UNL A   1      33.185  28.550  25.555  1.00  0.00     0.124 C 
BRANCH  24  25
ATOM     25  S   UNL A   1      32.463  29.566  26.848  1.00  0.00     0.095 S 
ATOM     26  O   UNL A   1      31.481  28.787  27.561  1.00  0.00    -0.243 OA
ATOM     27  O   UNL A   1      33.529  30.278  27.522  1.00  0.00    -0.243 OA
ATOM     28  O   UNL A   1      31.680  30.666  25.970  1.00  0.00    -0.748 OA
ENDBRANCH  24  25
ENDBRANCH  23  24
ENDBRANCH  22  23
ENDBRANCH  15  22
ENDBRANCH   5   6
ENDBRANCH   2   5
BRANCH   3  29
ATOM     29  C   UNL A   1      37.418  21.303  24.274  1.00  0.00     0.117 C 
BRANCH  29  30
ATOM     30  C   UNL A   1      37.915  20.186  25.172  1.00  0.00     0.042 C 
BRANCH  30  31
ATOM     31  C   UNL A   1      39.277  20.433  25.802  1.00  0.00     0.118 C 
BRANCH  31  32
ATOM     32  N   UNL A   1      40.163  19.274  25.799  1.00  0.00    -0.352 N 
ATOM     33  C   UNL A   1      41.509  19.196  26.078  1.00  0.00     0.251 C 
ATOM     34  H   UNL A   1      39.734  18.421  25.561  1.00  0.00     0.163 HD
ATOM     35  O   UNL A   1      42.105  18.131  25.968  1.00  0.00    -0.269 OA
BRANCH  33  36
ATOM     36  C   UNL A   1      42.247  20.419  26.451  1.00  0.00     0.039 A 
ATOM     37  C   UNL A   1      42.255  20.869  27.771  1.00  0.00     0.014 A 
ATOM     38  C   UNL A   1      42.865  21.168  25.447  1.00  0.00     0.014 A 
ATOM     39  C   UNL A   1      42.678  22.164  28.046  1.00  0.00     0.010 A 
ATOM     40  C   UNL A   1      43.383  22.430  25.746  1.00  0.00     0.010 A 
ATOM     41  C   UNL A   1      43.229  22.967  27.033  1.00  0.00    -0.014 A 
BRANCH  41  42
ATOM     42  C   UNL A   1      43.596  24.375  27.336  1.00  0.00     0.031 A 
ATOM     43  C   UNL A   1      44.983  24.887  27.046  1.00  0.00     0.074 A 
ATOM     44  C   UNL A   1      42.655  25.214  27.807  1.00  0.00     0.049 A 
ATOM     45  N   UNL A   1      45.477  26.086  27.235  1.00  0.00    -0.248 NA
ATOM     46  C   UNL A   1      45.945  23.932  26.472  1.00  0.00     0.031 C 
ATOM     47  C   UNL A   1      41.271  24.842  28.105  1.00  0.00     0.029 A 
ATOM     48  N   UNL A   1      42.708  26.556  28.090  1.00  0.00    -0.354 N 
ATOM     49  C   UNL A   1      46.803  26.022  26.825  1.00  0.00     0.074 A 
ATOM     50  C   UNL A   1      47.050  24.662  26.402  1.00  0.00     0.031 C 
ATOM     51  C   UNL A   1      40.592  25.938  28.471  1.00  0.00     0.029 A 
ATOM     52  C   UNL A   1      41.506  27.075  28.502  1.00  0.00     0.049 A 
ATOM     53  H   UNL A   1      43.528  27.093  28.005  1.00  0.00     0.167 HD
ATOM     54  C   UNL A   1      47.726  27.015  26.789  1.00  0.00     0.037 A 
ATOM     55  C   UNL A   1      41.177  28.325  28.879  1.00  0.00     0.037 A 
ATOM     56  C   UNL A   1      47.470  28.376  27.181  1.00  0.00     0.049 A 
ATOM     57  C   UNL A   1      42.233  29.392  28.877  1.00  0.00     0.074 A 
ATOM     58  C   UNL A   1      48.336  29.455  27.161  1.00  0.00     0.029 A 
ATOM     59  N   UNL A   1      46.256  28.847  27.657  1.00  0.00    -0.354 N 
ATOM     60  N   UNL A   1      43.483  29.317  28.492  1.00  0.00    -0.248 NA
ATOM     61  C   UNL A   1      41.835  30.717  29.374  1.00  0.00     0.031 C 
ATOM     62  C   UNL A   1      47.658  30.570  27.665  1.00  0.00     0.029 A 
ATOM     63  C   UNL A   1      46.356  30.196  27.955  1.00  0.00     0.049 A 
ATOM     64  H   UNL A   1      45.442  28.303  27.768  1.00  0.00     0.167 HD
ATOM     65  C   UNL A   1      44.019  30.580  28.692  1.00  0.00     0.074 A 
ATOM     66  C   UNL A   1      42.952  31.412  29.210  1.00  0.00     0.031 C 
ATOM     67  C   UNL A   1      45.286  31.010  28.471  1.00  0.00     0.037 A 
BRANCH  54  68
ATOM     68  C   UNL A   1      49.108  26.673  26.312  1.00  0.00     0.064 A 
ATOM     69  C   UNL A   1      49.506  26.901  24.987  1.00  0.00     0.173 A 
ATOM     70  C   UNL A   1      50.069  26.186  27.212  1.00  0.00     0.173 A 
ATOM     71  F   UNL A   1      48.622  27.355  24.086  1.00  0.00    -0.203 F 
ATOM     72  C   UNL A   1      50.811  26.641  24.576  1.00  0.00     0.198 A 
ATOM     73  C   UNL A   1      51.380  25.953  26.804  1.00  0.00     0.198 A 
ATOM     74  F   UNL A   1      49.743  25.960  28.493  1.00  0.00    -0.203 F 
ATOM     75  F   UNL A   1      51.160  26.838  23.298  1.00  0.00    -0.200 F 
ATOM     76  C   UNL A   1      51.749  26.178  25.486  1.00  0.00     0.200 A 
ATOM     77  F   UNL A   1      52.289  25.519  27.688  1.00  0.00    -0.200 F 
ATOM     78  F   UNL A   1      53.010  25.945  25.092  1.00  0.00    -0.200 F 
ENDBRANCH  54  68
BRANCH  55  79
ATOM     79  C   UNL A   1      39.781  28.622  29.287  1.00  0.00     0.064 A 
ATOM     80  C   UNL A   1      39.362  28.432  30.610  1.00  0.00     0.173 A 
ATOM     81  C   UNL A   1      38.849  29.137  28.372  1.00  0.00     0.173 A 
ATOM     82  F   UNL A   1      40.212  27.925  31.513  1.00  0.00    -0.203 F 
ATOM     83  C   UNL A   1      38.062  28.743  31.003  1.00  0.00     0.198 A 
ATOM     84  C   UNL A   1      37.559  29.475  28.774  1.00  0.00     0.198 A 
ATOM     85  F   UNL A   1      39.203  29.341  27.095  1.00  0.00    -0.203 F 
ATOM     86  F   UNL A   1      37.679  28.526  32.268  1.00  0.00    -0.200 F 
ATOM     87  C   UNL A   1      37.165  29.273  30.088  1.00  0.00     0.200 A 
ATOM     88  F   UNL A   1      36.701  30.004  27.890  1.00  0.00    -0.200 F 
ATOM     89  F   UNL A   1      35.921  29.589  30.472  1.00  0.00    -0.200 F 
ENDBRANCH  55  79
BRANCH  67  90
ATOM     90  C   UNL A   1      45.591  32.446  28.779  1.00  0.00     0.064 A 
ATOM     91  C   UNL A   1      46.125  32.829  30.018  1.00  0.00     0.173 A 
ATOM     92  C   UNL A   1      45.409  33.439  27.805  1.00  0.00     0.173 A 
ATOM     93  F   UNL A   1      46.303  31.918  30.986  1.00  0.00    -0.203 F 
ATOM     94  C   UNL A   1      46.452  34.158  30.274  1.00  0.00     0.198 A 
ATOM     95  C   UNL A   1      45.761  34.761  28.056  1.00  0.00     0.198 A 
ATOM     96  F   UNL A   1      44.907  33.120  26.602  1.00  0.00    -0.203 F 
ATOM     97  F   UNL A   1      46.928  34.507  31.477  1.00  0.00    -0.200 F 
ATOM     98  C   UNL A   1      46.279  35.120  29.291  1.00  0.00     0.200 A 
ATOM     99  F   UNL A   1      45.607  35.687  27.099  1.00  0.00    -0.200 F 
ATOM    100  F   UNL A   1      46.608  36.395  29.535  1.00  0.00    -0.200 F 
ENDBRANCH  67  90
ENDBRANCH  41  42
ENDBRANCH  33  36
ENDBRANCH  31  32
ENDBRANCH  30  31
ENDBRANCH  29  30
ENDBRANCH   3  29
TORSDOF 15
ENDMDL
MODEL 2
REMARK VINA RESULT:     -12.5      1.392      7.181
REMARK SMILES O=C(CN1C(=O)/C(=C2/Sc3ccccc3N2CCCS(=O)(=O)[O-])SC1=S)NCCCNC(=O)c1ccc(-c2c3nc(c(-c4c(F)c(F)c(F)c(F)c4F)c4ccc([nH]4)c(-c4c(F)c(F)c(F)c(F)c4F)c4nc(c(-c5c(F)c(F)c(F)c(F)c5F)c5ccc2[nH]5)C=C4)C=C3)cc1
REMARK SMILES IDX 1 1 2 2 27 3 3 5 4 6 5 7 25 8 6 9 7 10 24 11 26 12 8 13 9 14
REMARK SMILES IDX 16 15 10 16 15 17 11 18 14 19 12 20 13 21 17 22 18 23 19 24
REMARK SMILES IDX 20 25 21 26 22 27 23 28 28 29 29 30 30 31 31 32 32 33 33 35
REMARK SMILES IDX 34 36 35 37 96 38 36 39 95 40 37 41 38 42 39 43 89 44 40 45
REMARK SMILES IDX 94 46 88 47 90 48 41 49 93 50 87 51 86 52 42 54 74 55 54 56
REMARK SMILES IDX 73 57 55 58 58 59 72 60 91 61 56 62 57 63 71 65 92 66 59 67
REMARK SMILES IDX 43 68 44 69 52 70 45 71 46 72 50 73 53 74 47 75 48 76 51 77
REMARK SMILES IDX 49 78 75 79 76 80 84 81 77 82 78 83 82 84 85 85 79 86 80 87
REMARK SMILES IDX 83 88 81 89 60 90 61 91 69 92 62 93 63 94 67 95 70 96 64 97
REMARK SMILES IDX 65 98 68 99 66 100
REMARK H PARENT 27 4 31 34 90 53 58 64
REMARK Flexibility Score: inf
ROOT
ATOM      1  O   UNL A   1      37.392  23.930  26.100  1.00  0.00    -0.273 OA
ATOM      2  C   UNL A   1      36.394  23.210  26.132  1.00  0.00     0.240 C 
ATOM      3  N   UNL A   1      36.395  21.948  25.597  1.00  0.00    -0.354 N 
ATOM      4  H   UNL A   1      35.709  21.301  25.880  1.00  0.00     0.163 HD
ENDROOT
BRANCH   2   5
ATOM      5  C   UNL A   1      35.104  23.713  26.796  1.00  0.00     0.227 C 
BRANCH   5   6
ATOM      6  N   UNL A   1      33.770  23.689  26.174  1.00  0.00    -0.283 N 
ATOM      7  C   UNL A   1      33.503  24.740  25.311  1.00  0.00     0.269 C 
ATOM      8  C   UNL A   1      33.001  22.598  25.867  1.00  0.00     0.148 C 
ATOM      9  O   UNL A   1      34.387  25.404  24.781  1.00  0.00    -0.268 OA
ATOM     10  C   UNL A   1      32.077  24.774  24.909  1.00  0.00     0.111 C 
ATOM     11  S   UNL A   1      31.513  23.136  25.100  1.00  0.00    -0.052 SA
ATOM     12  S   UNL A   1      33.307  20.987  26.133  1.00  0.00    -0.052 S 
ATOM     13  C   UNL A   1      31.347  25.851  24.519  1.00  0.00     0.100 C 
ATOM     14  S   UNL A   1      29.585  25.547  24.147  1.00  0.00    -0.068 SA
ATOM     15  N   UNL A   1      31.681  27.223  24.366  1.00  0.00    -0.334 N 
ATOM     16  C   UNL A   1      29.370  27.269  23.785  1.00  0.00     0.037 A 
ATOM     17  C   UNL A   1      30.552  28.006  23.980  1.00  0.00     0.056 A 
ATOM     18  C   UNL A   1      28.196  27.850  23.322  1.00  0.00     0.017 A 
ATOM     19  C   UNL A   1      30.513  29.382  23.752  1.00  0.00     0.027 A 
ATOM     20  C   UNL A   1      28.186  29.217  23.059  1.00  0.00     0.001 A 
ATOM     21  C   UNL A   1      29.335  29.981  23.285  1.00  0.00     0.002 A 
BRANCH  15  22
ATOM     22  C   UNL A   1      32.995  27.829  24.111  1.00  0.00     0.124 C 
BRANCH  22  23
ATOM     23  C   UNL A   1      33.328  27.984  22.617  1.00  0.00     0.037 C 
BRANCH  23  24
ATOM     24  C   UNL A   1      33.847  26.763  21.865  1.00  0.00     0.124 C 
BRANCH  24  25
ATOM     25  S   UNL A   1      32.620  25.697  21.101  1.00  0.00     0.095 S 
ATOM     26  O   UNL A   1      32.761  24.364  21.635  1.00  0.00    -0.243 OA
ATOM     27  O   UNL A   1      31.352  26.395  21.082  1.00  0.00    -0.243 OA
ATOM     28  O   UNL A   1      33.138  25.676  19.576  1.00  0.00    -0.748 OA
ENDBRANCH  24  25
ENDBRANCH  23  24
ENDBRANCH  22  23
ENDBRANCH  15  22
ENDBRANCH   5   6
ENDBRANCH   2   5
BRANCH   3  29
ATOM     29  C   UNL A   1      37.394  21.550  24.619  1.00  0.00     0.117 C 
BRANCH  29  30
ATOM     30  C   UNL A   1      38.136  20.279  24.983  1.00  0.00     0.042 C 
BRANCH  30  31
ATOM     31  C   UNL A   1      39.400  20.491  25.802  1.00  0.00     0.118 C 
BRANCH  31  32
ATOM     32  N   UNL A   1      40.273  19.325  25.877  1.00  0.00    -0.352 N 
ATOM     33  C   UNL A   1      41.617  19.251  26.167  1.00  0.00     0.251 C 
ATOM     34  H   UNL A   1      39.837  18.463  25.692  1.00  0.00     0.163 HD
ATOM     35  O   UNL A   1      42.203  18.175  26.127  1.00  0.00    -0.269 OA
BRANCH  33  36
ATOM     36  C   UNL A   1      42.367  20.488  26.464  1.00  0.00     0.039 A 
ATOM     37  C   UNL A   1      42.298  21.074  27.728  1.00  0.00     0.014 A 
ATOM     38  C   UNL A   1      43.076  21.112  25.435  1.00  0.00     0.014 A 
ATOM     39  C   UNL A   1      42.742  22.379  27.898  1.00  0.00     0.010 A 
ATOM     40  C   UNL A   1      43.612  22.385  25.640  1.00  0.00     0.010 A 
ATOM     41  C   UNL A   1      43.387  23.058  26.850  1.00  0.00    -0.014 A 
BRANCH  41  42
ATOM     42  C   UNL A   1      43.777  24.480  27.033  1.00  0.00     0.031 A 
ATOM     43  C   UNL A   1      42.800  25.481  27.592  1.00  0.00     0.074 A 
ATOM     44  C   UNL A   1      45.041  24.857  26.761  1.00  0.00     0.049 A 
ATOM     45  N   UNL A   1      42.970  26.758  27.830  1.00  0.00    -0.248 NA
ATOM     46  C   UNL A   1      41.454  24.988  27.928  1.00  0.00     0.031 C 
ATOM     47  C   UNL A   1      46.086  23.974  26.237  1.00  0.00     0.029 A 
ATOM     48  N   UNL A   1      45.672  26.065  26.913  1.00  0.00    -0.354 N 
ATOM     49  C   UNL A   1      41.755  27.221  28.320  1.00  0.00     0.074 A 
ATOM     50  C   UNL A   1      40.844  26.098  28.321  1.00  0.00     0.031 C 
ATOM     51  C   UNL A   1      47.239  24.654  26.168  1.00  0.00     0.029 A 
ATOM     52  C   UNL A   1      47.002  26.035  26.574  1.00  0.00     0.049 A 
ATOM     53  H   UNL A   1      45.215  26.875  27.235  1.00  0.00     0.167 HD
ATOM     54  C   UNL A   1      41.435  28.468  28.746  1.00  0.00     0.037 A 
ATOM     55  C   UNL A   1      47.926  27.013  26.575  1.00  0.00     0.037 A 
ATOM     56  C   UNL A   1      42.351  29.577  28.773  1.00  0.00     0.049 A 
ATOM     57  C   UNL A   1      47.530  28.396  27.003  1.00  0.00     0.074 A 
ATOM     58  C   UNL A   1      42.124  30.872  29.205  1.00  0.00     0.029 A 
ATOM     59  N   UNL A   1      43.673  29.521  28.357  1.00  0.00    -0.354 N 
ATOM     60  N   UNL A   1      46.376  28.821  27.459  1.00  0.00    -0.248 NA
ATOM     61  C   UNL A   1      48.560  29.440  26.907  1.00  0.00     0.031 C 
ATOM     62  C   UNL A   1      43.295  31.611  29.012  1.00  0.00     0.029 A 
ATOM     63  C   UNL A   1      44.267  30.764  28.503  1.00  0.00     0.049 A 
ATOM     64  H   UNL A   1      44.123  28.717  28.009  1.00  0.00     0.167 HD
ATOM     65  C   UNL A   1      46.542  30.175  27.710  1.00  0.00     0.074 A 
ATOM     66  C   UNL A   1      47.915  30.497  27.380  1.00  0.00     0.031 C 
ATOM     67  C   UNL A   1      45.634  31.071  28.168  1.00  0.00     0.037 A 
BRANCH  54  68
ATOM     68  C   UNL A   1      40.030  28.710  29.217  1.00  0.00     0.064 A 
ATOM     69  C   UNL A   1      39.024  29.140  28.340  1.00  0.00     0.173 A 
ATOM     70  C   UNL A   1      39.669  28.434  30.545  1.00  0.00     0.173 A 
ATOM     71  F   UNL A   1      39.320  29.428  27.063  1.00  0.00    -0.203 F 
ATOM     72  C   UNL A   1      37.711  29.297  28.778  1.00  0.00     0.198 A 
ATOM     73  C   UNL A   1      38.350  28.566  30.973  1.00  0.00     0.198 A 
ATOM     74  F   UNL A   1      40.591  28.012  31.423  1.00  0.00    -0.203 F 
ATOM     75  F   UNL A   1      36.772  29.737  27.929  1.00  0.00    -0.200 F 
ATOM     76  C   UNL A   1      37.374  29.000  30.090  1.00  0.00     0.200 A 
ATOM     77  F   UNL A   1      38.023  28.266  32.237  1.00  0.00    -0.200 F 
ATOM     78  F   UNL A   1      36.105  29.135  30.504  1.00  0.00    -0.200 F 
ENDBRANCH  54  68
BRANCH  55  79
ATOM     79  C   UNL A   1      49.316  26.706  26.153  1.00  0.00     0.064 A 
ATOM     80  C   UNL A   1      50.231  26.141  27.051  1.00  0.00     0.173 A 
ATOM     81  C   UNL A   1      49.747  26.937  24.838  1.00  0.00     0.173 A 
ATOM     82  F   UNL A   1      49.871  25.920  28.323  1.00  0.00    -0.203 F 
ATOM     83  C   UNL A   1      51.526  25.819  26.649  1.00  0.00     0.198 A 
ATOM     84  C   UNL A   1      51.032  26.588  24.430  1.00  0.00     0.198 A 
ATOM     85  F   UNL A   1      48.906  27.473  23.940  1.00  0.00    -0.203 F 
ATOM     86  F   UNL A   1      52.391  25.305  27.534  1.00  0.00    -0.200 F 
ATOM     87  C   UNL A   1      51.922  26.035  25.338  1.00  0.00     0.200 A 
ATOM     88  F   UNL A   1      51.404  26.781  23.157  1.00  0.00    -0.200 F 
ATOM     89  F   UNL A   1      53.162  25.708  24.948  1.00  0.00    -0.200 F 
ENDBRANCH  55  79
BRANCH  67  90
ATOM     90  C   UNL A   1      46.093  32.487  28.350  1.00  0.00     0.064 A 
ATOM     91  C   UNL A   1      46.674  32.917  29.552  1.00  0.00     0.173 A 
ATOM     92  C   UNL A   1      46.012  33.405  27.292  1.00  0.00     0.173 A 
ATOM     93  F   UNL A   1      46.760  32.080  30.597  1.00  0.00    -0.203 F 
ATOM     94  C   UNL A   1      47.143  34.220  29.692  1.00  0.00     0.198 A 
ATOM     95  C   UNL A   1      46.506  34.699  27.427  1.00  0.00     0.198 A 
ATOM     96  F   UNL A   1      45.471  33.039  26.120  1.00  0.00    -0.203 F 
ATOM     97  F   UNL A   1      47.662  34.620  30.861  1.00  0.00    -0.200 F 
ATOM     98  C   UNL A   1      47.068  35.106  28.628  1.00  0.00     0.200 A 
ATOM     99  F   UNL A   1      46.446  35.549  26.393  1.00  0.00    -0.200 F 
ATOM    100  F   UNL A   1      47.534  36.355  28.761  1.00  0.00    -0.200 F 
ENDBRANCH  67  90
ENDBRANCH  41  42
ENDBRANCH  33  36
ENDBRANCH  31  32
ENDBRANCH  30  31
ENDBRANCH  29  30
ENDBRANCH   3  29
TORSDOF 15
ENDMDL
MODEL 3
REMARK VINA RESULT:     -12.5      0.732      2.074
REMARK SMILES O=C(CN1C(=O)/C(=C2/Sc3ccccc3N2CCCS(=O)(=O)[O-])SC1=S)NCCCNC(=O)c1ccc(-c2c3nc(c(-c4c(F)c(F)c(F)c(F)c4F)c4ccc([nH]4)c(-c4c(F)c(F)c(F)c(F)c4F)c4nc(c(-c5c(F)c(F)c(F)c(F)c5F)c5ccc2[nH]5)C=C4)C=C3)cc1
REMARK SMILES IDX 1 1 2 2 27 3 3 5 4 6 5 7 25 8 6 9 7 10 24 11 26 12 8 13 9 14
REMARK SMILES IDX 16 15 10 16 15 17 11 18 14 19 12 20 13 21 17 22 18 23 19 24
REMARK SMILES IDX 20 25 21 26 22 27 23 28 28 29 29 30 30 31 31 32 32 33 33 35
REMARK SMILES IDX 34 36 35 37 96 38 36 39 95 40 37 41 38 42 39 43 89 44 40 45
REMARK SMILES IDX 94 46 88 47 90 48 41 49 93 50 87 51 86 52 42 54 74 55 54 56
REMARK SMILES IDX 73 57 55 58 58 59 72 60 91 61 56 62 57 63 71 65 92 66 59 67
REMARK SMILES IDX 43 68 44 69 52 70 45 71 46 72 50 73 53 74 47 75 48 76 51 77
REMARK SMILES IDX 49 78 75 79 76 80 84 81 77 82 78 83 82 84 85 85 79 86 80 87
REMARK SMILES IDX 83 88 81 89 60 90 61 91 69 92 62 93 63 94 67 95 70 96 64 97
REMARK SMILES IDX 65 98 68 99 66 100
REMARK H PARENT 27 4 31 34 90 53 58 64
REMARK Flexibility Score: inf
ROOT
ATOM      1  O   UNL A   1      37.041  23.796  26.080  1.00  0.00    -0.273 OA
ATOM      2  C   UNL A   1      36.146  22.953  26.123  1.00  0.00     0.240 C 
ATOM      3  N   UNL A   1      36.317  21.689  25.620  1.00  0.00    -0.354 N 
ATOM      4  H   UNL A   1      35.719  20.965  25.915  1.00  0.00     0.163 HD
ENDROOT
BRANCH   2   5
ATOM      5  C   UNL A   1      34.796  23.297  26.767  1.00  0.00     0.227 C 
BRANCH   5   6
ATOM      6  N   UNL A   1      33.515  23.382  26.047  1.00  0.00    -0.283 N 
ATOM      7  C   UNL A   1      33.358  24.507  25.252  1.00  0.00     0.269 C 
ATOM      8  C   UNL A   1      32.729  22.354  25.597  1.00  0.00     0.148 C 
ATOM      9  O   UNL A   1      34.306  25.168  24.845  1.00  0.00    -0.268 OA
ATOM     10  C   UNL A   1      31.970  24.637  24.748  1.00  0.00     0.111 C 
ATOM     11  S   UNL A   1      31.329  23.016  24.765  1.00  0.00    -0.052 SA
ATOM     12  S   UNL A   1      32.949  20.715  25.756  1.00  0.00    -0.052 S 
ATOM     13  C   UNL A   1      31.317  25.772  24.392  1.00  0.00     0.100 C 
ATOM     14  S   UNL A   1      29.579  25.579  23.865  1.00  0.00    -0.068 SA
ATOM     15  N   UNL A   1      31.716  27.136  24.373  1.00  0.00    -0.334 N 
ATOM     16  C   UNL A   1      29.462  27.331  23.626  1.00  0.00     0.037 A 
ATOM     17  C   UNL A   1      30.653  27.997  23.967  1.00  0.00     0.056 A 
ATOM     18  C   UNL A   1      28.352  27.999  23.123  1.00  0.00     0.017 A 
ATOM     19  C   UNL A   1      30.687  29.386  23.847  1.00  0.00     0.027 A 
ATOM     20  C   UNL A   1      28.417  29.381  22.971  1.00  0.00     0.001 A 
ATOM     21  C   UNL A   1      29.574  30.072  23.342  1.00  0.00     0.002 A 
BRANCH  15  22
ATOM     22  C   UNL A   1      33.069  27.698  24.267  1.00  0.00     0.124 C 
BRANCH  22  23
ATOM     23  C   UNL A   1      33.613  28.262  25.591  1.00  0.00     0.037 C 
BRANCH  23  24
ATOM     24  C   UNL A   1      33.711  29.776  25.743  1.00  0.00     0.124 C 
BRANCH  24  25
ATOM     25  S   UNL A   1      32.757  30.522  27.070  1.00  0.00     0.095 S 
ATOM     26  O   UNL A   1      33.661  30.956  28.108  1.00  0.00    -0.243 OA
ATOM     27  O   UNL A   1      31.766  31.401  26.486  1.00  0.00    -0.243 OA
ATOM     28  O   UNL A   1      31.948  29.243  27.621  1.00  0.00    -0.748 OA
ENDBRANCH  24  25
ENDBRANCH  23  24
ENDBRANCH  22  23
ENDBRANCH  15  22
ENDBRANCH   5   6
ENDBRANCH   2   5
BRANCH   3  29
ATOM     29  C   UNL A   1      37.368  21.403  24.658  1.00  0.00     0.117 C 
BRANCH  29  30
ATOM     30  C   UNL A   1      38.155  20.144  24.967  1.00  0.00     0.042 C 
BRANCH  30  31
ATOM     31  C   UNL A   1      39.434  20.369  25.759  1.00  0.00     0.118 C 
BRANCH  31  32
ATOM     32  N   UNL A   1      40.329  19.218  25.803  1.00  0.00    -0.352 N 
ATOM     33  C   UNL A   1      41.671  19.159  26.101  1.00  0.00     0.251 C 
ATOM     34  H   UNL A   1      39.910  18.354  25.586  1.00  0.00     0.163 HD
ATOM     35  O   UNL A   1      42.277  18.096  26.031  1.00  0.00    -0.269 OA
BRANCH  33  36
ATOM     36  C   UNL A   1      42.395  20.399  26.446  1.00  0.00     0.039 A 
ATOM     37  C   UNL A   1      42.377  20.893  27.750  1.00  0.00     0.014 A 
ATOM     38  C   UNL A   1      43.025  21.118  25.428  1.00  0.00     0.014 A 
ATOM     39  C   UNL A   1      42.788  22.198  27.989  1.00  0.00     0.010 A 
ATOM     40  C   UNL A   1      43.531  22.393  25.693  1.00  0.00     0.010 A 
ATOM     41  C   UNL A   1      43.351  22.972  26.959  1.00  0.00    -0.014 A 
BRANCH  41  42
ATOM     42  C   UNL A   1      43.704  24.391  27.221  1.00  0.00     0.031 A 
ATOM     43  C   UNL A   1      45.083  24.911  26.908  1.00  0.00     0.074 A 
ATOM     44  C   UNL A   1      42.757  25.232  27.677  1.00  0.00     0.049 A 
ATOM     45  N   UNL A   1      45.565  26.120  27.061  1.00  0.00    -0.248 NA
ATOM     46  C   UNL A   1      46.051  23.951  26.352  1.00  0.00     0.031 C 
ATOM     47  C   UNL A   1      41.379  24.853  27.995  1.00  0.00     0.029 A 
ATOM     48  N   UNL A   1      42.796  26.581  27.923  1.00  0.00    -0.354 N 
ATOM     49  C   UNL A   1      46.888  26.060  26.642  1.00  0.00     0.074 A 
ATOM     50  C   UNL A   1      47.147  24.692  26.254  1.00  0.00     0.031 C 
ATOM     51  C   UNL A   1      40.690  25.950  28.337  1.00  0.00     0.029 A 
ATOM     52  C   UNL A   1      41.591  27.098  28.331  1.00  0.00     0.049 A 
ATOM     53  H   UNL A   1      43.609  27.125  27.818  1.00  0.00     0.167 HD
ATOM     54  C   UNL A   1      47.799  27.062  26.572  1.00  0.00     0.037 A 
ATOM     55  C   UNL A   1      41.251  28.353  28.676  1.00  0.00     0.037 A 
ATOM     56  C   UNL A   1      47.530  28.430  26.929  1.00  0.00     0.049 A 
ATOM     57  C   UNL A   1      42.294  29.432  28.638  1.00  0.00     0.074 A 
ATOM     58  C   UNL A   1      48.383  29.518  26.874  1.00  0.00     0.029 A 
ATOM     59  N   UNL A   1      46.314  28.900  27.402  1.00  0.00    -0.354 N 
ATOM     60  N   UNL A   1      43.542  29.361  28.246  1.00  0.00    -0.248 NA
ATOM     61  C   UNL A   1      41.884  30.765  29.102  1.00  0.00     0.031 C 
ATOM     62  C   UNL A   1      47.697  30.639  27.353  1.00  0.00     0.029 A 
ATOM     63  C   UNL A   1      46.401  30.258  27.663  1.00  0.00     0.049 A 
ATOM     64  H   UNL A   1      45.508  28.350  27.534  1.00  0.00     0.167 HD
ATOM     65  C   UNL A   1      44.065  30.635  28.407  1.00  0.00     0.074 A 
ATOM     66  C   UNL A   1      42.992  31.468  28.911  1.00  0.00     0.031 C 
ATOM     67  C   UNL A   1      45.325  31.073  28.165  1.00  0.00     0.037 A 
BRANCH  54  68
ATOM     68  C   UNL A   1      49.181  26.724  26.095  1.00  0.00     0.064 A 
ATOM     69  C   UNL A   1      50.126  26.127  26.942  1.00  0.00     0.173 A 
ATOM     70  C   UNL A   1      49.538  26.926  24.752  1.00  0.00     0.173 A 
ATOM     71  F   UNL A   1      49.838  25.923  28.236  1.00  0.00    -0.203 F 
ATOM     72  C   UNL A   1      51.383  25.758  26.466  1.00  0.00     0.198 A 
ATOM     73  C   UNL A   1      50.785  26.531  24.274  1.00  0.00     0.198 A 
ATOM     74  F   UNL A   1      48.668  27.484  23.898  1.00  0.00    -0.203 F 
ATOM     75  F   UNL A   1      52.280  25.218  27.301  1.00  0.00    -0.200 F 
ATOM     76  C   UNL A   1      51.707  25.951  25.132  1.00  0.00     0.200 A 
ATOM     77  F   UNL A   1      51.092  26.705  22.981  1.00  0.00    -0.200 F 
ATOM     78  F   UNL A   1      52.910  25.578  24.673  1.00  0.00    -0.200 F 
ENDBRANCH  54  68
BRANCH  55  79
ATOM     79  C   UNL A   1      39.854  28.646  29.086  1.00  0.00     0.064 A 
ATOM     80  C   UNL A   1      38.912  29.101  28.155  1.00  0.00     0.173 A 
ATOM     81  C   UNL A   1      39.425  28.442  30.407  1.00  0.00     0.173 A 
ATOM     82  F   UNL A   1      39.281  29.327  26.887  1.00  0.00    -0.203 F 
ATOM     83  C   UNL A   1      37.592  29.343  28.529  1.00  0.00     0.198 A 
ATOM     84  C   UNL A   1      38.098  28.657  30.772  1.00  0.00     0.198 A 
ATOM     85  F   UNL A   1      40.289  28.003  31.334  1.00  0.00    -0.203 F 
ATOM     86  F   UNL A   1      36.716  29.804  27.626  1.00  0.00    -0.200 F 
ATOM     87  C   UNL A   1      37.184  29.112  29.835  1.00  0.00     0.200 A 
ATOM     88  F   UNL A   1      37.705  28.415  32.031  1.00  0.00    -0.200 F 
ATOM     89  F   UNL A   1      35.910  29.328  30.189  1.00  0.00    -0.200 F 
ENDBRANCH  55  79
BRANCH  67  90
ATOM     90  C   UNL A   1      45.616  32.520  28.432  1.00  0.00     0.064 A 
ATOM     91  C   UNL A   1      45.403  33.499  27.450  1.00  0.00     0.173 A 
ATOM     92  C   UNL A   1      46.048  32.940  29.698  1.00  0.00     0.173 A 
ATOM     93  F   UNL A   1      45.004  33.145  26.219  1.00  0.00    -0.203 F 
ATOM     94  C   UNL A   1      45.627  34.846  27.725  1.00  0.00     0.198 A 
ATOM     95  C   UNL A   1      46.245  34.289  29.977  1.00  0.00     0.198 A 
ATOM     96  F   UNL A   1      46.259  32.041  30.672  1.00  0.00    -0.203 F 
ATOM     97  F   UNL A   1      45.451  35.761  26.762  1.00  0.00    -0.200 F 
ATOM     98  C   UNL A   1      46.039  35.240  28.989  1.00  0.00     0.200 A 
ATOM     99  F   UNL A   1      46.630  34.669  31.203  1.00  0.00    -0.200 F 
ATOM    100  F   UNL A   1      46.240  36.537  29.255  1.00  0.00    -0.200 F 
ENDBRANCH  67  90
ENDBRANCH  41  42
ENDBRANCH  33  36
ENDBRANCH  31  32
ENDBRANCH  30  31
ENDBRANCH  29  30
ENDBRANCH   3  29
TORSDOF 15
ENDMDL
