MODEL 1
REMARK VINA RESULT:     -11.7      0.000      0.000
REMARK SMILES COc1ccc(C(=O)N(C)CCC(=O)NCCCNC(=O)c2ccc(-c3c4nc(c(-c5c(F)c(F)c(F)c(F)c5F)c5ccc([nH]5)c(-c5c(F)c(F)c(F)c(F)c5F)c5nc(c(-c6c(F)c(F)c(F)c(F)c6F)c6ccc3[nH]6)C=C5)C=C4)cc2)cc1O
REMARK SMILES IDX 13 1 14 2 15 3 12 5 11 6 9 7 10 8 7 9 8 10 6 11 3 12 4 13
REMARK SMILES IDX 86 14 5 15 85 16 2 17 1 18 87 19 16 21 17 22 18 23 19 24
REMARK SMILES IDX 20 25 21 27 22 28 23 29 84 30 24 31 83 32 25 33 26 34 27 35
REMARK SMILES IDX 77 36 28 37 82 38 76 39 78 40 29 41 81 42 75 43 74 44 30 46
REMARK SMILES IDX 62 47 42 48 61 49 43 50 46 51 60 52 79 53 44 54 45 55 59 57
REMARK SMILES IDX 80 58 47 59 31 60 32 61 40 62 33 63 34 64 38 65 41 66 35 67
REMARK SMILES IDX 36 68 39 69 37 70 63 71 64 72 72 73 65 74 66 75 70 76 73 77
REMARK SMILES IDX 67 78 68 79 71 80 69 81 48 82 49 83 57 84 50 85 51 86 55 87
REMARK SMILES IDX 58 88 52 89 53 90 56 91 54 92
REMARK H PARENT 15 4 87 20 19 26 78 45 46 56
REMARK Flexibility Score: inf
ROOT
ATOM      1  C   UNL A   1      31.769  24.742  26.676  1.00  0.00     0.221 C 
ATOM      2  O   UNL A   1      31.322  23.709  27.177  1.00  0.00    -0.275 OA
ATOM      3  N   UNL A   1      31.100  25.908  26.902  1.00  0.00    -0.356 N 
ATOM      4  H   UNL A   1      30.348  25.837  27.535  1.00  0.00     0.163 HD
ENDROOT
BRANCH   1   5
ATOM      5  C   UNL A   1      33.047  24.719  25.869  1.00  0.00     0.121 C 
BRANCH   5   6
ATOM      6  C   UNL A   1      33.642  23.310  25.739  1.00  0.00     0.129 C 
BRANCH   6   7
ATOM      7  N   UNL A   1      33.145  22.572  24.565  1.00  0.00    -0.341 N 
ATOM      8  C   UNL A   1      33.540  23.086  23.262  1.00  0.00     0.147 C 
BRANCH   7   9
ATOM      9  C   UNL A   1      32.465  21.360  24.770  1.00  0.00     0.253 C 
ATOM     10  O   UNL A   1      31.365  21.318  25.322  1.00  0.00    -0.269 OA
BRANCH   9  11
ATOM     11  C   UNL A   1      32.930  20.108  24.087  1.00  0.00     0.043 A 
ATOM     12  C   UNL A   1      33.494  17.424  23.519  1.00  0.00     0.160 A 
ATOM     13  C   UNL A   1      34.286  18.118  24.420  1.00  0.00     0.051 A 
ATOM     14  C   UNL A   1      32.523  18.112  22.802  1.00  0.00     0.158 A 
ATOM     15  C   UNL A   1      34.015  19.457  24.700  1.00  0.00     0.018 A 
ATOM     16  C   UNL A   1      32.271  19.460  23.042  1.00  0.00     0.064 A 
BRANCH  12  17
ATOM     17  O   UNL A   1      33.497  16.056  23.506  1.00  0.00    -0.493 OA
ATOM     18  C   UNL A   1      33.230  15.481  24.779  1.00  0.00     0.278 C 
ENDBRANCH  12  17
BRANCH  14  19
ATOM     19  O   UNL A   1      31.728  17.458  21.905  1.00  0.00    -0.504 OA
ATOM     20  H   UNL A   1      31.579  16.537  21.994  1.00  0.00     0.293 HD
ENDBRANCH  14  19
ENDBRANCH   9  11
ENDBRANCH   7   9
ENDBRANCH   6   7
ENDBRANCH   5   6
ENDBRANCH   1   5
BRANCH   3  21
ATOM     21  C   UNL A   1      31.314  27.240  26.357  1.00  0.00     0.117 C 
BRANCH  21  22
ATOM     22  C   UNL A   1      31.769  28.219  27.436  1.00  0.00     0.042 C 
BRANCH  22  23
ATOM     23  C   UNL A   1      33.200  28.736  27.277  1.00  0.00     0.118 C 
BRANCH  23  24
ATOM     24  N   UNL A   1      33.331  30.161  27.554  1.00  0.00    -0.352 N 
ATOM     25  C   UNL A   1      34.352  30.944  28.044  1.00  0.00     0.251 C 
ATOM     26  H   UNL A   1      32.516  30.672  27.348  1.00  0.00     0.163 HD
ATOM     27  O   UNL A   1      34.109  32.128  28.261  1.00  0.00    -0.269 OA
BRANCH  25  28
ATOM     28  C   UNL A   1      35.719  30.436  28.359  1.00  0.00     0.039 A 
ATOM     29  C   UNL A   1      35.925  29.869  29.631  1.00  0.00     0.014 A 
ATOM     30  C   UNL A   1      36.813  30.539  27.499  1.00  0.00     0.014 A 
ATOM     31  C   UNL A   1      37.176  29.351  30.004  1.00  0.00     0.010 A 
ATOM     32  C   UNL A   1      38.051  29.973  27.848  1.00  0.00     0.010 A 
ATOM     33  C   UNL A   1      38.248  29.375  29.104  1.00  0.00    -0.014 A 
BRANCH  33  34
ATOM     34  C   UNL A   1      39.598  28.876  29.491  1.00  0.00     0.031 A 
ATOM     35  C   UNL A   1      40.441  29.691  30.433  1.00  0.00     0.074 A 
ATOM     36  C   UNL A   1      40.096  27.723  29.001  1.00  0.00     0.049 A 
ATOM     37  N   UNL A   1      41.662  29.475  30.856  1.00  0.00    -0.248 NA
ATOM     38  C   UNL A   1      39.830  30.921  30.957  1.00  0.00     0.031 C 
ATOM     39  C   UNL A   1      39.408  26.830  28.077  1.00  0.00     0.029 A 
ATOM     40  N   UNL A   1      41.311  27.110  29.206  1.00  0.00    -0.354 N 
ATOM     41  C   UNL A   1      41.965  30.542  31.689  1.00  0.00     0.074 A 
ATOM     42  C   UNL A   1      40.819  31.427  31.677  1.00  0.00     0.031 C 
ATOM     43  C   UNL A   1      40.198  25.778  27.800  1.00  0.00     0.029 A 
ATOM     44  C   UNL A   1      41.471  25.941  28.500  1.00  0.00     0.049 A 
ATOM     45  H   UNL A   1      42.004  27.474  29.804  1.00  0.00     0.167 HD
ATOM     46  C   UNL A   1      43.086  30.761  32.417  1.00  0.00     0.037 A 
ATOM     47  C   UNL A   1      42.525  25.105  28.412  1.00  0.00     0.037 A 
ATOM     48  C   UNL A   1      44.231  29.893  32.444  1.00  0.00     0.049 A 
ATOM     49  C   UNL A   1      43.788  25.407  29.179  1.00  0.00     0.074 A 
ATOM     50  C   UNL A   1      45.400  30.031  33.173  1.00  0.00     0.029 A 
ATOM     51  N   UNL A   1      44.357  28.728  31.705  1.00  0.00    -0.354 N 
ATOM     52  N   UNL A   1      44.041  26.392  30.005  1.00  0.00    -0.248 NA
ATOM     53  C   UNL A   1      44.914  24.477  28.998  1.00  0.00     0.031 C 
ATOM     54  C   UNL A   1      46.249  28.968  32.847  1.00  0.00     0.029 A 
ATOM     55  C   UNL A   1      45.592  28.146  31.946  1.00  0.00     0.049 A 
ATOM     56  H   UNL A   1      43.671  28.366  31.099  1.00  0.00     0.167 HD
ATOM     57  C   UNL A   1      45.334  26.181  30.467  1.00  0.00     0.074 A 
ATOM     58  C   UNL A   1      45.814  24.970  29.836  1.00  0.00     0.031 C 
ATOM     59  C   UNL A   1      46.055  26.927  31.337  1.00  0.00     0.037 A 
BRANCH  46  60
ATOM     60  C   UNL A   1      43.121  32.008  33.247  1.00  0.00     0.064 A 
ATOM     61  C   UNL A   1      42.668  32.012  34.574  1.00  0.00     0.173 A 
ATOM     62  C   UNL A   1      43.620  33.205  32.714  1.00  0.00     0.173 A 
ATOM     63  F   UNL A   1      42.167  30.893  35.119  1.00  0.00    -0.203 F 
ATOM     64  C   UNL A   1      42.683  33.180  35.330  1.00  0.00     0.198 A 
ATOM     65  C   UNL A   1      43.657  34.365  33.482  1.00  0.00     0.198 A 
ATOM     66  F   UNL A   1      44.068  33.249  31.452  1.00  0.00    -0.203 F 
ATOM     67  F   UNL A   1      42.197  33.175  36.578  1.00  0.00    -0.200 F 
ATOM     68  C   UNL A   1      43.182  34.355  34.784  1.00  0.00     0.200 A 
ATOM     69  F   UNL A   1      44.148  35.498  32.958  1.00  0.00    -0.200 F 
ATOM     70  F   UNL A   1      43.193  35.480  35.513  1.00  0.00    -0.200 F 
ENDBRANCH  46  60
BRANCH  47  71
ATOM     71  C   UNL A   1      42.452  23.885  27.565  1.00  0.00     0.064 A 
ATOM     72  C   UNL A   1      42.036  22.660  28.109  1.00  0.00     0.173 A 
ATOM     73  C   UNL A   1      42.851  23.900  26.222  1.00  0.00     0.173 A 
ATOM     74  F   UNL A   1      41.674  22.589  29.398  1.00  0.00    -0.203 F 
ATOM     75  C   UNL A   1      42.047  21.493  27.347  1.00  0.00     0.198 A 
ATOM     76  C   UNL A   1      42.838  22.737  25.454  1.00  0.00     0.198 A 
ATOM     77  F   UNL A   1      43.264  25.044  25.657  1.00  0.00    -0.203 F 
ATOM     78  F   UNL A   1      41.697  20.327  27.907  1.00  0.00    -0.200 F 
ATOM     79  C   UNL A   1      42.445  21.533  26.020  1.00  0.00     0.200 A 
ATOM     80  F   UNL A   1      43.220  22.778  24.170  1.00  0.00    -0.200 F 
ATOM     81  F   UNL A   1      42.465  20.408  25.291  1.00  0.00    -0.200 F 
ENDBRANCH  47  71
BRANCH  59  82
ATOM     82  C   UNL A   1      47.425  26.438  31.710  1.00  0.00     0.064 A 
ATOM     83  C   UNL A   1      48.570  26.848  31.013  1.00  0.00     0.173 A 
ATOM     84  C   UNL A   1      47.597  25.592  32.817  1.00  0.00     0.173 A 
ATOM     85  F   UNL A   1      48.457  27.642  29.937  1.00  0.00    -0.203 F 
ATOM     86  C   UNL A   1      49.837  26.421  31.404  1.00  0.00     0.198 A 
ATOM     87  C   UNL A   1      48.867  25.189  33.221  1.00  0.00     0.198 A 
ATOM     88  F   UNL A   1      46.534  25.174  33.520  1.00  0.00    -0.203 F 
ATOM     89  F   UNL A   1      50.915  26.799  30.703  1.00  0.00    -0.200 F 
ATOM     90  C   UNL A   1      49.985  25.600  32.512  1.00  0.00     0.200 A 
ATOM     91  F   UNL A   1      49.008  24.406  34.299  1.00  0.00    -0.200 F 
ATOM     92  F   UNL A   1      51.206  25.202  32.894  1.00  0.00    -0.200 F 
ENDBRANCH  59  82
ENDBRANCH  33  34
ENDBRANCH  25  28
ENDBRANCH  23  24
ENDBRANCH  22  23
ENDBRANCH  21  22
ENDBRANCH   3  21
TORSDOF 16
ENDMDL
MODEL 2
REMARK VINA RESULT:     -11.7      4.069      9.313
REMARK SMILES COc1ccc(C(=O)N(C)CCC(=O)NCCCNC(=O)c2ccc(-c3c4nc(c(-c5c(F)c(F)c(F)c(F)c5F)c5ccc([nH]5)c(-c5c(F)c(F)c(F)c(F)c5F)c5nc(c(-c6c(F)c(F)c(F)c(F)c6F)c6ccc3[nH]6)C=C5)C=C4)cc2)cc1O
REMARK SMILES IDX 13 1 14 2 15 3 12 5 11 6 9 7 10 8 7 9 8 10 6 11 3 12 4 13
REMARK SMILES IDX 86 14 5 15 85 16 2 17 1 18 87 19 16 21 17 22 18 23 19 24
REMARK SMILES IDX 20 25 21 27 22 28 23 29 84 30 24 31 83 32 25 33 26 34 27 35
REMARK SMILES IDX 77 36 28 37 82 38 76 39 78 40 29 41 81 42 75 43 74 44 30 46
REMARK SMILES IDX 62 47 42 48 61 49 43 50 46 51 60 52 79 53 44 54 45 55 59 57
REMARK SMILES IDX 80 58 47 59 31 60 32 61 40 62 33 63 34 64 38 65 41 66 35 67
REMARK SMILES IDX 36 68 39 69 37 70 63 71 64 72 72 73 65 74 66 75 70 76 73 77
REMARK SMILES IDX 67 78 68 79 71 80 69 81 48 82 49 83 57 84 50 85 51 86 55 87
REMARK SMILES IDX 58 88 52 89 53 90 56 91 54 92
REMARK H PARENT 15 4 87 20 19 26 78 45 46 56
REMARK Flexibility Score: inf
ROOT
ATOM      1  C   UNL A   1      32.845  29.058  25.898  1.00  0.00     0.221 C 
ATOM      2  O   UNL A   1      34.058  28.854  25.831  1.00  0.00    -0.275 OA
ATOM      3  N   UNL A   1      32.357  30.218  25.375  1.00  0.00    -0.356 N 
ATOM      4  H   UNL A   1      33.021  30.766  24.897  1.00  0.00     0.163 HD
ENDROOT
BRANCH   1   5
ATOM      5  C   UNL A   1      31.922  28.027  26.508  1.00  0.00     0.121 C 
BRANCH   5   6
ATOM      6  C   UNL A   1      32.270  26.593  26.085  1.00  0.00     0.129 C 
BRANCH   6   7
ATOM      7  N   UNL A   1      31.744  26.230  24.758  1.00  0.00    -0.341 N 
ATOM      8  C   UNL A   1      32.698  25.662  23.817  1.00  0.00     0.147 C 
BRANCH   7   9
ATOM      9  C   UNL A   1      30.359  26.309  24.538  1.00  0.00     0.253 C 
ATOM     10  O   UNL A   1      29.550  25.762  25.288  1.00  0.00    -0.269 OA
BRANCH   9  11
ATOM     11  C   UNL A   1      29.808  27.282  23.537  1.00  0.00     0.043 A 
ATOM     12  C   UNL A   1      28.618  29.535  22.374  1.00  0.00     0.160 A 
ATOM     13  C   UNL A   1      27.827  28.586  23.002  1.00  0.00     0.051 A 
ATOM     14  C   UNL A   1      29.974  29.281  22.203  1.00  0.00     0.158 A 
ATOM     15  C   UNL A   1      28.414  27.458  23.575  1.00  0.00     0.018 A 
ATOM     16  C   UNL A   1      30.564  28.138  22.734  1.00  0.00     0.064 A 
BRANCH  12  17
ATOM     17  O   UNL A   1      28.135  30.793  22.142  1.00  0.00    -0.493 OA
ATOM     18  C   UNL A   1      27.766  31.482  23.330  1.00  0.00     0.278 C 
ENDBRANCH  12  17
BRANCH  14  19
ATOM     19  O   UNL A   1      30.780  30.194  21.587  1.00  0.00    -0.504 OA
ATOM     20  H   UNL A   1      30.402  30.885  21.078  1.00  0.00     0.293 HD
ENDBRANCH  14  19
ENDBRANCH   9  11
ENDBRANCH   7   9
ENDBRANCH   6   7
ENDBRANCH   5   6
ENDBRANCH   1   5
BRANCH   3  21
ATOM     21  C   UNL A   1      31.015  30.779  25.411  1.00  0.00     0.117 C 
BRANCH  21  22
ATOM     22  C   UNL A   1      30.982  32.103  26.168  1.00  0.00     0.042 C 
BRANCH  22  23
ATOM     23  C   UNL A   1      32.273  32.459  26.906  1.00  0.00     0.118 C 
BRANCH  23  24
ATOM     24  N   UNL A   1      32.291  33.826  27.410  1.00  0.00    -0.352 N 
ATOM     25  C   UNL A   1      33.047  34.480  28.356  1.00  0.00     0.251 C 
ATOM     26  H   UNL A   1      31.618  34.405  26.983  1.00  0.00     0.163 HD
ATOM     27  O   UNL A   1      32.741  35.638  28.629  1.00  0.00    -0.269 OA
BRANCH  25  28
ATOM     28  C   UNL A   1      34.187  33.860  29.092  1.00  0.00     0.039 A 
ATOM     29  C   UNL A   1      35.480  34.345  28.817  1.00  0.00     0.014 A 
ATOM     30  C   UNL A   1      34.058  32.798  29.988  1.00  0.00     0.014 A 
ATOM     31  C   UNL A   1      36.607  33.830  29.478  1.00  0.00     0.010 A 
ATOM     32  C   UNL A   1      35.176  32.318  30.690  1.00  0.00     0.010 A 
ATOM     33  C   UNL A   1      36.463  32.826  30.442  1.00  0.00    -0.014 A 
BRANCH  33  34
ATOM     34  C   UNL A   1      37.647  32.228  31.123  1.00  0.00     0.031 A 
ATOM     35  C   UNL A   1      38.426  31.145  30.428  1.00  0.00     0.074 A 
ATOM     36  C   UNL A   1      38.027  32.616  32.357  1.00  0.00     0.049 A 
ATOM     37  N   UNL A   1      39.450  30.450  30.858  1.00  0.00    -0.248 NA
ATOM     38  C   UNL A   1      37.982  30.790  29.072  1.00  0.00     0.031 C 
ATOM     39  C   UNL A   1      37.372  33.642  33.160  1.00  0.00     0.029 A 
ATOM     40  N   UNL A   1      39.055  32.177  33.160  1.00  0.00    -0.354 N 
ATOM     41  C   UNL A   1      39.767  29.575  29.830  1.00  0.00     0.074 A 
ATOM     42  C   UNL A   1      38.801  29.794  28.774  1.00  0.00     0.031 C 
ATOM     43  C   UNL A   1      38.014  33.768  34.334  1.00  0.00     0.029 A 
ATOM     44  C   UNL A   1      39.109  32.800  34.384  1.00  0.00     0.049 A 
ATOM     45  H   UNL A   1      39.694  31.481  32.883  1.00  0.00     0.167 HD
ATOM     46  C   UNL A   1      40.782  28.681  29.757  1.00  0.00     0.037 A 
ATOM     47  C   UNL A   1      39.933  32.604  35.434  1.00  0.00     0.037 A 
ATOM     48  C   UNL A   1      41.752  28.452  30.793  1.00  0.00     0.049 A 
ATOM     49  C   UNL A   1      41.013  31.555  35.354  1.00  0.00     0.074 A 
ATOM     50  C   UNL A   1      42.826  27.579  30.789  1.00  0.00     0.029 A 
ATOM     51  N   UNL A   1      41.763  29.094  32.020  1.00  0.00    -0.354 N 
ATOM     52  N   UNL A   1      41.335  30.771  34.355  1.00  0.00    -0.248 NA
ATOM     53  C   UNL A   1      41.844  31.364  36.554  1.00  0.00     0.031 C 
ATOM     54  C   UNL A   1      43.467  27.666  32.031  1.00  0.00     0.029 A 
ATOM     55  C   UNL A   1      42.815  28.623  32.791  1.00  0.00     0.049 A 
ATOM     56  H   UNL A   1      41.119  29.783  32.304  1.00  0.00     0.167 HD
ATOM     57  C   UNL A   1      42.422  30.024  34.791  1.00  0.00     0.074 A 
ATOM     58  C   UNL A   1      42.712  30.451  36.143  1.00  0.00     0.031 C 
ATOM     59  C   UNL A   1      43.116  29.070  34.126  1.00  0.00     0.037 A 
BRANCH  46  60
ATOM     60  C   UNL A   1      40.885  27.875  28.498  1.00  0.00     0.064 A 
ATOM     61  C   UNL A   1      41.655  28.316  27.412  1.00  0.00     0.173 A 
ATOM     62  C   UNL A   1      40.216  26.648  28.380  1.00  0.00     0.173 A 
ATOM     63  F   UNL A   1      42.299  29.492  27.475  1.00  0.00    -0.203 F 
ATOM     64  C   UNL A   1      41.727  27.572  26.238  1.00  0.00     0.198 A 
ATOM     65  C   UNL A   1      40.311  25.895  27.214  1.00  0.00     0.198 A 
ATOM     66  F   UNL A   1      39.471  26.183  29.393  1.00  0.00    -0.203 F 
ATOM     67  F   UNL A   1      42.425  28.037  25.194  1.00  0.00    -0.200 F 
ATOM     68  C   UNL A   1      41.058  26.360  26.142  1.00  0.00     0.200 A 
ATOM     69  F   UNL A   1      39.672  24.719  27.124  1.00  0.00    -0.200 F 
ATOM     70  F   UNL A   1      41.125  25.646  25.010  1.00  0.00    -0.200 F 
ENDBRANCH  46  60
BRANCH  47  71
ATOM     71  C   UNL A   1      39.786  33.418  36.671  1.00  0.00     0.064 A 
ATOM     72  C   UNL A   1      38.876  33.042  37.671  1.00  0.00     0.173 A 
ATOM     73  C   UNL A   1      40.499  34.610  36.852  1.00  0.00     0.173 A 
ATOM     74  F   UNL A   1      38.148  31.925  37.527  1.00  0.00    -0.203 F 
ATOM     75  C   UNL A   1      38.668  33.842  38.793  1.00  0.00     0.198 A 
ATOM     76  C   UNL A   1      40.309  35.397  37.987  1.00  0.00     0.198 A 
ATOM     77  F   UNL A   1      41.375  35.016  35.922  1.00  0.00    -0.203 F 
ATOM     78  F   UNL A   1      37.754  33.487  39.705  1.00  0.00    -0.200 F 
ATOM     79  C   UNL A   1      39.387  35.017  38.951  1.00  0.00     0.200 A 
ATOM     80  F   UNL A   1      41.006  36.531  38.140  1.00  0.00    -0.200 F 
ATOM     81  F   UNL A   1      39.178  35.792  40.025  1.00  0.00    -0.200 F 
ENDBRANCH  47  71
BRANCH  59  82
ATOM     82  C   UNL A   1      44.294  28.451  34.819  1.00  0.00     0.064 A 
ATOM     83  C   UNL A   1      44.175  27.269  35.565  1.00  0.00     0.173 A 
ATOM     84  C   UNL A   1      45.572  29.017  34.686  1.00  0.00     0.173 A 
ATOM     85  F   UNL A   1      42.973  26.699  35.737  1.00  0.00    -0.203 F 
ATOM     86  C   UNL A   1      45.289  26.684  36.161  1.00  0.00     0.198 A 
ATOM     87  C   UNL A   1      46.688  28.414  35.261  1.00  0.00     0.198 A 
ATOM     88  F   UNL A   1      45.741  30.144  33.979  1.00  0.00    -0.203 F 
ATOM     89  F   UNL A   1      45.146  25.573  36.898  1.00  0.00    -0.200 F 
ATOM     90  C   UNL A   1      46.545  27.251  36.002  1.00  0.00     0.200 A 
ATOM     91  F   UNL A   1      47.901  28.958  35.095  1.00  0.00    -0.200 F 
ATOM     92  F   UNL A   1      47.617  26.678  36.565  1.00  0.00    -0.200 F 
ENDBRANCH  59  82
ENDBRANCH  33  34
ENDBRANCH  25  28
ENDBRANCH  23  24
ENDBRANCH  22  23
ENDBRANCH  21  22
ENDBRANCH   3  21
TORSDOF 16
ENDMDL
MODEL 3
REMARK VINA RESULT:     -11.5      2.176      3.805
REMARK SMILES COc1ccc(C(=O)N(C)CCC(=O)NCCCNC(=O)c2ccc(-c3c4nc(c(-c5c(F)c(F)c(F)c(F)c5F)c5ccc([nH]5)c(-c5c(F)c(F)c(F)c(F)c5F)c5nc(c(-c6c(F)c(F)c(F)c(F)c6F)c6ccc3[nH]6)C=C5)C=C4)cc2)cc1O
REMARK SMILES IDX 13 1 14 2 15 3 12 5 11 6 9 7 10 8 7 9 8 10 6 11 3 12 4 13
REMARK SMILES IDX 86 14 5 15 85 16 2 17 1 18 87 19 16 21 17 22 18 23 19 24
REMARK SMILES IDX 20 25 21 27 22 28 23 29 84 30 24 31 83 32 25 33 26 34 27 35
REMARK SMILES IDX 77 36 28 37 82 38 76 39 78 40 29 41 81 42 75 43 74 44 30 46
REMARK SMILES IDX 62 47 42 48 61 49 43 50 46 51 60 52 79 53 44 54 45 55 59 57
REMARK SMILES IDX 80 58 47 59 31 60 32 61 40 62 33 63 34 64 38 65 41 66 35 67
REMARK SMILES IDX 36 68 39 69 37 70 63 71 64 72 72 73 65 74 66 75 70 76 73 77
REMARK SMILES IDX 67 78 68 79 71 80 69 81 48 82 49 83 57 84 50 85 51 86 55 87
REMARK SMILES IDX 58 88 52 89 53 90 56 91 54 92
REMARK H PARENT 15 4 87 20 19 26 78 45 46 56
REMARK Flexibility Score: inf
ROOT
ATOM      1  C   UNL A   1      31.542  24.349  26.763  1.00  0.00     0.221 C 
ATOM      2  O   UNL A   1      30.739  23.552  27.252  1.00  0.00    -0.275 OA
ATOM      3  N   UNL A   1      31.186  25.663  26.699  1.00  0.00    -0.356 N 
ATOM      4  H   UNL A   1      30.333  25.881  27.142  1.00  0.00     0.163 HD
ENDROOT
BRANCH   1   5
ATOM      5  C   UNL A   1      32.900  23.883  26.288  1.00  0.00     0.121 C 
BRANCH   5   6
ATOM      6  C   UNL A   1      32.914  23.516  24.798  1.00  0.00     0.129 C 
BRANCH   6   7
ATOM      7  N   UNL A   1      33.963  24.211  24.033  1.00  0.00    -0.341 N 
ATOM      8  C   UNL A   1      35.288  24.245  24.636  1.00  0.00     0.147 C 
BRANCH   7   9
ATOM      9  C   UNL A   1      33.668  24.655  22.734  1.00  0.00     0.253 C 
ATOM     10  O   UNL A   1      33.649  23.885  21.773  1.00  0.00    -0.269 OA
BRANCH   9  11
ATOM     11  C   UNL A   1      33.108  26.030  22.514  1.00  0.00     0.043 A 
ATOM     12  C   UNL A   1      31.572  28.359  22.754  1.00  0.00     0.160 A 
ATOM     13  C   UNL A   1      31.022  27.230  22.169  1.00  0.00     0.051 A 
ATOM     14  C   UNL A   1      32.923  28.364  23.079  1.00  0.00     0.158 A 
ATOM     15  C   UNL A   1      31.785  26.069  22.040  1.00  0.00     0.018 A 
ATOM     16  C   UNL A   1      33.706  27.225  22.915  1.00  0.00     0.064 A 
BRANCH  12  17
ATOM     17  O   UNL A   1      30.764  29.358  23.223  1.00  0.00    -0.493 OA
ATOM     18  C   UNL A   1      29.384  29.014  23.219  1.00  0.00     0.278 C 
ENDBRANCH  12  17
BRANCH  14  19
ATOM     19  O   UNL A   1      33.496  29.462  23.653  1.00  0.00    -0.504 OA
ATOM     20  H   UNL A   1      33.073  30.296  23.596  1.00  0.00     0.293 HD
ENDBRANCH  14  19
ENDBRANCH   9  11
ENDBRANCH   7   9
ENDBRANCH   6   7
ENDBRANCH   5   6
ENDBRANCH   1   5
BRANCH   3  21
ATOM     21  C   UNL A   1      31.861  26.794  26.082  1.00  0.00     0.117 C 
BRANCH  21  22
ATOM     22  C   UNL A   1      32.049  27.941  27.071  1.00  0.00     0.042 C 
BRANCH  22  23
ATOM     23  C   UNL A   1      33.477  28.482  27.169  1.00  0.00     0.118 C 
BRANCH  23  24
ATOM     24  N   UNL A   1      33.538  29.866  27.621  1.00  0.00    -0.352 N 
ATOM     25  C   UNL A   1      34.536  30.644  28.163  1.00  0.00     0.251 C 
ATOM     26  H   UNL A   1      32.685  30.345  27.517  1.00  0.00     0.163 HD
ATOM     27  O   UNL A   1      34.235  31.774  28.541  1.00  0.00    -0.269 OA
BRANCH  25  28
ATOM     28  C   UNL A   1      35.944  30.190  28.352  1.00  0.00     0.039 A 
ATOM     29  C   UNL A   1      36.289  29.643  29.602  1.00  0.00     0.014 A 
ATOM     30  C   UNL A   1      36.948  30.325  27.391  1.00  0.00     0.014 A 
ATOM     31  C   UNL A   1      37.588  29.174  29.859  1.00  0.00     0.010 A 
ATOM     32  C   UNL A   1      38.233  29.808  27.626  1.00  0.00     0.010 A 
ATOM     33  C   UNL A   1      38.569  29.229  28.861  1.00  0.00    -0.014 A 
BRANCH  33  34
ATOM     34  C   UNL A   1      39.968  28.784  29.123  1.00  0.00     0.031 A 
ATOM     35  C   UNL A   1      40.899  29.689  29.882  1.00  0.00     0.074 A 
ATOM     36  C   UNL A   1      40.430  27.598  28.678  1.00  0.00     0.049 A 
ATOM     37  N   UNL A   1      42.166  29.527  30.169  1.00  0.00    -0.248 NA
ATOM     38  C   UNL A   1      40.326  30.953  30.368  1.00  0.00     0.031 C 
ATOM     39  C   UNL A   1      39.656  26.618  27.924  1.00  0.00     0.029 A 
ATOM     40  N   UNL A   1      41.675  27.021  28.785  1.00  0.00    -0.354 N 
ATOM     41  C   UNL A   1      42.542  30.667  30.865  1.00  0.00     0.074 A 
ATOM     42  C   UNL A   1      41.382  31.532  30.916  1.00  0.00     0.031 C 
ATOM     43  C   UNL A   1      40.431  25.556  27.645  1.00  0.00     0.029 A 
ATOM     44  C   UNL A   1      41.775  25.796  28.168  1.00  0.00     0.049 A 
ATOM     45  H   UNL A   1      42.425  27.446  29.261  1.00  0.00     0.167 HD
ATOM     46  C   UNL A   1      43.737  30.963  31.429  1.00  0.00     0.037 A 
ATOM     47  C   UNL A   1      42.831  24.970  28.025  1.00  0.00     0.037 A 
ATOM     48  C   UNL A   1      44.897  30.116  31.391  1.00  0.00     0.049 A 
ATOM     49  C   UNL A   1      44.169  25.354  28.603  1.00  0.00     0.074 A 
ATOM     50  C   UNL A   1      46.141  30.333  31.958  1.00  0.00     0.029 A 
ATOM     51  N   UNL A   1      44.960  28.892  30.746  1.00  0.00    -0.354 N 
ATOM     52  N   UNL A   1      44.496  26.411  29.304  1.00  0.00    -0.248 NA
ATOM     53  C   UNL A   1      45.287  24.426  28.368  1.00  0.00     0.031 C 
ATOM     54  C   UNL A   1      46.970  29.255  31.624  1.00  0.00     0.029 A 
ATOM     55  C   UNL A   1      46.228  28.349  30.884  1.00  0.00     0.049 A 
ATOM     56  H   UNL A   1      44.214  28.470  30.261  1.00  0.00     0.167 HD
ATOM     57  C   UNL A   1      45.840  26.258  29.622  1.00  0.00     0.074 A 
ATOM     58  C   UNL A   1      46.269  25.003  29.044  1.00  0.00     0.031 C 
ATOM     59  C   UNL A   1      46.643  27.087  30.330  1.00  0.00     0.037 A 
BRANCH  46  60
ATOM     60  C   UNL A   1      43.842  32.279  32.138  1.00  0.00     0.064 A 
ATOM     61  C   UNL A   1      44.237  33.442  31.461  1.00  0.00     0.173 A 
ATOM     62  C   UNL A   1      43.537  32.380  33.503  1.00  0.00     0.173 A 
ATOM     63  F   UNL A   1      44.553  33.389  30.158  1.00  0.00    -0.203 F 
ATOM     64  C   UNL A   1      44.354  34.655  32.133  1.00  0.00     0.198 A 
ATOM     65  C   UNL A   1      43.630  33.600  34.166  1.00  0.00     0.198 A 
ATOM     66  F   UNL A   1      43.151  31.296  34.192  1.00  0.00    -0.203 F 
ATOM     67  F   UNL A   1      44.783  35.743  31.480  1.00  0.00    -0.200 F 
ATOM     68  C   UNL A   1      44.046  34.733  33.484  1.00  0.00     0.200 A 
ATOM     69  F   UNL A   1      43.324  33.678  35.469  1.00  0.00    -0.200 F 
ATOM     70  F   UNL A   1      44.162  35.902  34.131  1.00  0.00    -0.200 F 
ENDBRANCH  46  60
BRANCH  47  71
ATOM     71  C   UNL A   1      42.685  23.678  27.301  1.00  0.00     0.064 A 
ATOM     72  C   UNL A   1      42.193  22.540  27.959  1.00  0.00     0.173 A 
ATOM     73  C   UNL A   1      43.087  23.536  25.966  1.00  0.00     0.173 A 
ATOM     74  F   UNL A   1      41.825  22.619  29.247  1.00  0.00    -0.203 F 
ATOM     75  C   UNL A   1      42.134  21.305  27.316  1.00  0.00     0.198 A 
ATOM     76  C   UNL A   1      43.004  22.306  25.316  1.00  0.00     0.198 A 
ATOM     77  F   UNL A   1      43.570  24.592  25.295  1.00  0.00    -0.203 F 
ATOM     78  F   UNL A   1      41.712  20.224  27.985  1.00  0.00    -0.200 F 
ATOM     79  C   UNL A   1      42.537  21.190  25.994  1.00  0.00     0.200 A 
ATOM     80  F   UNL A   1      43.390  22.198  24.038  1.00  0.00    -0.200 F 
ATOM     81  F   UNL A   1      42.490  20.000  25.380  1.00  0.00    -0.200 F 
ENDBRANCH  47  71
BRANCH  59  82
ATOM     82  C   UNL A   1      48.058  26.650  30.574  1.00  0.00     0.064 A 
ATOM     83  C   UNL A   1      49.109  27.048  29.735  1.00  0.00     0.173 A 
ATOM     84  C   UNL A   1      48.375  25.870  31.698  1.00  0.00     0.173 A 
ATOM     85  F   UNL A   1      48.857  27.779  28.639  1.00  0.00    -0.203 F 
ATOM     86  C   UNL A   1      50.422  26.672  30.005  1.00  0.00     0.198 A 
ATOM     87  C   UNL A   1      49.692  25.518  31.980  1.00  0.00     0.198 A 
ATOM     88  F   UNL A   1      47.407  25.467  32.534  1.00  0.00    -0.203 F 
ATOM     89  F   UNL A   1      51.407  27.035  29.171  1.00  0.00    -0.200 F 
ATOM     90  C   UNL A   1      50.714  25.916  31.131  1.00  0.00     0.200 A 
ATOM     91  F   UNL A   1      49.972  24.798  33.074  1.00  0.00    -0.200 F 
ATOM     92  F   UNL A   1      51.980  25.566  31.396  1.00  0.00    -0.200 F 
ENDBRANCH  59  82
ENDBRANCH  33  34
ENDBRANCH  25  28
ENDBRANCH  23  24
ENDBRANCH  22  23
ENDBRANCH  21  22
ENDBRANCH   3  21
TORSDOF 16
ENDMDL
