MODEL 1
REMARK VINA RESULT:     -12.9      0.000      0.000
REMARK SMILES COc1cccc([C@@H]2CN(C(=O)c3cnn(C)c3)C[C@H]2C(=O)NCCCNC(=O)c2ccc(-c3c4nc(c(-c5c(F)c(F)c(F)c(F)c5F)c5ccc([nH]5)c(-c5c(F)c(F)c(F)c(F)c5F)c5nc(c(-c6c(F)c(F)c(F)c(F)c6F)c6ccc3[nH]6)C=C5)C=C4)cc2)c1OC
REMARK SMILES IDX 25 1 24 2 23 3 21 4 22 5 20 7 8 8 9 9 10 10 19 11 7 12 3 13
REMARK SMILES IDX 4 14 93 15 5 16 6 17 2 18 1 19 94 20 95 21 11 22 12 23 13 24
REMARK SMILES IDX 14 25 18 26 15 27 16 28 17 29 26 30 27 31 28 32 29 34 30 35
REMARK SMILES IDX 31 36 92 37 32 38 91 39 33 40 34 41 35 42 85 43 36 44 90 45
REMARK SMILES IDX 84 46 86 47 37 48 89 49 83 50 82 51 38 53 70 54 50 55 69 56
REMARK SMILES IDX 51 57 54 58 68 59 87 60 52 61 53 62 67 64 88 65 55 66 39 67
REMARK SMILES IDX 40 68 48 69 41 70 42 71 46 72 49 73 43 74 44 75 47 76 45 77
REMARK SMILES IDX 71 78 72 79 80 80 73 81 74 82 78 83 81 84 75 85 76 86 79 87
REMARK SMILES IDX 77 88 56 89 57 90 65 91 58 92 59 93 63 94 66 95 60 96 61 97
REMARK SMILES IDX 64 98 62 99
REMARK H PARENT 23 6 27 33 86 52 54 63
REMARK Flexibility Score: inf
ROOT
ATOM      1  C   UNL A   1      31.372  31.422  26.091  1.00  0.00     0.042 C 
ENDROOT
BRANCH   1   2
ATOM      2  C   UNL A   1      31.550  29.951  25.720  1.00  0.00     0.117 C 
BRANCH   2   3
ATOM      3  N   UNL A   1      32.722  29.712  24.893  1.00  0.00    -0.356 N 
ATOM      4  C   UNL A   1      32.919  29.024  23.740  1.00  0.00     0.225 C 
ATOM      5  O   UNL A   1      34.066  29.051  23.282  1.00  0.00    -0.275 OA
ATOM      6  H   UNL A   1      33.539  30.139  25.240  1.00  0.00     0.163 HD
BRANCH   4   7
ATOM      7  C   UNL A   1      31.845  28.219  23.030  1.00  0.00     0.107 C 
ATOM      8  C   UNL A   1      31.308  27.044  23.867  1.00  0.00     0.057 C 
ATOM      9  C   UNL A   1      29.798  27.025  23.606  1.00  0.00     0.129 C 
ATOM     10  N   UNL A   1      29.471  28.383  23.205  1.00  0.00    -0.337 N 
ATOM     11  C   UNL A   1      30.629  29.033  22.611  1.00  0.00     0.134 C 
BRANCH   8  12
ATOM     12  C   UNL A   1      31.997  25.707  23.630  1.00  0.00     0.004 A 
ATOM     13  C   UNL A   1      32.817  23.518  24.345  1.00  0.00     0.161 A 
ATOM     14  C   UNL A   1      33.298  23.284  23.052  1.00  0.00     0.050 A 
ATOM     15  C   UNL A   1      32.172  24.736  24.643  1.00  0.00     0.164 A 
ATOM     16  C   UNL A   1      33.118  24.232  22.049  1.00  0.00     0.004 A 
ATOM     17  C   UNL A   1      32.470  25.431  22.334  1.00  0.00     0.008 A 
BRANCH  13  18
ATOM     18  O   UNL A   1      33.065  22.614  25.346  1.00  0.00    -0.493 OA
ATOM     19  C   UNL A   1      32.316  21.405  25.218  1.00  0.00     0.278 C 
ENDBRANCH  13  18
BRANCH  15  20
ATOM     20  O   UNL A   1      31.729  25.104  25.889  1.00  0.00    -0.493 OA
ATOM     21  C   UNL A   1      30.509  24.526  26.338  1.00  0.00     0.278 C 
ENDBRANCH  15  20
ENDBRANCH   8  12
BRANCH  10  22
ATOM     22  C   UNL A   1      28.214  28.946  23.035  1.00  0.00     0.257 C 
ATOM     23  O   UNL A   1      27.197  28.306  23.298  1.00  0.00    -0.269 OA
BRANCH  22  24
ATOM     24  C   UNL A   1      28.109  30.315  22.561  1.00  0.00     0.077 A 
ATOM     25  C   UNL A   1      28.034  31.473  23.371  1.00  0.00     0.149 A 
ATOM     26  C   UNL A   1      27.945  30.808  21.279  1.00  0.00     0.122 A 
ATOM     27  N   UNL A   1      27.907  32.598  22.663  1.00  0.00    -0.181 NA
ATOM     28  N   UNL A   1      27.852  32.164  21.394  1.00  0.00    -0.275 N 
ATOM     29  C   UNL A   1      27.686  33.120  20.326  1.00  0.00     0.173 C 
ENDBRANCH  22  24
ENDBRANCH  10  22
ENDBRANCH   4   7
ENDBRANCH   2   3
ENDBRANCH   1   2
BRANCH   1  30
ATOM     30  C   UNL A   1      32.522  32.029  26.890  1.00  0.00     0.118 C 
BRANCH  30  31
ATOM     31  N   UNL A   1      32.293  33.418  27.256  1.00  0.00    -0.352 N 
ATOM     32  C   UNL A   1      32.925  34.218  28.176  1.00  0.00     0.251 C 
ATOM     33  H   UNL A   1      31.565  33.858  26.761  1.00  0.00     0.163 HD
ATOM     34  O   UNL A   1      32.462  35.326  28.434  1.00  0.00    -0.269 OA
BRANCH  32  35
ATOM     35  C   UNL A   1      34.139  33.760  28.887  1.00  0.00     0.039 A 
ATOM     36  C   UNL A   1      33.999  32.799  29.894  1.00  0.00     0.014 A 
ATOM     37  C   UNL A   1      35.398  34.306  28.619  1.00  0.00     0.014 A 
ATOM     38  C   UNL A   1      35.125  32.330  30.578  1.00  0.00     0.010 A 
ATOM     39  C   UNL A   1      36.527  33.805  29.268  1.00  0.00     0.010 A 
ATOM     40  C   UNL A   1      36.401  32.807  30.247  1.00  0.00    -0.014 A 
BRANCH  40  41
ATOM     41  C   UNL A   1      37.620  32.265  30.897  1.00  0.00     0.031 A 
ATOM     42  C   UNL A   1      38.435  31.202  30.223  1.00  0.00     0.074 A 
ATOM     43  C   UNL A   1      37.955  32.682  32.134  1.00  0.00     0.049 A 
ATOM     44  N   UNL A   1      39.439  30.508  30.695  1.00  0.00    -0.248 NA
ATOM     45  C   UNL A   1      38.063  30.863  28.840  1.00  0.00     0.031 C 
ATOM     46  C   UNL A   1      37.244  33.701  32.907  1.00  0.00     0.029 A 
ATOM     47  N   UNL A   1      38.975  32.286  32.961  1.00  0.00    -0.354 N 
ATOM     48  C   UNL A   1      39.793  29.623  29.686  1.00  0.00     0.074 A 
ATOM     49  C   UNL A   1      38.900  29.870  28.572  1.00  0.00     0.031 C 
ATOM     50  C   UNL A   1      37.859  33.860  34.091  1.00  0.00     0.029 A 
ATOM     51  C   UNL A   1      38.982  32.930  34.173  1.00  0.00     0.049 A 
ATOM     52  H   UNL A   1      39.640  31.603  32.710  1.00  0.00     0.167 HD
ATOM     53  C   UNL A   1      40.774  28.690  29.688  1.00  0.00     0.037 A 
ATOM     54  C   UNL A   1      39.789  32.775  35.238  1.00  0.00     0.037 A 
ATOM     55  C   UNL A   1      41.709  28.481  30.761  1.00  0.00     0.049 A 
ATOM     56  C   UNL A   1      40.872  31.737  35.213  1.00  0.00     0.074 A 
ATOM     57  C   UNL A   1      42.798  27.626  30.805  1.00  0.00     0.029 A 
ATOM     58  N   UNL A   1      41.668  29.142  31.978  1.00  0.00    -0.354 N 
ATOM     59  N   UNL A   1      41.198  30.911  34.251  1.00  0.00    -0.248 NA
ATOM     60  C   UNL A   1      41.682  31.596  36.432  1.00  0.00     0.031 C 
ATOM     61  C   UNL A   1      43.408  27.760  32.058  1.00  0.00     0.029 A 
ATOM     62  C   UNL A   1      42.703  28.702  32.788  1.00  0.00     0.049 A 
ATOM     63  H   UNL A   1      41.003  29.822  32.230  1.00  0.00     0.167 HD
ATOM     64  C   UNL A   1      42.252  30.156  34.742  1.00  0.00     0.074 A 
ATOM     65  C   UNL A   1      42.513  30.621  36.089  1.00  0.00     0.031 C 
ATOM     66  C   UNL A   1      42.942  29.167  34.126  1.00  0.00     0.037 A 
BRANCH  53  67
ATOM     67  C   UNL A   1      40.881  27.811  28.484  1.00  0.00     0.064 A 
ATOM     68  C   UNL A   1      40.193  26.595  28.405  1.00  0.00     0.173 A 
ATOM     69  C   UNL A   1      41.656  28.211  27.387  1.00  0.00     0.173 A 
ATOM     70  F   UNL A   1      39.450  26.172  29.438  1.00  0.00    -0.203 F 
ATOM     71  C   UNL A   1      40.285  25.799  27.267  1.00  0.00     0.198 A 
ATOM     72  C   UNL A   1      41.740  27.416  26.247  1.00  0.00     0.198 A 
ATOM     73  F   UNL A   1      42.335  29.367  27.425  1.00  0.00    -0.203 F 
ATOM     74  F   UNL A   1      39.637  24.627  27.215  1.00  0.00    -0.200 F 
ATOM     75  C   UNL A   1      41.056  26.211  26.189  1.00  0.00     0.200 A 
ATOM     76  F   UNL A   1      42.486  27.814  25.208  1.00  0.00    -0.200 F 
ATOM     77  F   UNL A   1      41.146  25.442  25.094  1.00  0.00    -0.200 F 
ENDBRANCH  53  67
BRANCH  54  78
ATOM     78  C   UNL A   1      39.592  33.628  36.430  1.00  0.00     0.064 A 
ATOM     79  C   UNL A   1      40.205  34.884  36.516  1.00  0.00     0.173 A 
ATOM     80  C   UNL A   1      38.775  33.216  37.490  1.00  0.00     0.173 A 
ATOM     81  F   UNL A   1      41.007  35.305  35.527  1.00  0.00    -0.203 F 
ATOM     82  C   UNL A   1      40.007  35.703  37.625  1.00  0.00     0.198 A 
ATOM     83  C   UNL A   1      38.570  34.040  38.595  1.00  0.00     0.198 A 
ATOM     84  F   UNL A   1      38.171  32.021  37.447  1.00  0.00    -0.203 F 
ATOM     85  F   UNL A   1      40.612  36.895  37.692  1.00  0.00    -0.200 F 
ATOM     86  C   UNL A   1      39.187  35.281  38.661  1.00  0.00     0.200 A 
ATOM     87  F   UNL A   1      37.775  33.632  39.593  1.00  0.00    -0.200 F 
ATOM     88  F   UNL A   1      38.992  36.071  39.727  1.00  0.00    -0.200 F 
ENDBRANCH  54  78
BRANCH  66  89
ATOM     89  C   UNL A   1      44.043  28.523  34.905  1.00  0.00     0.064 A 
ATOM     90  C   UNL A   1      45.332  29.071  34.917  1.00  0.00     0.173 A 
ATOM     91  C   UNL A   1      43.802  27.371  35.666  1.00  0.00     0.173 A 
ATOM     92  F   UNL A   1      45.607  30.163  34.189  1.00  0.00    -0.203 F 
ATOM     93  C   UNL A   1      46.349  28.481  35.663  1.00  0.00     0.198 A 
ATOM     94  C   UNL A   1      44.819  26.788  36.416  1.00  0.00     0.198 A 
ATOM     95  F   UNL A   1      42.583  26.812  35.677  1.00  0.00    -0.203 F 
ATOM     96  F   UNL A   1      47.581  29.008  35.648  1.00  0.00    -0.200 F 
ATOM     97  C   UNL A   1      46.091  27.343  36.413  1.00  0.00     0.200 A 
ATOM     98  F   UNL A   1      44.572  25.687  37.137  1.00  0.00    -0.200 F 
ATOM     99  F   UNL A   1      47.073  26.775  37.129  1.00  0.00    -0.200 F 
ENDBRANCH  66  89
ENDBRANCH  40  41
ENDBRANCH  32  35
ENDBRANCH  30  31
ENDBRANCH   1  30
TORSDOF 15
ENDMDL
MODEL 2
REMARK VINA RESULT:     -12.8      5.580     10.793
REMARK SMILES COc1cccc([C@@H]2CN(C(=O)c3cnn(C)c3)C[C@H]2C(=O)NCCCNC(=O)c2ccc(-c3c4nc(c(-c5c(F)c(F)c(F)c(F)c5F)c5ccc([nH]5)c(-c5c(F)c(F)c(F)c(F)c5F)c5nc(c(-c6c(F)c(F)c(F)c(F)c6F)c6ccc3[nH]6)C=C5)C=C4)cc2)c1OC
REMARK SMILES IDX 25 1 24 2 23 3 21 4 22 5 20 7 8 8 9 9 10 10 19 11 7 12 3 13
REMARK SMILES IDX 4 14 93 15 5 16 6 17 2 18 1 19 94 20 95 21 11 22 12 23 13 24
REMARK SMILES IDX 14 25 18 26 15 27 16 28 17 29 26 30 27 31 28 32 29 34 30 35
REMARK SMILES IDX 31 36 92 37 32 38 91 39 33 40 34 41 35 42 85 43 36 44 90 45
REMARK SMILES IDX 84 46 86 47 37 48 89 49 83 50 82 51 38 53 70 54 50 55 69 56
REMARK SMILES IDX 51 57 54 58 68 59 87 60 52 61 53 62 67 64 88 65 55 66 39 67
REMARK SMILES IDX 40 68 48 69 41 70 42 71 46 72 49 73 43 74 44 75 47 76 45 77
REMARK SMILES IDX 71 78 72 79 80 80 73 81 74 82 78 83 81 84 75 85 76 86 79 87
REMARK SMILES IDX 77 88 56 89 57 90 65 91 58 92 59 93 63 94 66 95 60 96 61 97
REMARK SMILES IDX 64 98 62 99
REMARK H PARENT 23 6 27 33 86 52 54 63
REMARK Flexibility Score: inf
ROOT
ATOM      1  C   UNL A   1      38.638  20.475  25.233  1.00  0.00     0.042 C 
ENDROOT
BRANCH   1   2
ATOM      2  C   UNL A   1      37.954  21.827  25.430  1.00  0.00     0.117 C 
BRANCH   2   3
ATOM      3  N   UNL A   1      37.546  22.445  24.178  1.00  0.00    -0.356 N 
ATOM      4  C   UNL A   1      36.393  23.028  23.764  1.00  0.00     0.225 C 
ATOM      5  O   UNL A   1      36.399  23.485  22.616  1.00  0.00    -0.275 OA
ATOM      6  H   UNL A   1      38.251  22.437  23.491  1.00  0.00     0.163 HD
BRANCH   4   7
ATOM      7  C   UNL A   1      35.128  23.112  24.600  1.00  0.00     0.107 C 
ATOM      8  C   UNL A   1      33.983  23.867  23.901  1.00  0.00     0.057 C 
ATOM      9  C   UNL A   1      32.716  23.076  24.243  1.00  0.00     0.129 C 
ATOM     10  N   UNL A   1      33.184  21.732  24.539  1.00  0.00    -0.337 N 
ATOM     11  C   UNL A   1      34.559  21.761  25.009  1.00  0.00     0.134 C 
BRANCH   8  12
ATOM     12  C   UNL A   1      33.893  25.353  24.218  1.00  0.00     0.004 A 
ATOM     13  C   UNL A   1      33.664  27.706  23.598  1.00  0.00     0.161 A 
ATOM     14  C   UNL A   1      33.751  28.063  24.949  1.00  0.00     0.050 A 
ATOM     15  C   UNL A   1      33.746  26.349  23.225  1.00  0.00     0.164 A 
ATOM     16  C   UNL A   1      33.885  27.085  25.930  1.00  0.00     0.004 A 
ATOM     17  C   UNL A   1      33.951  25.743  25.569  1.00  0.00     0.008 A 
BRANCH  13  18
ATOM     18  O   UNL A   1      33.609  28.678  22.632  1.00  0.00    -0.493 OA
ATOM     19  C   UNL A   1      32.315  29.263  22.487  1.00  0.00     0.278 C 
ENDBRANCH  13  18
BRANCH  15  20
ATOM     20  O   UNL A   1      33.749  25.891  21.931  1.00  0.00    -0.493 OA
ATOM     21  C   UNL A   1      32.485  25.751  21.292  1.00  0.00     0.278 C 
ENDBRANCH  15  20
ENDBRANCH   8  12
BRANCH  10  22
ATOM     22  C   UNL A   1      32.426  20.584  24.726  1.00  0.00     0.257 C 
ATOM     23  O   UNL A   1      31.435  20.596  25.454  1.00  0.00    -0.269 OA
BRANCH  22  24
ATOM     24  C   UNL A   1      32.803  19.365  24.031  1.00  0.00     0.077 A 
ATOM     25  C   UNL A   1      32.221  18.873  22.840  1.00  0.00     0.149 A 
ATOM     26  C   UNL A   1      33.691  18.368  24.392  1.00  0.00     0.122 A 
ATOM     27  N   UNL A   1      32.743  17.708  22.446  1.00  0.00    -0.181 NA
ATOM     28  N   UNL A   1      33.632  17.423  23.410  1.00  0.00    -0.275 N 
ATOM     29  C   UNL A   1      34.388  16.196  23.334  1.00  0.00     0.173 C 
ENDBRANCH  22  24
ENDBRANCH  10  22
ENDBRANCH   4   7
ENDBRANCH   2   3
ENDBRANCH   1   2
BRANCH   1  30
ATOM     30  C   UNL A   1      39.434  19.974  26.435  1.00  0.00     0.118 C 
BRANCH  30  31
ATOM     31  N   UNL A   1      40.602  19.192  26.060  1.00  0.00    -0.352 N 
ATOM     32  C   UNL A   1      41.930  19.537  26.001  1.00  0.00     0.251 C 
ATOM     33  H   UNL A   1      40.408  18.261  25.806  1.00  0.00     0.163 HD
ATOM     34  O   UNL A   1      42.737  18.756  25.504  1.00  0.00    -0.269 OA
BRANCH  32  35
ATOM     35  C   UNL A   1      42.407  20.846  26.501  1.00  0.00     0.039 A 
ATOM     36  C   UNL A   1      42.812  21.808  25.569  1.00  0.00     0.014 A 
ATOM     37  C   UNL A   1      42.518  21.114  27.869  1.00  0.00     0.014 A 
ATOM     38  C   UNL A   1      43.254  23.062  26.002  1.00  0.00     0.010 A 
ATOM     39  C   UNL A   1      42.914  22.381  28.299  1.00  0.00     0.010 A 
ATOM     40  C   UNL A   1      43.277  23.368  27.370  1.00  0.00    -0.014 A 
BRANCH  40  41
ATOM     41  C   UNL A   1      43.661  24.718  27.852  1.00  0.00     0.031 A 
ATOM     42  C   UNL A   1      42.610  25.730  28.200  1.00  0.00     0.074 A 
ATOM     43  C   UNL A   1      44.963  25.059  27.909  1.00  0.00     0.049 A 
ATOM     44  N   UNL A   1      42.750  26.997  28.495  1.00  0.00    -0.248 NA
ATOM     45  C   UNL A   1      41.216  25.259  28.202  1.00  0.00     0.031 C 
ATOM     46  C   UNL A   1      46.085  24.177  27.588  1.00  0.00     0.029 A 
ATOM     47  N   UNL A   1      45.558  26.249  28.245  1.00  0.00    -0.354 N 
ATOM     48  C   UNL A   1      41.464  27.486  28.677  1.00  0.00     0.074 A 
ATOM     49  C   UNL A   1      40.555  26.379  28.465  1.00  0.00     0.031 C 
ATOM     50  C   UNL A   1      47.235  24.851  27.758  1.00  0.00     0.029 A 
ATOM     51  C   UNL A   1      46.928  26.220  28.161  1.00  0.00     0.049 A 
ATOM     52  H   UNL A   1      45.051  27.047  28.519  1.00  0.00     0.167 HD
ATOM     53  C   UNL A   1      41.077  28.745  28.993  1.00  0.00     0.037 A 
ATOM     54  C   UNL A   1      47.834  27.194  28.367  1.00  0.00     0.037 A 
ATOM     55  C   UNL A   1      41.971  29.836  29.272  1.00  0.00     0.049 A 
ATOM     56  C   UNL A   1      47.379  28.578  28.722  1.00  0.00     0.074 A 
ATOM     57  C   UNL A   1      41.666  31.117  29.699  1.00  0.00     0.029 A 
ATOM     58  N   UNL A   1      43.350  29.769  29.157  1.00  0.00    -0.354 N 
ATOM     59  N   UNL A   1      46.161  29.025  28.895  1.00  0.00    -0.248 NA
ATOM     60  C   UNL A   1      48.425  29.598  28.885  1.00  0.00     0.031 C 
ATOM     61  C   UNL A   1      42.863  31.832  29.828  1.00  0.00     0.029 A 
ATOM     62  C   UNL A   1      43.911  30.992  29.489  1.00  0.00     0.049 A 
ATOM     63  H   UNL A   1      43.857  28.972  28.881  1.00  0.00     0.167 HD
ATOM     64  C   UNL A   1      46.291  30.373  29.193  1.00  0.00     0.074 A 
ATOM     65  C   UNL A   1      47.708  30.674  29.178  1.00  0.00     0.031 C 
ATOM     66  C   UNL A   1      45.319  31.277  29.458  1.00  0.00     0.037 A 
BRANCH  53  67
ATOM     67  C   UNL A   1      39.608  29.012  29.047  1.00  0.00     0.064 A 
ATOM     68  C   UNL A   1      38.891  29.388  27.905  1.00  0.00     0.173 A 
ATOM     69  C   UNL A   1      38.908  28.857  30.252  1.00  0.00     0.173 A 
ATOM     70  F   UNL A   1      39.527  29.558  26.737  1.00  0.00    -0.203 F 
ATOM     71  C   UNL A   1      37.519  29.611  27.968  1.00  0.00     0.198 A 
ATOM     72  C   UNL A   1      37.533  29.073  30.310  1.00  0.00     0.198 A 
ATOM     73  F   UNL A   1      39.558  28.503  31.370  1.00  0.00    -0.203 F 
ATOM     74  F   UNL A   1      36.852  29.991  26.870  1.00  0.00    -0.200 F 
ATOM     75  C   UNL A   1      36.841  29.451  29.169  1.00  0.00     0.200 A 
ATOM     76  F   UNL A   1      36.880  28.920  31.469  1.00  0.00    -0.200 F 
ATOM     77  F   UNL A   1      35.520  29.668  29.229  1.00  0.00    -0.200 F 
ENDBRANCH  53  67
BRANCH  54  78
ATOM     78  C   UNL A   1      49.275  26.886  28.232  1.00  0.00     0.064 A 
ATOM     79  C   UNL A   1      50.028  26.500  29.347  1.00  0.00     0.173 A 
ATOM     80  C   UNL A   1      49.917  26.952  26.990  1.00  0.00     0.173 A 
ATOM     81  F   UNL A   1      49.450  26.442  30.556  1.00  0.00    -0.203 F 
ATOM     82  C   UNL A   1      51.379  26.189  29.225  1.00  0.00     0.198 A 
ATOM     83  C   UNL A   1      51.267  26.630  26.866  1.00  0.00     0.198 A 
ATOM     84  F   UNL A   1      49.232  27.318  25.898  1.00  0.00    -0.203 F 
ATOM     85  F   UNL A   1      52.085  25.833  30.306  1.00  0.00    -0.200 F 
ATOM     86  C   UNL A   1      51.996  26.250  27.984  1.00  0.00     0.200 A 
ATOM     87  F   UNL A   1      51.860  26.687  25.667  1.00  0.00    -0.200 F 
ATOM     88  F   UNL A   1      53.296  25.945  27.864  1.00  0.00    -0.200 F 
ENDBRANCH  54  78
BRANCH  66  89
ATOM     89  C   UNL A   1      45.757  32.676  29.751  1.00  0.00     0.064 A 
ATOM     90  C   UNL A   1      46.086  33.069  31.056  1.00  0.00     0.173 A 
ATOM     91  C   UNL A   1      45.877  33.619  28.722  1.00  0.00     0.173 A 
ATOM     92  F   UNL A   1      45.969  32.201  32.071  1.00  0.00    -0.203 F 
ATOM     93  C   UNL A   1      46.516  34.366  31.320  1.00  0.00     0.198 A 
ATOM     94  C   UNL A   1      46.314  34.913  28.989  1.00  0.00     0.198 A 
ATOM     95  F   UNL A   1      45.566  33.284  27.461  1.00  0.00    -0.203 F 
ATOM     96  F   UNL A   1      46.809  34.730  32.576  1.00  0.00    -0.200 F 
ATOM     97  C   UNL A   1      46.632  35.285  30.288  1.00  0.00     0.200 A 
ATOM     98  F   UNL A   1      46.422  35.802  27.993  1.00  0.00    -0.200 F 
ATOM     99  F   UNL A   1      47.045  36.535  30.545  1.00  0.00    -0.200 F 
ENDBRANCH  66  89
ENDBRANCH  40  41
ENDBRANCH  32  35
ENDBRANCH  30  31
ENDBRANCH   1  30
TORSDOF 15
ENDMDL
MODEL 3
REMARK VINA RESULT:     -12.7      5.407     10.685
REMARK SMILES COc1cccc([C@@H]2CN(C(=O)c3cnn(C)c3)C[C@H]2C(=O)NCCCNC(=O)c2ccc(-c3c4nc(c(-c5c(F)c(F)c(F)c(F)c5F)c5ccc([nH]5)c(-c5c(F)c(F)c(F)c(F)c5F)c5nc(c(-c6c(F)c(F)c(F)c(F)c6F)c6ccc3[nH]6)C=C5)C=C4)cc2)c1OC
REMARK SMILES IDX 25 1 24 2 23 3 21 4 22 5 20 7 8 8 9 9 10 10 19 11 7 12 3 13
REMARK SMILES IDX 4 14 93 15 5 16 6 17 2 18 1 19 94 20 95 21 11 22 12 23 13 24
REMARK SMILES IDX 14 25 18 26 15 27 16 28 17 29 26 30 27 31 28 32 29 34 30 35
REMARK SMILES IDX 31 36 92 37 32 38 91 39 33 40 34 41 35 42 85 43 36 44 90 45
REMARK SMILES IDX 84 46 86 47 37 48 89 49 83 50 82 51 38 53 70 54 50 55 69 56
REMARK SMILES IDX 51 57 54 58 68 59 87 60 52 61 53 62 67 64 88 65 55 66 39 67
REMARK SMILES IDX 40 68 48 69 41 70 42 71 46 72 49 73 43 74 44 75 47 76 45 77
REMARK SMILES IDX 71 78 72 79 80 80 73 81 74 82 78 83 81 84 75 85 76 86 79 87
REMARK SMILES IDX 77 88 56 89 57 90 65 91 58 92 59 93 63 94 66 95 60 96 61 97
REMARK SMILES IDX 64 98 62 99
REMARK H PARENT 23 6 27 33 86 52 54 63
REMARK Flexibility Score: inf
ROOT
ATOM      1  C   UNL A   1      38.070  19.625  24.717  1.00  0.00     0.042 C 
ENDROOT
BRANCH   1   2
ATOM      2  C   UNL A   1      36.675  20.180  25.001  1.00  0.00     0.117 C 
BRANCH   2   3
ATOM      3  N   UNL A   1      36.700  21.544  25.507  1.00  0.00    -0.356 N 
ATOM      4  C   UNL A   1      36.037  22.675  25.157  1.00  0.00     0.225 C 
ATOM      5  O   UNL A   1      36.285  23.679  25.834  1.00  0.00    -0.275 OA
ATOM      6  H   UNL A   1      37.325  21.671  26.257  1.00  0.00     0.163 HD
BRANCH   4   7
ATOM      7  C   UNL A   1      35.067  22.773  23.993  1.00  0.00     0.107 C 
ATOM      8  C   UNL A   1      33.600  22.541  24.400  1.00  0.00     0.057 C 
ATOM      9  C   UNL A   1      32.795  23.565  23.592  1.00  0.00     0.129 C 
ATOM     10  N   UNL A   1      33.740  24.626  23.287  1.00  0.00    -0.337 N 
ATOM     11  C   UNL A   1      35.099  24.109  23.265  1.00  0.00     0.134 C 
BRANCH   8  12
ATOM     12  C   UNL A   1      33.105  21.109  24.258  1.00  0.00     0.004 A 
ATOM     13  C   UNL A   1      32.628  18.870  25.117  1.00  0.00     0.161 A 
ATOM     14  C   UNL A   1      32.168  18.490  23.851  1.00  0.00     0.050 A 
ATOM     15  C   UNL A   1      33.108  20.179  25.325  1.00  0.00     0.164 A 
ATOM     16  C   UNL A   1      32.153  19.404  22.802  1.00  0.00     0.004 A 
ATOM     17  C   UNL A   1      32.612  20.702  23.005  1.00  0.00     0.008 A 
BRANCH  13  18
ATOM     18  O   UNL A   1      32.712  17.944  26.126  1.00  0.00    -0.493 OA
ATOM     19  C   UNL A   1      32.907  16.610  25.658  1.00  0.00     0.278 C 
ENDBRANCH  13  18
BRANCH  15  20
ATOM     20  O   UNL A   1      33.651  20.638  26.499  1.00  0.00    -0.493 OA
ATOM     21  C   UNL A   1      32.907  21.616  27.217  1.00  0.00     0.278 C 
ENDBRANCH  15  20
ENDBRANCH   8  12
BRANCH  10  22
ATOM     22  C   UNL A   1      33.478  25.873  22.736  1.00  0.00     0.257 C 
ATOM     23  O   UNL A   1      33.654  26.081  21.537  1.00  0.00    -0.269 OA
BRANCH  22  24
ATOM     24  C   UNL A   1      32.970  26.932  23.590  1.00  0.00     0.077 A 
ATOM     25  C   UNL A   1      31.614  27.313  23.727  1.00  0.00     0.149 A 
ATOM     26  C   UNL A   1      33.645  27.865  24.355  1.00  0.00     0.122 A 
ATOM     27  N   UNL A   1      31.443  28.345  24.557  1.00  0.00    -0.181 NA
ATOM     28  N   UNL A   1      32.695  28.663  24.922  1.00  0.00    -0.275 N 
ATOM     29  C   UNL A   1      32.910  29.776  25.816  1.00  0.00     0.173 C 
ENDBRANCH  22  24
ENDBRANCH  10  22
ENDBRANCH   4   7
ENDBRANCH   2   3
ENDBRANCH   1   2
BRANCH   1  30
ATOM     30  C   UNL A   1      39.132  19.992  25.750  1.00  0.00     0.118 C 
BRANCH  30  31
ATOM     31  N   UNL A   1      40.228  19.037  25.808  1.00  0.00    -0.352 N 
ATOM     32  C   UNL A   1      41.575  19.229  25.994  1.00  0.00     0.251 C 
ATOM     33  H   UNL A   1      39.959  18.097  25.694  1.00  0.00     0.163 HD
ATOM     34  O   UNL A   1      42.346  18.284  25.851  1.00  0.00    -0.269 OA
BRANCH  32  35
ATOM     35  C   UNL A   1      42.121  20.560  26.338  1.00  0.00     0.039 A 
ATOM     36  C   UNL A   1      42.593  21.375  25.303  1.00  0.00     0.014 A 
ATOM     37  C   UNL A   1      42.230  20.990  27.664  1.00  0.00     0.014 A 
ATOM     38  C   UNL A   1      43.102  22.645  25.586  1.00  0.00     0.010 A 
ATOM     39  C   UNL A   1      42.694  22.276  27.943  1.00  0.00     0.010 A 
ATOM     40  C   UNL A   1      43.125  23.118  26.906  1.00  0.00    -0.014 A 
BRANCH  40  41
ATOM     41  C   UNL A   1      43.582  24.493  27.225  1.00  0.00     0.031 A 
ATOM     42  C   UNL A   1      42.619  25.509  27.766  1.00  0.00     0.074 A 
ATOM     43  C   UNL A   1      44.853  24.851  26.960  1.00  0.00     0.049 A 
ATOM     44  N   UNL A   1      42.796  26.790  27.965  1.00  0.00    -0.248 NA
ATOM     45  C   UNL A   1      41.275  25.023  28.115  1.00  0.00     0.031 C 
ATOM     46  C   UNL A   1      45.888  23.967  26.424  1.00  0.00     0.029 A 
ATOM     47  N   UNL A   1      45.484  26.062  27.095  1.00  0.00    -0.354 N 
ATOM     48  C   UNL A   1      41.578  27.273  28.421  1.00  0.00     0.074 A 
ATOM     49  C   UNL A   1      40.669  26.146  28.477  1.00  0.00     0.031 C 
ATOM     50  C   UNL A   1      47.031  24.662  26.290  1.00  0.00     0.029 A 
ATOM     51  C   UNL A   1      46.796  26.045  26.694  1.00  0.00     0.049 A 
ATOM     52  H   UNL A   1      45.038  26.867  27.446  1.00  0.00     0.167 HD
ATOM     53  C   UNL A   1      41.248  28.540  28.765  1.00  0.00     0.037 A 
ATOM     54  C   UNL A   1      47.704  27.037  26.639  1.00  0.00     0.037 A 
ATOM     55  C   UNL A   1      42.158  29.654  28.778  1.00  0.00     0.049 A 
ATOM     56  C   UNL A   1      47.314  28.432  27.030  1.00  0.00     0.074 A 
ATOM     57  C   UNL A   1      41.933  30.950  29.209  1.00  0.00     0.029 A 
ATOM     58  N   UNL A   1      43.473  29.597  28.346  1.00  0.00    -0.354 N 
ATOM     59  N   UNL A   1      46.160  28.873  27.465  1.00  0.00    -0.248 NA
ATOM     60  C   UNL A   1      48.347  29.470  26.899  1.00  0.00     0.031 C 
ATOM     61  C   UNL A   1      43.112  31.684  29.022  1.00  0.00     0.029 A 
ATOM     62  C   UNL A   1      44.069  30.840  28.484  1.00  0.00     0.049 A 
ATOM     63  H   UNL A   1      43.919  28.793  27.993  1.00  0.00     0.167 HD
ATOM     64  C   UNL A   1      46.327  30.234  27.665  1.00  0.00     0.074 A 
ATOM     65  C   UNL A   1      47.694  30.550  27.305  1.00  0.00     0.031 C 
ATOM     66  C   UNL A   1      45.424  31.140  28.111  1.00  0.00     0.037 A 
BRANCH  53  67
ATOM     67  C   UNL A   1      39.827  28.793  29.150  1.00  0.00     0.064 A 
ATOM     68  C   UNL A   1      39.396  28.665  30.476  1.00  0.00     0.173 A 
ATOM     69  C   UNL A   1      38.896  29.199  28.184  1.00  0.00     0.173 A 
ATOM     70  F   UNL A   1      40.253  28.267  31.428  1.00  0.00    -0.203 F 
ATOM     71  C   UNL A   1      38.074  28.925  30.822  1.00  0.00     0.198 A 
ATOM     72  C   UNL A   1      37.576  29.467  28.535  1.00  0.00     0.198 A 
ATOM     73  F   UNL A   1      39.267  29.329  26.902  1.00  0.00    -0.203 F 
ATOM     74  F   UNL A   1      37.673  28.778  32.092  1.00  0.00    -0.200 F 
ATOM     75  C   UNL A   1      37.165  29.329  29.853  1.00  0.00     0.200 A 
ATOM     76  F   UNL A   1      36.700  29.854  27.599  1.00  0.00    -0.200 F 
ATOM     77  F   UNL A   1      35.892  29.578  30.188  1.00  0.00    -0.200 F 
ENDBRANCH  53  67
BRANCH  54  78
ATOM     78  C   UNL A   1      49.080  26.740  26.184  1.00  0.00     0.064 A 
ATOM     79  C   UNL A   1      50.046  26.286  27.088  1.00  0.00     0.173 A 
ATOM     80  C   UNL A   1      49.446  26.883  24.840  1.00  0.00     0.173 A 
ATOM     81  F   UNL A   1      49.737  26.153  28.387  1.00  0.00    -0.203 F 
ATOM     82  C   UNL A   1      51.338  25.984  26.664  1.00  0.00     0.198 A 
ATOM     83  C   UNL A   1      50.735  26.571  24.414  1.00  0.00     0.198 A 
ATOM     84  F   UNL A   1      48.549  27.315  23.942  1.00  0.00    -0.203 F 
ATOM     85  F   UNL A   1      52.251  25.562  27.548  1.00  0.00    -0.200 F 
ATOM     86  C   UNL A   1      51.679  26.123  25.326  1.00  0.00     0.200 A 
ATOM     87  F   UNL A   1      51.061  26.702  23.122  1.00  0.00    -0.200 F 
ATOM     88  F   UNL A   1      52.920  25.827  24.916  1.00  0.00    -0.200 F 
ENDBRANCH  54  78
BRANCH  66  89
ATOM     89  C   UNL A   1      45.888  32.555  28.232  1.00  0.00     0.064 A 
ATOM     90  C   UNL A   1      45.724  33.460  27.175  1.00  0.00     0.173 A 
ATOM     91  C   UNL A   1      46.472  33.017  29.419  1.00  0.00     0.173 A 
ATOM     92  F   UNL A   1      45.185  33.053  26.017  1.00  0.00    -0.203 F 
ATOM     93  C   UNL A   1      46.137  34.783  27.302  1.00  0.00     0.198 A 
ATOM     94  C   UNL A   1      46.877  34.342  29.545  1.00  0.00     0.198 A 
ATOM     95  F   UNL A   1      46.652  32.181  30.453  1.00  0.00    -0.203 F 
ATOM     96  F   UNL A   1      45.990  35.631  26.274  1.00  0.00    -0.200 F 
ATOM     97  C   UNL A   1      46.710  35.224  28.486  1.00  0.00     0.200 A 
ATOM     98  F   UNL A   1      47.435  34.766  30.686  1.00  0.00    -0.200 F 
ATOM     99  F   UNL A   1      47.110  36.498  28.605  1.00  0.00    -0.200 F 
ENDBRANCH  66  89
ENDBRANCH  40  41
ENDBRANCH  32  35
ENDBRANCH  30  31
ENDBRANCH   1  30
TORSDOF 15
ENDMDL
