MODEL 1
REMARK VINA RESULT:     -13.4      0.000      0.000
REMARK SMILES COc1ccc(C(=O)NCCCNC(=O)c2ccc(-c3c4nc(c(-c5c(F)c(F)c(F)c(F)c5F)c5ccc([nH]5)c(-c5c(F)c(F)c(F)c(F)c5F)c5nc(c(-c6c(F)c(F)c(F)c(F)c6F)c6ccc3[nH]6)C=C5)C=C4)cc2)cc1NC(=O)c1cc([N+](=O)[O-])ccc1Cl
REMARK SMILES IDX 10 1 9 2 7 3 8 4 6 6 3 7 4 8 80 9 5 10 79 11 2 12 1 13 81 14
REMARK SMILES IDX 82 15 83 17 84 18 85 19 92 20 86 21 91 22 93 23 90 24 87 25
REMARK SMILES IDX 88 26 89 27 11 28 12 29 13 30 14 31 15 33 16 34 17 35 78 36
REMARK SMILES IDX 18 37 77 38 19 39 20 40 21 41 71 42 22 43 76 44 70 45 72 46
REMARK SMILES IDX 23 47 75 48 69 49 68 50 24 52 56 53 36 54 55 55 37 56 40 57
REMARK SMILES IDX 54 58 73 59 38 60 39 61 53 63 74 64 41 65 25 66 26 67 34 68
REMARK SMILES IDX 27 69 28 70 32 71 35 72 29 73 30 74 33 75 31 76 57 77 58 78
REMARK SMILES IDX 66 79 59 80 60 81 64 82 67 83 61 84 62 85 65 86 63 87 42 88
REMARK SMILES IDX 43 89 51 90 44 91 45 92 49 93 52 94 46 95 47 96 50 97 48 98
REMARK H PARENT 9 5 81 16 13 32 72 51 40 62
REMARK Flexibility Score: inf
ROOT
ATOM      1  C   UNL A   1      31.553  30.863  26.290  1.00  0.00     0.118 C 
ENDROOT
BRANCH   1   2
ATOM      2  N   UNL A   1      31.080  30.536  24.970  1.00  0.00    -0.352 N 
ATOM      3  C   UNL A   1      31.062  29.367  24.258  1.00  0.00     0.251 C 
ATOM      4  O   UNL A   1      30.480  29.399  23.173  1.00  0.00    -0.269 OA
ATOM      5  H   UNL A   1      30.695  31.301  24.486  1.00  0.00     0.163 HD
BRANCH   3   6
ATOM      6  C   UNL A   1      31.674  28.080  24.716  1.00  0.00     0.042 A 
ATOM      7  C   UNL A   1      33.110  25.846  25.636  1.00  0.00     0.142 A 
ATOM      8  C   UNL A   1      33.735  26.789  24.825  1.00  0.00     0.049 A 
ATOM      9  C   UNL A   1      31.745  25.975  25.955  1.00  0.00     0.084 A 
ATOM     10  C   UNL A   1      33.013  27.878  24.341  1.00  0.00     0.018 A 
ATOM     11  C   UNL A   1      31.060  27.129  25.548  1.00  0.00     0.044 A 
BRANCH   7  12
ATOM     12  O   UNL A   1      33.932  24.901  26.198  1.00  0.00    -0.495 OA
ATOM     13  C   UNL A   1      35.021  24.484  25.376  1.00  0.00     0.278 C 
ENDBRANCH   7  12
BRANCH   9  14
ATOM     14  N   UNL A   1      31.151  24.956  26.720  1.00  0.00    -0.319 N 
ATOM     15  C   UNL A   1      30.950  23.612  26.542  1.00  0.00     0.257 C 
ATOM     16  H   UNL A   1      30.800  25.282  27.580  1.00  0.00     0.170 HD
ATOM     17  O   UNL A   1      30.341  22.983  27.410  1.00  0.00    -0.269 OA
BRANCH  15  18
ATOM     18  C   UNL A   1      31.416  22.834  25.379  1.00  0.00     0.065 A 
ATOM     19  C   UNL A   1      32.327  21.806  25.678  1.00  0.00     0.101 A 
ATOM     20  C   UNL A   1      31.151  23.154  24.041  1.00  0.00     0.054 A 
ATOM     21  C   UNL A   1      32.922  21.077  24.643  1.00  0.00     0.270 A 
ATOM     22  C   UNL A   1      31.735  22.392  23.011  1.00  0.00     0.028 A 
ATOM     23  Cl  UNL A   1      30.158  24.483  23.570  1.00  0.00    -0.083 Cl
ATOM     24  C   UNL A   1      32.620  21.349  23.307  1.00  0.00     0.087 A 
BRANCH  21  25
ATOM     25  N   UNL A   1      33.849  19.996  24.975  1.00  0.00     0.062 N 
ATOM     26  O   UNL A   1      33.362  18.876  25.181  1.00  0.00    -0.258 OA
ATOM     27  O   UNL A   1      35.054  20.268  25.018  1.00  0.00    -0.258 OA
ENDBRANCH  21  25
ENDBRANCH  15  18
ENDBRANCH   9  14
ENDBRANCH   3   6
ENDBRANCH   1   2
BRANCH   1  28
ATOM     28  C   UNL A   1      31.413  32.355  26.567  1.00  0.00     0.042 C 
BRANCH  28  29
ATOM     29  C   UNL A   1      32.654  32.965  27.205  1.00  0.00     0.118 C 
BRANCH  29  30
ATOM     30  N   UNL A   1      32.428  34.315  27.711  1.00  0.00    -0.352 N 
ATOM     31  C   UNL A   1      33.039  35.011  28.724  1.00  0.00     0.251 C 
ATOM     32  H   UNL A   1      31.715  34.811  27.248  1.00  0.00     0.163 HD
ATOM     33  O   UNL A   1      32.584  36.106  29.046  1.00  0.00    -0.269 OA
BRANCH  31  34
ATOM     34  C   UNL A   1      34.205  34.445  29.435  1.00  0.00     0.039 A 
ATOM     35  C   UNL A   1      33.998  33.704  30.603  1.00  0.00     0.014 A 
ATOM     36  C   UNL A   1      35.502  34.654  28.965  1.00  0.00     0.014 A 
ATOM     37  C   UNL A   1      35.084  33.120  31.258  1.00  0.00     0.010 A 
ATOM     38  C   UNL A   1      36.567  33.987  29.553  1.00  0.00     0.010 A 
ATOM     39  C   UNL A   1      36.373  33.234  30.720  1.00  0.00    -0.014 A 
BRANCH  39  40
ATOM     40  C   UNL A   1      37.561  32.658  31.393  1.00  0.00     0.031 A 
ATOM     41  C   UNL A   1      38.308  31.538  30.722  1.00  0.00     0.074 A 
ATOM     42  C   UNL A   1      37.910  33.072  32.625  1.00  0.00     0.049 A 
ATOM     43  N   UNL A   1      39.275  30.787  31.181  1.00  0.00    -0.248 NA
ATOM     44  C   UNL A   1      37.872  31.185  29.360  1.00  0.00     0.031 C 
ATOM     45  C   UNL A   1      37.233  34.117  33.393  1.00  0.00     0.029 A 
ATOM     46  N   UNL A   1      38.914  32.643  33.457  1.00  0.00    -0.354 N 
ATOM     47  C   UNL A   1      39.541  29.864  30.179  1.00  0.00     0.074 A 
ATOM     48  C   UNL A   1      38.583  30.096  29.121  1.00  0.00     0.031 C 
ATOM     49  C   UNL A   1      37.846  34.255  34.580  1.00  0.00     0.029 A 
ATOM     50  C   UNL A   1      38.934  33.285  34.670  1.00  0.00     0.049 A 
ATOM     51  H   UNL A   1      39.559  31.942  33.207  1.00  0.00     0.167 HD
ATOM     52  C   UNL A   1      40.519  28.929  30.127  1.00  0.00     0.037 A 
ATOM     53  C   UNL A   1      39.736  33.099  35.736  1.00  0.00     0.037 A 
ATOM     54  C   UNL A   1      41.484  28.727  31.174  1.00  0.00     0.049 A 
ATOM     55  C   UNL A   1      40.822  32.058  35.656  1.00  0.00     0.074 A 
ATOM     56  C   UNL A   1      42.545  27.840  31.214  1.00  0.00     0.029 A 
ATOM     57  N   UNL A   1      41.504  29.432  32.370  1.00  0.00    -0.354 N 
ATOM     58  N   UNL A   1      41.102  31.224  34.683  1.00  0.00    -0.248 NA
ATOM     59  C   UNL A   1      41.713  31.942  36.818  1.00  0.00     0.031 C 
ATOM     60  C   UNL A   1      43.180  27.978  32.453  1.00  0.00     0.029 A 
ATOM     61  C   UNL A   1      42.552  28.991  33.160  1.00  0.00     0.049 A 
ATOM     62  H   UNL A   1      40.867  30.140  32.619  1.00  0.00     0.167 HD
ATOM     63  C   UNL A   1      42.217  30.509  35.100  1.00  0.00     0.074 A 
ATOM     64  C   UNL A   1      42.570  31.018  36.409  1.00  0.00     0.031 C 
ATOM     65  C   UNL A   1      42.890  29.521  34.458  1.00  0.00     0.037 A 
BRANCH  52  66
ATOM     66  C   UNL A   1      40.587  28.070  28.896  1.00  0.00     0.064 A 
ATOM     67  C   UNL A   1      41.363  28.436  27.784  1.00  0.00     0.173 A 
ATOM     68  C   UNL A   1      39.868  26.868  28.822  1.00  0.00     0.173 A 
ATOM     69  F   UNL A   1      42.060  29.583  27.794  1.00  0.00    -0.203 F 
ATOM     70  C   UNL A   1      41.378  27.657  26.630  1.00  0.00     0.198 A 
ATOM     71  C   UNL A   1      39.916  26.071  27.680  1.00  0.00     0.198 A 
ATOM     72  F   UNL A   1      39.112  26.466  29.855  1.00  0.00    -0.203 F 
ATOM     73  F   UNL A   1      42.068  28.067  25.557  1.00  0.00    -0.200 F 
ATOM     74  C   UNL A   1      40.659  26.473  26.581  1.00  0.00     0.200 A 
ATOM     75  F   UNL A   1      39.231  24.920  27.639  1.00  0.00    -0.200 F 
ATOM     76  F   UNL A   1      40.674  25.724  25.469  1.00  0.00    -0.200 F 
ENDBRANCH  52  66
BRANCH  53  77
ATOM     77  C   UNL A   1      39.558  33.935  36.953  1.00  0.00     0.064 A 
ATOM     78  C   UNL A   1      38.813  33.468  38.045  1.00  0.00     0.173 A 
ATOM     79  C   UNL A   1      40.130  35.211  37.053  1.00  0.00     0.173 A 
ATOM     80  F   UNL A   1      38.230  32.262  37.990  1.00  0.00    -0.203 F 
ATOM     81  C   UNL A   1      38.628  34.255  39.180  1.00  0.00     0.198 A 
ATOM     82  C   UNL A   1      39.970  35.985  38.201  1.00  0.00     0.198 A 
ATOM     83  F   UNL A   1      40.857  35.703  36.039  1.00  0.00    -0.203 F 
ATOM     84  F   UNL A   1      37.870  33.803  40.189  1.00  0.00    -0.200 F 
ATOM     85  C   UNL A   1      39.212  35.510  39.259  1.00  0.00     0.200 A 
ATOM     86  F   UNL A   1      40.547  37.192  38.279  1.00  0.00    -0.200 F 
ATOM     87  F   UNL A   1      39.037  36.264  40.353  1.00  0.00    -0.200 F 
ENDBRANCH  53  77
BRANCH  65  88
ATOM     88  C   UNL A   1      44.103  28.958  35.142  1.00  0.00     0.064 A 
ATOM     89  C   UNL A   1      44.021  27.855  36.004  1.00  0.00     0.173 A 
ATOM     90  C   UNL A   1      45.370  29.508  34.895  1.00  0.00     0.173 A 
ATOM     91  F   UNL A   1      42.832  27.301  36.281  1.00  0.00    -0.203 F 
ATOM     92  C   UNL A   1      45.161  27.343  36.617  1.00  0.00     0.198 A 
ATOM     93  C   UNL A   1      46.511  28.971  35.484  1.00  0.00     0.198 A 
ATOM     94  F   UNL A   1      45.505  30.559  34.071  1.00  0.00    -0.203 F 
ATOM     95  F   UNL A   1      45.053  26.320  37.478  1.00  0.00    -0.200 F 
ATOM     96  C   UNL A   1      46.405  27.895  36.351  1.00  0.00     0.200 A 
ATOM     97  F   UNL A   1      47.714  29.495  35.211  1.00  0.00    -0.200 F 
ATOM     98  F   UNL A   1      47.501  27.393  36.936  1.00  0.00    -0.200 F 
ENDBRANCH  65  88
ENDBRANCH  39  40
ENDBRANCH  31  34
ENDBRANCH  29  30
ENDBRANCH  28  29
ENDBRANCH   1  28
TORSDOF 14
ENDMDL
MODEL 2
REMARK VINA RESULT:     -13.3      1.531      3.673
REMARK SMILES COc1ccc(C(=O)NCCCNC(=O)c2ccc(-c3c4nc(c(-c5c(F)c(F)c(F)c(F)c5F)c5ccc([nH]5)c(-c5c(F)c(F)c(F)c(F)c5F)c5nc(c(-c6c(F)c(F)c(F)c(F)c6F)c6ccc3[nH]6)C=C5)C=C4)cc2)cc1NC(=O)c1cc([N+](=O)[O-])ccc1Cl
REMARK SMILES IDX 10 1 9 2 7 3 8 4 6 6 3 7 4 8 80 9 5 10 79 11 2 12 1 13 81 14
REMARK SMILES IDX 82 15 83 17 84 18 85 19 92 20 86 21 91 22 93 23 90 24 87 25
REMARK SMILES IDX 88 26 89 27 11 28 12 29 13 30 14 31 15 33 16 34 17 35 78 36
REMARK SMILES IDX 18 37 77 38 19 39 20 40 21 41 71 42 22 43 76 44 70 45 72 46
REMARK SMILES IDX 23 47 75 48 69 49 68 50 24 52 56 53 36 54 55 55 37 56 40 57
REMARK SMILES IDX 54 58 73 59 38 60 39 61 53 63 74 64 41 65 25 66 26 67 34 68
REMARK SMILES IDX 27 69 28 70 32 71 35 72 29 73 30 74 33 75 31 76 57 77 58 78
REMARK SMILES IDX 66 79 59 80 60 81 64 82 67 83 61 84 62 85 65 86 63 87 42 88
REMARK SMILES IDX 43 89 51 90 44 91 45 92 49 93 52 94 46 95 47 96 50 97 48 98
REMARK H PARENT 9 5 81 16 13 32 72 51 40 62
REMARK Flexibility Score: inf
ROOT
ATOM      1  C   UNL A   1      31.643  30.771  26.349  1.00  0.00     0.118 C 
ENDROOT
BRANCH   1   2
ATOM      2  N   UNL A   1      32.800  30.262  27.039  1.00  0.00    -0.352 N 
ATOM      3  C   UNL A   1      33.402  29.032  27.050  1.00  0.00     0.251 C 
ATOM      4  O   UNL A   1      34.460  28.950  27.675  1.00  0.00    -0.269 OA
ATOM      5  H   UNL A   1      33.245  30.926  27.612  1.00  0.00     0.163 HD
BRANCH   3   6
ATOM      6  C   UNL A   1      32.875  27.819  26.351  1.00  0.00     0.042 A 
ATOM      7  C   UNL A   1      32.073  25.356  25.259  1.00  0.00     0.142 A 
ATOM      8  C   UNL A   1      33.395  25.544  25.656  1.00  0.00     0.049 A 
ATOM      9  C   UNL A   1      31.146  26.411  25.349  1.00  0.00     0.084 A 
ATOM     10  C   UNL A   1      33.798  26.776  26.165  1.00  0.00     0.018 A 
ATOM     11  C   UNL A   1      31.542  27.610  25.960  1.00  0.00     0.044 A 
BRANCH   7  12
ATOM     12  O   UNL A   1      31.726  24.071  24.925  1.00  0.00    -0.495 OA
ATOM     13  C   UNL A   1      32.431  23.052  25.631  1.00  0.00     0.278 C 
ENDBRANCH   7  12
BRANCH   9  14
ATOM     14  N   UNL A   1      29.845  26.184  24.869  1.00  0.00    -0.319 N 
ATOM     15  C   UNL A   1      28.999  26.858  24.027  1.00  0.00     0.257 C 
ATOM     16  H   UNL A   1      29.451  25.351  25.216  1.00  0.00     0.170 HD
ATOM     17  O   UNL A   1      27.870  26.404  23.830  1.00  0.00    -0.269 OA
BRANCH  15  18
ATOM     18  C   UNL A   1      29.333  28.104  23.312  1.00  0.00     0.065 A 
ATOM     19  C   UNL A   1      28.425  29.161  23.503  1.00  0.00     0.101 A 
ATOM     20  C   UNL A   1      30.358  28.236  22.365  1.00  0.00     0.054 A 
ATOM     21  C   UNL A   1      28.580  30.353  22.787  1.00  0.00     0.270 A 
ATOM     22  C   UNL A   1      30.517  29.452  21.673  1.00  0.00     0.028 A 
ATOM     23  Cl  UNL A   1      31.435  26.952  21.959  1.00  0.00    -0.083 Cl
ATOM     24  C   UNL A   1      29.632  30.516  21.883  1.00  0.00     0.087 A 
BRANCH  21  25
ATOM     25  N   UNL A   1      27.640  31.448  23.017  1.00  0.00     0.062 N 
ATOM     26  O   UNL A   1      27.681  32.404  22.230  1.00  0.00    -0.258 OA
ATOM     27  O   UNL A   1      26.860  31.342  23.970  1.00  0.00    -0.258 OA
ENDBRANCH  21  25
ENDBRANCH  15  18
ENDBRANCH   9  14
ENDBRANCH   3   6
ENDBRANCH   1   2
BRANCH   1  28
ATOM     28  C   UNL A   1      31.421  32.245  26.668  1.00  0.00     0.042 C 
BRANCH  28  29
ATOM     29  C   UNL A   1      32.690  32.960  27.111  1.00  0.00     0.118 C 
BRANCH  29  30
ATOM     30  N   UNL A   1      32.433  34.293  27.650  1.00  0.00    -0.352 N 
ATOM     31  C   UNL A   1      33.014  34.969  28.693  1.00  0.00     0.251 C 
ATOM     32  H   UNL A   1      31.722  34.790  27.186  1.00  0.00     0.163 HD
ATOM     33  O   UNL A   1      32.536  36.048  29.036  1.00  0.00    -0.269 OA
BRANCH  31  34
ATOM     34  C   UNL A   1      34.174  34.401  29.411  1.00  0.00     0.039 A 
ATOM     35  C   UNL A   1      33.959  33.659  30.576  1.00  0.00     0.014 A 
ATOM     36  C   UNL A   1      35.475  34.610  28.950  1.00  0.00     0.014 A 
ATOM     37  C   UNL A   1      35.040  33.073  31.237  1.00  0.00     0.010 A 
ATOM     38  C   UNL A   1      36.535  33.941  29.544  1.00  0.00     0.010 A 
ATOM     39  C   UNL A   1      36.333  33.187  30.709  1.00  0.00    -0.014 A 
BRANCH  39  40
ATOM     40  C   UNL A   1      37.516  32.610  31.389  1.00  0.00     0.031 A 
ATOM     41  C   UNL A   1      38.248  31.469  30.736  1.00  0.00     0.074 A 
ATOM     42  C   UNL A   1      37.873  33.041  32.613  1.00  0.00     0.049 A 
ATOM     43  N   UNL A   1      39.208  30.715  31.206  1.00  0.00    -0.248 NA
ATOM     44  C   UNL A   1      37.804  31.097  29.382  1.00  0.00     0.031 C 
ATOM     45  C   UNL A   1      37.209  34.107  33.364  1.00  0.00     0.029 A 
ATOM     46  N   UNL A   1      38.874  32.615  33.449  1.00  0.00    -0.354 N 
ATOM     47  C   UNL A   1      39.460  29.772  30.219  1.00  0.00     0.074 A 
ATOM     48  C   UNL A   1      38.503  29.996  29.159  1.00  0.00     0.031 C 
ATOM     49  C   UNL A   1      37.827  34.258  34.547  1.00  0.00     0.029 A 
ATOM     50  C   UNL A   1      38.904  33.277  34.651  1.00  0.00     0.049 A 
ATOM     51  H   UNL A   1      39.510  31.902  33.210  1.00  0.00     0.167 HD
ATOM     52  C   UNL A   1      40.427  28.825  30.182  1.00  0.00     0.037 A 
ATOM     53  C   UNL A   1      39.707  33.101  35.718  1.00  0.00     0.037 A 
ATOM     54  C   UNL A   1      41.393  28.630  31.230  1.00  0.00     0.049 A 
ATOM     55  C   UNL A   1      40.780  32.046  35.654  1.00  0.00     0.074 A 
ATOM     56  C   UNL A   1      42.443  27.731  31.283  1.00  0.00     0.029 A 
ATOM     57  N   UNL A   1      41.424  29.355  32.413  1.00  0.00    -0.354 N 
ATOM     58  N   UNL A   1      41.049  31.193  34.696  1.00  0.00    -0.248 NA
ATOM     59  C   UNL A   1      41.673  31.940  36.816  1.00  0.00     0.031 C 
ATOM     60  C   UNL A   1      43.083  27.883  32.517  1.00  0.00     0.029 A 
ATOM     61  C   UNL A   1      42.469  28.916  33.208  1.00  0.00     0.049 A 
ATOM     62  H   UNL A   1      40.796  30.075  32.651  1.00  0.00     0.167 HD
ATOM     63  C   UNL A   1      42.156  30.471  35.122  1.00  0.00     0.074 A 
ATOM     64  C   UNL A   1      42.518  31.000  36.421  1.00  0.00     0.031 C 
ATOM     65  C   UNL A   1      42.816  29.465  34.496  1.00  0.00     0.037 A 
BRANCH  52  66
ATOM     66  C   UNL A   1      40.483  27.943  28.966  1.00  0.00     0.064 A 
ATOM     67  C   UNL A   1      41.268  28.275  27.850  1.00  0.00     0.173 A 
ATOM     68  C   UNL A   1      39.740  26.754  28.911  1.00  0.00     0.173 A 
ATOM     69  F   UNL A   1      41.987  29.408  27.842  1.00  0.00    -0.203 F 
ATOM     70  C   UNL A   1      41.271  27.476  26.710  1.00  0.00     0.198 A 
ATOM     71  C   UNL A   1      39.776  25.937  27.782  1.00  0.00     0.198 A 
ATOM     72  F   UNL A   1      38.974  26.384  29.948  1.00  0.00    -0.203 F 
ATOM     73  F   UNL A   1      41.972  27.854  25.632  1.00  0.00    -0.200 F 
ATOM     74  C   UNL A   1      40.530  26.305  26.679  1.00  0.00     0.200 A 
ATOM     75  F   UNL A   1      39.069  24.799  27.759  1.00  0.00    -0.200 F 
ATOM     76  F   UNL A   1      40.534  25.537  25.580  1.00  0.00    -0.200 F 
ENDBRANCH  52  66
BRANCH  53  77
ATOM     77  C   UNL A   1      39.542  33.960  36.921  1.00  0.00     0.064 A 
ATOM     78  C   UNL A   1      38.779  33.529  38.015  1.00  0.00     0.173 A 
ATOM     79  C   UNL A   1      40.144  35.224  37.004  1.00  0.00     0.173 A 
ATOM     80  F   UNL A   1      38.167  32.337  37.976  1.00  0.00    -0.203 F 
ATOM     81  C   UNL A   1      38.606  34.338  39.136  1.00  0.00     0.198 A 
ATOM     82  C   UNL A   1      39.996  36.019  38.139  1.00  0.00     0.198 A 
ATOM     83  F   UNL A   1      40.889  35.682  35.987  1.00  0.00    -0.203 F 
ATOM     84  F   UNL A   1      37.831  33.921  40.147  1.00  0.00    -0.200 F 
ATOM     85  C   UNL A   1      39.220  35.580  39.200  1.00  0.00     0.200 A 
ATOM     86  F   UNL A   1      40.602  37.213  38.202  1.00  0.00    -0.200 F 
ATOM     87  F   UNL A   1      39.057  36.355  40.281  1.00  0.00    -0.200 F 
ENDBRANCH  53  77
BRANCH  65  88
ATOM     88  C   UNL A   1      44.024  28.900  35.187  1.00  0.00     0.064 A 
ATOM     89  C   UNL A   1      45.310  29.417  34.970  1.00  0.00     0.173 A 
ATOM     90  C   UNL A   1      43.883  27.854  36.111  1.00  0.00     0.173 A 
ATOM     91  F   UNL A   1      45.499  30.410  34.089  1.00  0.00    -0.203 F 
ATOM     92  C   UNL A   1      46.413  28.885  35.632  1.00  0.00     0.198 A 
ATOM     93  C   UNL A   1      44.984  27.348  36.795  1.00  0.00     0.198 A 
ATOM     94  F   UNL A   1      42.673  27.329  36.361  1.00  0.00    -0.203 F 
ATOM     95  F   UNL A   1      47.640  29.360  35.370  1.00  0.00    -0.200 F 
ATOM     96  C   UNL A   1      46.249  27.858  36.548  1.00  0.00     0.200 A 
ATOM     97  F   UNL A   1      44.820  26.367  37.694  1.00  0.00    -0.200 F 
ATOM     98  F   UNL A   1      47.313  27.354  37.190  1.00  0.00    -0.200 F 
ENDBRANCH  65  88
ENDBRANCH  39  40
ENDBRANCH  31  34
ENDBRANCH  29  30
ENDBRANCH  28  29
ENDBRANCH   1  28
TORSDOF 14
ENDMDL
MODEL 3
REMARK VINA RESULT:     -13.2      1.438      2.121
REMARK SMILES COc1ccc(C(=O)NCCCNC(=O)c2ccc(-c3c4nc(c(-c5c(F)c(F)c(F)c(F)c5F)c5ccc([nH]5)c(-c5c(F)c(F)c(F)c(F)c5F)c5nc(c(-c6c(F)c(F)c(F)c(F)c6F)c6ccc3[nH]6)C=C5)C=C4)cc2)cc1NC(=O)c1cc([N+](=O)[O-])ccc1Cl
REMARK SMILES IDX 10 1 9 2 7 3 8 4 6 6 3 7 4 8 80 9 5 10 79 11 2 12 1 13 81 14
REMARK SMILES IDX 82 15 83 17 84 18 85 19 92 20 86 21 91 22 93 23 90 24 87 25
REMARK SMILES IDX 88 26 89 27 11 28 12 29 13 30 14 31 15 33 16 34 17 35 78 36
REMARK SMILES IDX 18 37 77 38 19 39 20 40 21 41 71 42 22 43 76 44 70 45 72 46
REMARK SMILES IDX 23 47 75 48 69 49 68 50 24 52 56 53 36 54 55 55 37 56 40 57
REMARK SMILES IDX 54 58 73 59 38 60 39 61 53 63 74 64 41 65 25 66 26 67 34 68
REMARK SMILES IDX 27 69 28 70 32 71 35 72 29 73 30 74 33 75 31 76 57 77 58 78
REMARK SMILES IDX 66 79 59 80 60 81 64 82 67 83 61 84 62 85 65 86 63 87 42 88
REMARK SMILES IDX 43 89 51 90 44 91 45 92 49 93 52 94 46 95 47 96 50 97 48 98
REMARK H PARENT 9 5 81 16 13 32 72 51 40 62
REMARK Flexibility Score: inf
ROOT
ATOM      1  C   UNL A   1      31.567  30.759  26.058  1.00  0.00     0.118 C 
ENDROOT
BRANCH   1   2
ATOM      2  N   UNL A   1      32.786  30.223  26.607  1.00  0.00    -0.352 N 
ATOM      3  C   UNL A   1      33.640  29.244  26.178  1.00  0.00     0.251 C 
ATOM      4  O   UNL A   1      34.672  29.095  26.835  1.00  0.00    -0.269 OA
ATOM      5  H   UNL A   1      33.058  30.644  27.454  1.00  0.00     0.163 HD
BRANCH   3   6
ATOM      6  C   UNL A   1      33.412  28.379  24.978  1.00  0.00     0.042 A 
ATOM      7  C   UNL A   1      33.313  26.813  22.646  1.00  0.00     0.142 A 
ATOM      8  C   UNL A   1      34.013  28.017  22.647  1.00  0.00     0.049 A 
ATOM      9  C   UNL A   1      32.606  26.400  23.791  1.00  0.00     0.084 A 
ATOM     10  C   UNL A   1      34.032  28.808  23.794  1.00  0.00     0.018 A 
ATOM     11  C   UNL A   1      32.722  27.155  24.968  1.00  0.00     0.044 A 
BRANCH   7  12
ATOM     12  O   UNL A   1      33.481  26.025  21.536  1.00  0.00    -0.495 OA
ATOM     13  C   UNL A   1      32.337  25.919  20.691  1.00  0.00     0.278 C 
ENDBRANCH   7  12
BRANCH   9  14
ATOM     14  N   UNL A   1      31.862  25.211  23.709  1.00  0.00    -0.319 N 
ATOM     15  C   UNL A   1      32.069  23.917  24.110  1.00  0.00     0.257 C 
ATOM     16  H   UNL A   1      30.993  25.336  23.263  1.00  0.00     0.170 HD
ATOM     17  O   UNL A   1      31.213  23.069  23.848  1.00  0.00    -0.269 OA
BRANCH  15  18
ATOM     18  C   UNL A   1      33.251  23.441  24.854  1.00  0.00     0.065 A 
ATOM     19  C   UNL A   1      34.365  23.119  24.057  1.00  0.00     0.101 A 
ATOM     20  C   UNL A   1      33.271  23.142  26.222  1.00  0.00     0.054 A 
ATOM     21  C   UNL A   1      35.501  22.552  24.643  1.00  0.00     0.270 A 
ATOM     22  C   UNL A   1      34.433  22.598  26.802  1.00  0.00     0.028 A 
ATOM     23  Cl  UNL A   1      31.909  23.370  27.256  1.00  0.00    -0.083 Cl
ATOM     24  C   UNL A   1      35.554  22.304  26.016  1.00  0.00     0.087 A 
BRANCH  21  25
ATOM     25  N   UNL A   1      36.657  22.246  23.802  1.00  0.00     0.062 N 
ATOM     26  O   UNL A   1      36.723  22.814  22.702  1.00  0.00    -0.258 OA
ATOM     27  O   UNL A   1      37.495  21.454  24.246  1.00  0.00    -0.258 OA
ENDBRANCH  21  25
ENDBRANCH  15  18
ENDBRANCH   9  14
ENDBRANCH   3   6
ENDBRANCH   1   2
BRANCH   1  28
ATOM     28  C   UNL A   1      31.372  32.213  26.474  1.00  0.00     0.042 C 
BRANCH  28  29
ATOM     29  C   UNL A   1      32.600  32.814  27.144  1.00  0.00     0.118 C 
BRANCH  29  30
ATOM     30  N   UNL A   1      32.375  34.173  27.628  1.00  0.00    -0.352 N 
ATOM     31  C   UNL A   1      32.992  34.888  28.625  1.00  0.00     0.251 C 
ATOM     32  H   UNL A   1      31.658  34.659  27.160  1.00  0.00     0.163 HD
ATOM     33  O   UNL A   1      32.537  35.988  28.930  1.00  0.00    -0.269 OA
BRANCH  31  34
ATOM     34  C   UNL A   1      34.163  34.336  29.337  1.00  0.00     0.039 A 
ATOM     35  C   UNL A   1      33.964  33.595  30.507  1.00  0.00     0.014 A 
ATOM     36  C   UNL A   1      35.458  34.559  28.868  1.00  0.00     0.014 A 
ATOM     37  C   UNL A   1      35.056  33.024  31.163  1.00  0.00     0.010 A 
ATOM     38  C   UNL A   1      36.530  33.905  29.458  1.00  0.00     0.010 A 
ATOM     39  C   UNL A   1      36.344  33.152  30.626  1.00  0.00    -0.014 A 
BRANCH  39  40
ATOM     40  C   UNL A   1      37.538  32.591  31.301  1.00  0.00     0.031 A 
ATOM     41  C   UNL A   1      38.291  31.471  30.638  1.00  0.00     0.074 A 
ATOM     42  C   UNL A   1      37.887  33.018  32.528  1.00  0.00     0.049 A 
ATOM     43  N   UNL A   1      39.266  30.731  31.101  1.00  0.00    -0.248 NA
ATOM     44  C   UNL A   1      37.854  31.103  29.280  1.00  0.00     0.031 C 
ATOM     45  C   UNL A   1      37.203  34.064  33.289  1.00  0.00     0.029 A 
ATOM     46  N   UNL A   1      38.896  32.604  33.361  1.00  0.00    -0.354 N 
ATOM     47  C   UNL A   1      39.536  29.802  30.105  1.00  0.00     0.074 A 
ATOM     48  C   UNL A   1      38.574  30.017  29.048  1.00  0.00     0.031 C 
ATOM     49  C   UNL A   1      37.818  34.217  34.474  1.00  0.00     0.029 A 
ATOM     50  C   UNL A   1      38.913  33.256  34.569  1.00  0.00     0.049 A 
ATOM     51  H   UNL A   1      39.545  31.905  33.116  1.00  0.00     0.167 HD
ATOM     52  C   UNL A   1      40.521  28.874  30.059  1.00  0.00     0.037 A 
ATOM     53  C   UNL A   1      39.719  33.085  35.634  1.00  0.00     0.037 A 
ATOM     54  C   UNL A   1      41.490  28.688  31.106  1.00  0.00     0.049 A 
ATOM     55  C   UNL A   1      40.813  32.051  35.561  1.00  0.00     0.074 A 
ATOM     56  C   UNL A   1      42.557  27.809  31.151  1.00  0.00     0.029 A 
ATOM     57  N   UNL A   1      41.507  29.403  32.296  1.00  0.00    -0.354 N 
ATOM     58  N   UNL A   1      41.098  31.212  34.595  1.00  0.00    -0.248 NA
ATOM     59  C   UNL A   1      41.708  31.952  36.722  1.00  0.00     0.031 C 
ATOM     60  C   UNL A   1      43.194  27.962  32.386  1.00  0.00     0.029 A 
ATOM     61  C   UNL A   1      42.561  28.977  33.087  1.00  0.00     0.049 A 
ATOM     62  H   UNL A   1      40.866  30.108  32.540  1.00  0.00     0.167 HD
ATOM     63  C   UNL A   1      42.219  30.508  35.014  1.00  0.00     0.074 A 
ATOM     64  C   UNL A   1      42.570  31.031  36.318  1.00  0.00     0.031 C 
ATOM     65  C   UNL A   1      42.897  29.521  34.379  1.00  0.00     0.037 A 
BRANCH  52  66
ATOM     66  C   UNL A   1      40.593  28.004  28.836  1.00  0.00     0.064 A 
ATOM     67  C   UNL A   1      41.374  28.360  27.724  1.00  0.00     0.173 A 
ATOM     68  C   UNL A   1      39.870  26.803  28.768  1.00  0.00     0.173 A 
ATOM     69  F   UNL A   1      42.074  29.505  27.728  1.00  0.00    -0.203 F 
ATOM     70  C   UNL A   1      41.393  27.572  26.577  1.00  0.00     0.198 A 
ATOM     71  C   UNL A   1      39.922  25.998  27.632  1.00  0.00     0.198 A 
ATOM     72  F   UNL A   1      39.109  26.412  29.801  1.00  0.00    -0.203 F 
ATOM     73  F   UNL A   1      42.089  27.971  25.503  1.00  0.00    -0.200 F 
ATOM     74  C   UNL A   1      40.672  26.389  26.533  1.00  0.00     0.200 A 
ATOM     75  F   UNL A   1      39.235  24.848  27.597  1.00  0.00    -0.200 F 
ATOM     76  F   UNL A   1      40.690  25.631  25.428  1.00  0.00    -0.200 F 
ENDBRANCH  52  66
BRANCH  53  77
ATOM     77  C   UNL A   1      39.538  33.930  36.845  1.00  0.00     0.064 A 
ATOM     78  C   UNL A   1      38.801  33.466  37.944  1.00  0.00     0.173 A 
ATOM     79  C   UNL A   1      40.099  35.212  36.932  1.00  0.00     0.173 A 
ATOM     80  F   UNL A   1      38.229  32.254  37.902  1.00  0.00    -0.203 F 
ATOM     81  C   UNL A   1      38.613  34.260  39.072  1.00  0.00     0.198 A 
ATOM     82  C   UNL A   1      39.936  35.994  38.074  1.00  0.00     0.198 A 
ATOM     83  F   UNL A   1      40.817  35.702  35.911  1.00  0.00    -0.203 F 
ATOM     84  F   UNL A   1      37.863  33.811  40.088  1.00  0.00    -0.200 F 
ATOM     85  C   UNL A   1      39.186  35.522  39.139  1.00  0.00     0.200 A 
ATOM     86  F   UNL A   1      40.502  37.208  38.139  1.00  0.00    -0.200 F 
ATOM     87  F   UNL A   1      39.008  36.284  40.227  1.00  0.00    -0.200 F 
ENDBRANCH  53  77
BRANCH  65  88
ATOM     88  C   UNL A   1      44.116  28.973  35.065  1.00  0.00     0.064 A 
ATOM     89  C   UNL A   1      45.392  29.514  34.851  1.00  0.00     0.173 A 
ATOM     90  C   UNL A   1      43.995  27.917  35.983  1.00  0.00     0.173 A 
ATOM     91  F   UNL A   1      45.563  30.515  33.976  1.00  0.00    -0.203 F 
ATOM     92  C   UNL A   1      46.505  28.997  35.507  1.00  0.00     0.198 A 
ATOM     93  C   UNL A   1      45.105  27.427  36.662  1.00  0.00     0.198 A 
ATOM     94  F   UNL A   1      42.795  27.370  36.230  1.00  0.00    -0.203 F 
ATOM     95  F   UNL A   1      47.723  29.495  35.248  1.00  0.00    -0.200 F 
ATOM     96  C   UNL A   1      46.361  27.961  36.417  1.00  0.00     0.200 A 
ATOM     97  F   UNL A   1      44.960  26.437  37.554  1.00  0.00    -0.200 F 
ATOM     98  F   UNL A   1      47.434  27.472  37.054  1.00  0.00    -0.200 F 
ENDBRANCH  65  88
ENDBRANCH  39  40
ENDBRANCH  31  34
ENDBRANCH  29  30
ENDBRANCH  28  29
ENDBRANCH   1  28
TORSDOF 14
ENDMDL
