MODEL 1
REMARK VINA RESULT:     -12.8      0.000      0.000
REMARK SMILES O=C(NCCCNC(=O)c1csc(-c2ccnc(N3CCOCC3)c2)n1)c1ccc(-c2c3nc(c(-c4c(F)c(F)c(F)c(F)c4F)c4ccc([nH]4)c(-c4c(F)c(F)c(F)c(F)c4F)c4nc(c(-c5c(F)c(F)c(F)c(F)c5F)c5ccc2[nH]5)C=C4)C=C3)cc1
REMARK SMILES IDX 5 1 4 2 3 3 1 4 2 5 27 7 28 8 89 9 29 10 88 11 30 12 31 13
REMARK SMILES IDX 32 14 82 15 33 16 87 17 81 18 83 19 34 20 86 21 80 22 79 23
REMARK SMILES IDX 35 25 67 26 47 27 66 28 48 29 51 30 65 31 84 32 49 33 50 34
REMARK SMILES IDX 64 36 85 37 52 38 36 39 37 40 45 41 38 42 39 43 43 44 46 45
REMARK SMILES IDX 40 46 41 47 44 48 42 49 68 50 69 51 77 52 70 53 71 54 75 55
REMARK SMILES IDX 78 56 72 57 73 58 76 59 74 60 53 61 54 62 62 63 55 64 56 65
REMARK SMILES IDX 60 66 63 67 57 68 58 69 61 70 59 71 6 72 7 73 8 74 9 76
REMARK SMILES IDX 10 77 11 78 26 79 12 80 13 81 14 82 15 83 25 84 16 85 18 86
REMARK SMILES IDX 17 87 19 88 20 89 24 90 21 91 23 92 22 93
REMARK H PARENT 3 6 83 24 51 35 7 75
REMARK Flexibility Score: inf
ROOT
ATOM      1  C   UNL A   1      31.390  32.026  26.662  1.00  0.00     0.042 C 
ENDROOT
BRANCH   1   2
ATOM      2  C   UNL A   1      32.640  32.651  27.258  1.00  0.00     0.118 C 
BRANCH   2   3
ATOM      3  N   UNL A   1      32.445  34.055  27.598  1.00  0.00    -0.352 N 
ATOM      4  O   UNL A   1      32.584  35.920  28.850  1.00  0.00    -0.269 OA
ATOM      5  C   UNL A   1      33.032  34.810  28.580  1.00  0.00     0.251 C 
ATOM      6  H   UNL A   1      31.791  34.533  27.038  1.00  0.00     0.163 HD
BRANCH   5   7
ATOM      7  C   UNL A   1      34.203  34.290  29.315  1.00  0.00     0.039 A 
ATOM      8  C   UNL A   1      34.035  33.525  30.471  1.00  0.00     0.014 A 
ATOM      9  C   UNL A   1      35.485  34.522  28.806  1.00  0.00     0.014 A 
ATOM     10  C   UNL A   1      35.145  33.094  31.186  1.00  0.00     0.010 A 
ATOM     11  C   UNL A   1      36.598  34.006  29.473  1.00  0.00     0.010 A 
ATOM     12  C   UNL A   1      36.435  33.293  30.671  1.00  0.00    -0.014 A 
BRANCH  12  13
ATOM     13  C   UNL A   1      37.582  32.619  31.324  1.00  0.00     0.031 A 
ATOM     14  C   UNL A   1      38.280  31.458  30.680  1.00  0.00     0.074 A 
ATOM     15  C   UNL A   1      37.976  33.073  32.532  1.00  0.00     0.049 A 
ATOM     16  N   UNL A   1      39.270  30.738  31.144  1.00  0.00    -0.248 NA
ATOM     17  C   UNL A   1      37.805  31.043  29.352  1.00  0.00     0.031 C 
ATOM     18  C   UNL A   1      37.352  34.186  33.254  1.00  0.00     0.029 A 
ATOM     19  N   UNL A   1      38.982  32.662  33.366  1.00  0.00    -0.354 N 
ATOM     20  C   UNL A   1      39.523  29.774  30.178  1.00  0.00     0.074 A 
ATOM     21  C   UNL A   1      38.576  29.991  29.106  1.00  0.00     0.031 C 
ATOM     22  C   UNL A   1      38.000  34.381  34.410  1.00  0.00     0.029 A 
ATOM     23  C   UNL A   1      39.033  33.363  34.547  1.00  0.00     0.049 A 
ATOM     24  H   UNL A   1      39.608  31.936  33.142  1.00  0.00     0.167 HD
ATOM     25  C   UNL A   1      40.466  28.801  30.197  1.00  0.00     0.037 A 
ATOM     26  C   UNL A   1      39.796  33.180  35.639  1.00  0.00     0.037 A 
ATOM     27  C   UNL A   1      41.416  28.615  31.264  1.00  0.00     0.049 A 
ATOM     28  C   UNL A   1      40.801  32.063  35.639  1.00  0.00     0.074 A 
ATOM     29  C   UNL A   1      42.465  27.713  31.333  1.00  0.00     0.029 A 
ATOM     30  N   UNL A   1      41.423  29.327  32.453  1.00  0.00    -0.354 N 
ATOM     31  N   UNL A   1      41.087  31.212  34.685  1.00  0.00    -0.248 NA
ATOM     32  C   UNL A   1      41.583  31.876  36.868  1.00  0.00     0.031 C 
ATOM     33  C   UNL A   1      43.060  27.833  32.592  1.00  0.00     0.029 A 
ATOM     34  C   UNL A   1      42.424  28.849  33.284  1.00  0.00     0.049 A 
ATOM     35  H   UNL A   1      40.808  30.064  32.674  1.00  0.00     0.167 HD
ATOM     36  C   UNL A   1      42.086  30.394  35.193  1.00  0.00     0.074 A 
ATOM     37  C   UNL A   1      42.380  30.873  36.528  1.00  0.00     0.031 C 
ATOM     38  C   UNL A   1      42.698  29.335  34.611  1.00  0.00     0.037 A 
BRANCH  25  39
ATOM     39  C   UNL A   1      40.519  27.836  29.048  1.00  0.00     0.064 A 
ATOM     40  C   UNL A   1      39.712  26.691  29.003  1.00  0.00     0.173 A 
ATOM     41  C   UNL A   1      41.310  28.127  27.924  1.00  0.00     0.173 A 
ATOM     42  F   UNL A   1      38.943  26.366  30.053  1.00  0.00    -0.203 F 
ATOM     43  C   UNL A   1      39.697  25.870  27.877  1.00  0.00     0.198 A 
ATOM     44  C   UNL A   1      41.274  27.318  26.792  1.00  0.00     0.198 A 
ATOM     45  F   UNL A   1      42.095  29.215  27.914  1.00  0.00    -0.203 F 
ATOM     46  F   UNL A   1      38.932  24.771  27.863  1.00  0.00    -0.200 F 
ATOM     47  C   UNL A   1      40.468  26.191  26.769  1.00  0.00     0.200 A 
ATOM     48  F   UNL A   1      42.008  27.639  25.717  1.00  0.00    -0.200 F 
ATOM     49  F   UNL A   1      40.433  25.412  25.679  1.00  0.00    -0.200 F 
ENDBRANCH  25  39
BRANCH  26  50
ATOM     50  C   UNL A   1      39.598  34.036  36.838  1.00  0.00     0.064 A 
ATOM     51  C   UNL A   1      40.225  35.284  36.952  1.00  0.00     0.173 A 
ATOM     52  C   UNL A   1      38.797  33.609  37.909  1.00  0.00     0.173 A 
ATOM     53  F   UNL A   1      41.015  35.729  35.964  1.00  0.00    -0.203 F 
ATOM     54  C   UNL A   1      40.081  36.057  38.102  1.00  0.00     0.198 A 
ATOM     55  C   UNL A   1      38.623  34.400  39.042  1.00  0.00     0.198 A 
ATOM     56  F   UNL A   1      38.170  32.424  37.850  1.00  0.00    -0.203 F 
ATOM     57  F   UNL A   1      40.740  37.219  38.210  1.00  0.00    -0.200 F 
ATOM     58  C   UNL A   1      39.278  35.617  39.143  1.00  0.00     0.200 A 
ATOM     59  F   UNL A   1      37.831  33.978  40.036  1.00  0.00    -0.200 F 
ATOM     60  F   UNL A   1      39.143  36.361  40.250  1.00  0.00    -0.200 F 
ENDBRANCH  26  50
BRANCH  38  61
ATOM     61  C   UNL A   1      43.750  28.628  35.414  1.00  0.00     0.064 A 
ATOM     62  C   UNL A   1      45.103  28.980  35.316  1.00  0.00     0.173 A 
ATOM     63  C   UNL A   1      43.396  27.619  36.323  1.00  0.00     0.173 A 
ATOM     64  F   UNL A   1      45.494  29.925  34.446  1.00  0.00    -0.203 F 
ATOM     65  C   UNL A   1      46.067  28.335  36.083  1.00  0.00     0.198 A 
ATOM     66  C   UNL A   1      44.359  26.999  37.112  1.00  0.00     0.198 A 
ATOM     67  F   UNL A   1      42.113  27.248  36.457  1.00  0.00    -0.203 F 
ATOM     68  F   UNL A   1      47.360  28.655  35.939  1.00  0.00    -0.200 F 
ATOM     69  C   UNL A   1      45.693  27.352  36.988  1.00  0.00     0.200 A 
ATOM     70  F   UNL A   1      43.993  26.060  37.997  1.00  0.00    -0.200 F 
ATOM     71  F   UNL A   1      46.622  26.741  37.736  1.00  0.00    -0.200 F 
ENDBRANCH  38  61
ENDBRANCH  12  13
ENDBRANCH   5   7
ENDBRANCH   2   3
ENDBRANCH   1   2
BRANCH   1  72
ATOM     72  C   UNL A   1      31.688  30.813  25.791  1.00  0.00     0.118 C 
BRANCH  72  73
ATOM     73  N   UNL A   1      30.613  30.566  24.839  1.00  0.00    -0.351 N 
ATOM     74  C   UNL A   1      30.555  29.629  23.834  1.00  0.00     0.270 C 
ATOM     75  H   UNL A   1      29.823  31.147  24.926  1.00  0.00     0.163 HD
ATOM     76  O   UNL A   1      29.699  29.746  22.954  1.00  0.00    -0.267 OA
BRANCH  74  77
ATOM     77  C   UNL A   1      31.537  28.549  23.833  1.00  0.00     0.139 A 
ATOM     78  C   UNL A   1      32.659  28.519  23.026  1.00  0.00     0.101 A 
ATOM     79  N   UNL A   1      31.390  27.430  24.647  1.00  0.00    -0.231 NA
ATOM     80  S   UNL A   1      33.622  27.152  23.409  1.00  0.00    -0.122 S 
ATOM     81  C   UNL A   1      32.449  26.662  24.565  1.00  0.00     0.124 A 
BRANCH  81  82
ATOM     82  C   UNL A   1      32.640  25.466  25.375  1.00  0.00     0.016 A 
ATOM     83  C   UNL A   1      31.613  25.009  26.194  1.00  0.00     0.031 A 
ATOM     84  C   UNL A   1      33.861  24.793  25.387  1.00  0.00     0.058 A 
ATOM     85  C   UNL A   1      31.832  23.854  26.917  1.00  0.00     0.114 A 
ATOM     86  C   UNL A   1      34.003  23.637  26.143  1.00  0.00     0.129 A 
ATOM     87  N   UNL A   1      32.984  23.150  26.877  1.00  0.00    -0.239 NA
BRANCH  86  88
ATOM     88  N   UNL A   1      35.175  22.937  26.096  1.00  0.00    -0.352 N 
ATOM     89  C   UNL A   1      36.479  23.572  25.963  1.00  0.00     0.146 C 
ATOM     90  C   UNL A   1      35.180  21.498  26.307  1.00  0.00     0.146 C 
ATOM     91  C   UNL A   1      37.269  22.849  24.862  1.00  0.00     0.181 C 
ATOM     92  C   UNL A   1      35.996  20.868  25.164  1.00  0.00     0.181 C 
ATOM     93  O   UNL A   1      37.323  21.427  25.085  1.00  0.00    -0.378 OA
ENDBRANCH  86  88
ENDBRANCH  81  82
ENDBRANCH  74  77
ENDBRANCH  72  73
ENDBRANCH   1  72
TORSDOF 12
ENDMDL
MODEL 2
REMARK VINA RESULT:     -12.7      5.514     11.368
REMARK SMILES O=C(NCCCNC(=O)c1csc(-c2ccnc(N3CCOCC3)c2)n1)c1ccc(-c2c3nc(c(-c4c(F)c(F)c(F)c(F)c4F)c4ccc([nH]4)c(-c4c(F)c(F)c(F)c(F)c4F)c4nc(c(-c5c(F)c(F)c(F)c(F)c5F)c5ccc2[nH]5)C=C4)C=C3)cc1
REMARK SMILES IDX 5 1 4 2 3 3 1 4 2 5 27 7 28 8 89 9 29 10 88 11 30 12 31 13
REMARK SMILES IDX 32 14 82 15 33 16 87 17 81 18 83 19 34 20 86 21 80 22 79 23
REMARK SMILES IDX 35 25 67 26 47 27 66 28 48 29 51 30 65 31 84 32 49 33 50 34
REMARK SMILES IDX 64 36 85 37 52 38 36 39 37 40 45 41 38 42 39 43 43 44 46 45
REMARK SMILES IDX 40 46 41 47 44 48 42 49 68 50 69 51 77 52 70 53 71 54 75 55
REMARK SMILES IDX 78 56 72 57 73 58 76 59 74 60 53 61 54 62 62 63 55 64 56 65
REMARK SMILES IDX 60 66 63 67 57 68 58 69 61 70 59 71 6 72 7 73 8 74 9 76
REMARK SMILES IDX 10 77 11 78 26 79 12 80 13 81 14 82 15 83 25 84 16 85 18 86
REMARK SMILES IDX 17 87 19 88 20 89 24 90 21 91 23 92 22 93
REMARK H PARENT 3 6 83 24 51 35 7 75
REMARK Flexibility Score: inf
ROOT
ATOM      1  C   UNL A   1      38.084  19.417  24.912  1.00  0.00     0.042 C 
ENDROOT
BRANCH   1   2
ATOM      2  C   UNL A   1      39.240  19.936  25.751  1.00  0.00     0.118 C 
BRANCH   2   3
ATOM      3  N   UNL A   1      40.298  18.946  25.903  1.00  0.00    -0.352 N 
ATOM      4  O   UNL A   1      42.408  18.166  25.975  1.00  0.00    -0.269 OA
ATOM      5  C   UNL A   1      41.646  19.122  26.080  1.00  0.00     0.251 C 
ATOM      6  H   UNL A   1      39.999  18.008  25.874  1.00  0.00     0.163 HD
BRANCH   5   7
ATOM      7  C   UNL A   1      42.183  20.461  26.396  1.00  0.00     0.039 A 
ATOM      8  C   UNL A   1      42.570  21.331  25.374  1.00  0.00     0.014 A 
ATOM      9  C   UNL A   1      42.247  20.873  27.731  1.00  0.00     0.014 A 
ATOM     10  C   UNL A   1      43.131  22.562  25.687  1.00  0.00     0.010 A 
ATOM     11  C   UNL A   1      42.720  22.150  28.040  1.00  0.00     0.010 A 
ATOM     12  C   UNL A   1      43.171  23.001  27.019  1.00  0.00    -0.014 A 
BRANCH  12  13
ATOM     13  C   UNL A   1      43.550  24.405  27.304  1.00  0.00     0.031 A 
ATOM     14  C   UNL A   1      42.541  25.407  27.781  1.00  0.00     0.074 A 
ATOM     15  C   UNL A   1      44.834  24.766  27.105  1.00  0.00     0.049 A 
ATOM     16  N   UNL A   1      42.707  26.681  28.034  1.00  0.00    -0.248 NA
ATOM     17  C   UNL A   1      41.168  24.926  27.998  1.00  0.00     0.031 C 
ATOM     18  C   UNL A   1      45.891  23.871  26.623  1.00  0.00     0.029 A 
ATOM     19  N   UNL A   1      45.471  25.966  27.275  1.00  0.00    -0.354 N 
ATOM     20  C   UNL A   1      41.462  27.159  28.417  1.00  0.00     0.074 A 
ATOM     21  C   UNL A   1      40.543  26.043  28.354  1.00  0.00     0.031 C 
ATOM     22  C   UNL A   1      47.046  24.547  26.555  1.00  0.00     0.029 A 
ATOM     23  C   UNL A   1      46.797  25.937  26.914  1.00  0.00     0.049 A 
ATOM     24  H   UNL A   1      45.023  26.772  27.621  1.00  0.00     0.167 HD
ATOM     25  C   UNL A   1      41.129  28.419  28.786  1.00  0.00     0.037 A 
ATOM     26  C   UNL A   1      47.703  26.928  26.838  1.00  0.00     0.037 A 
ATOM     27  C   UNL A   1      42.063  29.513  28.865  1.00  0.00     0.049 A 
ATOM     28  C   UNL A   1      47.285  28.320  27.216  1.00  0.00     0.074 A 
ATOM     29  C   UNL A   1      41.838  30.804  29.313  1.00  0.00     0.029 A 
ATOM     30  N   UNL A   1      43.390  29.453  28.471  1.00  0.00    -0.354 N 
ATOM     31  N   UNL A   1      46.125  28.741  27.656  1.00  0.00    -0.248 NA
ATOM     32  C   UNL A   1      48.296  29.376  27.077  1.00  0.00     0.031 C 
ATOM     33  C   UNL A   1      43.010  31.541  29.123  1.00  0.00     0.029 A 
ATOM     34  C   UNL A   1      43.983  30.697  28.615  1.00  0.00     0.049 A 
ATOM     35  H   UNL A   1      43.845  28.645  28.139  1.00  0.00     0.167 HD
ATOM     36  C   UNL A   1      46.269  30.106  27.856  1.00  0.00     0.074 A 
ATOM     37  C   UNL A   1      47.638  30.437  27.520  1.00  0.00     0.031 C 
ATOM     38  C   UNL A   1      45.346  31.008  28.271  1.00  0.00     0.037 A 
BRANCH  25  39
ATOM     39  C   UNL A   1      39.694  28.711  29.116  1.00  0.00     0.064 A 
ATOM     40  C   UNL A   1      39.186  28.562  30.414  1.00  0.00     0.173 A 
ATOM     41  C   UNL A   1      38.847  29.257  28.137  1.00  0.00     0.173 A 
ATOM     42  F   UNL A   1      39.953  28.040  31.383  1.00  0.00    -0.203 F 
ATOM     43  C   UNL A   1      37.881  28.946  30.720  1.00  0.00     0.198 A 
ATOM     44  C   UNL A   1      37.553  29.662  28.453  1.00  0.00     0.198 A 
ATOM     45  F   UNL A   1      39.287  29.428  26.881  1.00  0.00    -0.203 F 
ATOM     46  F   UNL A   1      37.410  28.777  31.962  1.00  0.00    -0.200 F 
ATOM     47  C   UNL A   1      37.071  29.505  29.743  1.00  0.00     0.200 A 
ATOM     48  F   UNL A   1      36.777  30.217  27.510  1.00  0.00    -0.200 F 
ATOM     49  F   UNL A   1      35.825  29.895  30.046  1.00  0.00    -0.200 F 
ENDBRANCH  25  39
BRANCH  26  50
ATOM     50  C   UNL A   1      49.073  26.647  26.332  1.00  0.00     0.064 A 
ATOM     51  C   UNL A   1      50.084  26.190  27.187  1.00  0.00     0.173 A 
ATOM     52  C   UNL A   1      49.405  26.857  24.984  1.00  0.00     0.173 A 
ATOM     53  F   UNL A   1      49.823  25.992  28.488  1.00  0.00    -0.203 F 
ATOM     54  C   UNL A   1      51.380  25.982  26.720  1.00  0.00     0.198 A 
ATOM     55  C   UNL A   1      50.691  26.612  24.510  1.00  0.00     0.198 A 
ATOM     56  F   UNL A   1      48.472  27.289  24.121  1.00  0.00    -0.203 F 
ATOM     57  F   UNL A   1      52.343  25.604  27.572  1.00  0.00    -0.200 F 
ATOM     58  C   UNL A   1      51.681  26.189  25.382  1.00  0.00     0.200 A 
ATOM     59  F   UNL A   1      50.970  26.794  23.213  1.00  0.00    -0.200 F 
ATOM     60  F   UNL A   1      52.929  25.991  24.935  1.00  0.00    -0.200 F 
ENDBRANCH  26  50
BRANCH  38  61
ATOM     61  C   UNL A   1      45.792  32.436  28.389  1.00  0.00     0.064 A 
ATOM     62  C   UNL A   1      45.621  33.343  27.334  1.00  0.00     0.173 A 
ATOM     63  C   UNL A   1      46.353  32.912  29.583  1.00  0.00     0.173 A 
ATOM     64  F   UNL A   1      45.108  32.931  26.164  1.00  0.00    -0.203 F 
ATOM     65  C   UNL A   1      46.015  34.671  27.463  1.00  0.00     0.198 A 
ATOM     66  C   UNL A   1      46.715  34.248  29.720  1.00  0.00     0.198 A 
ATOM     67  F   UNL A   1      46.533  32.084  30.624  1.00  0.00    -0.203 F 
ATOM     68  F   UNL A   1      45.887  35.510  26.426  1.00  0.00    -0.200 F 
ATOM     69  C   UNL A   1      46.553  35.125  28.659  1.00  0.00     0.200 A 
ATOM     70  F   UNL A   1      47.220  34.688  30.881  1.00  0.00    -0.200 F 
ATOM     71  F   UNL A   1      46.919  36.408  28.785  1.00  0.00    -0.200 F 
ENDBRANCH  38  61
ENDBRANCH  12  13
ENDBRANCH   5   7
ENDBRANCH   2   3
ENDBRANCH   1   2
BRANCH   1  72
ATOM     72  C   UNL A   1      36.839  20.288  25.008  1.00  0.00     0.118 C 
BRANCH  72  73
ATOM     73  N   UNL A   1      35.632  19.524  24.720  1.00  0.00    -0.351 N 
ATOM     74  C   UNL A   1      34.325  19.846  25.002  1.00  0.00     0.270 C 
ATOM     75  H   UNL A   1      35.770  18.664  24.264  1.00  0.00     0.163 HD
ATOM     76  O   UNL A   1      33.465  18.965  24.942  1.00  0.00    -0.267 OA
BRANCH  74  77
ATOM     77  C   UNL A   1      34.016  21.217  25.395  1.00  0.00     0.139 A 
ATOM     78  C   UNL A   1      33.808  21.624  26.700  1.00  0.00     0.101 A 
ATOM     79  N   UNL A   1      33.877  22.232  24.453  1.00  0.00    -0.231 NA
ATOM     80  S   UNL A   1      33.595  23.326  26.759  1.00  0.00    -0.122 S 
ATOM     81  C   UNL A   1      33.724  23.391  25.047  1.00  0.00     0.124 A 
BRANCH  81  82
ATOM     82  C   UNL A   1      33.653  24.658  24.331  1.00  0.00     0.016 A 
ATOM     83  C   UNL A   1      33.640  24.672  22.941  1.00  0.00     0.031 A 
ATOM     84  C   UNL A   1      33.651  25.871  25.018  1.00  0.00     0.058 A 
ATOM     85  C   UNL A   1      33.539  25.896  22.311  1.00  0.00     0.114 A 
ATOM     86  C   UNL A   1      33.549  27.062  24.310  1.00  0.00     0.129 A 
ATOM     87  N   UNL A   1      33.459  27.074  22.966  1.00  0.00    -0.239 NA
BRANCH  86  88
ATOM     88  N   UNL A   1      33.472  28.247  24.987  1.00  0.00    -0.352 N 
ATOM     89  C   UNL A   1      34.271  28.545  26.167  1.00  0.00     0.146 C 
ATOM     90  C   UNL A   1      32.659  29.336  24.469  1.00  0.00     0.146 C 
ATOM     91  C   UNL A   1      33.349  29.117  27.255  1.00  0.00     0.181 C 
ATOM     92  C   UNL A   1      31.780  29.844  25.628  1.00  0.00     0.181 C 
ATOM     93  O   UNL A   1      32.572  30.229  26.769  1.00  0.00    -0.378 OA
ENDBRANCH  86  88
ENDBRANCH  81  82
ENDBRANCH  74  77
ENDBRANCH  72  73
ENDBRANCH   1  72
TORSDOF 12
ENDMDL
MODEL 3
REMARK VINA RESULT:     -12.7      0.398      1.635
REMARK SMILES O=C(NCCCNC(=O)c1csc(-c2ccnc(N3CCOCC3)c2)n1)c1ccc(-c2c3nc(c(-c4c(F)c(F)c(F)c(F)c4F)c4ccc([nH]4)c(-c4c(F)c(F)c(F)c(F)c4F)c4nc(c(-c5c(F)c(F)c(F)c(F)c5F)c5ccc2[nH]5)C=C4)C=C3)cc1
REMARK SMILES IDX 5 1 4 2 3 3 1 4 2 5 27 7 28 8 89 9 29 10 88 11 30 12 31 13
REMARK SMILES IDX 32 14 82 15 33 16 87 17 81 18 83 19 34 20 86 21 80 22 79 23
REMARK SMILES IDX 35 25 67 26 47 27 66 28 48 29 51 30 65 31 84 32 49 33 50 34
REMARK SMILES IDX 64 36 85 37 52 38 36 39 37 40 45 41 38 42 39 43 43 44 46 45
REMARK SMILES IDX 40 46 41 47 44 48 42 49 68 50 69 51 77 52 70 53 71 54 75 55
REMARK SMILES IDX 78 56 72 57 73 58 76 59 74 60 53 61 54 62 62 63 55 64 56 65
REMARK SMILES IDX 60 66 63 67 57 68 58 69 61 70 59 71 6 72 7 73 8 74 9 76
REMARK SMILES IDX 10 77 11 78 26 79 12 80 13 81 14 82 15 83 25 84 16 85 18 86
REMARK SMILES IDX 17 87 19 88 20 89 24 90 21 91 23 92 22 93
REMARK H PARENT 3 6 83 24 51 35 7 75
REMARK Flexibility Score: inf
ROOT
ATOM      1  C   UNL A   1      31.398  31.771  26.566  1.00  0.00     0.042 C 
ENDROOT
BRANCH   1   2
ATOM      2  C   UNL A   1      32.658  32.428  27.105  1.00  0.00     0.118 C 
BRANCH   2   3
ATOM      3  N   UNL A   1      32.441  33.822  27.467  1.00  0.00    -0.352 N 
ATOM      4  O   UNL A   1      32.551  35.669  28.747  1.00  0.00    -0.269 OA
ATOM      5  C   UNL A   1      33.016  34.572  28.460  1.00  0.00     0.251 C 
ATOM      6  H   UNL A   1      31.779  34.298  26.914  1.00  0.00     0.163 HD
BRANCH   5   7
ATOM      7  C   UNL A   1      34.196  34.058  29.185  1.00  0.00     0.039 A 
ATOM      8  C   UNL A   1      34.043  33.190  30.268  1.00  0.00     0.014 A 
ATOM      9  C   UNL A   1      35.475  34.406  28.739  1.00  0.00     0.014 A 
ATOM     10  C   UNL A   1      35.157  32.765  30.980  1.00  0.00     0.010 A 
ATOM     11  C   UNL A   1      36.599  33.899  29.395  1.00  0.00     0.010 A 
ATOM     12  C   UNL A   1      36.447  33.079  30.524  1.00  0.00    -0.014 A 
BRANCH  12  13
ATOM     13  C   UNL A   1      37.614  32.420  31.156  1.00  0.00     0.031 A 
ATOM     14  C   UNL A   1      38.361  31.319  30.463  1.00  0.00     0.074 A 
ATOM     15  C   UNL A   1      37.980  32.829  32.387  1.00  0.00     0.049 A 
ATOM     16  N   UNL A   1      39.376  30.616  30.901  1.00  0.00    -0.248 NA
ATOM     17  C   UNL A   1      37.914  30.951  29.111  1.00  0.00     0.031 C 
ATOM     18  C   UNL A   1      37.307  33.881  33.157  1.00  0.00     0.029 A 
ATOM     19  N   UNL A   1      38.995  32.418  33.210  1.00  0.00    -0.354 N 
ATOM     20  C   UNL A   1      39.674  29.711  29.892  1.00  0.00     0.074 A 
ATOM     21  C   UNL A   1      38.727  29.942  28.822  1.00  0.00     0.031 C 
ATOM     22  C   UNL A   1      37.938  34.044  34.327  1.00  0.00     0.029 A 
ATOM     23  C   UNL A   1      39.009  33.061  34.424  1.00  0.00     0.049 A 
ATOM     24  H   UNL A   1      39.650  31.727  32.958  1.00  0.00     0.167 HD
ATOM     25  C   UNL A   1      40.653  28.775  29.873  1.00  0.00     0.037 A 
ATOM     26  C   UNL A   1      39.770  32.855  35.514  1.00  0.00     0.037 A 
ATOM     27  C   UNL A   1      41.602  28.574  30.939  1.00  0.00     0.049 A 
ATOM     28  C   UNL A   1      40.818  31.780  35.469  1.00  0.00     0.074 A 
ATOM     29  C   UNL A   1      42.684  27.711  30.975  1.00  0.00     0.029 A 
ATOM     30  N   UNL A   1      41.571  29.227  32.161  1.00  0.00    -0.354 N 
ATOM     31  N   UNL A   1      41.144  30.987  34.479  1.00  0.00    -0.248 NA
ATOM     32  C   UNL A   1      41.597  31.562  36.696  1.00  0.00     0.031 C 
ATOM     33  C   UNL A   1      43.265  27.792  32.244  1.00  0.00     0.029 A 
ATOM     34  C   UNL A   1      42.583  28.748  32.978  1.00  0.00     0.049 A 
ATOM     35  H   UNL A   1      40.927  29.928  32.412  1.00  0.00     0.167 HD
ATOM     36  C   UNL A   1      42.170  30.185  34.957  1.00  0.00     0.074 A 
ATOM     37  C   UNL A   1      42.435  30.609  36.316  1.00  0.00     0.031 C 
ATOM     38  C   UNL A   1      42.828  29.180  34.330  1.00  0.00     0.037 A 
BRANCH  25  39
ATOM     39  C   UNL A   1      40.753  27.870  28.680  1.00  0.00     0.064 A 
ATOM     40  C   UNL A   1      40.021  26.678  28.590  1.00  0.00     0.173 A 
ATOM     41  C   UNL A   1      41.508  28.263  27.563  1.00  0.00     0.173 A 
ATOM     42  F   UNL A   1      39.289  26.255  29.631  1.00  0.00    -0.203 F 
ATOM     43  C   UNL A   1      40.044  25.911  27.426  1.00  0.00     0.198 A 
ATOM     44  C   UNL A   1      41.509  27.508  26.394  1.00  0.00     0.198 A 
ATOM     45  F   UNL A   1      42.220  29.400  27.595  1.00  0.00    -0.203 F 
ATOM     46  F   UNL A   1      39.352  24.765  27.369  1.00  0.00    -0.200 F 
ATOM     47  C   UNL A   1      40.778  26.332  26.327  1.00  0.00     0.200 A 
ATOM     48  F   UNL A   1      42.206  27.925  25.328  1.00  0.00    -0.200 F 
ATOM     49  F   UNL A   1      40.779  25.604  25.201  1.00  0.00    -0.200 F 
ENDBRANCH  25  39
BRANCH  26  50
ATOM     50  C   UNL A   1      39.529  33.643  36.751  1.00  0.00     0.064 A 
ATOM     51  C   UNL A   1      38.697  33.161  37.770  1.00  0.00     0.173 A 
ATOM     52  C   UNL A   1      40.109  34.910  36.928  1.00  0.00     0.173 A 
ATOM     53  F   UNL A   1      38.105  31.965  37.641  1.00  0.00    -0.203 F 
ATOM     54  C   UNL A   1      38.430  33.928  38.902  1.00  0.00     0.198 A 
ATOM     55  C   UNL A   1      39.872  35.659  38.077  1.00  0.00     0.198 A 
ATOM     56  F   UNL A   1      40.919  35.417  35.985  1.00  0.00    -0.203 F 
ATOM     57  F   UNL A   1      37.581  33.470  39.832  1.00  0.00    -0.200 F 
ATOM     58  C   UNL A   1      39.021  35.173  39.057  1.00  0.00     0.200 A 
ATOM     59  F   UNL A   1      40.461  36.852  38.230  1.00  0.00    -0.200 F 
ATOM     60  F   UNL A   1      38.761  35.910  40.145  1.00  0.00    -0.200 F 
ENDBRANCH  26  50
BRANCH  38  61
ATOM     61  C   UNL A   1      43.900  28.475  35.108  1.00  0.00     0.064 A 
ATOM     62  C   UNL A   1      43.628  27.303  35.829  1.00  0.00     0.173 A 
ATOM     63  C   UNL A   1      45.219  28.951  35.097  1.00  0.00     0.173 A 
ATOM     64  F   UNL A   1      42.377  26.820  35.887  1.00  0.00    -0.203 F 
ATOM     65  C   UNL A   1      44.635  26.644  36.527  1.00  0.00     0.198 A 
ATOM     66  C   UNL A   1      46.230  28.271  35.770  1.00  0.00     0.198 A 
ATOM     67  F   UNL A   1      45.531  30.066  34.420  1.00  0.00    -0.203 F 
ATOM     68  F   UNL A   1      44.344  25.553  37.247  1.00  0.00    -0.200 F 
ATOM     69  C   UNL A   1      45.937  27.123  36.488  1.00  0.00     0.200 A 
ATOM     70  F   UNL A   1      47.489  28.727  35.719  1.00  0.00    -0.200 F 
ATOM     71  F   UNL A   1      46.908  26.479  37.151  1.00  0.00    -0.200 F 
ENDBRANCH  38  61
ENDBRANCH  12  13
ENDBRANCH   5   7
ENDBRANCH   2   3
ENDBRANCH   1   2
BRANCH   1  72
ATOM     72  C   UNL A   1      31.686  30.628  25.602  1.00  0.00     0.118 C 
BRANCH  72  73
ATOM     73  N   UNL A   1      30.599  30.449  24.649  1.00  0.00    -0.351 N 
ATOM     74  C   UNL A   1      30.495  29.534  23.628  1.00  0.00     0.270 C 
ATOM     75  H   UNL A   1      29.838  31.065  24.749  1.00  0.00     0.163 HD
ATOM     76  O   UNL A   1      29.643  29.707  22.753  1.00  0.00    -0.267 OA
BRANCH  74  77
ATOM     77  C   UNL A   1      31.424  28.408  23.606  1.00  0.00     0.139 A 
ATOM     78  C   UNL A   1      32.453  28.268  22.693  1.00  0.00     0.101 A 
ATOM     79  N   UNL A   1      31.316  27.356  24.509  1.00  0.00    -0.231 NA
ATOM     80  S   UNL A   1      33.391  26.883  23.074  1.00  0.00    -0.122 S 
ATOM     81  C   UNL A   1      32.327  26.532  24.376  1.00  0.00     0.124 A 
BRANCH  81  82
ATOM     82  C   UNL A   1      32.550  25.386  25.247  1.00  0.00     0.016 A 
ATOM     83  C   UNL A   1      31.539  24.949  26.096  1.00  0.00     0.031 A 
ATOM     84  C   UNL A   1      33.787  24.743  25.285  1.00  0.00     0.058 A 
ATOM     85  C   UNL A   1      31.790  23.839  26.877  1.00  0.00     0.114 A 
ATOM     86  C   UNL A   1      33.961  23.632  26.101  1.00  0.00     0.129 A 
ATOM     87  N   UNL A   1      32.958  23.161  26.867  1.00  0.00    -0.239 NA
BRANCH  86  88
ATOM     88  N   UNL A   1      35.149  22.959  26.083  1.00  0.00    -0.352 N 
ATOM     89  C   UNL A   1      36.444  23.623  26.133  1.00  0.00     0.146 C 
ATOM     90  C   UNL A   1      35.169  21.505  26.141  1.00  0.00     0.146 C 
ATOM     91  C   UNL A   1      37.342  23.034  25.034  1.00  0.00     0.181 C 
ATOM     92  C   UNL A   1      36.096  21.013  25.013  1.00  0.00     0.181 C 
ATOM     93  O   UNL A   1      37.411  21.597  25.110  1.00  0.00    -0.378 OA
ENDBRANCH  86  88
ENDBRANCH  81  82
ENDBRANCH  74  77
ENDBRANCH  72  73
ENDBRANCH   1  72
TORSDOF 12
ENDMDL
