MODEL 1
REMARK VINA RESULT:     -13.7      0.000      0.000
REMARK SMILES CCc1ccc(C(=O)N2Cc3nc[nH]c3C[C@@H]2C(=O)NCCCNC(=O)c2ccc(-c3c4nc(c(-c5c(F)c(F)c(F)c(F)c5F)c5ccc([nH]5)c(-c5c(F)c(F)c(F)c(F)c5F)c5nc(c(-c6c(F)c(F)c(F)c(F)c6F)c6ccc3[nH]6)C=C5)C=C4)cc2)o1
REMARK SMILES IDX 21 1 20 2 18 3 19 4 17 6 9 7 10 8 11 9 16 10 12 11 15 12
REMARK SMILES IDX 13 13 14 14 7 16 8 17 6 18 3 19 4 20 90 21 5 22 2 23 1 24
REMARK SMILES IDX 22 25 23 26 24 27 25 28 26 30 27 31 28 32 89 33 29 34 88 35
REMARK SMILES IDX 30 36 31 37 32 38 82 39 33 40 87 41 81 42 83 43 34 44 86 45
REMARK SMILES IDX 80 46 79 47 35 49 67 50 47 51 66 52 48 53 51 54 65 55 84 56
REMARK SMILES IDX 49 57 50 58 64 60 85 61 52 62 36 63 37 64 45 65 38 66 39 67
REMARK SMILES IDX 43 68 46 69 40 70 41 71 44 72 42 73 68 74 69 75 77 76 70 77
REMARK SMILES IDX 71 78 75 79 78 80 72 81 73 82 76 83 74 84 53 85 54 86 62 87
REMARK SMILES IDX 55 88 56 89 60 90 63 91 57 92 58 93 61 94 59 95
REMARK H PARENT 20 5 14 15 24 29 83 48 51 59
REMARK Flexibility Score: inf
ROOT
ATOM      1  C   UNL A   1      35.267  24.366  25.066  1.00  0.00     0.117 C 
ENDROOT
BRANCH   1   2
ATOM      2  N   UNL A   1      34.637  24.575  23.768  1.00  0.00    -0.354 N 
ATOM      3  C   UNL A   1      33.807  25.593  23.366  1.00  0.00     0.243 C 
ATOM      4  O   UNL A   1      33.639  25.740  22.159  1.00  0.00    -0.273 OA
ATOM      5  H   UNL A   1      34.834  23.893  23.086  1.00  0.00     0.163 HD
BRANCH   3   6
ATOM      6  C   UNL A   1      33.223  26.540  24.431  1.00  0.00     0.181 C 
ATOM      7  N   UNL A   1      31.762  26.553  24.758  1.00  0.00    -0.318 N 
ATOM      8  C   UNL A   1      31.348  27.402  25.907  1.00  0.00     0.179 C 
ATOM      9  C   UNL A   1      32.317  28.521  26.135  1.00  0.00     0.081 A 
ATOM     10  C   UNL A   1      33.757  27.974  24.145  1.00  0.00     0.091 C 
ATOM     11  N   UNL A   1      32.336  29.346  27.228  1.00  0.00    -0.240 NA
ATOM     12  C   UNL A   1      33.404  28.779  25.333  1.00  0.00     0.042 A 
ATOM     13  C   UNL A   1      33.400  30.106  27.071  1.00  0.00     0.197 A 
ATOM     14  N   UNL A   1      34.088  29.796  25.925  1.00  0.00    -0.348 N 
ATOM     15  H   UNL A   1      34.912  30.223  25.597  1.00  0.00     0.167 HD
BRANCH   7  16
ATOM     16  C   UNL A   1      30.811  26.406  23.745  1.00  0.00     0.290 C 
ATOM     17  O   UNL A   1      30.513  25.293  23.313  1.00  0.00    -0.265 OA
BRANCH  16  18
ATOM     18  C   UNL A   1      30.364  27.660  23.155  1.00  0.00     0.191 A 
ATOM     19  C   UNL A   1      28.912  29.267  22.719  1.00  0.00     0.104 A 
ATOM     20  C   UNL A   1      30.078  29.618  22.076  1.00  0.00     0.046 A 
ATOM     21  O   UNL A   1      29.071  28.075  23.362  1.00  0.00    -0.456 OA
ATOM     22  C   UNL A   1      31.001  28.579  22.335  1.00  0.00     0.056 A 
BRANCH  19  23
ATOM     23  C   UNL A   1      27.575  29.913  22.794  1.00  0.00     0.072 C 
ATOM     24  C   UNL A   1      27.566  31.168  23.650  1.00  0.00     0.012 C 
ENDBRANCH  19  23
ENDBRANCH  16  18
ENDBRANCH   7  16
ENDBRANCH   3   6
ENDBRANCH   1   2
BRANCH   1  25
ATOM     25  C   UNL A   1      36.576  23.585  25.015  1.00  0.00     0.042 C 
BRANCH  25  26
ATOM     26  C   UNL A   1      37.497  23.859  26.189  1.00  0.00     0.118 C 
BRANCH  26  27
ATOM     27  N   UNL A   1      38.475  22.801  26.448  1.00  0.00    -0.352 N 
ATOM     28  C   UNL A   1      39.844  22.946  26.652  1.00  0.00     0.251 C 
ATOM     29  H   UNL A   1      38.125  21.881  26.479  1.00  0.00     0.163 HD
ATOM     30  O   UNL A   1      40.607  22.011  26.564  1.00  0.00    -0.269 OA
BRANCH  28  31
ATOM     31  C   UNL A   1      40.334  24.299  26.980  1.00  0.00     0.039 A 
ATOM     32  C   UNL A   1      40.246  25.358  26.073  1.00  0.00     0.014 A 
ATOM     33  C   UNL A   1      40.769  24.502  28.282  1.00  0.00     0.014 A 
ATOM     34  C   UNL A   1      40.498  26.652  26.530  1.00  0.00     0.010 A 
ATOM     35  C   UNL A   1      40.814  25.778  28.772  1.00  0.00     0.010 A 
ATOM     36  C   UNL A   1      40.753  26.856  27.893  1.00  0.00    -0.014 A 
BRANCH  36  37
ATOM     37  C   UNL A   1      40.898  28.193  28.464  1.00  0.00     0.031 A 
ATOM     38  C   UNL A   1      42.044  28.996  27.957  1.00  0.00     0.074 A 
ATOM     39  C   UNL A   1      39.905  28.757  29.188  1.00  0.00     0.049 A 
ATOM     40  N   UNL A   1      43.056  29.444  28.625  1.00  0.00    -0.248 NA
ATOM     41  C   UNL A   1      42.125  29.266  26.513  1.00  0.00     0.031 C 
ATOM     42  C   UNL A   1      38.576  28.192  29.479  1.00  0.00     0.029 A 
ATOM     43  N   UNL A   1      39.816  30.011  29.711  1.00  0.00    -0.354 N 
ATOM     44  C   UNL A   1      43.806  30.211  27.732  1.00  0.00     0.074 A 
ATOM     45  C   UNL A   1      43.285  29.920  26.423  1.00  0.00     0.031 C 
ATOM     46  C   UNL A   1      37.747  29.170  29.898  1.00  0.00     0.029 A 
ATOM     47  C   UNL A   1      38.534  30.369  30.105  1.00  0.00     0.049 A 
ATOM     48  H   UNL A   1      40.592  30.611  29.800  1.00  0.00     0.167 HD
ATOM     49  C   UNL A   1      44.617  31.212  28.183  1.00  0.00     0.037 A 
ATOM     50  C   UNL A   1      38.129  31.563  30.589  1.00  0.00     0.037 A 
ATOM     51  C   UNL A   1      44.770  31.122  29.614  1.00  0.00     0.049 A 
ATOM     52  C   UNL A   1      39.325  32.264  31.098  1.00  0.00     0.074 A 
ATOM     53  C   UNL A   1      45.435  30.308  30.502  1.00  0.00     0.029 A 
ATOM     54  N   UNL A   1      43.828  31.818  30.325  1.00  0.00    -0.354 N 
ATOM     55  N   UNL A   1      40.010  31.858  32.131  1.00  0.00    -0.248 NA
ATOM     56  C   UNL A   1      39.997  33.237  30.246  1.00  0.00     0.031 C 
ATOM     57  C   UNL A   1      44.678  30.353  31.713  1.00  0.00     0.029 A 
ATOM     58  C   UNL A   1      43.597  31.217  31.531  1.00  0.00     0.049 A 
ATOM     59  H   UNL A   1      43.378  32.635  30.011  1.00  0.00     0.167 HD
ATOM     60  C   UNL A   1      41.319  32.178  31.821  1.00  0.00     0.074 A 
ATOM     61  C   UNL A   1      41.226  33.178  30.765  1.00  0.00     0.031 C 
ATOM     62  C   UNL A   1      42.341  31.372  32.228  1.00  0.00     0.037 A 
BRANCH  49  63
ATOM     63  C   UNL A   1      44.897  32.530  27.478  1.00  0.00     0.064 A 
ATOM     64  C   UNL A   1      46.136  32.689  26.812  1.00  0.00     0.173 A 
ATOM     65  C   UNL A   1      44.185  33.725  27.705  1.00  0.00     0.173 A 
ATOM     66  F   UNL A   1      46.901  31.624  26.526  1.00  0.00    -0.203 F 
ATOM     67  C   UNL A   1      46.666  33.947  26.512  1.00  0.00     0.198 A 
ATOM     68  C   UNL A   1      44.697  34.979  27.358  1.00  0.00     0.198 A 
ATOM     69  F   UNL A   1      43.024  33.755  28.366  1.00  0.00    -0.203 F 
ATOM     70  F   UNL A   1      47.906  34.047  26.011  1.00  0.00    -0.200 F 
ATOM     71  C   UNL A   1      45.951  35.093  26.799  1.00  0.00     0.200 A 
ATOM     72  F   UNL A   1      43.991  36.081  27.653  1.00  0.00    -0.200 F 
ATOM     73  F   UNL A   1      46.484  36.303  26.581  1.00  0.00    -0.200 F 
ENDBRANCH  49  63
BRANCH  50  74
ATOM     74  C   UNL A   1      36.801  32.197  30.496  1.00  0.00     0.064 A 
ATOM     75  C   UNL A   1      35.908  32.187  31.577  1.00  0.00     0.173 A 
ATOM     76  C   UNL A   1      36.492  33.055  29.424  1.00  0.00     0.173 A 
ATOM     77  F   UNL A   1      36.154  31.417  32.647  1.00  0.00    -0.203 F 
ATOM     78  C   UNL A   1      34.784  33.018  31.601  1.00  0.00     0.198 A 
ATOM     79  C   UNL A   1      35.370  33.883  29.448  1.00  0.00     0.198 A 
ATOM     80  F   UNL A   1      37.328  33.173  28.382  1.00  0.00    -0.203 F 
ATOM     81  F   UNL A   1      33.987  33.030  32.677  1.00  0.00    -0.200 F 
ATOM     82  C   UNL A   1      34.524  33.875  30.543  1.00  0.00     0.200 A 
ATOM     83  F   UNL A   1      35.150  34.734  28.436  1.00  0.00    -0.200 F 
ATOM     84  F   UNL A   1      33.488  34.722  30.598  1.00  0.00    -0.200 F 
ENDBRANCH  50  74
BRANCH  62  85
ATOM     85  C   UNL A   1      42.059  30.446  33.372  1.00  0.00     0.064 A 
ATOM     86  C   UNL A   1      41.666  29.106  33.229  1.00  0.00     0.173 A 
ATOM     87  C   UNL A   1      42.272  30.923  34.671  1.00  0.00     0.173 A 
ATOM     88  F   UNL A   1      41.526  28.554  32.019  1.00  0.00    -0.203 F 
ATOM     89  C   UNL A   1      41.449  28.296  34.341  1.00  0.00     0.198 A 
ATOM     90  C   UNL A   1      42.091  30.103  35.779  1.00  0.00     0.198 A 
ATOM     91  F   UNL A   1      42.696  32.183  34.861  1.00  0.00    -0.203 F 
ATOM     92  F   UNL A   1      41.051  27.025  34.180  1.00  0.00    -0.200 F 
ATOM     93  C   UNL A   1      41.667  28.793  35.615  1.00  0.00     0.200 A 
ATOM     94  F   UNL A   1      42.347  30.576  37.005  1.00  0.00    -0.200 F 
ATOM     95  F   UNL A   1      41.489  28.006  36.685  1.00  0.00    -0.200 F 
ENDBRANCH  62  85
ENDBRANCH  36  37
ENDBRANCH  28  31
ENDBRANCH  26  27
ENDBRANCH  25  26
ENDBRANCH   1  25
TORSDOF 13
ENDMDL
MODEL 2
REMARK VINA RESULT:     -13.4      3.477      9.009
REMARK SMILES CCc1ccc(C(=O)N2Cc3nc[nH]c3C[C@@H]2C(=O)NCCCNC(=O)c2ccc(-c3c4nc(c(-c5c(F)c(F)c(F)c(F)c5F)c5ccc([nH]5)c(-c5c(F)c(F)c(F)c(F)c5F)c5nc(c(-c6c(F)c(F)c(F)c(F)c6F)c6ccc3[nH]6)C=C5)C=C4)cc2)o1
REMARK SMILES IDX 21 1 20 2 18 3 19 4 17 6 9 7 10 8 11 9 16 10 12 11 15 12
REMARK SMILES IDX 13 13 14 14 7 16 8 17 6 18 3 19 4 20 90 21 5 22 2 23 1 24
REMARK SMILES IDX 22 25 23 26 24 27 25 28 26 30 27 31 28 32 89 33 29 34 88 35
REMARK SMILES IDX 30 36 31 37 32 38 82 39 33 40 87 41 81 42 83 43 34 44 86 45
REMARK SMILES IDX 80 46 79 47 35 49 67 50 47 51 66 52 48 53 51 54 65 55 84 56
REMARK SMILES IDX 49 57 50 58 64 60 85 61 52 62 36 63 37 64 45 65 38 66 39 67
REMARK SMILES IDX 43 68 46 69 40 70 41 71 44 72 42 73 68 74 69 75 77 76 70 77
REMARK SMILES IDX 71 78 75 79 78 80 72 81 73 82 76 83 74 84 53 85 54 86 62 87
REMARK SMILES IDX 55 88 56 89 60 90 63 91 57 92 58 93 61 94 59 95
REMARK H PARENT 20 5 14 15 24 29 83 48 51 59
REMARK Flexibility Score: inf
ROOT
ATOM      1  C   UNL A   1      32.742  27.168  26.256  1.00  0.00     0.117 C 
ENDROOT
BRANCH   1   2
ATOM      2  N   UNL A   1      31.839  26.079  26.606  1.00  0.00    -0.354 N 
ATOM      3  C   UNL A   1      32.046  24.724  26.517  1.00  0.00     0.243 C 
ATOM      4  O   UNL A   1      31.283  23.995  27.144  1.00  0.00    -0.273 OA
ATOM      5  H   UNL A   1      30.960  26.352  26.954  1.00  0.00     0.163 HD
BRANCH   3   6
ATOM      6  C   UNL A   1      33.266  24.209  25.730  1.00  0.00     0.181 C 
ATOM      7  N   UNL A   1      33.123  23.582  24.378  1.00  0.00    -0.318 N 
ATOM      8  C   UNL A   1      34.386  23.264  23.659  1.00  0.00     0.179 C 
ATOM      9  C   UNL A   1      35.522  23.061  24.615  1.00  0.00     0.081 A 
ATOM     10  C   UNL A   1      34.115  23.321  26.686  1.00  0.00     0.091 C 
ATOM     11  N   UNL A   1      36.843  22.962  24.270  1.00  0.00    -0.240 NA
ATOM     12  C   UNL A   1      35.394  23.085  25.984  1.00  0.00     0.042 A 
ATOM     13  C   UNL A   1      37.496  22.898  25.412  1.00  0.00     0.197 A 
ATOM     14  N   UNL A   1      36.652  22.971  26.491  1.00  0.00    -0.348 N 
ATOM     15  H   UNL A   1      36.905  22.945  27.441  1.00  0.00     0.167 HD
BRANCH   7  16
ATOM     16  C   UNL A   1      32.045  22.737  24.102  1.00  0.00     0.290 C 
ATOM     17  O   UNL A   1      30.935  23.194  23.832  1.00  0.00    -0.265 OA
BRANCH  16  18
ATOM     18  C   UNL A   1      32.314  21.324  24.336  1.00  0.00     0.191 A 
ATOM     19  C   UNL A   1      32.580  19.210  23.754  1.00  0.00     0.104 A 
ATOM     20  C   UNL A   1      32.765  19.260  25.118  1.00  0.00     0.046 A 
ATOM     21  O   UNL A   1      32.290  20.453  23.274  1.00  0.00    -0.456 OA
ATOM     22  C   UNL A   1      32.573  20.608  25.494  1.00  0.00     0.056 A 
BRANCH  19  23
ATOM     23  C   UNL A   1      32.602  18.087  22.779  1.00  0.00     0.072 C 
ATOM     24  C   UNL A   1      33.689  17.068  23.070  1.00  0.00     0.012 C 
ENDBRANCH  19  23
ENDBRANCH  16  18
ENDBRANCH   7  16
ENDBRANCH   3   6
ENDBRANCH   1   2
BRANCH   1  25
ATOM     25  C   UNL A   1      32.789  28.303  27.274  1.00  0.00     0.042 C 
BRANCH  25  26
ATOM     26  C   UNL A   1      34.011  29.194  27.139  1.00  0.00     0.118 C 
BRANCH  26  27
ATOM     27  N   UNL A   1      33.824  30.553  27.651  1.00  0.00    -0.352 N 
ATOM     28  C   UNL A   1      34.731  31.311  28.386  1.00  0.00     0.251 C 
ATOM     29  H   UNL A   1      32.959  30.978  27.455  1.00  0.00     0.163 HD
ATOM     30  O   UNL A   1      34.389  32.289  29.011  1.00  0.00    -0.269 OA
BRANCH  28  31
ATOM     31  C   UNL A   1      36.139  30.869  28.377  1.00  0.00     0.039 A 
ATOM     32  C   UNL A   1      37.186  31.727  28.722  1.00  0.00     0.014 A 
ATOM     33  C   UNL A   1      36.364  29.521  28.134  1.00  0.00     0.014 A 
ATOM     34  C   UNL A   1      38.454  31.183  28.928  1.00  0.00     0.010 A 
ATOM     35  C   UNL A   1      37.548  28.966  28.535  1.00  0.00     0.010 A 
ATOM     36  C   UNL A   1      38.620  29.793  28.862  1.00  0.00    -0.014 A 
BRANCH  36  37
ATOM     37  C   UNL A   1      39.886  29.145  29.193  1.00  0.00     0.031 A 
ATOM     38  C   UNL A   1      40.159  28.954  30.644  1.00  0.00     0.074 A 
ATOM     39  C   UNL A   1      40.620  28.516  28.248  1.00  0.00     0.049 A 
ATOM     40  N   UNL A   1      41.123  29.457  31.343  1.00  0.00    -0.248 NA
ATOM     41  C   UNL A   1      39.196  28.178  31.441  1.00  0.00     0.031 C 
ATOM     42  C   UNL A   1      40.288  28.342  26.824  1.00  0.00     0.029 A 
ATOM     43  N   UNL A   1      41.760  27.783  28.379  1.00  0.00    -0.354 N 
ATOM     44  C   UNL A   1      41.003  28.915  32.624  1.00  0.00     0.074 A 
ATOM     45  C   UNL A   1      39.711  28.283  32.668  1.00  0.00     0.031 C 
ATOM     46  C   UNL A   1      41.055  27.370  26.292  1.00  0.00     0.029 A 
ATOM     47  C   UNL A   1      42.064  27.008  27.267  1.00  0.00     0.049 A 
ATOM     48  H   UNL A   1      42.318  27.800  29.189  1.00  0.00     0.167 HD
ATOM     49  C   UNL A   1      42.090  28.815  33.443  1.00  0.00     0.037 A 
ATOM     50  C   UNL A   1      43.083  26.132  27.132  1.00  0.00     0.037 A 
ATOM     51  C   UNL A   1      43.189  29.579  32.908  1.00  0.00     0.049 A 
ATOM     52  C   UNL A   1      44.103  26.481  28.142  1.00  0.00     0.074 A 
ATOM     53  C   UNL A   1      43.519  30.909  32.784  1.00  0.00     0.029 A 
ATOM     54  N   UNL A   1      44.000  28.876  32.056  1.00  0.00    -0.354 N 
ATOM     55  N   UNL A   1      44.793  27.588  28.112  1.00  0.00    -0.248 NA
ATOM     56  C   UNL A   1      44.124  25.765  29.411  1.00  0.00     0.031 C 
ATOM     57  C   UNL A   1      44.370  30.995  31.640  1.00  0.00     0.029 A 
ATOM     58  C   UNL A   1      44.554  29.711  31.125  1.00  0.00     0.049 A 
ATOM     59  H   UNL A   1      44.160  27.907  32.105  1.00  0.00     0.167 HD
ATOM     60  C   UNL A   1      44.962  27.920  29.444  1.00  0.00     0.074 A 
ATOM     61  C   UNL A   1      44.708  26.688  30.179  1.00  0.00     0.031 C 
ATOM     62  C   UNL A   1      44.980  29.228  29.831  1.00  0.00     0.037 A 
BRANCH  49  63
ATOM     63  C   UNL A   1      42.364  27.701  34.443  1.00  0.00     0.064 A 
ATOM     64  C   UNL A   1      42.908  26.485  33.964  1.00  0.00     0.173 A 
ATOM     65  C   UNL A   1      41.821  27.642  35.742  1.00  0.00     0.173 A 
ATOM     66  F   UNL A   1      43.467  26.417  32.746  1.00  0.00    -0.203 F 
ATOM     67  C   UNL A   1      42.805  25.289  34.681  1.00  0.00     0.198 A 
ATOM     68  C   UNL A   1      41.765  26.454  36.475  1.00  0.00     0.198 A 
ATOM     69  F   UNL A   1      41.224  28.688  36.318  1.00  0.00    -0.203 F 
ATOM     70  F   UNL A   1      43.209  24.139  34.122  1.00  0.00    -0.200 F 
ATOM     71  C   UNL A   1      42.219  25.272  35.931  1.00  0.00     0.200 A 
ATOM     72  F   UNL A   1      41.184  26.455  37.684  1.00  0.00    -0.200 F 
ATOM     73  F   UNL A   1      42.051  24.118  36.590  1.00  0.00    -0.200 F 
ENDBRANCH  49  63
BRANCH  50  74
ATOM     74  C   UNL A   1      43.158  24.922  26.293  1.00  0.00     0.064 A 
ATOM     75  C   UNL A   1      44.115  24.795  25.277  1.00  0.00     0.173 A 
ATOM     76  C   UNL A   1      42.456  23.757  26.655  1.00  0.00     0.173 A 
ATOM     77  F   UNL A   1      44.844  25.856  24.901  1.00  0.00    -0.203 F 
ATOM     78  C   UNL A   1      44.381  23.560  24.678  1.00  0.00     0.198 A 
ATOM     79  C   UNL A   1      42.721  22.526  26.056  1.00  0.00     0.198 A 
ATOM     80  F   UNL A   1      41.571  23.779  27.663  1.00  0.00    -0.203 F 
ATOM     81  F   UNL A   1      45.346  23.461  23.754  1.00  0.00    -0.200 F 
ATOM     82  C   UNL A   1      43.694  22.425  25.078  1.00  0.00     0.200 A 
ATOM     83  F   UNL A   1      42.076  21.429  26.477  1.00  0.00    -0.200 F 
ATOM     84  F   UNL A   1      43.999  21.230  24.554  1.00  0.00    -0.200 F 
ENDBRANCH  50  74
BRANCH  62  85
ATOM     85  C   UNL A   1      45.283  30.244  28.773  1.00  0.00     0.064 A 
ATOM     86  C   UNL A   1      44.310  30.901  28.002  1.00  0.00     0.173 A 
ATOM     87  C   UNL A   1      46.618  30.621  28.588  1.00  0.00     0.173 A 
ATOM     88  F   UNL A   1      43.008  30.657  28.182  1.00  0.00    -0.203 F 
ATOM     89  C   UNL A   1      44.667  31.857  27.053  1.00  0.00     0.198 A 
ATOM     90  C   UNL A   1      46.970  31.602  27.667  1.00  0.00     0.198 A 
ATOM     91  F   UNL A   1      47.584  30.059  29.334  1.00  0.00    -0.203 F 
ATOM     92  F   UNL A   1      43.722  32.454  26.313  1.00  0.00    -0.200 F 
ATOM     93  C   UNL A   1      45.996  32.211  26.891  1.00  0.00     0.200 A 
ATOM     94  F   UNL A   1      48.252  31.972  27.547  1.00  0.00    -0.200 F 
ATOM     95  F   UNL A   1      46.338  33.153  26.002  1.00  0.00    -0.200 F 
ENDBRANCH  62  85
ENDBRANCH  36  37
ENDBRANCH  28  31
ENDBRANCH  26  27
ENDBRANCH  25  26
ENDBRANCH   1  25
TORSDOF 13
ENDMDL
MODEL 3
REMARK VINA RESULT:     -13.3      2.226      3.849
REMARK SMILES CCc1ccc(C(=O)N2Cc3nc[nH]c3C[C@@H]2C(=O)NCCCNC(=O)c2ccc(-c3c4nc(c(-c5c(F)c(F)c(F)c(F)c5F)c5ccc([nH]5)c(-c5c(F)c(F)c(F)c(F)c5F)c5nc(c(-c6c(F)c(F)c(F)c(F)c6F)c6ccc3[nH]6)C=C5)C=C4)cc2)o1
REMARK SMILES IDX 21 1 20 2 18 3 19 4 17 6 9 7 10 8 11 9 16 10 12 11 15 12
REMARK SMILES IDX 13 13 14 14 7 16 8 17 6 18 3 19 4 20 90 21 5 22 2 23 1 24
REMARK SMILES IDX 22 25 23 26 24 27 25 28 26 30 27 31 28 32 89 33 29 34 88 35
REMARK SMILES IDX 30 36 31 37 32 38 82 39 33 40 87 41 81 42 83 43 34 44 86 45
REMARK SMILES IDX 80 46 79 47 35 49 67 50 47 51 66 52 48 53 51 54 65 55 84 56
REMARK SMILES IDX 49 57 50 58 64 60 85 61 52 62 36 63 37 64 45 65 38 66 39 67
REMARK SMILES IDX 43 68 46 69 40 70 41 71 44 72 42 73 68 74 69 75 77 76 70 77
REMARK SMILES IDX 71 78 75 79 78 80 72 81 73 82 76 83 74 84 53 85 54 86 62 87
REMARK SMILES IDX 55 88 56 89 60 90 63 91 57 92 58 93 61 94 59 95
REMARK H PARENT 20 5 14 15 24 29 83 48 51 59
REMARK Flexibility Score: inf
ROOT
ATOM      1  C   UNL A   1      36.801  21.680  25.333  1.00  0.00     0.117 C 
ENDROOT
BRANCH   1   2
ATOM      2  N   UNL A   1      35.865  21.867  26.434  1.00  0.00    -0.354 N 
ATOM      3  C   UNL A   1      34.541  21.507  26.512  1.00  0.00     0.243 C 
ATOM      4  O   UNL A   1      34.030  21.481  27.628  1.00  0.00    -0.273 OA
ATOM      5  H   UNL A   1      36.232  22.312  27.232  1.00  0.00     0.163 HD
BRANCH   3   6
ATOM      6  C   UNL A   1      33.814  21.067  25.228  1.00  0.00     0.181 C 
ATOM      7  N   UNL A   1      33.012  22.028  24.408  1.00  0.00    -0.318 N 
ATOM      8  C   UNL A   1      32.485  21.517  23.114  1.00  0.00     0.179 C 
ATOM      9  C   UNL A   1      32.326  20.028  23.141  1.00  0.00     0.081 A 
ATOM     10  C   UNL A   1      33.004  19.777  25.552  1.00  0.00     0.091 C 
ATOM     11  N   UNL A   1      32.065  19.236  22.054  1.00  0.00    -0.240 NA
ATOM     12  C   UNL A   1      32.559  19.244  24.247  1.00  0.00     0.042 A 
ATOM     13  C   UNL A   1      32.111  18.000  22.506  1.00  0.00     0.197 A 
ATOM     14  N   UNL A   1      32.412  17.953  23.844  1.00  0.00    -0.348 N 
ATOM     15  H   UNL A   1      32.503  17.146  24.400  1.00  0.00     0.167 HD
BRANCH   7  16
ATOM     16  C   UNL A   1      32.232  23.007  25.030  1.00  0.00     0.290 C 
ATOM     17  O   UNL A   1      31.110  22.744  25.461  1.00  0.00    -0.265 OA
BRANCH  16  18
ATOM     18  C   UNL A   1      32.786  24.352  24.955  1.00  0.00     0.191 A 
ATOM     19  C   UNL A   1      33.317  26.250  23.957  1.00  0.00     0.104 A 
ATOM     20  C   UNL A   1      33.744  26.369  25.261  1.00  0.00     0.046 A 
ATOM     21  O   UNL A   1      32.749  25.026  23.758  1.00  0.00    -0.456 OA
ATOM     22  C   UNL A   1      33.425  25.146  25.895  1.00  0.00     0.056 A 
BRANCH  19  23
ATOM     23  C   UNL A   1      33.400  27.164  22.787  1.00  0.00     0.072 C 
ATOM     24  C   UNL A   1      34.007  28.514  23.129  1.00  0.00     0.012 C 
ENDBRANCH  19  23
ENDBRANCH  16  18
ENDBRANCH   7  16
ENDBRANCH   3   6
ENDBRANCH   1   2
BRANCH   1  25
ATOM     25  C   UNL A   1      38.039  22.568  25.397  1.00  0.00     0.042 C 
BRANCH  25  26
ATOM     26  C   UNL A   1      39.046  22.137  26.446  1.00  0.00     0.118 C 
BRANCH  26  27
ATOM     27  N   UNL A   1      40.403  21.935  25.933  1.00  0.00    -0.352 N 
ATOM     28  C   UNL A   1      41.457  22.844  25.949  1.00  0.00     0.251 C 
ATOM     29  H   UNL A   1      40.590  21.058  25.529  1.00  0.00     0.163 HD
ATOM     30  O   UNL A   1      42.434  22.703  25.249  1.00  0.00    -0.269 OA
BRANCH  28  31
ATOM     31  C   UNL A   1      41.333  24.000  26.859  1.00  0.00     0.039 A 
ATOM     32  C   UNL A   1      42.091  24.106  28.027  1.00  0.00     0.014 A 
ATOM     33  C   UNL A   1      40.520  25.040  26.432  1.00  0.00     0.014 A 
ATOM     34  C   UNL A   1      42.105  25.325  28.706  1.00  0.00     0.010 A 
ATOM     35  C   UNL A   1      40.697  26.282  26.977  1.00  0.00     0.010 A 
ATOM     36  C   UNL A   1      41.426  26.421  28.154  1.00  0.00    -0.014 A 
BRANCH  36  37
ATOM     37  C   UNL A   1      41.504  27.757  28.739  1.00  0.00     0.031 A 
ATOM     38  C   UNL A   1      42.657  28.591  28.305  1.00  0.00     0.074 A 
ATOM     39  C   UNL A   1      40.456  28.292  29.406  1.00  0.00     0.049 A 
ATOM     40  N   UNL A   1      43.617  29.060  29.033  1.00  0.00    -0.248 NA
ATOM     41  C   UNL A   1      42.816  28.872  26.869  1.00  0.00     0.031 C 
ATOM     42  C   UNL A   1      39.127  27.693  29.615  1.00  0.00     0.029 A 
ATOM     43  N   UNL A   1      40.306  29.540  29.929  1.00  0.00    -0.354 N 
ATOM     44  C   UNL A   1      44.398  29.851  28.189  1.00  0.00     0.074 A 
ATOM     45  C   UNL A   1      43.962  29.555  26.851  1.00  0.00     0.031 C 
ATOM     46  C   UNL A   1      38.251  28.647  29.990  1.00  0.00     0.029 A 
ATOM     47  C   UNL A   1      38.994  29.863  30.249  1.00  0.00     0.049 A 
ATOM     48  H   UNL A   1      41.059  30.158  30.067  1.00  0.00     0.167 HD
ATOM     49  C   UNL A   1      45.156  30.868  28.693  1.00  0.00     0.037 A 
ATOM     50  C   UNL A   1      38.531  31.044  30.714  1.00  0.00     0.037 A 
ATOM     51  C   UNL A   1      45.228  30.774  30.129  1.00  0.00     0.049 A 
ATOM     52  C   UNL A   1      39.678  31.771  31.296  1.00  0.00     0.074 A 
ATOM     53  C   UNL A   1      45.859  29.970  31.051  1.00  0.00     0.029 A 
ATOM     54  N   UNL A   1      44.227  31.441  30.787  1.00  0.00    -0.354 N 
ATOM     55  N   UNL A   1      40.310  31.375  32.365  1.00  0.00    -0.248 NA
ATOM     56  C   UNL A   1      40.374  32.765  30.490  1.00  0.00     0.031 C 
ATOM     57  C   UNL A   1      45.032  29.989  32.215  1.00  0.00     0.029 A 
ATOM     58  C   UNL A   1      43.942  30.827  31.975  1.00  0.00     0.049 A 
ATOM     59  H   UNL A   1      43.777  32.249  30.451  1.00  0.00     0.167 HD
ATOM     60  C   UNL A   1      41.627  31.730  32.134  1.00  0.00     0.074 A 
ATOM     61  C   UNL A   1      41.571  32.734  31.080  1.00  0.00     0.031 C 
ATOM     62  C   UNL A   1      42.643  30.947  32.597  1.00  0.00     0.037 A 
BRANCH  49  63
ATOM     63  C   UNL A   1      45.444  32.198  28.012  1.00  0.00     0.064 A 
ATOM     64  C   UNL A   1      44.350  33.025  27.658  1.00  0.00     0.173 A 
ATOM     65  C   UNL A   1      46.668  32.534  27.399  1.00  0.00     0.173 A 
ATOM     66  F   UNL A   1      43.134  32.815  28.185  1.00  0.00    -0.203 F 
ATOM     67  C   UNL A   1      44.453  34.023  26.684  1.00  0.00     0.198 A 
ATOM     68  C   UNL A   1      46.778  33.566  26.463  1.00  0.00     0.198 A 
ATOM     69  F   UNL A   1      47.783  31.823  27.587  1.00  0.00    -0.203 F 
ATOM     70  F   UNL A   1      43.356  34.681  26.284  1.00  0.00    -0.200 F 
ATOM     71  C   UNL A   1      45.665  34.282  26.076  1.00  0.00     0.200 A 
ATOM     72  F   UNL A   1      47.961  33.797  25.877  1.00  0.00    -0.200 F 
ATOM     73  F   UNL A   1      45.756  35.186  25.091  1.00  0.00    -0.200 F 
ENDBRANCH  49  63
BRANCH  50  74
ATOM     74  C   UNL A   1      37.195  31.645  30.546  1.00  0.00     0.064 A 
ATOM     75  C   UNL A   1      36.268  31.673  31.597  1.00  0.00     0.173 A 
ATOM     76  C   UNL A   1      36.906  32.441  29.422  1.00  0.00     0.173 A 
ATOM     77  F   UNL A   1      36.493  30.964  32.713  1.00  0.00    -0.203 F 
ATOM     78  C   UNL A   1      35.129  32.482  31.542  1.00  0.00     0.198 A 
ATOM     79  C   UNL A   1      35.769  33.246  29.367  1.00  0.00     0.198 A 
ATOM     80  F   UNL A   1      37.774  32.522  28.402  1.00  0.00    -0.203 F 
ATOM     81  F   UNL A   1      34.296  32.533  32.590  1.00  0.00    -0.200 F 
ATOM     82  C   UNL A   1      34.888  33.278  30.433  1.00  0.00     0.200 A 
ATOM     83  F   UNL A   1      35.567  34.040  28.306  1.00  0.00    -0.200 F 
ATOM     84  F   UNL A   1      33.835  34.106  30.411  1.00  0.00    -0.200 F 
ENDBRANCH  50  74
BRANCH  62  85
ATOM     85  C   UNL A   1      42.318  30.007  33.718  1.00  0.00     0.064 A 
ATOM     86  C   UNL A   1      41.894  28.680  33.542  1.00  0.00     0.173 A 
ATOM     87  C   UNL A   1      42.520  30.454  35.029  1.00  0.00     0.173 A 
ATOM     88  F   UNL A   1      41.762  28.155  32.319  1.00  0.00    -0.203 F 
ATOM     89  C   UNL A   1      41.637  27.855  34.635  1.00  0.00     0.198 A 
ATOM     90  C   UNL A   1      42.298  29.618  36.118  1.00  0.00     0.198 A 
ATOM     91  F   UNL A   1      42.972  31.699  35.251  1.00  0.00    -0.203 F 
ATOM     92  F   UNL A   1      41.211  26.598  34.443  1.00  0.00    -0.200 F 
ATOM     93  C   UNL A   1      41.845  28.323  35.922  1.00  0.00     0.200 A 
ATOM     94  F   UNL A   1      42.544  30.061  37.358  1.00  0.00    -0.200 F 
ATOM     95  F   UNL A   1      41.628  27.520  36.972  1.00  0.00    -0.200 F 
ENDBRANCH  62  85
ENDBRANCH  36  37
ENDBRANCH  28  31
ENDBRANCH  26  27
ENDBRANCH  25  26
ENDBRANCH   1  25
TORSDOF 13
ENDMDL
