MODEL 1
REMARK VINA RESULT:     -12.2      0.000      0.000
REMARK SMILES C[NH2+][C@]1(C(=O)NCCCNC(=O)c2ccc(-c3c4nc(c(-c5c(F)c(F)c(F)c(F)c5F)c5ccc([nH]5)c(-c5c(F)c(F)c(F)c(F)c5F)c5nc(c(-c6c(F)c(F)c(F)c(F)c6F)c6ccc3[nH]6)C=C5)C=C4)cc2)CCC[C@@H]([N@@H+](C)CC(C)C)C1
REMARK SMILES IDX 7 1 6 2 4 3 5 4 3 6 76 7 86 8 77 9 79 10 78 11 2 12 1 13
REMARK SMILES IDX 80 16 81 17 82 19 83 20 84 21 85 22 8 23 9 24 10 25 11 26
REMARK SMILES IDX 12 28 13 29 14 30 75 31 15 32 74 33 16 34 17 35 18 36 68 37
REMARK SMILES IDX 19 38 73 39 67 40 69 41 20 42 72 43 66 44 65 45 21 47 53 48
REMARK SMILES IDX 33 49 52 50 34 51 37 52 51 53 70 54 35 55 36 56 50 58 71 59
REMARK SMILES IDX 38 60 22 61 23 62 31 63 24 64 25 65 29 66 32 67 26 68 27 69
REMARK SMILES IDX 30 70 28 71 54 72 55 73 63 74 56 75 57 76 61 77 64 78 58 79
REMARK SMILES IDX 59 80 62 81 60 82 39 83 40 84 48 85 41 86 42 87 46 88 49 89
REMARK SMILES IDX 43 90 44 91 47 92 45 93
REMARK H PARENT 6 5 2 14 2 15 80 18 10 27 69 46 37 57
REMARK Flexibility Score: inf
ROOT
ATOM      1  C   UNL A   1      31.639  30.812  26.042  1.00  0.00     0.118 C 
ENDROOT
BRANCH   1   2
ATOM      2  N   UNL A   1      31.634  29.804  27.082  1.00  0.00    -0.351 N 
ATOM      3  C   UNL A   1      31.640  28.440  27.037  1.00  0.00     0.281 C 
ATOM      4  O   UNL A   1      31.605  27.893  28.150  1.00  0.00    -0.268 OA
ATOM      5  H   UNL A   1      31.624  30.173  27.995  1.00  0.00     0.163 HD
BRANCH   3   6
ATOM      6  C   UNL A   1      31.568  27.587  25.694  1.00  0.00     0.181 C 
ATOM      7  C   UNL A   1      30.806  26.304  26.072  1.00  0.00     0.079 C 
ATOM      8  C   UNL A   1      30.894  28.373  24.551  1.00  0.00     0.144 C 
ATOM      9  C   UNL A   1      30.456  25.381  24.920  1.00  0.00     0.013 C 
ATOM     10  C   UNL A   1      30.205  27.551  23.436  1.00  0.00     0.190 C 
ATOM     11  C   UNL A   1      29.925  26.051  23.658  1.00  0.00     0.065 C 
BRANCH   6  12
ATOM     12  N   UNL A   1      32.987  27.279  25.371  1.00  0.00    -0.336 N 
ATOM     13  C   UNL A   1      33.752  28.109  24.475  1.00  0.00     0.331 C 
ATOM     14  H   UNL A   1      33.489  27.274  26.259  1.00  0.00     0.346 HD
ATOM     15  H   UNL A   1      32.909  26.406  24.850  1.00  0.00     0.346 HD
ENDBRANCH   6  12
BRANCH  10  16
ATOM     16  N   UNL A   1      29.097  28.288  22.782  1.00  0.00    -0.335 N 
ATOM     17  C   UNL A   1      27.780  27.964  23.326  1.00  0.00     0.332 C 
ATOM     18  H   UNL A   1      29.206  27.886  21.852  1.00  0.00     0.348 HD
BRANCH  16  19
ATOM     19  C   UNL A   1      29.226  29.712  22.424  1.00  0.00     0.265 C 
BRANCH  19  20
ATOM     20  C   UNL A   1      27.976  30.623  22.275  1.00  0.00     0.038 C 
ATOM     21  C   UNL A   1      27.743  31.586  23.440  1.00  0.00     0.013 C 
ATOM     22  C   UNL A   1      28.099  31.478  21.004  1.00  0.00     0.013 C 
ENDBRANCH  19  20
ENDBRANCH  16  19
ENDBRANCH  10  16
ENDBRANCH   3   6
ENDBRANCH   1   2
BRANCH   1  23
ATOM     23  C   UNL A   1      31.415  32.223  26.556  1.00  0.00     0.042 C 
BRANCH  23  24
ATOM     24  C   UNL A   1      32.603  32.825  27.284  1.00  0.00     0.118 C 
BRANCH  24  25
ATOM     25  N   UNL A   1      32.388  34.214  27.668  1.00  0.00    -0.352 N 
ATOM     26  C   UNL A   1      32.993  34.982  28.633  1.00  0.00     0.251 C 
ATOM     27  H   UNL A   1      31.693  34.680  27.148  1.00  0.00     0.163 HD
ATOM     28  O   UNL A   1      32.526  36.089  28.904  1.00  0.00    -0.269 OA
BRANCH  26  29
ATOM     29  C   UNL A   1      34.175  34.489  29.375  1.00  0.00     0.039 A 
ATOM     30  C   UNL A   1      33.994  33.936  30.646  1.00  0.00     0.014 A 
ATOM     31  C   UNL A   1      35.461  34.582  28.842  1.00  0.00     0.014 A 
ATOM     32  C   UNL A   1      35.086  33.404  31.338  1.00  0.00     0.010 A 
ATOM     33  C   UNL A   1      36.528  33.954  29.479  1.00  0.00     0.010 A 
ATOM     34  C   UNL A   1      36.355  33.362  30.738  1.00  0.00    -0.014 A 
BRANCH  34  35
ATOM     35  C   UNL A   1      37.513  32.714  31.408  1.00  0.00     0.031 A 
ATOM     36  C   UNL A   1      38.229  31.568  30.744  1.00  0.00     0.074 A 
ATOM     37  C   UNL A   1      37.875  33.107  32.646  1.00  0.00     0.049 A 
ATOM     38  N   UNL A   1      39.199  30.817  31.204  1.00  0.00    -0.248 NA
ATOM     39  C   UNL A   1      37.773  31.193  29.396  1.00  0.00     0.031 C 
ATOM     40  C   UNL A   1      37.233  34.171  33.419  1.00  0.00     0.029 A 
ATOM     41  N   UNL A   1      38.867  32.648  33.478  1.00  0.00    -0.354 N 
ATOM     42  C   UNL A   1      39.454  29.878  30.213  1.00  0.00     0.074 A 
ATOM     43  C   UNL A   1      38.499  30.112  29.152  1.00  0.00     0.031 C 
ATOM     44  C   UNL A   1      37.860  34.302  34.597  1.00  0.00     0.029 A 
ATOM     45  C   UNL A   1      38.919  33.302  34.687  1.00  0.00     0.049 A 
ATOM     46  H   UNL A   1      39.483  31.920  33.233  1.00  0.00     0.167 HD
ATOM     47  C   UNL A   1      40.414  28.924  30.178  1.00  0.00     0.037 A 
ATOM     48  C   UNL A   1      39.721  33.107  35.751  1.00  0.00     0.037 A 
ATOM     49  C   UNL A   1      41.381  28.711  31.223  1.00  0.00     0.049 A 
ATOM     50  C   UNL A   1      40.772  32.030  35.690  1.00  0.00     0.074 A 
ATOM     51  C   UNL A   1      42.432  27.811  31.255  1.00  0.00     0.029 A 
ATOM     52  N   UNL A   1      41.413  29.405  32.423  1.00  0.00    -0.354 N 
ATOM     53  N   UNL A   1      41.050  31.197  34.717  1.00  0.00    -0.248 NA
ATOM     54  C   UNL A   1      41.627  31.872  36.876  1.00  0.00     0.031 C 
ATOM     55  C   UNL A   1      43.064  27.921  32.498  1.00  0.00     0.029 A 
ATOM     56  C   UNL A   1      42.448  28.936  33.214  1.00  0.00     0.049 A 
ATOM     57  H   UNL A   1      40.790  30.126  32.676  1.00  0.00     0.167 HD
ATOM     58  C   UNL A   1      42.129  30.442  35.157  1.00  0.00     0.074 A 
ATOM     59  C   UNL A   1      42.465  30.926  36.479  1.00  0.00     0.031 C 
ATOM     60  C   UNL A   1      42.782  29.438  34.523  1.00  0.00     0.037 A 
BRANCH  47  61
ATOM     61  C   UNL A   1      40.475  28.036  28.967  1.00  0.00     0.064 A 
ATOM     62  C   UNL A   1      39.750  26.836  28.896  1.00  0.00     0.173 A 
ATOM     63  C   UNL A   1      41.226  28.413  27.844  1.00  0.00     0.173 A 
ATOM     64  F   UNL A   1      39.023  26.422  29.945  1.00  0.00    -0.203 F 
ATOM     65  C   UNL A   1      39.800  26.034  27.758  1.00  0.00     0.198 A 
ATOM     66  C   UNL A   1      41.245  27.627  26.695  1.00  0.00     0.198 A 
ATOM     67  F   UNL A   1      41.933  29.554  27.855  1.00  0.00    -0.203 F 
ATOM     68  F   UNL A   1      39.139  24.868  27.733  1.00  0.00    -0.200 F 
ATOM     69  C   UNL A   1      40.539  26.435  26.656  1.00  0.00     0.200 A 
ATOM     70  F   UNL A   1      41.949  28.023  25.625  1.00  0.00    -0.200 F 
ATOM     71  F   UNL A   1      40.575  25.669  25.557  1.00  0.00    -0.200 F 
ENDBRANCH  47  61
BRANCH  48  72
ATOM     72  C   UNL A   1      39.577  33.959  36.962  1.00  0.00     0.064 A 
ATOM     73  C   UNL A   1      38.814  33.530  38.059  1.00  0.00     0.173 A 
ATOM     74  C   UNL A   1      40.177  35.224  37.043  1.00  0.00     0.173 A 
ATOM     75  F   UNL A   1      38.204  32.337  38.023  1.00  0.00    -0.203 F 
ATOM     76  C   UNL A   1      38.634  34.345  39.174  1.00  0.00     0.198 A 
ATOM     77  C   UNL A   1      40.024  36.024  38.173  1.00  0.00     0.198 A 
ATOM     78  F   UNL A   1      40.923  35.681  36.025  1.00  0.00    -0.203 F 
ATOM     79  F   UNL A   1      37.853  33.933  40.183  1.00  0.00    -0.200 F 
ATOM     80  C   UNL A   1      39.243  35.589  39.233  1.00  0.00     0.200 A 
ATOM     81  F   UNL A   1      40.629  37.218  38.233  1.00  0.00    -0.200 F 
ATOM     82  F   UNL A   1      39.070  36.372  40.307  1.00  0.00    -0.200 F 
ENDBRANCH  48  72
BRANCH  60  83
ATOM     83  C   UNL A   1      43.960  28.825  35.226  1.00  0.00     0.064 A 
ATOM     84  C   UNL A   1      45.263  29.310  35.048  1.00  0.00     0.173 A 
ATOM     85  C   UNL A   1      43.772  27.762  36.124  1.00  0.00     0.173 A 
ATOM     86  F   UNL A   1      45.499  30.315  34.191  1.00  0.00    -0.203 F 
ATOM     87  C   UNL A   1      46.339  28.734  35.720  1.00  0.00     0.198 A 
ATOM     88  C   UNL A   1      44.844  27.214  36.821  1.00  0.00     0.198 A 
ATOM     89  F   UNL A   1      42.544  27.266  36.338  1.00  0.00    -0.203 F 
ATOM     90  F   UNL A   1      47.583  29.179  35.494  1.00  0.00    -0.200 F 
ATOM     91  C   UNL A   1      46.127  27.694  36.612  1.00  0.00     0.200 A 
ATOM     92  F   UNL A   1      44.634  26.219  37.696  1.00  0.00    -0.200 F 
ATOM     93  F   UNL A   1      47.162  27.148  37.266  1.00  0.00    -0.200 F 
ENDBRANCH  60  83
ENDBRANCH  34  35
ENDBRANCH  26  29
ENDBRANCH  24  25
ENDBRANCH  23  24
ENDBRANCH   1  23
TORSDOF 14
ENDMDL
MODEL 2
REMARK VINA RESULT:     -12.0      1.015      7.508
REMARK SMILES C[NH2+][C@]1(C(=O)NCCCNC(=O)c2ccc(-c3c4nc(c(-c5c(F)c(F)c(F)c(F)c5F)c5ccc([nH]5)c(-c5c(F)c(F)c(F)c(F)c5F)c5nc(c(-c6c(F)c(F)c(F)c(F)c6F)c6ccc3[nH]6)C=C5)C=C4)cc2)CCC[C@@H]([N@@H+](C)CC(C)C)C1
REMARK SMILES IDX 7 1 6 2 4 3 5 4 3 6 76 7 86 8 77 9 79 10 78 11 2 12 1 13
REMARK SMILES IDX 80 16 81 17 82 19 83 20 84 21 85 22 8 23 9 24 10 25 11 26
REMARK SMILES IDX 12 28 13 29 14 30 75 31 15 32 74 33 16 34 17 35 18 36 68 37
REMARK SMILES IDX 19 38 73 39 67 40 69 41 20 42 72 43 66 44 65 45 21 47 53 48
REMARK SMILES IDX 33 49 52 50 34 51 37 52 51 53 70 54 35 55 36 56 50 58 71 59
REMARK SMILES IDX 38 60 22 61 23 62 31 63 24 64 25 65 29 66 32 67 26 68 27 69
REMARK SMILES IDX 30 70 28 71 54 72 55 73 63 74 56 75 57 76 61 77 64 78 58 79
REMARK SMILES IDX 59 80 62 81 60 82 39 83 40 84 48 85 41 86 42 87 46 88 49 89
REMARK SMILES IDX 43 90 44 91 47 92 45 93
REMARK H PARENT 6 5 2 14 2 15 80 18 10 27 69 46 37 57
REMARK Flexibility Score: inf
ROOT
ATOM      1  C   UNL A   1      31.325  30.792  26.366  1.00  0.00     0.118 C 
ENDROOT
BRANCH   1   2
ATOM      2  N   UNL A   1      32.634  30.178  26.279  1.00  0.00    -0.351 N 
ATOM      3  C   UNL A   1      33.107  29.127  25.550  1.00  0.00     0.281 C 
ATOM      4  O   UNL A   1      34.301  28.860  25.754  1.00  0.00    -0.268 OA
ATOM      5  H   UNL A   1      33.312  30.599  26.858  1.00  0.00     0.163 HD
BRANCH   3   6
ATOM      6  C   UNL A   1      32.206  28.215  24.602  1.00  0.00     0.181 C 
ATOM      7  C   UNL A   1      31.422  27.296  25.556  1.00  0.00     0.079 C 
ATOM      8  C   UNL A   1      31.293  29.062  23.693  1.00  0.00     0.144 C 
ATOM      9  C   UNL A   1      30.358  26.430  24.909  1.00  0.00     0.013 C 
ATOM     10  C   UNL A   1      29.983  28.405  23.196  1.00  0.00     0.190 C 
ATOM     11  C   UNL A   1      29.481  27.109  23.863  1.00  0.00     0.065 C 
BRANCH   6  12
ATOM     12  N   UNL A   1      33.183  27.430  23.801  1.00  0.00    -0.336 N 
ATOM     13  C   UNL A   1      33.252  27.553  22.367  1.00  0.00     0.331 C 
ATOM     14  H   UNL A   1      34.109  27.675  24.156  1.00  0.00     0.346 HD
ATOM     15  H   UNL A   1      32.850  26.474  23.925  1.00  0.00     0.346 HD
ENDBRANCH   6  12
BRANCH  10  16
ATOM     16  N   UNL A   1      28.919  29.395  22.908  1.00  0.00    -0.335 N 
ATOM     17  C   UNL A   1      27.570  28.838  22.978  1.00  0.00     0.332 C 
ATOM     18  H   UNL A   1      29.175  29.583  21.940  1.00  0.00     0.348 HD
BRANCH  16  19
ATOM     19  C   UNL A   1      28.989  30.773  23.426  1.00  0.00     0.265 C 
BRANCH  19  20
ATOM     20  C   UNL A   1      28.293  31.950  22.687  1.00  0.00     0.038 C 
ATOM     21  C   UNL A   1      28.857  33.333  23.011  1.00  0.00     0.013 C 
ATOM     22  C   UNL A   1      28.416  31.760  21.167  1.00  0.00     0.013 C 
ENDBRANCH  19  20
ENDBRANCH  16  19
ENDBRANCH  10  16
ENDBRANCH   3   6
ENDBRANCH   1   2
BRANCH   1  23
ATOM     23  C   UNL A   1      31.367  32.304  26.505  1.00  0.00     0.042 C 
BRANCH  23  24
ATOM     24  C   UNL A   1      32.639  32.845  27.132  1.00  0.00     0.118 C 
BRANCH  24  25
ATOM     25  N   UNL A   1      32.483  34.198  27.652  1.00  0.00    -0.352 N 
ATOM     26  C   UNL A   1      33.116  34.838  28.689  1.00  0.00     0.251 C 
ATOM     27  H   UNL A   1      31.813  34.743  27.180  1.00  0.00     0.163 HD
ATOM     28  O   UNL A   1      32.698  35.933  29.068  1.00  0.00    -0.269 OA
BRANCH  26  29
ATOM     29  C   UNL A   1      34.271  34.222  29.380  1.00  0.00     0.039 A 
ATOM     30  C   UNL A   1      34.035  33.354  30.450  1.00  0.00     0.014 A 
ATOM     31  C   UNL A   1      35.583  34.502  28.998  1.00  0.00     0.014 A 
ATOM     32  C   UNL A   1      35.106  32.709  31.075  1.00  0.00     0.010 A 
ATOM     33  C   UNL A   1      36.639  33.778  29.544  1.00  0.00     0.010 A 
ATOM     34  C   UNL A   1      36.415  32.876  30.594  1.00  0.00    -0.014 A 
BRANCH  34  35
ATOM     35  C   UNL A   1      37.561  32.127  31.174  1.00  0.00     0.031 A 
ATOM     36  C   UNL A   1      38.074  32.472  32.547  1.00  0.00     0.074 A 
ATOM     37  C   UNL A   1      38.188  31.188  30.438  1.00  0.00     0.049 A 
ATOM     38  N   UNL A   1      39.113  31.997  33.189  1.00  0.00    -0.248 NA
ATOM     39  C   UNL A   1      37.341  33.511  33.288  1.00  0.00     0.031 C 
ATOM     40  C   UNL A   1      37.821  30.795  29.076  1.00  0.00     0.029 A 
ATOM     41  N   UNL A   1      39.274  30.400  30.728  1.00  0.00    -0.354 N 
ATOM     42  C   UNL A   1      39.165  32.689  34.391  1.00  0.00     0.074 A 
ATOM     43  C   UNL A   1      38.092  33.658  34.369  1.00  0.00     0.031 C 
ATOM     44  C   UNL A   1      38.648  29.825  28.659  1.00  0.00     0.029 A 
ATOM     45  C   UNL A   1      39.633  29.557  29.702  1.00  0.00     0.049 A 
ATOM     46  H   UNL A   1      39.751  30.433  31.588  1.00  0.00     0.167 HD
ATOM     47  C   UNL A   1      40.014  32.514  35.432  1.00  0.00     0.037 A 
ATOM     48  C   UNL A   1      40.650  28.679  29.608  1.00  0.00     0.037 A 
ATOM     49  C   UNL A   1      41.064  31.530  35.463  1.00  0.00     0.049 A 
ATOM     50  C   UNL A   1      41.587  28.515  30.775  1.00  0.00     0.074 A 
ATOM     51  C   UNL A   1      41.938  31.233  36.494  1.00  0.00     0.029 A 
ATOM     52  N   UNL A   1      41.384  30.684  34.412  1.00  0.00    -0.354 N 
ATOM     53  N   UNL A   1      41.581  29.125  31.935  1.00  0.00    -0.248 NA
ATOM     54  C   UNL A   1      42.670  27.533  30.621  1.00  0.00     0.031 C 
ATOM     55  C   UNL A   1      42.823  30.248  36.047  1.00  0.00     0.029 A 
ATOM     56  C   UNL A   1      42.460  29.883  34.760  1.00  0.00     0.049 A 
ATOM     57  H   UNL A   1      40.916  30.657  33.545  1.00  0.00     0.167 HD
ATOM     58  C   UNL A   1      42.632  28.578  32.660  1.00  0.00     0.074 A 
ATOM     59  C   UNL A   1      43.245  27.576  31.813  1.00  0.00     0.031 C 
ATOM     60  C   UNL A   1      43.051  28.879  33.913  1.00  0.00     0.037 A 
BRANCH  47  61
ATOM     61  C   UNL A   1      39.843  33.404  36.632  1.00  0.00     0.064 A 
ATOM     62  C   UNL A   1      40.545  34.612  36.759  1.00  0.00     0.173 A 
ATOM     63  C   UNL A   1      38.930  33.068  37.642  1.00  0.00     0.173 A 
ATOM     64  F   UNL A   1      41.438  34.977  35.827  1.00  0.00    -0.203 F 
ATOM     65  C   UNL A   1      40.359  35.436  37.867  1.00  0.00     0.198 A 
ATOM     66  C   UNL A   1      38.721  33.911  38.730  1.00  0.00     0.198 A 
ATOM     67  F   UNL A   1      38.227  31.927  37.568  1.00  0.00    -0.203 F 
ATOM     68  F   UNL A   1      41.078  36.561  37.990  1.00  0.00    -0.200 F 
ATOM     69  C   UNL A   1      39.441  35.090  38.846  1.00  0.00     0.200 A 
ATOM     70  F   UNL A   1      37.822  33.582  39.669  1.00  0.00    -0.200 F 
ATOM     71  F   UNL A   1      39.254  35.890  39.905  1.00  0.00    -0.200 F 
ENDBRANCH  47  61
BRANCH  48  72
ATOM     72  C   UNL A   1      40.830  27.873  28.370  1.00  0.00     0.064 A 
ATOM     73  C   UNL A   1      40.243  26.605  28.244  1.00  0.00     0.173 A 
ATOM     74  C   UNL A   1      41.605  28.340  27.298  1.00  0.00     0.173 A 
ATOM     75  F   UNL A   1      39.510  26.105  29.249  1.00  0.00    -0.203 F 
ATOM     76  C   UNL A   1      40.451  25.825  27.109  1.00  0.00     0.198 A 
ATOM     77  C   UNL A   1      41.783  27.573  26.149  1.00  0.00     0.198 A 
ATOM     78  F   UNL A   1      42.183  29.549  27.363  1.00  0.00    -0.203 F 
ATOM     79  F   UNL A   1      39.926  24.593  27.040  1.00  0.00    -0.200 F 
ATOM     80  C   UNL A   1      41.215  26.310  26.060  1.00  0.00     0.200 A 
ATOM     81  F   UNL A   1      42.509  28.054  25.131  1.00  0.00    -0.200 F 
ATOM     82  F   UNL A   1      41.413  25.560  24.967  1.00  0.00    -0.200 F 
ENDBRANCH  48  72
BRANCH  60  83
ATOM     83  C   UNL A   1      44.198  28.083  34.469  1.00  0.00     0.064 A 
ATOM     84  C   UNL A   1      45.524  28.527  34.367  1.00  0.00     0.173 A 
ATOM     85  C   UNL A   1      43.959  26.879  35.148  1.00  0.00     0.173 A 
ATOM     86  F   UNL A   1      45.809  29.664  33.715  1.00  0.00    -0.203 F 
ATOM     87  C   UNL A   1      46.572  27.779  34.901  1.00  0.00     0.198 A 
ATOM     88  C   UNL A   1      45.004  26.153  35.711  1.00  0.00     0.198 A 
ATOM     89  F   UNL A   1      42.708  26.414  35.282  1.00  0.00    -0.203 F 
ATOM     90  F   UNL A   1      47.836  28.195  34.745  1.00  0.00    -0.200 F 
ATOM     91  C   UNL A   1      46.310  26.599  35.579  1.00  0.00     0.200 A 
ATOM     92  F   UNL A   1      44.747  25.021  36.382  1.00  0.00    -0.200 F 
ATOM     93  F   UNL A   1      47.318  25.886  36.101  1.00  0.00    -0.200 F 
ENDBRANCH  60  83
ENDBRANCH  34  35
ENDBRANCH  26  29
ENDBRANCH  24  25
ENDBRANCH  23  24
ENDBRANCH   1  23
TORSDOF 14
ENDMDL
MODEL 3
REMARK VINA RESULT:     -12.0      0.505      2.054
REMARK SMILES C[NH2+][C@]1(C(=O)NCCCNC(=O)c2ccc(-c3c4nc(c(-c5c(F)c(F)c(F)c(F)c5F)c5ccc([nH]5)c(-c5c(F)c(F)c(F)c(F)c5F)c5nc(c(-c6c(F)c(F)c(F)c(F)c6F)c6ccc3[nH]6)C=C5)C=C4)cc2)CCC[C@@H]([N@@H+](C)CC(C)C)C1
REMARK SMILES IDX 7 1 6 2 4 3 5 4 3 6 76 7 86 8 77 9 79 10 78 11 2 12 1 13
REMARK SMILES IDX 80 16 81 17 82 19 83 20 84 21 85 22 8 23 9 24 10 25 11 26
REMARK SMILES IDX 12 28 13 29 14 30 75 31 15 32 74 33 16 34 17 35 18 36 68 37
REMARK SMILES IDX 19 38 73 39 67 40 69 41 20 42 72 43 66 44 65 45 21 47 53 48
REMARK SMILES IDX 33 49 52 50 34 51 37 52 51 53 70 54 35 55 36 56 50 58 71 59
REMARK SMILES IDX 38 60 22 61 23 62 31 63 24 64 25 65 29 66 32 67 26 68 27 69
REMARK SMILES IDX 30 70 28 71 54 72 55 73 63 74 56 75 57 76 61 77 64 78 58 79
REMARK SMILES IDX 59 80 62 81 60 82 39 83 40 84 48 85 41 86 42 87 46 88 49 89
REMARK SMILES IDX 43 90 44 91 47 92 45 93
REMARK H PARENT 6 5 2 14 2 15 80 18 10 27 69 46 37 57
REMARK Flexibility Score: inf
ROOT
ATOM      1  C   UNL A   1      31.542  31.000  25.951  1.00  0.00     0.118 C 
ENDROOT
BRANCH   1   2
ATOM      2  N   UNL A   1      32.097  29.865  26.658  1.00  0.00    -0.351 N 
ATOM      3  C   UNL A   1      32.183  28.541  26.342  1.00  0.00     0.281 C 
ATOM      4  O   UNL A   1      32.710  27.840  27.220  1.00  0.00    -0.268 OA
ATOM      5  H   UNL A   1      32.484  30.091  27.535  1.00  0.00     0.163 HD
BRANCH   3   6
ATOM      6  C   UNL A   1      31.559  27.890  25.028  1.00  0.00     0.181 C 
ATOM      7  C   UNL A   1      30.649  26.757  25.533  1.00  0.00     0.079 C 
ATOM      8  C   UNL A   1      30.809  28.932  24.174  1.00  0.00     0.144 C 
ATOM      9  C   UNL A   1      29.800  26.073  24.478  1.00  0.00     0.013 C 
ATOM     10  C   UNL A   1      29.677  28.412  23.256  1.00  0.00     0.190 C 
ATOM     11  C   UNL A   1      29.124  26.988  23.462  1.00  0.00     0.065 C 
BRANCH   6  12
ATOM     12  N   UNL A   1      32.729  27.336  24.295  1.00  0.00    -0.336 N 
ATOM     13  C   UNL A   1      33.879  28.149  23.988  1.00  0.00     0.331 C 
ATOM     14  H   UNL A   1      33.072  26.552  24.851  1.00  0.00     0.346 HD
ATOM     15  H   UNL A   1      32.340  27.147  23.371  1.00  0.00     0.346 HD
ENDBRANCH   6  12
BRANCH  10  16
ATOM     16  N   UNL A   1      28.639  29.437  22.992  1.00  0.00    -0.335 N 
ATOM     17  C   UNL A   1      27.274  28.922  23.085  1.00  0.00     0.332 C 
ATOM     18  H   UNL A   1      28.883  29.620  22.019  1.00  0.00     0.348 HD
BRANCH  16  19
ATOM     19  C   UNL A   1      28.762  30.810  23.512  1.00  0.00     0.265 C 
BRANCH  19  20
ATOM     20  C   UNL A   1      28.209  32.027  22.718  1.00  0.00     0.038 C 
ATOM     21  C   UNL A   1      28.906  33.355  23.014  1.00  0.00     0.013 C 
ATOM     22  C   UNL A   1      28.347  31.774  21.209  1.00  0.00     0.013 C 
ENDBRANCH  19  20
ENDBRANCH  16  19
ENDBRANCH  10  16
ENDBRANCH   3   6
ENDBRANCH   1   2
BRANCH   1  23
ATOM     23  C   UNL A   1      31.339  32.226  26.824  1.00  0.00     0.042 C 
BRANCH  23  24
ATOM     24  C   UNL A   1      32.618  32.950  27.203  1.00  0.00     0.118 C 
BRANCH  24  25
ATOM     25  N   UNL A   1      32.385  34.322  27.637  1.00  0.00    -0.352 N 
ATOM     26  C   UNL A   1      32.974  35.060  28.635  1.00  0.00     0.251 C 
ATOM     27  H   UNL A   1      31.689  34.800  27.129  1.00  0.00     0.163 HD
ATOM     28  O   UNL A   1      32.493  36.151  28.943  1.00  0.00    -0.269 OA
BRANCH  26  29
ATOM     29  C   UNL A   1      34.154  34.551  29.368  1.00  0.00     0.039 A 
ATOM     30  C   UNL A   1      33.975  33.999  30.640  1.00  0.00     0.014 A 
ATOM     31  C   UNL A   1      35.438  34.628  28.827  1.00  0.00     0.014 A 
ATOM     32  C   UNL A   1      35.065  33.452  31.324  1.00  0.00     0.010 A 
ATOM     33  C   UNL A   1      36.501  33.987  29.456  1.00  0.00     0.010 A 
ATOM     34  C   UNL A   1      36.330  33.396  30.716  1.00  0.00    -0.014 A 
BRANCH  34  35
ATOM     35  C   UNL A   1      37.484  32.733  31.377  1.00  0.00     0.031 A 
ATOM     36  C   UNL A   1      38.168  31.565  30.717  1.00  0.00     0.074 A 
ATOM     37  C   UNL A   1      37.871  33.132  32.606  1.00  0.00     0.049 A 
ATOM     38  N   UNL A   1      39.130  30.801  31.171  1.00  0.00    -0.248 NA
ATOM     39  C   UNL A   1      37.687  31.185  29.379  1.00  0.00     0.031 C 
ATOM     40  C   UNL A   1      37.260  34.217  33.375  1.00  0.00     0.029 A 
ATOM     41  N   UNL A   1      38.865  32.663  33.429  1.00  0.00    -0.354 N 
ATOM     42  C   UNL A   1      39.353  29.846  30.187  1.00  0.00     0.074 A 
ATOM     43  C   UNL A   1      38.389  30.088  29.138  1.00  0.00     0.031 C 
ATOM     44  C   UNL A   1      37.906  34.348  34.543  1.00  0.00     0.029 A 
ATOM     45  C   UNL A   1      38.946  33.328  34.629  1.00  0.00     0.049 A 
ATOM     46  H   UNL A   1      39.463  31.921  33.183  1.00  0.00     0.167 HD
ATOM     47  C   UNL A   1      40.295  28.874  30.150  1.00  0.00     0.037 A 
ATOM     48  C   UNL A   1      39.759  33.130  35.685  1.00  0.00     0.037 A 
ATOM     49  C   UNL A   1      41.271  28.653  31.185  1.00  0.00     0.049 A 
ATOM     50  C   UNL A   1      40.788  32.032  35.622  1.00  0.00     0.074 A 
ATOM     51  C   UNL A   1      42.305  27.734  31.213  1.00  0.00     0.029 A 
ATOM     52  N   UNL A   1      41.333  29.360  32.376  1.00  0.00    -0.354 N 
ATOM     53  N   UNL A   1      41.036  31.183  34.655  1.00  0.00    -0.248 NA
ATOM     54  C   UNL A   1      41.655  31.871  36.797  1.00  0.00     0.031 C 
ATOM     55  C   UNL A   1      42.956  27.845  32.445  1.00  0.00     0.029 A 
ATOM     56  C   UNL A   1      42.370  28.879  33.158  1.00  0.00     0.049 A 
ATOM     57  H   UNL A   1      40.728  30.095  32.629  1.00  0.00     0.167 HD
ATOM     58  C   UNL A   1      42.107  30.412  35.088  1.00  0.00     0.074 A 
ATOM     59  C   UNL A   1      42.470  30.905  36.400  1.00  0.00     0.031 C 
ATOM     60  C   UNL A   1      42.731  29.389  34.457  1.00  0.00     0.037 A 
BRANCH  47  61
ATOM     61  C   UNL A   1      40.321  27.971  28.948  1.00  0.00     0.064 A 
ATOM     62  C   UNL A   1      41.081  28.282  27.810  1.00  0.00     0.173 A 
ATOM     63  C   UNL A   1      39.618  26.757  28.954  1.00  0.00     0.173 A 
ATOM     64  F   UNL A   1      41.765  29.435  27.747  1.00  0.00    -0.203 F 
ATOM     65  C   UNL A   1      41.112  27.425  26.713  1.00  0.00     0.198 A 
ATOM     66  C   UNL A   1      39.679  25.887  27.869  1.00  0.00     0.198 A 
ATOM     67  F   UNL A   1      38.880  26.408  30.019  1.00  0.00    -0.203 F 
ATOM     68  F   UNL A   1      41.806  27.766  25.618  1.00  0.00    -0.200 F 
ATOM     69  C   UNL A   1      40.420  26.224  26.747  1.00  0.00     0.200 A 
ATOM     70  F   UNL A   1      39.021  24.720  27.910  1.00  0.00    -0.200 F 
ATOM     71  F   UNL A   1      40.462  25.394  25.695  1.00  0.00    -0.200 F 
ENDBRANCH  47  61
BRANCH  48  72
ATOM     72  C   UNL A   1      39.648  33.998  36.888  1.00  0.00     0.064 A 
ATOM     73  C   UNL A   1      40.343  35.214  36.967  1.00  0.00     0.173 A 
ATOM     74  C   UNL A   1      38.863  33.625  37.990  1.00  0.00     0.173 A 
ATOM     75  F   UNL A   1      41.122  35.606  35.949  1.00  0.00    -0.203 F 
ATOM     76  C   UNL A   1      40.282  36.005  38.112  1.00  0.00     0.198 A 
ATOM     77  C   UNL A   1      38.776  34.434  39.121  1.00  0.00     0.198 A 
ATOM     78  F   UNL A   1      38.172  32.475  37.965  1.00  0.00    -0.203 F 
ATOM     79  F   UNL A   1      41.003  37.133  38.182  1.00  0.00    -0.200 F 
ATOM     80  C   UNL A   1      39.495  35.618  39.186  1.00  0.00     0.200 A 
ATOM     81  F   UNL A   1      38.001  34.064  40.149  1.00  0.00    -0.200 F 
ATOM     82  F   UNL A   1      39.437  36.381  40.286  1.00  0.00    -0.200 F 
ENDBRANCH  48  72
BRANCH  60  83
ATOM     83  C   UNL A   1      43.906  28.761  35.151  1.00  0.00     0.064 A 
ATOM     84  C   UNL A   1      43.758  27.668  36.017  1.00  0.00     0.173 A 
ATOM     85  C   UNL A   1      45.205  29.238  34.914  1.00  0.00     0.173 A 
ATOM     86  F   UNL A   1      42.537  27.182  36.289  1.00  0.00    -0.203 F 
ATOM     87  C   UNL A   1      44.863  27.093  36.640  1.00  0.00     0.198 A 
ATOM     88  C   UNL A   1      46.310  28.638  35.510  1.00  0.00     0.198 A 
ATOM     89  F   UNL A   1      45.404  30.276  34.088  1.00  0.00    -0.203 F 
ATOM     90  F   UNL A   1      44.691  26.083  37.505  1.00  0.00    -0.200 F 
ATOM     91  C   UNL A   1      46.137  27.573  36.380  1.00  0.00     0.200 A 
ATOM     92  F   UNL A   1      47.543  29.093  35.244  1.00  0.00    -0.200 F 
ATOM     93  F   UNL A   1      47.200  27.013  36.973  1.00  0.00    -0.200 F 
ENDBRANCH  60  83
ENDBRANCH  34  35
ENDBRANCH  26  29
ENDBRANCH  24  25
ENDBRANCH  23  24
ENDBRANCH   1  23
TORSDOF 14
ENDMDL
