MODEL 1
REMARK VINA RESULT:     -12.8      0.000      0.000
REMARK SMILES O=C(/C=C/c1ccc(O)cc1)NC[C@@H]1CC[C@H](C(=O)NCCCNC(=O)c2ccc(-c3c4nc(c(-c5c(F)c(F)c(F)c(F)c5F)c5ccc([nH]5)c(-c5c(F)c(F)c(F)c(F)c5F)c5nc(c(-c6c(F)c(F)c(F)c(F)c6F)c6ccc3[nH]6)C=C5)C=C4)cc2)O1
REMARK SMILES IDX 18 1 19 2 20 3 17 5 14 6 15 7 90 8 16 9 13 10 12 11 1 12
REMARK SMILES IDX 2 13 3 15 4 16 5 17 6 18 11 19 7 20 10 21 8 22 9 23 21 25
REMARK SMILES IDX 22 26 23 27 24 28 25 29 26 31 27 32 28 33 89 34 29 35 88 36
REMARK SMILES IDX 30 37 31 38 32 39 82 40 33 41 87 42 81 43 83 44 34 45 86 46
REMARK SMILES IDX 80 47 79 48 35 50 67 51 47 52 66 53 48 54 51 55 65 56 84 57
REMARK SMILES IDX 49 58 50 59 64 61 85 62 52 63 36 64 37 65 45 66 38 67 39 68
REMARK SMILES IDX 43 69 46 70 40 71 41 72 44 73 42 74 68 75 69 76 77 77 70 78
REMARK SMILES IDX 71 79 75 80 78 81 72 82 73 83 76 84 74 85 53 86 54 87 62 88
REMARK SMILES IDX 55 89 56 90 60 91 63 92 57 93 58 94 61 95 59 96
REMARK H PARENT 20 4 12 14 9 24 24 30 83 49 51 60
REMARK Flexibility Score: inf
ROOT
ATOM      1  C   UNL A   1      31.605  24.277  26.675  1.00  0.00     0.249 C 
ATOM      2  O   UNL A   1      30.679  23.674  27.227  1.00  0.00    -0.272 OA
ATOM      3  N   UNL A   1      31.570  25.641  26.711  1.00  0.00    -0.354 N 
ATOM      4  H   UNL A   1      30.792  26.028  27.174  1.00  0.00     0.163 HD
ENDROOT
BRANCH   1   5
ATOM      5  C   UNL A   1      32.723  23.502  25.938  1.00  0.00     0.207 C 
ATOM      6  C   UNL A   1      33.204  23.021  23.695  1.00  0.00     0.138 C 
ATOM      7  C   UNL A   1      32.397  21.844  24.220  1.00  0.00     0.037 C 
ATOM      8  O   UNL A   1      33.111  24.060  24.685  1.00  0.00    -0.363 OA
ATOM      9  C   UNL A   1      32.411  22.029  25.721  1.00  0.00     0.045 C 
BRANCH   6  10
ATOM     10  C   UNL A   1      32.699  23.585  22.356  1.00  0.00     0.148 C 
BRANCH  10  11
ATOM     11  N   UNL A   1      31.943  24.806  22.486  1.00  0.00    -0.350 N 
ATOM     12  O   UNL A   1      33.471  26.145  21.417  1.00  0.00    -0.270 OA
ATOM     13  C   UNL A   1      32.389  25.996  21.972  1.00  0.00     0.244 C 
ATOM     14  H   UNL A   1      31.081  24.785  22.959  1.00  0.00     0.163 HD
BRANCH  13  15
ATOM     15  C   UNL A   1      31.461  27.150  22.091  1.00  0.00     0.072 C 
ATOM     16  C   UNL A   1      30.499  27.261  23.019  1.00  0.00     0.014 C 
BRANCH  16  17
ATOM     17  C   UNL A   1      29.635  28.432  23.188  1.00  0.00    -0.025 A 
ATOM     18  C   UNL A   1      30.127  29.714  23.460  1.00  0.00     0.012 A 
ATOM     19  C   UNL A   1      28.257  28.252  23.003  1.00  0.00     0.012 A 
ATOM     20  C   UNL A   1      29.248  30.798  23.564  1.00  0.00     0.047 A 
ATOM     21  C   UNL A   1      27.381  29.331  23.108  1.00  0.00     0.047 A 
ATOM     22  C   UNL A   1      27.883  30.594  23.386  1.00  0.00     0.115 A 
BRANCH  22  23
ATOM     23  O   UNL A   1      26.991  31.621  23.471  1.00  0.00    -0.508 OA
ATOM     24  H   UNL A   1      27.284  32.505  23.372  1.00  0.00     0.293 HD
ENDBRANCH  22  23
ENDBRANCH  16  17
ENDBRANCH  13  15
ENDBRANCH  10  11
ENDBRANCH   6  10
ENDBRANCH   1   5
BRANCH   3  25
ATOM     25  C   UNL A   1      32.504  26.598  26.169  1.00  0.00     0.117 C 
BRANCH  25  26
ATOM     26  C   UNL A   1      32.039  28.034  26.364  1.00  0.00     0.042 C 
BRANCH  26  27
ATOM     27  C   UNL A   1      33.068  29.040  25.878  1.00  0.00     0.118 C 
BRANCH  27  28
ATOM     28  N   UNL A   1      32.659  30.413  26.153  1.00  0.00    -0.352 N 
ATOM     29  C   UNL A   1      33.181  31.321  27.038  1.00  0.00     0.251 C 
ATOM     30  H   UNL A   1      31.893  30.736  25.626  1.00  0.00     0.163 HD
ATOM     31  O   UNL A   1      32.582  32.368  27.275  1.00  0.00    -0.269 OA
BRANCH  29  32
ATOM     32  C   UNL A   1      34.460  31.036  27.713  1.00  0.00     0.039 A 
ATOM     33  C   UNL A   1      35.450  32.022  27.748  1.00  0.00     0.014 A 
ATOM     34  C   UNL A   1      34.683  29.793  28.309  1.00  0.00     0.014 A 
ATOM     35  C   UNL A   1      36.642  31.780  28.434  1.00  0.00     0.010 A 
ATOM     36  C   UNL A   1      35.825  29.587  29.069  1.00  0.00     0.010 A 
ATOM     37  C   UNL A   1      36.822  30.574  29.128  1.00  0.00    -0.014 A 
BRANCH  37  38
ATOM     38  C   UNL A   1      38.054  30.289  29.902  1.00  0.00     0.031 A 
ATOM     39  C   UNL A   1      39.082  29.350  29.335  1.00  0.00     0.074 A 
ATOM     40  C   UNL A   1      38.199  30.791  31.142  1.00  0.00     0.049 A 
ATOM     41  N   UNL A   1      40.147  28.845  29.901  1.00  0.00    -0.248 NA
ATOM     42  C   UNL A   1      38.860  28.887  27.955  1.00  0.00     0.031 C 
ATOM     43  C   UNL A   1      37.252  31.686  31.809  1.00  0.00     0.029 A 
ATOM     44  N   UNL A   1      39.190  30.601  32.072  1.00  0.00    -0.354 N 
ATOM     45  C   UNL A   1      40.703  27.989  28.959  1.00  0.00     0.074 A 
ATOM     46  C   UNL A   1      39.829  27.998  27.808  1.00  0.00     0.031 C 
ATOM     47  C   UNL A   1      37.713  31.977  33.036  1.00  0.00     0.029 A 
ATOM     48  C   UNL A   1      38.959  31.251  33.260  1.00  0.00     0.049 A 
ATOM     49  H   UNL A   1      39.988  30.052  31.904  1.00  0.00     0.167 HD
ATOM     50  C   UNL A   1      41.851  27.278  29.042  1.00  0.00     0.037 A 
ATOM     51  C   UNL A   1      39.664  31.242  34.408  1.00  0.00     0.037 A 
ATOM     52  C   UNL A   1      42.726  27.297  30.183  1.00  0.00     0.049 A 
ATOM     53  C   UNL A   1      40.927  30.427  34.483  1.00  0.00     0.074 A 
ATOM     54  C   UNL A   1      43.943  26.660  30.349  1.00  0.00     0.029 A 
ATOM     55  N   UNL A   1      42.472  27.990  31.360  1.00  0.00    -0.354 N 
ATOM     56  N   UNL A   1      41.478  29.667  33.568  1.00  0.00    -0.248 NA
ATOM     57  C   UNL A   1      41.671  30.469  35.750  1.00  0.00     0.031 C 
ATOM     58  C   UNL A   1      44.396  26.918  31.645  1.00  0.00     0.029 A 
ATOM     59  C   UNL A   1      43.498  27.773  32.265  1.00  0.00     0.049 A 
ATOM     60  H   UNL A   1      41.681  28.550  31.525  1.00  0.00     0.167 HD
ATOM     61  C   UNL A   1      42.647  29.174  34.130  1.00  0.00     0.074 A 
ATOM     62  C   UNL A   1      42.730  29.722  35.468  1.00  0.00     0.031 C 
ATOM     63  C   UNL A   1      43.572  28.347  33.585  1.00  0.00     0.037 A 
BRANCH  50  64
ATOM     64  C   UNL A   1      42.221  26.415  27.869  1.00  0.00     0.064 A 
ATOM     65  C   UNL A   1      41.749  25.100  27.738  1.00  0.00     0.173 A 
ATOM     66  C   UNL A   1      43.038  26.920  26.846  1.00  0.00     0.173 A 
ATOM     67  F   UNL A   1      40.973  24.562  28.692  1.00  0.00    -0.203 F 
ATOM     68  C   UNL A   1      42.113  24.311  26.650  1.00  0.00     0.198 A 
ATOM     69  C   UNL A   1      43.369  26.142  25.739  1.00  0.00     0.198 A 
ATOM     70  F   UNL A   1      43.513  28.173  26.914  1.00  0.00    -0.203 F 
ATOM     71  F   UNL A   1      41.699  23.038  26.579  1.00  0.00    -0.200 F 
ATOM     72  C   UNL A   1      42.915  24.834  25.648  1.00  0.00     0.200 A 
ATOM     73  F   UNL A   1      44.131  26.655  24.765  1.00  0.00    -0.200 F 
ATOM     74  F   UNL A   1      43.259  24.077  24.597  1.00  0.00    -0.200 F 
ENDBRANCH  50  64
BRANCH  51  75
ATOM     75  C   UNL A   1      39.199  32.044  35.570  1.00  0.00     0.064 A 
ATOM     76  C   UNL A   1      38.399  31.468  36.567  1.00  0.00     0.173 A 
ATOM     77  C   UNL A   1      39.546  33.396  35.712  1.00  0.00     0.173 A 
ATOM     78  F   UNL A   1      38.025  30.184  36.466  1.00  0.00    -0.203 F 
ATOM     79  C   UNL A   1      37.948  32.218  37.651  1.00  0.00     0.198 A 
ATOM     80  C   UNL A   1      39.119  34.137  36.813  1.00  0.00     0.198 A 
ATOM     81  F   UNL A   1      40.315  33.994  34.791  1.00  0.00    -0.203 F 
ATOM     82  F   UNL A   1      37.147  31.655  38.565  1.00  0.00    -0.200 F 
ATOM     83  C   UNL A   1      38.314  33.550  37.777  1.00  0.00     0.200 A 
ATOM     84  F   UNL A   1      39.490  35.418  36.940  1.00  0.00    -0.200 F 
ATOM     85  F   UNL A   1      37.884  34.269  38.823  1.00  0.00    -0.200 F 
ENDBRANCH  51  75
BRANCH  63  86
ATOM     86  C   UNL A   1      44.789  28.025  34.403  1.00  0.00     0.064 A 
ATOM     87  C   UNL A   1      44.855  26.887  35.220  1.00  0.00     0.173 A 
ATOM     88  C   UNL A   1      45.935  28.830  34.304  1.00  0.00     0.173 A 
ATOM     89  F   UNL A   1      43.782  26.094  35.360  1.00  0.00    -0.203 F 
ATOM     90  C   UNL A   1      46.019  26.574  35.916  1.00  0.00     0.198 A 
ATOM     91  C   UNL A   1      47.107  28.497  34.975  1.00  0.00     0.198 A 
ATOM     92  F   UNL A   1      45.926  29.927  33.531  1.00  0.00    -0.203 F 
ATOM     93  F   UNL A   1      46.049  25.502  36.719  1.00  0.00    -0.200 F 
ATOM     94  C   UNL A   1      47.146  27.372  35.784  1.00  0.00     0.200 A 
ATOM     95  F   UNL A   1      48.200  29.259  34.832  1.00  0.00    -0.200 F 
ATOM     96  F   UNL A   1      48.273  27.057  36.439  1.00  0.00    -0.200 F 
ENDBRANCH  63  86
ENDBRANCH  37  38
ENDBRANCH  29  32
ENDBRANCH  27  28
ENDBRANCH  26  27
ENDBRANCH  25  26
ENDBRANCH   3  25
TORSDOF 15
ENDMDL
MODEL 2
REMARK VINA RESULT:     -12.7      2.291      4.823
REMARK SMILES O=C(/C=C/c1ccc(O)cc1)NC[C@@H]1CC[C@H](C(=O)NCCCNC(=O)c2ccc(-c3c4nc(c(-c5c(F)c(F)c(F)c(F)c5F)c5ccc([nH]5)c(-c5c(F)c(F)c(F)c(F)c5F)c5nc(c(-c6c(F)c(F)c(F)c(F)c6F)c6ccc3[nH]6)C=C5)C=C4)cc2)O1
REMARK SMILES IDX 18 1 19 2 20 3 17 5 14 6 15 7 90 8 16 9 13 10 12 11 1 12
REMARK SMILES IDX 2 13 3 15 4 16 5 17 6 18 11 19 7 20 10 21 8 22 9 23 21 25
REMARK SMILES IDX 22 26 23 27 24 28 25 29 26 31 27 32 28 33 89 34 29 35 88 36
REMARK SMILES IDX 30 37 31 38 32 39 82 40 33 41 87 42 81 43 83 44 34 45 86 46
REMARK SMILES IDX 80 47 79 48 35 50 67 51 47 52 66 53 48 54 51 55 65 56 84 57
REMARK SMILES IDX 49 58 50 59 64 61 85 62 52 63 36 64 37 65 45 66 38 67 39 68
REMARK SMILES IDX 43 69 46 70 40 71 41 72 44 73 42 74 68 75 69 76 77 77 70 78
REMARK SMILES IDX 71 79 75 80 78 81 72 82 73 83 76 84 74 85 53 86 54 87 62 88
REMARK SMILES IDX 55 89 56 90 60 91 63 92 57 93 58 94 61 95 59 96
REMARK H PARENT 20 4 12 14 9 24 24 30 83 49 51 60
REMARK Flexibility Score: inf
ROOT
ATOM      1  C   UNL A   1      33.529  29.234  26.122  1.00  0.00     0.249 C 
ATOM      2  O   UNL A   1      34.662  28.997  26.552  1.00  0.00    -0.272 OA
ATOM      3  N   UNL A   1      32.822  30.224  26.740  1.00  0.00    -0.354 N 
ATOM      4  H   UNL A   1      33.282  30.661  27.492  1.00  0.00     0.163 HD
ENDROOT
BRANCH   1   5
ATOM      5  C   UNL A   1      32.937  28.402  24.959  1.00  0.00     0.207 C 
ATOM      6  C   UNL A   1      32.093  26.226  24.742  1.00  0.00     0.138 C 
ATOM      7  C   UNL A   1      33.564  26.152  24.369  1.00  0.00     0.037 C 
ATOM      8  O   UNL A   1      31.881  27.520  25.334  1.00  0.00    -0.363 OA
ATOM      9  C   UNL A   1      33.972  27.597  24.188  1.00  0.00     0.045 C 
BRANCH   6  10
ATOM     10  C   UNL A   1      31.643  25.156  25.751  1.00  0.00     0.148 C 
BRANCH  10  11
ATOM     11  N   UNL A   1      32.113  23.828  25.441  1.00  0.00    -0.350 N 
ATOM     12  O   UNL A   1      31.757  22.955  27.533  1.00  0.00    -0.270 OA
ATOM     13  C   UNL A   1      32.104  22.817  26.366  1.00  0.00     0.244 C 
ATOM     14  H   UNL A   1      32.452  23.643  24.536  1.00  0.00     0.163 HD
BRANCH  13  15
ATOM     15  C   UNL A   1      32.521  21.479  25.878  1.00  0.00     0.072 C 
ATOM     16  C   UNL A   1      32.229  20.984  24.667  1.00  0.00     0.014 C 
BRANCH  16  17
ATOM     17  C   UNL A   1      32.706  19.697  24.154  1.00  0.00    -0.025 A 
ATOM     18  C   UNL A   1      32.101  19.027  23.083  1.00  0.00     0.012 A 
ATOM     19  C   UNL A   1      33.861  19.156  24.735  1.00  0.00     0.012 A 
ATOM     20  C   UNL A   1      32.636  17.822  22.614  1.00  0.00     0.047 A 
ATOM     21  C   UNL A   1      34.394  17.956  24.269  1.00  0.00     0.047 A 
ATOM     22  C   UNL A   1      33.778  17.299  23.212  1.00  0.00     0.115 A 
BRANCH  22  23
ATOM     23  O   UNL A   1      34.338  16.134  22.784  1.00  0.00    -0.508 OA
ATOM     24  H   UNL A   1      34.139  15.330  23.221  1.00  0.00     0.293 HD
ENDBRANCH  22  23
ENDBRANCH  16  17
ENDBRANCH  13  15
ENDBRANCH  10  11
ENDBRANCH   6  10
ENDBRANCH   1   5
BRANCH   3  25
ATOM     25  C   UNL A   1      31.498  30.723  26.455  1.00  0.00     0.117 C 
BRANCH  25  26
ATOM     26  C   UNL A   1      31.413  32.238  26.570  1.00  0.00     0.042 C 
BRANCH  26  27
ATOM     27  C   UNL A   1      32.600  32.822  27.316  1.00  0.00     0.118 C 
BRANCH  27  28
ATOM     28  N   UNL A   1      32.397  34.229  27.645  1.00  0.00    -0.352 N 
ATOM     29  C   UNL A   1      32.999  34.998  28.607  1.00  0.00     0.251 C 
ATOM     30  H   UNL A   1      31.726  34.695  27.096  1.00  0.00     0.163 HD
ATOM     31  O   UNL A   1      32.559  36.115  28.869  1.00  0.00    -0.269 OA
BRANCH  29  32
ATOM     32  C   UNL A   1      34.172  34.479  29.334  1.00  0.00     0.039 A 
ATOM     33  C   UNL A   1      33.986  33.829  30.557  1.00  0.00     0.014 A 
ATOM     34  C   UNL A   1      35.456  34.638  28.808  1.00  0.00     0.014 A 
ATOM     35  C   UNL A   1      35.086  33.286  31.224  1.00  0.00     0.010 A 
ATOM     36  C   UNL A   1      36.533  34.017  29.422  1.00  0.00     0.010 A 
ATOM     37  C   UNL A   1      36.361  33.346  30.643  1.00  0.00    -0.014 A 
BRANCH  37  38
ATOM     38  C   UNL A   1      37.551  32.748  31.296  1.00  0.00     0.031 A 
ATOM     39  C   UNL A   1      38.269  31.612  30.624  1.00  0.00     0.074 A 
ATOM     40  C   UNL A   1      37.918  33.157  32.524  1.00  0.00     0.049 A 
ATOM     41  N   UNL A   1      39.226  30.847  31.082  1.00  0.00    -0.248 NA
ATOM     42  C   UNL A   1      37.824  31.266  29.264  1.00  0.00     0.031 C 
ATOM     43  C   UNL A   1      37.276  34.227  33.289  1.00  0.00     0.029 A 
ATOM     44  N   UNL A   1      38.910  32.703  33.357  1.00  0.00    -0.354 N 
ATOM     45  C   UNL A   1      39.476  29.918  30.081  1.00  0.00     0.074 A 
ATOM     46  C   UNL A   1      38.535  30.177  29.016  1.00  0.00     0.031 C 
ATOM     47  C   UNL A   1      37.897  34.355  34.472  1.00  0.00     0.029 A 
ATOM     48  C   UNL A   1      38.946  33.346  34.570  1.00  0.00     0.049 A 
ATOM     49  H   UNL A   1      39.536  31.985  33.108  1.00  0.00     0.167 HD
ATOM     50  C   UNL A   1      40.422  28.951  30.048  1.00  0.00     0.037 A 
ATOM     51  C   UNL A   1      39.724  33.128  35.648  1.00  0.00     0.037 A 
ATOM     52  C   UNL A   1      41.371  28.720  31.104  1.00  0.00     0.049 A 
ATOM     53  C   UNL A   1      40.756  32.032  35.595  1.00  0.00     0.074 A 
ATOM     54  C   UNL A   1      42.408  27.806  31.147  1.00  0.00     0.029 A 
ATOM     55  N   UNL A   1      41.393  29.410  32.308  1.00  0.00    -0.354 N 
ATOM     56  N   UNL A   1      41.026  31.196  34.622  1.00  0.00    -0.248 NA
ATOM     57  C   UNL A   1      41.594  31.851  36.789  1.00  0.00     0.031 C 
ATOM     58  C   UNL A   1      43.020  27.901  32.400  1.00  0.00     0.029 A 
ATOM     59  C   UNL A   1      42.411  28.923  33.112  1.00  0.00     0.049 A 
ATOM     60  H   UNL A   1      40.777  30.137  32.554  1.00  0.00     0.167 HD
ATOM     61  C   UNL A   1      42.086  30.419  35.067  1.00  0.00     0.074 A 
ATOM     62  C   UNL A   1      42.413  30.883  36.399  1.00  0.00     0.031 C 
ATOM     63  C   UNL A   1      42.735  29.415  34.428  1.00  0.00     0.037 A 
BRANCH  50  64
ATOM     64  C   UNL A   1      40.471  28.067  28.833  1.00  0.00     0.064 A 
ATOM     65  C   UNL A   1      39.770  26.854  28.772  1.00  0.00     0.173 A 
ATOM     66  C   UNL A   1      41.209  28.453  27.704  1.00  0.00     0.173 A 
ATOM     67  F   UNL A   1      39.056  26.430  29.827  1.00  0.00    -0.203 F 
ATOM     68  C   UNL A   1      39.837  26.042  27.642  1.00  0.00     0.198 A 
ATOM     69  C   UNL A   1      41.243  27.658  26.562  1.00  0.00     0.198 A 
ATOM     70  F   UNL A   1      41.894  29.607  27.704  1.00  0.00    -0.203 F 
ATOM     71  F   UNL A   1      39.208  24.858  27.631  1.00  0.00    -0.200 F 
ATOM     72  C   UNL A   1      40.567  26.447  26.536  1.00  0.00     0.200 A 
ATOM     73  F   UNL A   1      41.936  28.060  25.488  1.00  0.00    -0.200 F 
ATOM     74  F   UNL A   1      40.625  25.669  25.446  1.00  0.00    -0.200 F 
ENDBRANCH  50  64
BRANCH  51  75
ATOM     75  C   UNL A   1      39.568  33.975  36.859  1.00  0.00     0.064 A 
ATOM     76  C   UNL A   1      38.775  33.552  37.935  1.00  0.00     0.173 A 
ATOM     77  C   UNL A   1      40.208  35.218  36.970  1.00  0.00     0.173 A 
ATOM     78  F   UNL A   1      38.127  32.380  37.869  1.00  0.00    -0.203 F 
ATOM     79  C   UNL A   1      38.613  34.349  39.067  1.00  0.00     0.198 A 
ATOM     80  C   UNL A   1      40.069  36.000  38.116  1.00  0.00     0.198 A 
ATOM     81  F   UNL A   1      40.983  35.668  35.972  1.00  0.00    -0.203 F 
ATOM     82  F   UNL A   1      37.813  33.940  40.061  1.00  0.00    -0.200 F 
ATOM     83  C   UNL A   1      39.265  35.569  39.160  1.00  0.00     0.200 A 
ATOM     84  F   UNL A   1      40.715  37.170  38.208  1.00  0.00    -0.200 F 
ATOM     85  F   UNL A   1      39.113  36.331  40.251  1.00  0.00    -0.200 F 
ENDBRANCH  51  75
BRANCH  63  86
ATOM     86  C   UNL A   1      43.904  28.783  35.126  1.00  0.00     0.064 A 
ATOM     87  C   UNL A   1      43.758  27.653  35.943  1.00  0.00     0.173 A 
ATOM     88  C   UNL A   1      45.201  29.274  34.907  1.00  0.00     0.173 A 
ATOM     89  F   UNL A   1      42.538  27.154  36.195  1.00  0.00    -0.203 F 
ATOM     90  C   UNL A   1      44.867  27.044  36.524  1.00  0.00     0.198 A 
ATOM     91  C   UNL A   1      46.310  28.645  35.464  1.00  0.00     0.198 A 
ATOM     92  F   UNL A   1      45.395  30.349  34.128  1.00  0.00    -0.203 F 
ATOM     93  F   UNL A   1      44.703  25.987  37.331  1.00  0.00    -0.200 F 
ATOM     94  C   UNL A   1      46.141  27.533  36.275  1.00  0.00     0.200 A 
ATOM     95  F   UNL A   1      47.541  29.107  35.206  1.00  0.00    -0.200 F 
ATOM     96  F   UNL A   1      47.209  26.933  36.819  1.00  0.00    -0.200 F 
ENDBRANCH  63  86
ENDBRANCH  37  38
ENDBRANCH  29  32
ENDBRANCH  27  28
ENDBRANCH  26  27
ENDBRANCH  25  26
ENDBRANCH   3  25
TORSDOF 15
ENDMDL
MODEL 3
REMARK VINA RESULT:     -12.6      2.466      5.237
REMARK SMILES O=C(/C=C/c1ccc(O)cc1)NC[C@@H]1CC[C@H](C(=O)NCCCNC(=O)c2ccc(-c3c4nc(c(-c5c(F)c(F)c(F)c(F)c5F)c5ccc([nH]5)c(-c5c(F)c(F)c(F)c(F)c5F)c5nc(c(-c6c(F)c(F)c(F)c(F)c6F)c6ccc3[nH]6)C=C5)C=C4)cc2)O1
REMARK SMILES IDX 18 1 19 2 20 3 17 5 14 6 15 7 90 8 16 9 13 10 12 11 1 12
REMARK SMILES IDX 2 13 3 15 4 16 5 17 6 18 11 19 7 20 10 21 8 22 9 23 21 25
REMARK SMILES IDX 22 26 23 27 24 28 25 29 26 31 27 32 28 33 89 34 29 35 88 36
REMARK SMILES IDX 30 37 31 38 32 39 82 40 33 41 87 42 81 43 83 44 34 45 86 46
REMARK SMILES IDX 80 47 79 48 35 50 67 51 47 52 66 53 48 54 51 55 65 56 84 57
REMARK SMILES IDX 49 58 50 59 64 61 85 62 52 63 36 64 37 65 45 66 38 67 39 68
REMARK SMILES IDX 43 69 46 70 40 71 41 72 44 73 42 74 68 75 69 76 77 77 70 78
REMARK SMILES IDX 71 79 75 80 78 81 72 82 73 83 76 84 74 85 53 86 54 87 62 88
REMARK SMILES IDX 55 89 56 90 60 91 63 92 57 93 58 94 61 95 59 96
REMARK H PARENT 20 4 12 14 9 24 24 30 83 49 51 60
REMARK Flexibility Score: inf
ROOT
ATOM      1  C   UNL A   1      31.960  28.845  24.844  1.00  0.00     0.249 C 
ATOM      2  O   UNL A   1      31.906  28.623  23.630  1.00  0.00    -0.272 OA
ATOM      3  N   UNL A   1      31.653  30.108  25.260  1.00  0.00    -0.354 N 
ATOM      4  H   UNL A   1      31.422  30.741  24.544  1.00  0.00     0.163 HD
ENDROOT
BRANCH   1   5
ATOM      5  C   UNL A   1      32.403  27.738  25.830  1.00  0.00     0.207 C 
ATOM      6  C   UNL A   1      33.023  25.486  25.622  1.00  0.00     0.138 C 
ATOM      7  C   UNL A   1      31.532  25.493  25.918  1.00  0.00     0.037 C 
ATOM      8  O   UNL A   1      33.391  26.844  25.319  1.00  0.00    -0.363 OA
ATOM      9  C   UNL A   1      31.254  26.906  26.379  1.00  0.00     0.045 C 
BRANCH   6  10
ATOM     10  C   UNL A   1      33.427  24.601  24.431  1.00  0.00     0.148 C 
BRANCH  10  11
ATOM     11  N   UNL A   1      33.295  23.188  24.684  1.00  0.00    -0.350 N 
ATOM     12  O   UNL A   1      31.426  22.886  23.387  1.00  0.00    -0.270 OA
ATOM     13  C   UNL A   1      32.306  22.433  24.109  1.00  0.00     0.244 C 
ATOM     14  H   UNL A   1      33.936  22.751  25.290  1.00  0.00     0.163 HD
BRANCH  13  15
ATOM     15  C   UNL A   1      32.354  20.974  24.379  1.00  0.00     0.072 C 
ATOM     16  C   UNL A   1      33.462  20.222  24.310  1.00  0.00     0.014 C 
BRANCH  16  17
ATOM     17  C   UNL A   1      33.527  18.799  24.652  1.00  0.00    -0.025 A 
ATOM     18  C   UNL A   1      32.488  18.117  25.296  1.00  0.00     0.012 A 
ATOM     19  C   UNL A   1      34.667  18.088  24.252  1.00  0.00     0.012 A 
ATOM     20  C   UNL A   1      32.598  16.746  25.552  1.00  0.00     0.047 A 
ATOM     21  C   UNL A   1      34.778  16.723  24.507  1.00  0.00     0.047 A 
ATOM     22  C   UNL A   1      33.742  16.063  25.154  1.00  0.00     0.115 A 
BRANCH  22  23
ATOM     23  O   UNL A   1      33.889  14.727  25.376  1.00  0.00    -0.508 OA
ATOM     24  H   UNL A   1      33.193  14.237  25.766  1.00  0.00     0.293 HD
ENDBRANCH  22  23
ENDBRANCH  16  17
ENDBRANCH  13  15
ENDBRANCH  10  11
ENDBRANCH   6  10
ENDBRANCH   1   5
BRANCH   3  25
ATOM     25  C   UNL A   1      31.620  30.651  26.597  1.00  0.00     0.117 C 
BRANCH  25  26
ATOM     26  C   UNL A   1      31.520  32.170  26.602  1.00  0.00     0.042 C 
BRANCH  26  27
ATOM     27  C   UNL A   1      32.742  32.823  27.224  1.00  0.00     0.118 C 
BRANCH  27  28
ATOM     28  N   UNL A   1      32.478  34.200  27.625  1.00  0.00    -0.352 N 
ATOM     29  C   UNL A   1      33.017  34.931  28.652  1.00  0.00     0.251 C 
ATOM     30  H   UNL A   1      31.813  34.675  27.077  1.00  0.00     0.163 HD
ATOM     31  O   UNL A   1      32.529  36.016  28.961  1.00  0.00    -0.269 OA
BRANCH  29  32
ATOM     32  C   UNL A   1      34.179  34.409  29.393  1.00  0.00     0.039 A 
ATOM     33  C   UNL A   1      33.975  33.749  30.609  1.00  0.00     0.014 A 
ATOM     34  C   UNL A   1      35.471  34.573  28.889  1.00  0.00     0.014 A 
ATOM     35  C   UNL A   1      35.065  33.203  31.289  1.00  0.00     0.010 A 
ATOM     36  C   UNL A   1      36.540  33.948  29.515  1.00  0.00     0.010 A 
ATOM     37  C   UNL A   1      36.350  33.269  30.729  1.00  0.00    -0.014 A 
BRANCH  37  38
ATOM     38  C   UNL A   1      37.530  32.668  31.396  1.00  0.00     0.031 A 
ATOM     39  C   UNL A   1      38.234  31.510  30.747  1.00  0.00     0.074 A 
ATOM     40  C   UNL A   1      37.900  33.096  32.617  1.00  0.00     0.049 A 
ATOM     41  N   UNL A   1      39.180  30.741  31.222  1.00  0.00    -0.248 NA
ATOM     42  C   UNL A   1      37.788  31.143  29.394  1.00  0.00     0.031 C 
ATOM     43  C   UNL A   1      37.270  34.189  33.359  1.00  0.00     0.029 A 
ATOM     44  N   UNL A   1      38.884  32.644  33.461  1.00  0.00    -0.354 N 
ATOM     45  C   UNL A   1      39.420  29.790  30.241  1.00  0.00     0.074 A 
ATOM     46  C   UNL A   1      38.484  30.040  29.168  1.00  0.00     0.031 C 
ATOM     47  C   UNL A   1      37.891  34.332  34.540  1.00  0.00     0.029 A 
ATOM     48  C   UNL A   1      38.927  33.310  34.661  1.00  0.00     0.049 A 
ATOM     49  H   UNL A   1      39.501  31.914  33.227  1.00  0.00     0.167 HD
ATOM     50  C   UNL A   1      40.353  28.809  30.228  1.00  0.00     0.037 A 
ATOM     51  C   UNL A   1      39.699  33.103  35.744  1.00  0.00     0.037 A 
ATOM     52  C   UNL A   1      41.296  28.586  31.291  1.00  0.00     0.049 A 
ATOM     53  C   UNL A   1      40.716  31.993  35.715  1.00  0.00     0.074 A 
ATOM     54  C   UNL A   1      42.321  27.659  31.354  1.00  0.00     0.029 A 
ATOM     55  N   UNL A   1      41.325  29.300  32.482  1.00  0.00    -0.354 N 
ATOM     56  N   UNL A   1      40.977  31.135  34.759  1.00  0.00    -0.248 NA
ATOM     57  C   UNL A   1      41.549  31.823  36.914  1.00  0.00     0.031 C 
ATOM     58  C   UNL A   1      42.931  27.771  32.606  1.00  0.00     0.029 A 
ATOM     59  C   UNL A   1      42.334  28.814  33.297  1.00  0.00     0.049 A 
ATOM     60  H   UNL A   1      40.719  30.039  32.711  1.00  0.00     0.167 HD
ATOM     61  C   UNL A   1      42.026  30.352  35.222  1.00  0.00     0.074 A 
ATOM     62  C   UNL A   1      42.356  30.838  36.545  1.00  0.00     0.031 C 
ATOM     63  C   UNL A   1      42.662  29.327  34.604  1.00  0.00     0.037 A 
BRANCH  50  64
ATOM     64  C   UNL A   1      40.392  27.901  29.031  1.00  0.00     0.064 A 
ATOM     65  C   UNL A   1      41.172  28.197  27.903  1.00  0.00     0.173 A 
ATOM     66  C   UNL A   1      39.660  26.704  29.024  1.00  0.00     0.173 A 
ATOM     67  F   UNL A   1      41.884  29.333  27.852  1.00  0.00    -0.203 F 
ATOM     68  C   UNL A   1      41.187  27.349  26.798  1.00  0.00     0.198 A 
ATOM     69  C   UNL A   1      39.707  25.840  27.933  1.00  0.00     0.198 A 
ATOM     70  F   UNL A   1      38.902  26.367  30.079  1.00  0.00    -0.203 F 
ATOM     71  F   UNL A   1      41.891  27.684  25.708  1.00  0.00    -0.200 F 
ATOM     72  C   UNL A   1      40.461  26.169  26.816  1.00  0.00     0.200 A 
ATOM     73  F   UNL A   1      39.017  24.692  27.960  1.00  0.00    -0.200 F 
ATOM     74  F   UNL A   1      40.481  25.350  25.756  1.00  0.00    -0.200 F 
ENDBRANCH  50  64
BRANCH  51  75
ATOM     75  C   UNL A   1      39.551  33.976  36.938  1.00  0.00     0.064 A 
ATOM     76  C   UNL A   1      40.193  35.221  37.003  1.00  0.00     0.173 A 
ATOM     77  C   UNL A   1      38.765  33.590  38.034  1.00  0.00     0.173 A 
ATOM     78  F   UNL A   1      40.971  35.626  35.989  1.00  0.00    -0.203 F 
ATOM     79  C   UNL A   1      40.071  36.037  38.125  1.00  0.00     0.198 A 
ATOM     80  C   UNL A   1      38.619  34.422  39.144  1.00  0.00     0.198 A 
ATOM     81  F   UNL A   1      38.124  32.413  38.021  1.00  0.00    -0.203 F 
ATOM     82  F   UNL A   1      40.732  37.201  38.180  1.00  0.00    -0.200 F 
ATOM     83  C   UNL A   1      39.278  35.640  39.192  1.00  0.00     0.200 A 
ATOM     84  F   UNL A   1      37.838  34.042  40.164  1.00  0.00    -0.200 F 
ATOM     85  F   UNL A   1      39.156  36.429  40.269  1.00  0.00    -0.200 F 
ENDBRANCH  51  75
BRANCH  63  86
ATOM     86  C   UNL A   1      43.821  28.693  35.317  1.00  0.00     0.064 A 
ATOM     87  C   UNL A   1      43.657  27.589  36.164  1.00  0.00     0.173 A 
ATOM     88  C   UNL A   1      45.126  29.154  35.082  1.00  0.00     0.173 A 
ATOM     89  F   UNL A   1      42.429  27.120  36.432  1.00  0.00    -0.203 F 
ATOM     90  C   UNL A   1      44.756  26.977  36.761  1.00  0.00     0.198 A 
ATOM     91  C   UNL A   1      46.225  28.521  35.653  1.00  0.00     0.198 A 
ATOM     92  F   UNL A   1      45.338  30.204  34.273  1.00  0.00    -0.203 F 
ATOM     93  F   UNL A   1      44.575  25.945  37.596  1.00  0.00    -0.200 F 
ATOM     94  C   UNL A   1      46.038  27.435  36.495  1.00  0.00     0.200 A 
ATOM     95  F   UNL A   1      47.464  28.953  35.381  1.00  0.00    -0.200 F 
ATOM     96  F   UNL A   1      47.097  26.831  37.054  1.00  0.00    -0.200 F 
ENDBRANCH  63  86
ENDBRANCH  37  38
ENDBRANCH  29  32
ENDBRANCH  27  28
ENDBRANCH  26  27
ENDBRANCH  25  26
ENDBRANCH   3  25
TORSDOF 15
ENDMDL
