MODEL 1
REMARK VINA RESULT:     -12.4      0.000      0.000
REMARK SMILES O=C(NCCCNC(=O)c1ccc(S(=O)(=O)Nc2ccccc2I)cc1)c1ccc(-c2c3nc(c(-c4c(F)c(F)c(F)c(F)c4F)c4ccc([nH]4)c(-c4c(F)c(F)c(F)c(F)c4F)c4nc(c(-c5c(F)c(F)c(F)c(F)c5F)c5ccc2[nH]5)C=C4)C=C3)cc1
REMARK SMILES IDX 5 1 4 2 3 3 1 4 2 5 27 7 28 8 89 9 29 10 88 11 30 12 31 13
REMARK SMILES IDX 32 14 82 15 33 16 87 17 81 18 83 19 34 20 86 21 80 22 79 23
REMARK SMILES IDX 35 25 67 26 47 27 66 28 48 29 51 30 65 31 84 32 49 33 50 34
REMARK SMILES IDX 64 36 85 37 52 38 36 39 37 40 45 41 38 42 39 43 43 44 46 45
REMARK SMILES IDX 40 46 41 47 44 48 42 49 68 50 69 51 77 52 70 53 71 54 75 55
REMARK SMILES IDX 78 56 72 57 73 58 76 59 74 60 53 61 54 62 62 63 55 64 56 65
REMARK SMILES IDX 60 66 63 67 57 68 58 69 61 70 59 71 6 72 7 73 8 74 9 76
REMARK SMILES IDX 10 77 11 78 26 79 12 80 25 81 13 82 14 83 15 84 16 85 17 86
REMARK SMILES IDX 18 88 19 89 23 90 20 91 22 92 24 93 21 94
REMARK H PARENT 3 6 83 24 51 35 7 75 17 87
REMARK Flexibility Score: inf
ROOT
ATOM      1  C   UNL A   1      31.530  31.983  26.881  1.00  0.00     0.042 C 
ENDROOT
BRANCH   1   2
ATOM      2  C   UNL A   1      32.727  32.907  26.801  1.00  0.00     0.118 C 
BRANCH   2   3
ATOM      3  N   UNL A   1      32.531  34.146  27.544  1.00  0.00    -0.352 N 
ATOM      4  O   UNL A   1      32.670  35.595  29.259  1.00  0.00    -0.269 OA
ATOM      5  C   UNL A   1      33.132  34.612  28.688  1.00  0.00     0.251 C 
ATOM      6  H   UNL A   1      31.855  34.750  27.162  1.00  0.00     0.163 HD
BRANCH   5   7
ATOM      7  C   UNL A   1      34.313  33.921  29.254  1.00  0.00     0.039 A 
ATOM      8  C   UNL A   1      34.170  32.760  30.012  1.00  0.00     0.014 A 
ATOM      9  C   UNL A   1      35.591  34.427  28.997  1.00  0.00     0.014 A 
ATOM     10  C   UNL A   1      35.264  32.224  30.674  1.00  0.00     0.010 A 
ATOM     11  C   UNL A   1      36.711  33.810  29.561  1.00  0.00     0.010 A 
ATOM     12  C   UNL A   1      36.552  32.726  30.437  1.00  0.00    -0.014 A 
BRANCH  12  13
ATOM     13  C   UNL A   1      37.716  32.055  31.067  1.00  0.00     0.031 A 
ATOM     14  C   UNL A   1      38.130  32.378  32.473  1.00  0.00     0.074 A 
ATOM     15  C   UNL A   1      38.383  31.122  30.360  1.00  0.00     0.049 A 
ATOM     16  N   UNL A   1      39.131  31.898  33.169  1.00  0.00    -0.248 NA
ATOM     17  C   UNL A   1      37.327  33.378  33.192  1.00  0.00     0.031 C 
ATOM     18  C   UNL A   1      38.071  30.728  28.983  1.00  0.00     0.029 A 
ATOM     19  N   UNL A   1      39.445  30.325  30.698  1.00  0.00    -0.354 N 
ATOM     20  C   UNL A   1      39.092  32.552  34.392  1.00  0.00     0.074 A 
ATOM     21  C   UNL A   1      37.985  33.482  34.339  1.00  0.00     0.031 C 
ATOM     22  C   UNL A   1      38.889  29.734  28.613  1.00  0.00     0.029 A 
ATOM     23  C   UNL A   1      39.830  29.472  29.695  1.00  0.00     0.049 A 
ATOM     24  H   UNL A   1      39.888  30.361  31.577  1.00  0.00     0.167 HD
ATOM     25  C   UNL A   1      39.907  32.385  35.462  1.00  0.00     0.037 A 
ATOM     26  C   UNL A   1      40.845  28.591  29.638  1.00  0.00     0.037 A 
ATOM     27  C   UNL A   1      40.994  31.441  35.514  1.00  0.00     0.049 A 
ATOM     28  C   UNL A   1      41.743  28.443  30.830  1.00  0.00     0.074 A 
ATOM     29  C   UNL A   1      41.857  31.172  36.563  1.00  0.00     0.029 A 
ATOM     30  N   UNL A   1      41.370  30.612  34.466  1.00  0.00    -0.354 N 
ATOM     31  N   UNL A   1      41.687  29.055  31.987  1.00  0.00    -0.248 NA
ATOM     32  C   UNL A   1      42.851  27.488  30.706  1.00  0.00     0.031 C 
ATOM     33  C   UNL A   1      42.781  30.212  36.135  1.00  0.00     0.029 A 
ATOM     34  C   UNL A   1      42.465  29.847  34.836  1.00  0.00     0.049 A 
ATOM     35  H   UNL A   1      40.926  30.572  33.589  1.00  0.00     0.167 HD
ATOM     36  C   UNL A   1      42.737  28.549  32.737  1.00  0.00     0.074 A 
ATOM     37  C   UNL A   1      43.406  27.567  31.907  1.00  0.00     0.031 C 
ATOM     38  C   UNL A   1      43.116  28.873  33.997  1.00  0.00     0.037 A 
BRANCH  25  39
ATOM     39  C   UNL A   1      39.671  33.260  36.661  1.00  0.00     0.064 A 
ATOM     40  C   UNL A   1      38.765  32.902  37.671  1.00  0.00     0.173 A 
ATOM     41  C   UNL A   1      40.389  34.455  36.818  1.00  0.00     0.173 A 
ATOM     42  F   UNL A   1      38.045  31.776  37.564  1.00  0.00    -0.203 F 
ATOM     43  C   UNL A   1      38.569  33.722  38.780  1.00  0.00     0.198 A 
ATOM     44  C   UNL A   1      40.210  35.258  37.941  1.00  0.00     0.198 A 
ATOM     45  F   UNL A   1      41.272  34.841  35.885  1.00  0.00    -0.203 F 
ATOM     46  F   UNL A   1      37.664  33.383  39.710  1.00  0.00    -0.200 F 
ATOM     47  C   UNL A   1      39.295  34.895  38.917  1.00  0.00     0.200 A 
ATOM     48  F   UNL A   1      40.921  36.386  38.077  1.00  0.00    -0.200 F 
ATOM     49  F   UNL A   1      39.107  35.680  39.987  1.00  0.00    -0.200 F 
ENDBRANCH  25  39
BRANCH  26  50
ATOM     50  C   UNL A   1      41.056  27.797  28.402  1.00  0.00     0.064 A 
ATOM     51  C   UNL A   1      41.943  28.231  27.409  1.00  0.00     0.173 A 
ATOM     52  C   UNL A   1      40.403  26.571  28.207  1.00  0.00     0.173 A 
ATOM     53  F   UNL A   1      42.578  29.405  27.544  1.00  0.00    -0.203 F 
ATOM     54  C   UNL A   1      42.162  27.472  26.261  1.00  0.00     0.198 A 
ATOM     55  C   UNL A   1      40.646  25.799  27.073  1.00  0.00     0.198 A 
ATOM     56  F   UNL A   1      39.551  26.108  29.133  1.00  0.00    -0.203 F 
ATOM     57  F   UNL A   1      42.991  27.925  25.310  1.00  0.00    -0.200 F 
ATOM     58  C   UNL A   1      41.521  26.254  26.098  1.00  0.00     0.200 A 
ATOM     59  F   UNL A   1      40.039  24.614  26.930  1.00  0.00    -0.200 F 
ATOM     60  F   UNL A   1      41.744  25.518  25.001  1.00  0.00    -0.200 F 
ENDBRANCH  26  50
BRANCH  38  61
ATOM     61  C   UNL A   1      44.291  28.133  34.565  1.00  0.00     0.064 A 
ATOM     62  C   UNL A   1      45.597  28.632  34.453  1.00  0.00     0.173 A 
ATOM     63  C   UNL A   1      44.102  26.926  35.254  1.00  0.00     0.173 A 
ATOM     64  F   UNL A   1      45.828  29.772  33.787  1.00  0.00    -0.203 F 
ATOM     65  C   UNL A   1      46.675  27.935  34.992  1.00  0.00     0.198 A 
ATOM     66  C   UNL A   1      45.179  26.247  35.816  1.00  0.00     0.198 A 
ATOM     67  F   UNL A   1      42.871  26.410  35.390  1.00  0.00    -0.203 F 
ATOM     68  F   UNL A   1      47.920  28.406  34.834  1.00  0.00    -0.200 F 
ATOM     69  C   UNL A   1      46.464  26.748  35.679  1.00  0.00     0.200 A 
ATOM     70  F   UNL A   1      44.973  25.106  36.488  1.00  0.00    -0.200 F 
ATOM     71  F   UNL A   1      47.504  26.083  36.201  1.00  0.00    -0.200 F 
ENDBRANCH  38  61
ENDBRANCH  12  13
ENDBRANCH   5   7
ENDBRANCH   2   3
ENDBRANCH   1   2
BRANCH   1  72
ATOM     72  C   UNL A   1      31.899  30.514  26.875  1.00  0.00     0.118 C 
BRANCH  72  73
ATOM     73  N   UNL A   1      33.272  30.260  27.308  1.00  0.00    -0.352 N 
ATOM     74  C   UNL A   1      34.169  29.275  26.957  1.00  0.00     0.251 C 
ATOM     75  H   UNL A   1      33.615  30.906  27.968  1.00  0.00     0.163 HD
ATOM     76  O   UNL A   1      35.225  29.176  27.575  1.00  0.00    -0.269 OA
BRANCH  74  77
ATOM     77  C   UNL A   1      33.868  28.328  25.858  1.00  0.00     0.039 A 
ATOM     78  C   UNL A   1      33.725  28.786  24.541  1.00  0.00     0.015 A 
ATOM     79  C   UNL A   1      33.748  26.970  26.120  1.00  0.00     0.015 A 
ATOM     80  C   UNL A   1      33.519  27.870  23.494  1.00  0.00     0.023 A 
ATOM     81  C   UNL A   1      33.733  26.067  25.074  1.00  0.00     0.023 A 
ATOM     82  C   UNL A   1      33.538  26.498  23.768  1.00  0.00     0.087 A 
BRANCH  82  83
ATOM     83  S   UNL A   1      33.413  25.296  22.464  1.00  0.00     0.261 S 
ATOM     84  O   UNL A   1      33.458  26.008  21.201  1.00  0.00    -0.201 OA
ATOM     85  O   UNL A   1      34.382  24.262  22.755  1.00  0.00    -0.201 OA
BRANCH  83  86
ATOM     86  N   UNL A   1      31.867  24.556  22.520  1.00  0.00    -0.279 N 
ATOM     87  H   UNL A   1      31.338  24.444  21.697  1.00  0.00     0.180 HD
BRANCH  86  88
ATOM     88  C   UNL A   1      31.352  24.100  23.786  1.00  0.00     0.062 A 
ATOM     89  C   UNL A   1      31.815  22.896  24.337  1.00  0.00     0.028 A 
ATOM     90  C   UNL A   1      30.492  24.917  24.544  1.00  0.00     0.037 A 
ATOM     91  C   UNL A   1      31.467  22.541  25.647  1.00  0.00     0.002 A 
ATOM     92  C   UNL A   1      30.148  24.556  25.853  1.00  0.00     0.017 A 
ATOM     93  I   UNL A   1      29.723  26.723  23.803  1.00  0.00    -0.042 I 
ATOM     94  C   UNL A   1      30.647  23.377  26.406  1.00  0.00     0.001 A 
ENDBRANCH  86  88
ENDBRANCH  83  86
ENDBRANCH  82  83
ENDBRANCH  74  77
ENDBRANCH  72  73
ENDBRANCH   1  72
TORSDOF 13
ENDMDL
MODEL 2
REMARK VINA RESULT:     -12.4      0.227      2.027
REMARK SMILES O=C(NCCCNC(=O)c1ccc(S(=O)(=O)Nc2ccccc2I)cc1)c1ccc(-c2c3nc(c(-c4c(F)c(F)c(F)c(F)c4F)c4ccc([nH]4)c(-c4c(F)c(F)c(F)c(F)c4F)c4nc(c(-c5c(F)c(F)c(F)c(F)c5F)c5ccc2[nH]5)C=C4)C=C3)cc1
REMARK SMILES IDX 5 1 4 2 3 3 1 4 2 5 27 7 28 8 89 9 29 10 88 11 30 12 31 13
REMARK SMILES IDX 32 14 82 15 33 16 87 17 81 18 83 19 34 20 86 21 80 22 79 23
REMARK SMILES IDX 35 25 67 26 47 27 66 28 48 29 51 30 65 31 84 32 49 33 50 34
REMARK SMILES IDX 64 36 85 37 52 38 36 39 37 40 45 41 38 42 39 43 43 44 46 45
REMARK SMILES IDX 40 46 41 47 44 48 42 49 68 50 69 51 77 52 70 53 71 54 75 55
REMARK SMILES IDX 78 56 72 57 73 58 76 59 74 60 53 61 54 62 62 63 55 64 56 65
REMARK SMILES IDX 60 66 63 67 57 68 58 69 61 70 59 71 6 72 7 73 8 74 9 76
REMARK SMILES IDX 10 77 11 78 26 79 12 80 25 81 13 82 14 83 15 84 16 85 17 86
REMARK SMILES IDX 18 88 19 89 23 90 20 91 22 92 24 93 21 94
REMARK H PARENT 3 6 83 24 51 35 7 75 17 87
REMARK Flexibility Score: inf
ROOT
ATOM      1  C   UNL A   1      31.556  32.028  26.894  1.00  0.00     0.042 C 
ENDROOT
BRANCH   1   2
ATOM      2  C   UNL A   1      32.776  32.925  26.934  1.00  0.00     0.118 C 
BRANCH   2   3
ATOM      3  N   UNL A   1      32.515  34.198  27.593  1.00  0.00    -0.352 N 
ATOM      4  O   UNL A   1      32.534  35.745  29.227  1.00  0.00    -0.269 OA
ATOM      5  C   UNL A   1      33.046  34.743  28.738  1.00  0.00     0.251 C 
ATOM      6  H   UNL A   1      31.846  34.763  27.143  1.00  0.00     0.163 HD
BRANCH   5   7
ATOM      7  C   UNL A   1      34.210  34.114  29.401  1.00  0.00     0.039 A 
ATOM      8  C   UNL A   1      35.511  34.508  29.092  1.00  0.00     0.014 A 
ATOM      9  C   UNL A   1      33.997  33.131  30.373  1.00  0.00     0.014 A 
ATOM     10  C   UNL A   1      36.590  33.795  29.593  1.00  0.00     0.010 A 
ATOM     11  C   UNL A   1      35.088  32.499  30.975  1.00  0.00     0.010 A 
ATOM     12  C   UNL A   1      36.394  32.799  30.560  1.00  0.00    -0.014 A 
BRANCH  12  13
ATOM     13  C   UNL A   1      37.576  32.137  31.165  1.00  0.00     0.031 A 
ATOM     14  C   UNL A   1      38.037  32.487  32.551  1.00  0.00     0.074 A 
ATOM     15  C   UNL A   1      38.218  31.188  30.456  1.00  0.00     0.049 A 
ATOM     16  N   UNL A   1      39.058  32.018  33.224  1.00  0.00    -0.248 NA
ATOM     17  C   UNL A   1      37.259  33.503  33.276  1.00  0.00     0.031 C 
ATOM     18  C   UNL A   1      37.860  30.768  29.098  1.00  0.00     0.029 A 
ATOM     19  N   UNL A   1      39.289  30.395  30.776  1.00  0.00    -0.354 N 
ATOM     20  C   UNL A   1      39.061  32.696  34.434  1.00  0.00     0.074 A 
ATOM     21  C   UNL A   1      37.954  33.628  34.399  1.00  0.00     0.031 C 
ATOM     22  C   UNL A   1      38.664  29.765  28.722  1.00  0.00     0.029 A 
ATOM     23  C   UNL A   1      39.639  29.521  29.778  1.00  0.00     0.049 A 
ATOM     24  H   UNL A   1      39.759  30.447  31.639  1.00  0.00     0.167 HD
ATOM     25  C   UNL A   1      39.909  32.549  35.480  1.00  0.00     0.037 A 
ATOM     26  C   UNL A   1      40.649  28.636  29.706  1.00  0.00     0.037 A 
ATOM     27  C   UNL A   1      40.995  31.603  35.516  1.00  0.00     0.049 A 
ATOM     28  C   UNL A   1      41.586  28.510  30.871  1.00  0.00     0.074 A 
ATOM     29  C   UNL A   1      41.891  31.352  36.542  1.00  0.00     0.029 A 
ATOM     30  N   UNL A   1      41.336  30.752  34.473  1.00  0.00    -0.354 N 
ATOM     31  N   UNL A   1      41.568  29.145  32.017  1.00  0.00    -0.248 NA
ATOM     32  C   UNL A   1      42.687  27.549  30.730  1.00  0.00     0.031 C 
ATOM     33  C   UNL A   1      42.798  30.382  36.103  1.00  0.00     0.029 A 
ATOM     34  C   UNL A   1      42.440  29.991  34.823  1.00  0.00     0.049 A 
ATOM     35  H   UNL A   1      40.862  30.696  33.612  1.00  0.00     0.167 HD
ATOM     36  C   UNL A   1      42.641  28.651  32.742  1.00  0.00     0.074 A 
ATOM     37  C   UNL A   1      43.280  27.650  31.911  1.00  0.00     0.031 C 
ATOM     38  C   UNL A   1      43.061  28.999  33.983  1.00  0.00     0.037 A 
BRANCH  25  39
ATOM     39  C   UNL A   1      39.714  33.448  36.668  1.00  0.00     0.064 A 
ATOM     40  C   UNL A   1      40.351  34.694  36.766  1.00  0.00     0.173 A 
ATOM     41  C   UNL A   1      38.847  33.072  37.706  1.00  0.00     0.173 A 
ATOM     42  F   UNL A   1      41.199  35.095  35.808  1.00  0.00    -0.203 F 
ATOM     43  C   UNL A   1      40.148  35.517  37.871  1.00  0.00     0.198 A 
ATOM     44  C   UNL A   1      38.625  33.910  38.795  1.00  0.00     0.198 A 
ATOM     45  F   UNL A   1      38.208  31.893  37.660  1.00  0.00    -0.203 F 
ATOM     46  F   UNL A   1      40.803  36.684  37.965  1.00  0.00    -0.200 F 
ATOM     47  C   UNL A   1      39.281  35.128  38.881  1.00  0.00     0.200 A 
ATOM     48  F   UNL A   1      37.778  33.537  39.765  1.00  0.00    -0.200 F 
ATOM     49  F   UNL A   1      39.083  35.925  39.941  1.00  0.00    -0.200 F 
ENDBRANCH  25  39
BRANCH  26  50
ATOM     50  C   UNL A   1      40.819  27.817  28.480  1.00  0.00     0.064 A 
ATOM     51  C   UNL A   1      40.174  26.582  28.344  1.00  0.00     0.173 A 
ATOM     52  C   UNL A   1      41.600  28.270  27.407  1.00  0.00     0.173 A 
ATOM     53  F   UNL A   1      39.428  26.100  29.350  1.00  0.00    -0.203 F 
ATOM     54  C   UNL A   1      40.311  25.825  27.181  1.00  0.00     0.198 A 
ATOM     55  C   UNL A   1      41.713  27.527  26.235  1.00  0.00     0.198 A 
ATOM     56  F   UNL A   1      42.231  29.451  27.486  1.00  0.00    -0.203 F 
ATOM     57  F   UNL A   1      39.709  24.632  27.087  1.00  0.00    -0.200 F 
ATOM     58  C   UNL A   1      41.072  26.302  26.125  1.00  0.00     0.200 A 
ATOM     59  F   UNL A   1      42.434  28.002  25.210  1.00  0.00    -0.200 F 
ATOM     60  F   UNL A   1      41.191  25.581  25.003  1.00  0.00    -0.200 F 
ENDBRANCH  26  50
BRANCH  38  61
ATOM     61  C   UNL A   1      44.252  28.267  34.527  1.00  0.00     0.064 A 
ATOM     62  C   UNL A   1      44.118  27.045  35.203  1.00  0.00     0.173 A 
ATOM     63  C   UNL A   1      45.544  28.780  34.340  1.00  0.00     0.173 A 
ATOM     64  F   UNL A   1      42.902  26.525  35.421  1.00  0.00    -0.203 F 
ATOM     65  C   UNL A   1      45.235  26.376  35.695  1.00  0.00     0.198 A 
ATOM     66  C   UNL A   1      46.661  28.093  34.808  1.00  0.00     0.198 A 
ATOM     67  F   UNL A   1      45.723  29.943  33.696  1.00  0.00    -0.203 F 
ATOM     68  F   UNL A   1      45.082  25.233  36.379  1.00  0.00    -0.200 F 
ATOM     69  C   UNL A   1      46.505  26.896  35.491  1.00  0.00     0.200 A 
ATOM     70  F   UNL A   1      47.887  28.592  34.601  1.00  0.00    -0.200 F 
ATOM     71  F   UNL A   1      47.579  26.247  35.960  1.00  0.00    -0.200 F 
ENDBRANCH  38  61
ENDBRANCH  12  13
ENDBRANCH   5   7
ENDBRANCH   2   3
ENDBRANCH   1   2
BRANCH   1  72
ATOM     72  C   UNL A   1      31.892  30.551  26.876  1.00  0.00     0.118 C 
BRANCH  72  73
ATOM     73  N   UNL A   1      33.255  30.262  27.315  1.00  0.00    -0.352 N 
ATOM     74  C   UNL A   1      34.128  29.254  26.968  1.00  0.00     0.251 C 
ATOM     75  H   UNL A   1      33.613  30.899  27.975  1.00  0.00     0.163 HD
ATOM     76  O   UNL A   1      35.179  29.128  27.591  1.00  0.00    -0.269 OA
BRANCH  74  77
ATOM     77  C   UNL A   1      33.807  28.314  25.869  1.00  0.00     0.039 A 
ATOM     78  C   UNL A   1      33.653  28.778  24.555  1.00  0.00     0.015 A 
ATOM     79  C   UNL A   1      33.679  26.955  26.127  1.00  0.00     0.015 A 
ATOM     80  C   UNL A   1      33.429  27.869  23.507  1.00  0.00     0.023 A 
ATOM     81  C   UNL A   1      33.646  26.057  25.077  1.00  0.00     0.023 A 
ATOM     82  C   UNL A   1      33.439  26.496  23.775  1.00  0.00     0.087 A 
BRANCH  82  83
ATOM     83  S   UNL A   1      33.291  25.301  22.468  1.00  0.00     0.261 S 
ATOM     84  O   UNL A   1      33.281  26.022  21.209  1.00  0.00    -0.201 OA
ATOM     85  O   UNL A   1      34.285  24.281  22.719  1.00  0.00    -0.201 OA
BRANCH  83  86
ATOM     86  N   UNL A   1      31.759  24.535  22.570  1.00  0.00    -0.279 N 
ATOM     87  H   UNL A   1      31.213  24.402  21.761  1.00  0.00     0.180 HD
BRANCH  86  88
ATOM     88  C   UNL A   1      31.281  24.088  23.855  1.00  0.00     0.062 A 
ATOM     89  C   UNL A   1      31.776  22.899  24.410  1.00  0.00     0.028 A 
ATOM     90  C   UNL A   1      30.427  24.902  24.622  1.00  0.00     0.037 A 
ATOM     91  C   UNL A   1      31.466  22.557  25.732  1.00  0.00     0.002 A 
ATOM     92  C   UNL A   1      30.121  24.554  25.943  1.00  0.00     0.017 A 
ATOM     93  I   UNL A   1      29.613  26.686  23.875  1.00  0.00    -0.042 I 
ATOM     94  C   UNL A   1      30.651  23.390  26.500  1.00  0.00     0.001 A 
ENDBRANCH  86  88
ENDBRANCH  83  86
ENDBRANCH  82  83
ENDBRANCH  74  77
ENDBRANCH  72  73
ENDBRANCH   1  72
TORSDOF 13
ENDMDL
MODEL 3
REMARK VINA RESULT:     -12.3      5.375     10.625
REMARK SMILES O=C(NCCCNC(=O)c1ccc(S(=O)(=O)Nc2ccccc2I)cc1)c1ccc(-c2c3nc(c(-c4c(F)c(F)c(F)c(F)c4F)c4ccc([nH]4)c(-c4c(F)c(F)c(F)c(F)c4F)c4nc(c(-c5c(F)c(F)c(F)c(F)c5F)c5ccc2[nH]5)C=C4)C=C3)cc1
REMARK SMILES IDX 5 1 4 2 3 3 1 4 2 5 27 7 28 8 89 9 29 10 88 11 30 12 31 13
REMARK SMILES IDX 32 14 82 15 33 16 87 17 81 18 83 19 34 20 86 21 80 22 79 23
REMARK SMILES IDX 35 25 67 26 47 27 66 28 48 29 51 30 65 31 84 32 49 33 50 34
REMARK SMILES IDX 64 36 85 37 52 38 36 39 37 40 45 41 38 42 39 43 43 44 46 45
REMARK SMILES IDX 40 46 41 47 44 48 42 49 68 50 69 51 77 52 70 53 71 54 75 55
REMARK SMILES IDX 78 56 72 57 73 58 76 59 74 60 53 61 54 62 62 63 55 64 56 65
REMARK SMILES IDX 60 66 63 67 57 68 58 69 61 70 59 71 6 72 7 73 8 74 9 76
REMARK SMILES IDX 10 77 11 78 26 79 12 80 25 81 13 82 14 83 15 84 16 85 17 86
REMARK SMILES IDX 18 88 19 89 23 90 20 91 22 92 24 93 21 94
REMARK H PARENT 3 6 83 24 51 35 7 75 17 87
REMARK Flexibility Score: inf
ROOT
ATOM      1  C   UNL A   1      38.195  19.866  24.959  1.00  0.00     0.042 C 
ENDROOT
BRANCH   1   2
ATOM      2  C   UNL A   1      39.134  19.975  26.143  1.00  0.00     0.118 C 
BRANCH   2   3
ATOM      3  N   UNL A   1      40.294  19.101  26.022  1.00  0.00    -0.352 N 
ATOM      4  O   UNL A   1      42.440  18.517  25.682  1.00  0.00    -0.269 OA
ATOM      5  C   UNL A   1      41.638  19.390  25.998  1.00  0.00     0.251 C 
ATOM      6  H   UNL A   1      40.080  18.144  25.943  1.00  0.00     0.163 HD
BRANCH   5   7
ATOM      7  C   UNL A   1      42.121  20.751  26.320  1.00  0.00     0.039 A 
ATOM      8  C   UNL A   1      42.458  21.102  27.626  1.00  0.00     0.014 A 
ATOM      9  C   UNL A   1      42.269  21.687  25.291  1.00  0.00     0.014 A 
ATOM     10  C   UNL A   1      42.744  22.423  27.939  1.00  0.00     0.010 A 
ATOM     11  C   UNL A   1      42.683  22.989  25.589  1.00  0.00     0.010 A 
ATOM     12  C   UNL A   1      42.886  23.377  26.921  1.00  0.00    -0.014 A 
BRANCH  12  13
ATOM     13  C   UNL A   1      43.310  24.754  27.276  1.00  0.00     0.031 A 
ATOM     14  C   UNL A   1      44.714  25.223  27.022  1.00  0.00     0.074 A 
ATOM     15  C   UNL A   1      42.400  25.592  27.809  1.00  0.00     0.049 A 
ATOM     16  N   UNL A   1      45.255  26.386  27.286  1.00  0.00    -0.248 NA
ATOM     17  C   UNL A   1      45.636  24.261  26.401  1.00  0.00     0.031 C 
ATOM     18  C   UNL A   1      41.007  25.245  28.102  1.00  0.00     0.029 A 
ATOM     19  N   UNL A   1      42.498  26.908  28.182  1.00  0.00    -0.354 N 
ATOM     20  C   UNL A   1      46.581  26.288  26.888  1.00  0.00     0.074 A 
ATOM     21  C   UNL A   1      46.773  24.945  26.386  1.00  0.00     0.031 C 
ATOM     22  C   UNL A   1      40.371  26.329  28.565  1.00  0.00     0.029 A 
ATOM     23  C   UNL A   1      41.325  27.426  28.670  1.00  0.00     0.049 A 
ATOM     24  H   UNL A   1      43.330  27.429  28.107  1.00  0.00     0.167 HD
ATOM     25  C   UNL A   1      47.547  27.238  26.936  1.00  0.00     0.037 A 
ATOM     26  C   UNL A   1      41.049  28.643  29.172  1.00  0.00     0.037 A 
ATOM     27  C   UNL A   1      47.341  28.579  27.418  1.00  0.00     0.049 A 
ATOM     28  C   UNL A   1      42.143  29.667  29.231  1.00  0.00     0.074 A 
ATOM     29  C   UNL A   1      48.246  29.626  27.475  1.00  0.00     0.029 A 
ATOM     30  N   UNL A   1      46.143  29.060  27.929  1.00  0.00    -0.354 N 
ATOM     31  N   UNL A   1      43.389  29.568  28.837  1.00  0.00    -0.248 NA
ATOM     32  C   UNL A   1      41.796  30.969  29.813  1.00  0.00     0.031 C 
ATOM     33  C   UNL A   1      47.608  30.725  28.062  1.00  0.00     0.029 A 
ATOM     34  C   UNL A   1      46.292  30.380  28.324  1.00  0.00     0.049 A 
ATOM     35  H   UNL A   1      45.310  28.540  28.001  1.00  0.00     0.167 HD
ATOM     36  C   UNL A   1      43.972  30.797  29.104  1.00  0.00     0.074 A 
ATOM     37  C   UNL A   1      42.937  31.632  29.680  1.00  0.00     0.031 C 
ATOM     38  C   UNL A   1      45.250  31.195  28.894  1.00  0.00     0.037 A 
BRANCH  25  39
ATOM     39  C   UNL A   1      48.925  26.853  26.476  1.00  0.00     0.064 A 
ATOM     40  C   UNL A   1      49.327  27.001  25.140  1.00  0.00     0.173 A 
ATOM     41  C   UNL A   1      49.867  26.364  27.394  1.00  0.00     0.173 A 
ATOM     42  F   UNL A   1      48.462  27.452  24.221  1.00  0.00    -0.203 F 
ATOM     43  C   UNL A   1      50.613  26.649  24.737  1.00  0.00     0.198 A 
ATOM     44  C   UNL A   1      51.160  26.040  26.992  1.00  0.00     0.198 A 
ATOM     45  F   UNL A   1      49.537  26.209  28.685  1.00  0.00    -0.203 F 
ATOM     46  F   UNL A   1      50.961  26.756  23.446  1.00  0.00    -0.200 F 
ATOM     47  C   UNL A   1      51.530  26.175  25.663  1.00  0.00     0.200 A 
ATOM     48  F   UNL A   1      52.048  25.592  27.891  1.00  0.00    -0.200 F 
ATOM     49  F   UNL A   1      52.768  25.841  25.273  1.00  0.00    -0.200 F 
ENDBRANCH  25  39
BRANCH  26  50
ATOM     50  C   UNL A   1      39.679  28.940  29.660  1.00  0.00     0.064 A 
ATOM     51  C   UNL A   1      38.714  29.491  28.808  1.00  0.00     0.173 A 
ATOM     52  C   UNL A   1      39.299  28.645  30.978  1.00  0.00     0.173 A 
ATOM     53  F   UNL A   1      39.035  29.804  27.544  1.00  0.00    -0.203 F 
ATOM     54  C   UNL A   1      37.420  29.744  29.259  1.00  0.00     0.198 A 
ATOM     55  C   UNL A   1      37.997  28.871  31.418  1.00  0.00     0.198 A 
ATOM     56  F   UNL A   1      40.185  28.108  31.829  1.00  0.00    -0.203 F 
ATOM     57  F   UNL A   1      36.523  30.301  28.434  1.00  0.00    -0.200 F 
ATOM     58  C   UNL A   1      37.060  29.426  30.560  1.00  0.00     0.200 A 
ATOM     59  F   UNL A   1      37.650  28.544  32.670  1.00  0.00    -0.200 F 
ATOM     60  F   UNL A   1      35.812  29.656  30.988  1.00  0.00    -0.200 F 
ENDBRANCH  26  50
BRANCH  38  61
ATOM     61  C   UNL A   1      45.590  32.609  29.264  1.00  0.00     0.064 A 
ATOM     62  C   UNL A   1      46.103  32.935  30.528  1.00  0.00     0.173 A 
ATOM     63  C   UNL A   1      45.427  33.643  28.331  1.00  0.00     0.173 A 
ATOM     64  F   UNL A   1      46.258  31.982  31.459  1.00  0.00    -0.203 F 
ATOM     65  C   UNL A   1      46.420  34.251  30.851  1.00  0.00     0.198 A 
ATOM     66  C   UNL A   1      45.772  34.954  28.648  1.00  0.00     0.198 A 
ATOM     67  F   UNL A   1      44.943  33.381  27.107  1.00  0.00    -0.203 F 
ATOM     68  F   UNL A   1      46.866  34.548  32.080  1.00  0.00    -0.200 F 
ATOM     69  C   UNL A   1      46.261  35.257  29.910  1.00  0.00     0.200 A 
ATOM     70  F   UNL A   1      45.628  35.923  27.735  1.00  0.00    -0.200 F 
ATOM     71  F   UNL A   1      46.572  36.523  30.222  1.00  0.00    -0.200 F 
ENDBRANCH  38  61
ENDBRANCH  12  13
ENDBRANCH   5   7
ENDBRANCH   2   3
ENDBRANCH   1   2
BRANCH   1  72
ATOM     72  C   UNL A   1      37.463  21.155  24.649  1.00  0.00     0.118 C 
BRANCH  72  73
ATOM     73  N   UNL A   1      38.020  22.319  25.336  1.00  0.00    -0.352 N 
ATOM     74  C   UNL A   1      37.416  23.434  25.873  1.00  0.00     0.251 C 
ATOM     75  H   UNL A   1      39.000  22.302  25.431  1.00  0.00     0.163 HD
ATOM     76  O   UNL A   1      38.114  24.363  26.271  1.00  0.00    -0.269 OA
BRANCH  74  77
ATOM     77  C   UNL A   1      35.940  23.532  25.961  1.00  0.00     0.039 A 
ATOM     78  C   UNL A   1      35.197  22.541  26.617  1.00  0.00     0.015 A 
ATOM     79  C   UNL A   1      35.279  24.624  25.413  1.00  0.00     0.015 A 
ATOM     80  C   UNL A   1      33.806  22.684  26.765  1.00  0.00     0.023 A 
ATOM     81  C   UNL A   1      33.951  24.849  25.723  1.00  0.00     0.023 A 
ATOM     82  C   UNL A   1      33.185  23.857  26.323  1.00  0.00     0.087 A 
BRANCH  82  83
ATOM     83  S   UNL A   1      31.454  24.145  26.602  1.00  0.00     0.261 S 
ATOM     84  O   UNL A   1      30.985  23.143  27.541  1.00  0.00    -0.201 OA
ATOM     85  O   UNL A   1      31.307  25.552  26.900  1.00  0.00    -0.201 OA
BRANCH  83  86
ATOM     86  N   UNL A   1      30.588  23.853  25.150  1.00  0.00    -0.279 N 
ATOM     87  H   UNL A   1      30.014  23.058  25.063  1.00  0.00     0.180 HD
BRANCH  86  88
ATOM     88  C   UNL A   1      30.712  24.788  24.059  1.00  0.00     0.062 A 
ATOM     89  C   UNL A   1      30.065  26.030  24.126  1.00  0.00     0.028 A 
ATOM     90  C   UNL A   1      31.587  24.525  22.989  1.00  0.00     0.037 A 
ATOM     91  C   UNL A   1      30.331  27.016  23.167  1.00  0.00     0.002 A 
ATOM     92  C   UNL A   1      31.849  25.515  22.033  1.00  0.00     0.017 A 
ATOM     93  I   UNL A   1      32.583  22.690  22.782  1.00  0.00    -0.042 I 
ATOM     94  C   UNL A   1      31.231  26.762  22.131  1.00  0.00     0.001 A 
ENDBRANCH  86  88
ENDBRANCH  83  86
ENDBRANCH  82  83
ENDBRANCH  74  77
ENDBRANCH  72  73
ENDBRANCH   1  72
TORSDOF 13
ENDMDL
