MODEL 1
REMARK VINA RESULT:     -12.7      0.000      0.000
REMARK SMILES O=C(NCCCNC(=O)[C@@H]1CC[C@H](CNc2c(F)c(F)c(F)c(F)c2F)O1)c1ccc(-c2c3nc(c(-c4c(F)c(F)c(F)c(F)c4F)c4ccc([nH]4)c(-c4c(F)c(F)c(F)c(F)c4F)c4nc(c(-c5c(F)c(F)c(F)c(F)c5F)c5ccc2[nH]5)C=C4)C=C3)cc1
REMARK SMILES IDX 5 1 4 2 3 3 1 4 2 5 28 7 29 8 90 9 30 10 89 11 31 12 32 13
REMARK SMILES IDX 33 14 83 15 34 16 88 17 82 18 84 19 35 20 87 21 81 22 80 23
REMARK SMILES IDX 36 25 68 26 48 27 67 28 49 29 52 30 66 31 85 32 50 33 51 34
REMARK SMILES IDX 65 36 86 37 53 38 37 39 38 40 46 41 39 42 40 43 44 44 47 45
REMARK SMILES IDX 41 46 42 47 45 48 43 49 69 50 70 51 78 52 71 53 72 54 76 55
REMARK SMILES IDX 79 56 73 57 74 58 77 59 75 60 54 61 55 62 63 63 56 64 57 65
REMARK SMILES IDX 61 66 64 67 58 68 59 69 62 70 60 71 6 72 7 73 8 74 9 76
REMARK SMILES IDX 10 77 11 78 27 79 12 80 13 81 14 82 15 83 16 85 17 86 25 87
REMARK SMILES IDX 18 88 19 89 23 90 26 91 20 92 21 93 24 94 22 95
REMARK H PARENT 3 6 84 24 52 35 7 75 15 84
REMARK Flexibility Score: inf
ROOT
ATOM      1  C   UNL A   1      33.678  28.952  23.717  1.00  0.00     0.042 C 
ENDROOT
BRANCH   1   2
ATOM      2  C   UNL A   1      33.424  28.960  25.217  1.00  0.00     0.118 C 
BRANCH   2   3
ATOM      3  N   UNL A   1      32.810  30.209  25.665  1.00  0.00    -0.352 N 
ATOM      4  O   UNL A   1      32.358  31.923  27.055  1.00  0.00    -0.269 OA
ATOM      5  C   UNL A   1      33.122  31.018  26.730  1.00  0.00     0.251 C 
ATOM      6  H   UNL A   1      32.054  30.520  25.116  1.00  0.00     0.163 HD
BRANCH   5   7
ATOM      7  C   UNL A   1      34.370  30.800  27.487  1.00  0.00     0.039 A 
ATOM      8  C   UNL A   1      34.647  29.548  28.036  1.00  0.00     0.014 A 
ATOM      9  C   UNL A   1      35.288  31.846  27.630  1.00  0.00     0.014 A 
ATOM     10  C   UNL A   1      35.745  29.388  28.865  1.00  0.00     0.010 A 
ATOM     11  C   UNL A   1      36.461  31.646  28.364  1.00  0.00     0.010 A 
ATOM     12  C   UNL A   1      36.684  30.421  29.009  1.00  0.00    -0.014 A 
BRANCH  12  13
ATOM     13  C   UNL A   1      37.928  30.131  29.762  1.00  0.00     0.031 A 
ATOM     14  C   UNL A   1      38.119  30.585  31.177  1.00  0.00     0.074 A 
ATOM     15  C   UNL A   1      38.861  29.370  29.156  1.00  0.00     0.049 A 
ATOM     16  N   UNL A   1      39.102  30.316  31.998  1.00  0.00    -0.248 NA
ATOM     17  C   UNL A   1      37.084  31.461  31.747  1.00  0.00     0.031 C 
ATOM     18  C   UNL A   1      38.779  28.894  27.772  1.00  0.00     0.029 A 
ATOM     19  N   UNL A   1      40.023  28.817  29.627  1.00  0.00    -0.354 N 
ATOM     20  C   UNL A   1      38.820  31.004  33.169  1.00  0.00     0.074 A 
ATOM     21  C   UNL A   1      37.583  31.723  32.948  1.00  0.00     0.031 C 
ATOM     22  C   UNL A   1      39.787  28.047  27.537  1.00  0.00     0.029 A 
ATOM     23  C   UNL A   1      40.633  27.982  28.722  1.00  0.00     0.049 A 
ATOM     24  H   UNL A   1      40.385  29.000  30.523  1.00  0.00     0.167 HD
ATOM     25  C   UNL A   1      39.531  31.023  34.322  1.00  0.00     0.037 A 
ATOM     26  C   UNL A   1      41.752  27.244  28.830  1.00  0.00     0.037 A 
ATOM     27  C   UNL A   1      40.750  30.283  34.531  1.00  0.00     0.049 A 
ATOM     28  C   UNL A   1      42.519  27.283  30.116  1.00  0.00     0.074 A 
ATOM     29  C   UNL A   1      41.525  30.206  35.674  1.00  0.00     0.029 A 
ATOM     30  N   UNL A   1      41.371  29.493  33.571  1.00  0.00    -0.354 N 
ATOM     31  N   UNL A   1      42.230  27.919  31.225  1.00  0.00    -0.248 NA
ATOM     32  C   UNL A   1      43.772  26.520  30.166  1.00  0.00     0.031 C 
ATOM     33  C   UNL A   1      42.642  29.412  35.392  1.00  0.00     0.029 A 
ATOM     34  C   UNL A   1      42.536  28.950  34.090  1.00  0.00     0.049 A 
ATOM     35  H   UNL A   1      41.035  29.344  32.659  1.00  0.00     0.167 HD
ATOM     36  C   UNL A   1      43.260  27.635  32.106  1.00  0.00     0.074 A 
ATOM     37  C   UNL A   1      44.173  26.750  31.410  1.00  0.00     0.031 C 
ATOM     38  C   UNL A   1      43.435  28.076  33.376  1.00  0.00     0.037 A 
BRANCH  25  39
ATOM     39  C   UNL A   1      39.026  31.885  35.443  1.00  0.00     0.064 A 
ATOM     40  C   UNL A   1      39.381  33.242  35.508  1.00  0.00     0.173 A 
ATOM     41  C   UNL A   1      38.241  31.364  36.483  1.00  0.00     0.173 A 
ATOM     42  F   UNL A   1      40.136  33.791  34.545  1.00  0.00    -0.203 F 
ATOM     43  C   UNL A   1      38.973  34.042  36.574  1.00  0.00     0.198 A 
ATOM     44  C   UNL A   1      37.812  32.174  37.533  1.00  0.00     0.198 A 
ATOM     45  F   UNL A   1      37.866  30.077  36.466  1.00  0.00    -0.203 F 
ATOM     46  F   UNL A   1      39.347  35.328  36.625  1.00  0.00    -0.200 F 
ATOM     47  C   UNL A   1      38.184  33.509  37.581  1.00  0.00     0.200 A 
ATOM     48  F   UNL A   1      37.030  31.663  38.494  1.00  0.00    -0.200 F 
ATOM     49  F   UNL A   1      37.780  34.283  38.598  1.00  0.00    -0.200 F 
ENDBRANCH  25  39
BRANCH  26  50
ATOM     50  C   UNL A   1      42.175  26.407  27.679  1.00  0.00     0.064 A 
ATOM     51  C   UNL A   1      41.687  25.102  27.513  1.00  0.00     0.173 A 
ATOM     52  C   UNL A   1      43.152  26.858  26.782  1.00  0.00     0.173 A 
ATOM     53  F   UNL A   1      40.760  24.621  28.355  1.00  0.00    -0.203 F 
ATOM     54  C   UNL A   1      42.192  24.265  26.521  1.00  0.00     0.198 A 
ATOM     55  C   UNL A   1      43.635  26.029  25.771  1.00  0.00     0.198 A 
ATOM     56  F   UNL A   1      43.640  28.102  26.892  1.00  0.00    -0.203 F 
ATOM     57  F   UNL A   1      41.753  23.002  26.426  1.00  0.00    -0.200 F 
ATOM     58  C   UNL A   1      43.165  24.730  25.651  1.00  0.00     0.200 A 
ATOM     59  F   UNL A   1      44.566  26.486  24.921  1.00  0.00    -0.200 F 
ATOM     60  F   UNL A   1      43.657  23.922  24.701  1.00  0.00    -0.200 F 
ENDBRANCH  26  50
BRANCH  38  61
ATOM     61  C   UNL A   1      44.659  27.607  34.103  1.00  0.00     0.064 A 
ATOM     62  C   UNL A   1      45.860  28.326  34.010  1.00  0.00     0.173 A 
ATOM     63  C   UNL A   1      44.663  26.406  34.826  1.00  0.00     0.173 A 
ATOM     64  F   UNL A   1      45.907  29.479  33.325  1.00  0.00    -0.203 F 
ATOM     65  C   UNL A   1      47.026  27.849  34.601  1.00  0.00     0.198 A 
ATOM     66  C   UNL A   1      45.825  25.944  35.437  1.00  0.00     0.198 A 
ATOM     67  F   UNL A   1      43.534  25.693  34.955  1.00  0.00    -0.203 F 
ATOM     68  F   UNL A   1      48.170  28.535  34.471  1.00  0.00    -0.200 F 
ATOM     69  C   UNL A   1      47.007  26.660  35.315  1.00  0.00     0.200 A 
ATOM     70  F   UNL A   1      45.801  24.808  36.145  1.00  0.00    -0.200 F 
ATOM     71  F   UNL A   1      48.129  26.205  35.888  1.00  0.00    -0.200 F 
ENDBRANCH  38  61
ENDBRANCH  12  13
ENDBRANCH   5   7
ENDBRANCH   2   3
ENDBRANCH   1   2
BRANCH   1  72
ATOM     72  C   UNL A   1      32.497  28.381  22.947  1.00  0.00     0.117 C 
BRANCH  72  73
ATOM     73  N   UNL A   1      32.916  27.483  21.893  1.00  0.00    -0.354 N 
ATOM     74  C   UNL A   1      32.826  26.124  21.840  1.00  0.00     0.249 C 
ATOM     75  H   UNL A   1      33.323  27.913  21.106  1.00  0.00     0.163 HD
ATOM     76  O   UNL A   1      33.271  25.560  20.836  1.00  0.00    -0.272 OA
BRANCH  74  77
ATOM     77  C   UNL A   1      32.103  25.320  22.941  1.00  0.00     0.207 C 
ATOM     78  C   UNL A   1      32.848  25.416  24.262  1.00  0.00     0.045 C 
ATOM     79  O   UNL A   1      31.876  23.924  22.720  1.00  0.00    -0.363 OA
ATOM     80  C   UNL A   1      32.252  24.272  25.045  1.00  0.00     0.037 C 
ATOM     81  C   UNL A   1      32.009  23.217  23.976  1.00  0.00     0.138 C 
BRANCH  81  82
ATOM     82  C   UNL A   1      33.147  22.183  23.856  1.00  0.00     0.145 C 
BRANCH  82  83
ATOM     83  N   UNL A   1      33.789  21.928  25.133  1.00  0.00    -0.378 N 
ATOM     84  H   UNL A   1      33.216  21.748  25.912  1.00  0.00     0.160 HD
BRANCH  83  85
ATOM     85  C   UNL A   1      35.166  21.923  25.320  1.00  0.00     0.113 A 
ATOM     86  C   UNL A   1      35.931  23.033  25.719  1.00  0.00     0.188 A 
ATOM     87  C   UNL A   1      35.875  20.752  25.000  1.00  0.00     0.188 A 
ATOM     88  F   UNL A   1      35.334  24.177  26.092  1.00  0.00    -0.201 F 
ATOM     89  C   UNL A   1      37.324  22.982  25.755  1.00  0.00     0.199 A 
ATOM     90  C   UNL A   1      37.266  20.698  25.036  1.00  0.00     0.199 A 
ATOM     91  F   UNL A   1      35.189  19.660  24.623  1.00  0.00    -0.201 F 
ATOM     92  F   UNL A   1      38.022  24.068  26.119  1.00  0.00    -0.200 F 
ATOM     93  C   UNL A   1      37.989  21.819  25.402  1.00  0.00     0.200 A 
ATOM     94  F   UNL A   1      37.900  19.569  24.692  1.00  0.00    -0.200 F 
ATOM     95  F   UNL A   1      39.329  21.782  25.411  1.00  0.00    -0.200 F 
ENDBRANCH  83  85
ENDBRANCH  82  83
ENDBRANCH  81  82
ENDBRANCH  74  77
ENDBRANCH  72  73
ENDBRANCH   1  72
TORSDOF 13
ENDMDL
MODEL 2
REMARK VINA RESULT:     -12.7      4.322      9.813
REMARK SMILES O=C(NCCCNC(=O)[C@@H]1CC[C@H](CNc2c(F)c(F)c(F)c(F)c2F)O1)c1ccc(-c2c3nc(c(-c4c(F)c(F)c(F)c(F)c4F)c4ccc([nH]4)c(-c4c(F)c(F)c(F)c(F)c4F)c4nc(c(-c5c(F)c(F)c(F)c(F)c5F)c5ccc2[nH]5)C=C4)C=C3)cc1
REMARK SMILES IDX 5 1 4 2 3 3 1 4 2 5 28 7 29 8 90 9 30 10 89 11 31 12 32 13
REMARK SMILES IDX 33 14 83 15 34 16 88 17 82 18 84 19 35 20 87 21 81 22 80 23
REMARK SMILES IDX 36 25 68 26 48 27 67 28 49 29 52 30 66 31 85 32 50 33 51 34
REMARK SMILES IDX 65 36 86 37 53 38 37 39 38 40 46 41 39 42 40 43 44 44 47 45
REMARK SMILES IDX 41 46 42 47 45 48 43 49 69 50 70 51 78 52 71 53 72 54 76 55
REMARK SMILES IDX 79 56 73 57 74 58 77 59 75 60 54 61 55 62 63 63 56 64 57 65
REMARK SMILES IDX 61 66 64 67 58 68 59 69 62 70 60 71 6 72 7 73 8 74 9 76
REMARK SMILES IDX 10 77 11 78 27 79 12 80 13 81 14 82 15 83 16 85 17 86 25 87
REMARK SMILES IDX 18 88 19 89 23 90 26 91 20 92 21 93 24 94 22 95
REMARK H PARENT 3 6 84 24 52 35 7 75 15 84
REMARK Flexibility Score: inf
ROOT
ATOM      1  C   UNL A   1      40.897  20.923  27.289  1.00  0.00     0.042 C 
ENDROOT
BRANCH   1   2
ATOM      2  C   UNL A   1      40.954  22.271  26.586  1.00  0.00     0.118 C 
BRANCH   2   3
ATOM      3  N   UNL A   1      39.681  22.618  25.955  1.00  0.00    -0.352 N 
ATOM      4  O   UNL A   1      37.717  23.687  25.682  1.00  0.00    -0.269 OA
ATOM      5  C   UNL A   1      38.841  23.680  26.178  1.00  0.00     0.251 C 
ATOM      6  H   UNL A   1      39.379  21.990  25.259  1.00  0.00     0.163 HD
BRANCH   5   7
ATOM      7  C   UNL A   1      39.283  24.812  27.016  1.00  0.00     0.039 A 
ATOM      8  C   UNL A   1      38.965  24.845  28.373  1.00  0.00     0.014 A 
ATOM      9  C   UNL A   1      40.046  25.839  26.450  1.00  0.00     0.014 A 
ATOM     10  C   UNL A   1      39.256  25.975  29.120  1.00  0.00     0.010 A 
ATOM     11  C   UNL A   1      40.448  26.922  27.238  1.00  0.00     0.010 A 
ATOM     12  C   UNL A   1      40.032  27.009  28.574  1.00  0.00    -0.014 A 
BRANCH  12  13
ATOM     13  C   UNL A   1      40.463  28.106  29.474  1.00  0.00     0.031 A 
ATOM     14  C   UNL A   1      41.877  28.223  29.954  1.00  0.00     0.074 A 
ATOM     15  C   UNL A   1      39.554  29.050  29.788  1.00  0.00     0.049 A 
ATOM     16  N   UNL A   1      42.428  29.182  30.655  1.00  0.00    -0.248 NA
ATOM     17  C   UNL A   1      42.793  27.122  29.620  1.00  0.00     0.031 C 
ATOM     18  C   UNL A   1      38.144  29.017  29.386  1.00  0.00     0.029 A 
ATOM     19  N   UNL A   1      39.678  30.238  30.459  1.00  0.00    -0.354 N 
ATOM     20  C   UNL A   1      43.743  28.794  30.864  1.00  0.00     0.074 A 
ATOM     21  C   UNL A   1      43.906  27.500  30.236  1.00  0.00     0.031 C 
ATOM     22  C   UNL A   1      37.561  30.170  29.732  1.00  0.00     0.029 A 
ATOM     23  C   UNL A   1      38.527  30.990  30.450  1.00  0.00     0.049 A 
ATOM     24  H   UNL A   1      40.507  30.524  30.904  1.00  0.00     0.167 HD
ATOM     25  C   UNL A   1      44.721  29.465  31.517  1.00  0.00     0.037 A 
ATOM     26  C   UNL A   1      38.274  32.207  30.965  1.00  0.00     0.037 A 
ATOM     27  C   UNL A   1      44.546  30.764  32.118  1.00  0.00     0.049 A 
ATOM     28  C   UNL A   1      39.374  32.928  31.682  1.00  0.00     0.074 A 
ATOM     29  C   UNL A   1      45.483  31.545  32.769  1.00  0.00     0.029 A 
ATOM     30  N   UNL A   1      43.350  31.471  32.141  1.00  0.00    -0.354 N 
ATOM     31  N   UNL A   1      40.621  32.561  31.853  1.00  0.00    -0.248 NA
ATOM     32  C   UNL A   1      39.034  34.220  32.291  1.00  0.00     0.031 C 
ATOM     33  C   UNL A   1      44.844  32.701  33.232  1.00  0.00     0.029 A 
ATOM     34  C   UNL A   1      43.521  32.666  32.822  1.00  0.00     0.049 A 
ATOM     35  H   UNL A   1      42.507  31.167  31.736  1.00  0.00     0.167 HD
ATOM     36  C   UNL A   1      41.218  33.573  32.587  1.00  0.00     0.074 A 
ATOM     37  C   UNL A   1      40.200  34.583  32.810  1.00  0.00     0.031 C 
ATOM     38  C   UNL A   1      42.492  33.654  33.040  1.00  0.00     0.037 A 
BRANCH  25  39
ATOM     39  C   UNL A   1      46.065  28.806  31.638  1.00  0.00     0.064 A 
ATOM     40  C   UNL A   1      47.009  28.928  30.606  1.00  0.00     0.173 A 
ATOM     41  C   UNL A   1      46.402  28.009  32.742  1.00  0.00     0.173 A 
ATOM     42  F   UNL A   1      46.736  29.672  29.524  1.00  0.00    -0.203 F 
ATOM     43  C   UNL A   1      48.236  28.273  30.673  1.00  0.00     0.198 A 
ATOM     44  C   UNL A   1      47.642  27.377  32.818  1.00  0.00     0.198 A 
ATOM     45  F   UNL A   1      45.541  27.865  33.760  1.00  0.00    -0.203 F 
ATOM     46  F   UNL A   1      49.110  28.384  29.662  1.00  0.00    -0.200 F 
ATOM     47  C   UNL A   1      48.555  27.503  31.781  1.00  0.00     0.200 A 
ATOM     48  F   UNL A   1      47.957  26.652  33.900  1.00  0.00    -0.200 F 
ATOM     49  F   UNL A   1      49.742  26.885  31.852  1.00  0.00    -0.200 F 
ENDBRANCH  25  39
BRANCH  26  50
ATOM     50  C   UNL A   1      36.923  32.794  30.789  1.00  0.00     0.064 A 
ATOM     51  C   UNL A   1      36.598  33.537  29.644  1.00  0.00     0.173 A 
ATOM     52  C   UNL A   1      35.964  32.712  31.808  1.00  0.00     0.173 A 
ATOM     53  F   UNL A   1      37.488  33.654  28.647  1.00  0.00    -0.203 F 
ATOM     54  C   UNL A   1      35.384  34.211  29.542  1.00  0.00     0.198 A 
ATOM     55  C   UNL A   1      34.737  33.363  31.692  1.00  0.00     0.198 A 
ATOM     56  F   UNL A   1      36.223  32.003  32.916  1.00  0.00    -0.203 F 
ATOM     57  F   UNL A   1      35.126  34.964  28.465  1.00  0.00    -0.200 F 
ATOM     58  C   UNL A   1      34.454  34.123  30.567  1.00  0.00     0.200 A 
ATOM     59  F   UNL A   1      33.834  33.265  32.678  1.00  0.00    -0.200 F 
ATOM     60  F   UNL A   1      33.289  34.778  30.473  1.00  0.00    -0.200 F 
ENDBRANCH  26  50
BRANCH  38  61
ATOM     61  C   UNL A   1      42.868  34.876  33.822  1.00  0.00     0.064 A 
ATOM     62  C   UNL A   1      42.773  34.881  35.221  1.00  0.00     0.173 A 
ATOM     63  C   UNL A   1      43.246  36.064  33.181  1.00  0.00     0.173 A 
ATOM     64  F   UNL A   1      42.410  33.769  35.879  1.00  0.00    -0.203 F 
ATOM     65  C   UNL A   1      43.025  36.039  35.950  1.00  0.00     0.198 A 
ATOM     66  C   UNL A   1      43.522  37.214  33.915  1.00  0.00     0.198 A 
ATOM     67  F   UNL A   1      43.365  36.102  31.845  1.00  0.00    -0.203 F 
ATOM     68  F   UNL A   1      42.896  36.030  37.284  1.00  0.00    -0.200 F 
ATOM     69  C   UNL A   1      43.402  37.203  35.297  1.00  0.00     0.200 A 
ATOM     70  F   UNL A   1      43.907  38.332  33.285  1.00  0.00    -0.200 F 
ATOM     71  F   UNL A   1      43.650  38.316  36.000  1.00  0.00    -0.200 F 
ENDBRANCH  38  61
ENDBRANCH  12  13
ENDBRANCH   5   7
ENDBRANCH   2   3
ENDBRANCH   1   2
BRANCH   1  72
ATOM     72  C   UNL A   1      40.979  19.767  26.303  1.00  0.00     0.117 C 
BRANCH  72  73
ATOM     73  N   UNL A   1      41.831  18.702  26.782  1.00  0.00    -0.354 N 
ATOM     74  C   UNL A   1      43.033  18.280  26.293  1.00  0.00     0.249 C 
ATOM     75  H   UNL A   1      41.498  18.213  27.569  1.00  0.00     0.163 HD
ATOM     76  O   UNL A   1      43.578  17.328  26.858  1.00  0.00    -0.272 OA
BRANCH  74  77
ATOM     77  C   UNL A   1      43.740  19.025  25.141  1.00  0.00     0.207 C 
ATOM     78  C   UNL A   1      45.205  18.631  25.057  1.00  0.00     0.045 C 
ATOM     79  O   UNL A   1      43.719  20.455  25.148  1.00  0.00    -0.363 OA
ATOM     80  C   UNL A   1      45.781  19.733  24.202  1.00  0.00     0.037 C 
ATOM     81  C   UNL A   1      44.977  20.951  24.629  1.00  0.00     0.138 C 
BRANCH  81  82
ATOM     82  C   UNL A   1      45.670  21.802  25.713  1.00  0.00     0.145 C 
BRANCH  82  83
ATOM     83  N   UNL A   1      44.733  22.654  26.420  1.00  0.00    -0.378 N 
ATOM     84  H   UNL A   1      44.044  22.224  26.976  1.00  0.00     0.160 HD
BRANCH  83  85
ATOM     85  C   UNL A   1      44.750  24.042  26.360  1.00  0.00     0.113 A 
ATOM     86  C   UNL A   1      45.555  24.876  27.157  1.00  0.00     0.188 A 
ATOM     87  C   UNL A   1      43.832  24.682  25.508  1.00  0.00     0.188 A 
ATOM     88  F   UNL A   1      46.494  24.352  27.963  1.00  0.00    -0.201 F 
ATOM     89  C   UNL A   1      45.418  26.263  27.131  1.00  0.00     0.199 A 
ATOM     90  C   UNL A   1      43.694  26.066  25.479  1.00  0.00     0.199 A 
ATOM     91  F   UNL A   1      43.047  23.930  24.718  1.00  0.00    -0.201 F 
ATOM     92  F   UNL A   1      46.187  27.025  27.922  1.00  0.00    -0.200 F 
ATOM     93  C   UNL A   1      44.480  26.855  26.301  1.00  0.00     0.200 A 
ATOM     94  F   UNL A   1      42.783  26.630  24.674  1.00  0.00    -0.200 F 
ATOM     95  F   UNL A   1      44.331  28.187  26.298  1.00  0.00    -0.200 F 
ENDBRANCH  83  85
ENDBRANCH  82  83
ENDBRANCH  81  82
ENDBRANCH  74  77
ENDBRANCH  72  73
ENDBRANCH   1  72
TORSDOF 13
ENDMDL
MODEL 3
REMARK VINA RESULT:     -12.6      1.468      2.470
REMARK SMILES O=C(NCCCNC(=O)[C@@H]1CC[C@H](CNc2c(F)c(F)c(F)c(F)c2F)O1)c1ccc(-c2c3nc(c(-c4c(F)c(F)c(F)c(F)c4F)c4ccc([nH]4)c(-c4c(F)c(F)c(F)c(F)c4F)c4nc(c(-c5c(F)c(F)c(F)c(F)c5F)c5ccc2[nH]5)C=C4)C=C3)cc1
REMARK SMILES IDX 5 1 4 2 3 3 1 4 2 5 28 7 29 8 90 9 30 10 89 11 31 12 32 13
REMARK SMILES IDX 33 14 83 15 34 16 88 17 82 18 84 19 35 20 87 21 81 22 80 23
REMARK SMILES IDX 36 25 68 26 48 27 67 28 49 29 52 30 66 31 85 32 50 33 51 34
REMARK SMILES IDX 65 36 86 37 53 38 37 39 38 40 46 41 39 42 40 43 44 44 47 45
REMARK SMILES IDX 41 46 42 47 45 48 43 49 69 50 70 51 78 52 71 53 72 54 76 55
REMARK SMILES IDX 79 56 73 57 74 58 77 59 75 60 54 61 55 62 63 63 56 64 57 65
REMARK SMILES IDX 61 66 64 67 58 68 59 69 62 70 60 71 6 72 7 73 8 74 9 76
REMARK SMILES IDX 10 77 11 78 27 79 12 80 13 81 14 82 15 83 16 85 17 86 25 87
REMARK SMILES IDX 18 88 19 89 23 90 26 91 20 92 21 93 24 94 22 95
REMARK H PARENT 3 6 84 24 52 35 7 75 15 84
REMARK Flexibility Score: inf
ROOT
ATOM      1  C   UNL A   1      33.721  29.038  23.533  1.00  0.00     0.042 C 
ENDROOT
BRANCH   1   2
ATOM      2  C   UNL A   1      33.553  28.952  25.043  1.00  0.00     0.118 C 
BRANCH   2   3
ATOM      3  N   UNL A   1      32.850  30.113  25.586  1.00  0.00    -0.352 N 
ATOM      4  O   UNL A   1      32.269  31.669  27.108  1.00  0.00    -0.269 OA
ATOM      5  C   UNL A   1      33.097  30.849  26.718  1.00  0.00     0.251 C 
ATOM      6  H   UNL A   1      32.078  30.415  25.055  1.00  0.00     0.163 HD
BRANCH   5   7
ATOM      7  C   UNL A   1      34.353  30.655  27.470  1.00  0.00     0.039 A 
ATOM      8  C   UNL A   1      34.665  29.403  28.000  1.00  0.00     0.014 A 
ATOM      9  C   UNL A   1      35.242  31.723  27.627  1.00  0.00     0.014 A 
ATOM     10  C   UNL A   1      35.768  29.262  28.825  1.00  0.00     0.010 A 
ATOM     11  C   UNL A   1      36.421  31.546  28.356  1.00  0.00     0.010 A 
ATOM     12  C   UNL A   1      36.679  30.319  28.983  1.00  0.00    -0.014 A 
BRANCH  12  13
ATOM     13  C   UNL A   1      37.932  30.052  29.730  1.00  0.00     0.031 A 
ATOM     14  C   UNL A   1      38.127  30.523  31.139  1.00  0.00     0.074 A 
ATOM     15  C   UNL A   1      38.871  29.297  29.125  1.00  0.00     0.049 A 
ATOM     16  N   UNL A   1      39.120  30.275  31.955  1.00  0.00    -0.248 NA
ATOM     17  C   UNL A   1      37.085  31.391  31.707  1.00  0.00     0.031 C 
ATOM     18  C   UNL A   1      38.785  28.806  27.746  1.00  0.00     0.029 A 
ATOM     19  N   UNL A   1      40.043  28.764  29.593  1.00  0.00    -0.354 N 
ATOM     20  C   UNL A   1      38.836  30.971  33.121  1.00  0.00     0.074 A 
ATOM     21  C   UNL A   1      37.589  31.671  32.902  1.00  0.00     0.031 C 
ATOM     22  C   UNL A   1      39.802  27.970  27.513  1.00  0.00     0.029 A 
ATOM     23  C   UNL A   1      40.657  27.928  28.692  1.00  0.00     0.049 A 
ATOM     24  H   UNL A   1      40.410  28.961  30.484  1.00  0.00     0.167 HD
ATOM     25  C   UNL A   1      39.555  31.012  34.268  1.00  0.00     0.037 A 
ATOM     26  C   UNL A   1      41.787  27.206  28.799  1.00  0.00     0.037 A 
ATOM     27  C   UNL A   1      40.786  30.290  34.476  1.00  0.00     0.049 A 
ATOM     28  C   UNL A   1      42.563  27.268  30.079  1.00  0.00     0.074 A 
ATOM     29  C   UNL A   1      41.570  30.234  35.614  1.00  0.00     0.029 A 
ATOM     30  N   UNL A   1      41.410  29.498  33.520  1.00  0.00    -0.354 N 
ATOM     31  N   UNL A   1      42.273  27.912  31.184  1.00  0.00    -0.248 NA
ATOM     32  C   UNL A   1      43.826  26.522  30.127  1.00  0.00     0.031 C 
ATOM     33  C   UNL A   1      42.695  29.452  35.332  1.00  0.00     0.029 A 
ATOM     34  C   UNL A   1      42.586  28.975  34.035  1.00  0.00     0.049 A 
ATOM     35  H   UNL A   1      41.069  29.335  32.612  1.00  0.00     0.167 HD
ATOM     36  C   UNL A   1      43.313  27.650  32.060  1.00  0.00     0.074 A 
ATOM     37  C   UNL A   1      44.233  26.770  31.366  1.00  0.00     0.031 C 
ATOM     38  C   UNL A   1      43.491  28.106  33.324  1.00  0.00     0.037 A 
BRANCH  25  39
ATOM     39  C   UNL A   1      39.047  31.878  35.385  1.00  0.00     0.064 A 
ATOM     40  C   UNL A   1      39.410  33.233  35.450  1.00  0.00     0.173 A 
ATOM     41  C   UNL A   1      38.251  31.364  36.419  1.00  0.00     0.173 A 
ATOM     42  F   UNL A   1      40.175  33.776  34.492  1.00  0.00    -0.203 F 
ATOM     43  C   UNL A   1      38.999  34.037  36.512  1.00  0.00     0.198 A 
ATOM     44  C   UNL A   1      37.820  32.178  37.465  1.00  0.00     0.198 A 
ATOM     45  F   UNL A   1      37.869  30.078  36.401  1.00  0.00    -0.203 F 
ATOM     46  F   UNL A   1      39.380  35.321  36.564  1.00  0.00    -0.200 F 
ATOM     47  C   UNL A   1      38.199  33.510  37.514  1.00  0.00     0.200 A 
ATOM     48  F   UNL A   1      37.028  31.673  38.421  1.00  0.00    -0.200 F 
ATOM     49  F   UNL A   1      37.792  34.288  38.527  1.00  0.00    -0.200 F 
ENDBRANCH  25  39
BRANCH  26  50
ATOM     50  C   UNL A   1      42.213  26.364  27.654  1.00  0.00     0.064 A 
ATOM     51  C   UNL A   1      41.743  25.049  27.506  1.00  0.00     0.173 A 
ATOM     52  C   UNL A   1      43.175  26.819  26.744  1.00  0.00     0.173 A 
ATOM     53  F   UNL A   1      40.830  24.564  28.360  1.00  0.00    -0.203 F 
ATOM     54  C   UNL A   1      42.252  24.209  26.519  1.00  0.00     0.198 A 
ATOM     55  C   UNL A   1      43.662  25.987  25.737  1.00  0.00     0.198 A 
ATOM     56  F   UNL A   1      43.645  28.072  26.835  1.00  0.00    -0.203 F 
ATOM     57  F   UNL A   1      41.831  22.939  26.441  1.00  0.00    -0.200 F 
ATOM     58  C   UNL A   1      43.211  24.679  25.634  1.00  0.00     0.200 A 
ATOM     59  F   UNL A   1      44.578  26.448  24.874  1.00  0.00    -0.200 F 
ATOM     60  F   UNL A   1      43.706  23.869  24.689  1.00  0.00    -0.200 F 
ENDBRANCH  26  50
BRANCH  38  61
ATOM     61  C   UNL A   1      44.727  27.661  34.047  1.00  0.00     0.064 A 
ATOM     62  C   UNL A   1      44.711  26.497  34.830  1.00  0.00     0.173 A 
ATOM     63  C   UNL A   1      45.900  28.427  34.025  1.00  0.00     0.173 A 
ATOM     64  F   UNL A   1      43.609  25.734  34.885  1.00  0.00    -0.203 F 
ATOM     65  C   UNL A   1      45.822  26.128  35.582  1.00  0.00     0.198 A 
ATOM     66  C   UNL A   1      47.018  28.041  34.759  1.00  0.00     0.198 A 
ATOM     67  F   UNL A   1      45.966  29.540  33.278  1.00  0.00    -0.203 F 
ATOM     68  F   UNL A   1      45.774  25.030  36.350  1.00  0.00    -0.200 F 
ATOM     69  C   UNL A   1      46.975  26.898  35.544  1.00  0.00     0.200 A 
ATOM     70  F   UNL A   1      48.138  28.773  34.705  1.00  0.00    -0.200 F 
ATOM     71  F   UNL A   1      48.045  26.538  36.264  1.00  0.00    -0.200 F 
ENDBRANCH  38  61
ENDBRANCH  12  13
ENDBRANCH   5   7
ENDBRANCH   2   3
ENDBRANCH   1   2
BRANCH   1  72
ATOM     72  C   UNL A   1      32.597  28.324  22.797  1.00  0.00     0.117 C 
BRANCH  72  73
ATOM     73  N   UNL A   1      33.068  27.159  22.081  1.00  0.00    -0.354 N 
ATOM     74  C   UNL A   1      33.210  25.878  22.526  1.00  0.00     0.249 C 
ATOM     75  H   UNL A   1      33.321  27.313  21.141  1.00  0.00     0.163 HD
ATOM     76  O   UNL A   1      33.653  25.043  21.733  1.00  0.00    -0.272 OA
BRANCH  74  77
ATOM     77  C   UNL A   1      32.740  25.458  23.935  1.00  0.00     0.207 C 
ATOM     78  C   UNL A   1      33.909  25.402  24.904  1.00  0.00     0.045 C 
ATOM     79  O   UNL A   1      32.056  24.209  24.074  1.00  0.00    -0.363 OA
ATOM     80  C   UNL A   1      33.337  24.594  26.043  1.00  0.00     0.037 C 
ATOM     81  C   UNL A   1      32.428  23.602  25.335  1.00  0.00     0.138 C 
BRANCH  81  82
ATOM     82  C   UNL A   1      33.093  22.238  25.062  1.00  0.00     0.145 C 
BRANCH  82  83
ATOM     83  N   UNL A   1      32.154  21.138  25.189  1.00  0.00    -0.378 N 
ATOM     84  H   UNL A   1      31.286  21.317  25.618  1.00  0.00     0.160 HD
BRANCH  83  85
ATOM     85  C   UNL A   1      32.407  19.848  24.740  1.00  0.00     0.113 A 
ATOM     86  C   UNL A   1      32.875  18.791  25.541  1.00  0.00     0.188 A 
ATOM     87  C   UNL A   1      32.279  19.586  23.364  1.00  0.00     0.188 A 
ATOM     88  F   UNL A   1      32.979  18.936  26.872  1.00  0.00    -0.201 F 
ATOM     89  C   UNL A   1      33.231  17.561  24.989  1.00  0.00     0.199 A 
ATOM     90  C   UNL A   1      32.634  18.360  22.811  1.00  0.00     0.199 A 
ATOM     91  F   UNL A   1      31.826  20.561  22.557  1.00  0.00    -0.201 F 
ATOM     92  F   UNL A   1      33.696  16.584  25.781  1.00  0.00    -0.200 F 
ATOM     93  C   UNL A   1      33.122  17.351  23.623  1.00  0.00     0.200 A 
ATOM     94  F   UNL A   1      32.525  18.166  21.489  1.00  0.00    -0.200 F 
ATOM     95  F   UNL A   1      33.491  16.178  23.092  1.00  0.00    -0.200 F 
ENDBRANCH  83  85
ENDBRANCH  82  83
ENDBRANCH  81  82
ENDBRANCH  74  77
ENDBRANCH  72  73
ENDBRANCH   1  72
TORSDOF 13
ENDMDL
