MODEL 1
REMARK VINA RESULT:     -14.1      0.000      0.000
REMARK SMILES Cc1ccc(NS(=O)(=O)c2cc(C(=O)Nc3ccccc3C(=O)NCCCNC(=O)c3ccc(-c4c5nc(c(-c6c(F)c(F)c(F)c(F)c6F)c6ccc([nH]6)c(-c6c(F)c(F)c(F)c(F)c6F)c6nc(c(-c7c(F)c(F)c(F)c(F)c7F)c7ccc4[nH]7)C=C6)C=C5)cc3)ccc2Br)cc1
REMARK SMILES IDX 22 1 23 2 24 3 21 5 16 6 17 7 18 8 20 9 19 10 15 11 13 12
REMARK SMILES IDX 14 13 12 15 10 16 11 17 96 18 95 19 97 20 94 21 7 22 8 23
REMARK SMILES IDX 9 24 6 25 5 27 1 28 2 29 3 30 99 31 4 32 98 33 25 34 26 35
REMARK SMILES IDX 27 36 28 37 29 38 30 40 31 41 32 42 93 43 33 44 92 45 34 46
REMARK SMILES IDX 35 47 36 48 86 49 37 50 91 51 85 52 87 53 38 54 90 55 84 56
REMARK SMILES IDX 83 57 39 59 71 60 51 61 70 62 52 63 55 64 69 65 88 66 53 67
REMARK SMILES IDX 54 68 68 70 89 71 56 72 40 73 41 74 49 75 42 76 43 77 47 78
REMARK SMILES IDX 50 79 44 80 45 81 48 82 46 83 72 84 73 85 81 86 74 87 75 88
REMARK SMILES IDX 79 89 82 90 76 91 77 92 80 93 78 94 57 95 58 96 66 97 59 98
REMARK SMILES IDX 60 99 64 100 67 101 61 102 62 103 65 104 63 105
REMARK H PARENT 24 4 15 14 6 26 28 39 87 58 55 69
REMARK Flexibility Score: inf
ROOT
ATOM      1  C   UNL A   1      31.966  28.114  27.314  1.00  0.00     0.253 C 
ATOM      2  O   UNL A   1      31.286  27.829  28.294  1.00  0.00    -0.269 OA
ATOM      3  N   UNL A   1      33.272  28.474  27.521  1.00  0.00    -0.352 N 
ATOM      4  H   UNL A   1      33.489  28.729  28.447  1.00  0.00     0.163 HD
ENDROOT
BRANCH   1   5
ATOM      5  C   UNL A   1      31.337  28.212  25.969  1.00  0.00     0.063 A 
ATOM      6  C   UNL A   1      30.527  26.728  25.284  1.00  0.00     0.054 A 
ATOM      7  C   UNL A   1      29.811  26.883  23.390  1.00  0.00     0.027 A 
ATOM      8  C   UNL A   1      29.890  28.469  22.542  1.00  0.00     0.002 A 
ATOM      9  C   UNL A   1      31.370  29.683  24.981  1.00  0.00     0.016 A 
ATOM     10  C   UNL A   1      30.655  29.806  23.359  1.00  0.00     0.001 A 
BRANCH   6  11
ATOM     11  N   UNL A   1      30.465  25.645  26.340  1.00  0.00    -0.321 N 
ATOM     12  C   UNL A   1      31.246  24.512  26.658  1.00  0.00     0.255 C 
ATOM     13  O   UNL A   1      30.937  23.851  27.654  1.00  0.00    -0.269 OA
ATOM     14  H   UNL A   1      29.698  25.754  26.947  1.00  0.00     0.170 HD
BRANCH  12  15
ATOM     15  C   UNL A   1      32.531  24.129  25.981  1.00  0.00     0.041 A 
ATOM     16  C   UNL A   1      33.438  23.302  23.878  1.00  0.00     0.102 A 
ATOM     17  C   UNL A   1      32.475  23.362  24.856  1.00  0.00     0.037 A 
ATOM     18  C   UNL A   1      34.717  23.669  24.231  1.00  0.00     0.038 A 
ATOM     19  C   UNL A   1      34.909  24.262  25.498  1.00  0.00     0.018 A 
ATOM     20  Br  UNL A   1      36.220  23.289  23.156  1.00  0.00    -0.049 Br
ATOM     21  C   UNL A   1      33.804  24.568  26.334  1.00  0.00     0.015 A 
BRANCH  16  22
ATOM     22  S   UNL A   1      32.801  23.012  22.235  1.00  0.00     0.263 S 
ATOM     23  O   UNL A   1      33.943  23.006  21.345  1.00  0.00    -0.201 OA
ATOM     24  O   UNL A   1      31.693  23.919  22.034  1.00  0.00    -0.201 OA
BRANCH  22  25
ATOM     25  N   UNL A   1      32.205  21.397  22.185  1.00  0.00    -0.280 N 
ATOM     26  H   UNL A   1      31.555  21.206  21.469  1.00  0.00     0.180 HD
BRANCH  25  27
ATOM     27  C   UNL A   1      32.546  20.213  23.101  1.00  0.00     0.049 A 
ATOM     28  C   UNL A   1      32.673  15.614  25.365  1.00  0.00     0.044 C 
ATOM     29  C   UNL A   1      32.804  16.961  24.713  1.00  0.00    -0.051 A 
ATOM     30  C   UNL A   1      32.763  17.121  22.940  1.00  0.00     0.005 A 
ATOM     31  C   UNL A   1      32.755  18.316  25.805  1.00  0.00     0.005 A 
ATOM     32  C   UNL A   1      32.648  18.687  22.111  1.00  0.00     0.027 A 
ATOM     33  C   UNL A   1      32.649  19.958  25.112  1.00  0.00     0.027 A 
ENDBRANCH  25  27
ENDBRANCH  22  25
ENDBRANCH  16  22
ENDBRANCH  12  15
ENDBRANCH   6  11
ENDBRANCH   1   5
BRANCH   3  34
ATOM     34  C   UNL A   1      34.378  28.536  26.599  1.00  0.00     0.118 C 
BRANCH  34  35
ATOM     35  C   UNL A   1      35.267  29.737  26.786  1.00  0.00     0.042 C 
BRANCH  35  36
ATOM     36  C   UNL A   1      35.015  30.399  28.113  1.00  0.00     0.118 C 
BRANCH  36  37
ATOM     37  N   UNL A   1      36.156  31.186  28.577  1.00  0.00    -0.352 N 
ATOM     38  C   UNL A   1      37.459  30.812  28.859  1.00  0.00     0.251 C 
ATOM     39  H   UNL A   1      35.965  32.142  28.713  1.00  0.00     0.163 HD
ATOM     40  O   UNL A   1      38.262  31.645  29.267  1.00  0.00    -0.269 OA
BRANCH  38  41
ATOM     41  C   UNL A   1      37.933  29.462  28.464  1.00  0.00     0.039 A 
ATOM     42  C   UNL A   1      38.108  28.608  29.560  1.00  0.00     0.014 A 
ATOM     43  C   UNL A   1      38.775  29.386  27.369  1.00  0.00     0.014 A 
ATOM     44  C   UNL A   1      39.352  28.044  29.760  1.00  0.00     0.010 A 
ATOM     45  C   UNL A   1      40.063  29.011  27.640  1.00  0.00     0.010 A 
ATOM     46  C   UNL A   1      40.349  28.397  28.862  1.00  0.00    -0.014 A 
BRANCH  46  47
ATOM     47  C   UNL A   1      41.712  27.939  28.951  1.00  0.00     0.031 A 
ATOM     48  C   UNL A   1      41.820  26.533  28.514  1.00  0.00     0.074 A 
ATOM     49  C   UNL A   1      42.664  28.847  29.270  1.00  0.00     0.049 A 
ATOM     50  N   UNL A   1      42.577  25.647  29.040  1.00  0.00    -0.248 NA
ATOM     51  C   UNL A   1      40.913  25.936  27.515  1.00  0.00     0.031 C 
ATOM     52  C   UNL A   1      44.119  28.750  29.240  1.00  0.00     0.029 A 
ATOM     53  N   UNL A   1      42.444  30.096  29.895  1.00  0.00    -0.354 N 
ATOM     54  C   UNL A   1      42.611  24.598  28.138  1.00  0.00     0.074 A 
ATOM     55  C   UNL A   1      41.400  24.702  27.386  1.00  0.00     0.031 C 
ATOM     56  C   UNL A   1      44.632  29.621  30.133  1.00  0.00     0.029 A 
ATOM     57  C   UNL A   1      43.514  30.262  30.807  1.00  0.00     0.049 A 
ATOM     58  H   UNL A   1      41.701  30.720  29.730  1.00  0.00     0.167 HD
ATOM     59  C   UNL A   1      43.801  23.960  27.963  1.00  0.00     0.037 A 
ATOM     60  C   UNL A   1      43.263  30.210  32.148  1.00  0.00     0.037 A 
ATOM     61  C   UNL A   1      44.776  24.581  28.861  1.00  0.00     0.049 A 
ATOM     62  C   UNL A   1      43.809  28.930  32.732  1.00  0.00     0.074 A 
ATOM     63  C   UNL A   1      45.716  25.578  28.653  1.00  0.00     0.029 A 
ATOM     64  N   UNL A   1      44.531  24.547  30.227  1.00  0.00    -0.354 N 
ATOM     65  N   UNL A   1      43.942  27.821  32.047  1.00  0.00    -0.248 NA
ATOM     66  C   UNL A   1      44.379  28.844  34.072  1.00  0.00     0.031 C 
ATOM     67  C   UNL A   1      45.992  26.178  29.915  1.00  0.00     0.029 A 
ATOM     68  C   UNL A   1      45.204  25.563  30.876  1.00  0.00     0.049 A 
ATOM     69  H   UNL A   1      43.955  23.885  30.674  1.00  0.00     0.167 HD
ATOM     70  C   UNL A   1      44.671  26.925  32.785  1.00  0.00     0.074 A 
ATOM     71  C   UNL A   1      44.914  27.612  34.043  1.00  0.00     0.031 C 
ATOM     72  C   UNL A   1      45.077  25.705  32.318  1.00  0.00     0.037 A 
BRANCH  59  73
ATOM     73  C   UNL A   1      44.199  23.038  26.832  1.00  0.00     0.064 A 
ATOM     74  C   UNL A   1      43.473  21.840  26.635  1.00  0.00     0.173 A 
ATOM     75  C   UNL A   1      45.251  23.237  25.916  1.00  0.00     0.173 A 
ATOM     76  F   UNL A   1      42.414  21.529  27.395  1.00  0.00    -0.203 F 
ATOM     77  C   UNL A   1      43.796  20.910  25.644  1.00  0.00     0.198 A 
ATOM     78  C   UNL A   1      45.579  22.300  24.926  1.00  0.00     0.198 A 
ATOM     79  F   UNL A   1      45.987  24.350  25.905  1.00  0.00    -0.203 F 
ATOM     80  F   UNL A   1      43.068  19.792  25.525  1.00  0.00    -0.200 F 
ATOM     81  C   UNL A   1      44.853  21.137  24.792  1.00  0.00     0.200 A 
ATOM     82  F   UNL A   1      46.603  22.543  24.095  1.00  0.00    -0.200 F 
ATOM     83  F   UNL A   1      45.157  20.250  23.835  1.00  0.00    -0.200 F 
ENDBRANCH  59  73
BRANCH  60  84
ATOM     84  C   UNL A   1      41.994  30.927  32.480  1.00  0.00     0.064 A 
ATOM     85  C   UNL A   1      40.918  30.107  32.888  1.00  0.00     0.173 A 
ATOM     86  C   UNL A   1      41.976  32.261  32.904  1.00  0.00     0.173 A 
ATOM     87  F   UNL A   1      40.865  28.826  32.487  1.00  0.00    -0.203 F 
ATOM     88  C   UNL A   1      40.002  30.533  33.846  1.00  0.00     0.198 A 
ATOM     89  C   UNL A   1      41.020  32.697  33.831  1.00  0.00     0.198 A 
ATOM     90  F   UNL A   1      42.950  33.102  32.534  1.00  0.00    -0.203 F 
ATOM     91  F   UNL A   1      39.120  29.664  34.364  1.00  0.00    -0.200 F 
ATOM     92  C   UNL A   1      40.082  31.817  34.350  1.00  0.00     0.200 A 
ATOM     93  F   UNL A   1      41.059  33.957  34.287  1.00  0.00    -0.200 F 
ATOM     94  F   UNL A   1      39.283  32.181  35.365  1.00  0.00    -0.200 F 
ENDBRANCH  60  84
BRANCH  72  95
ATOM     95  C   UNL A   1      45.496  24.541  33.190  1.00  0.00     0.064 A 
ATOM     96  C   UNL A   1      44.668  23.443  33.467  1.00  0.00     0.173 A 
ATOM     97  C   UNL A   1      46.827  24.421  33.666  1.00  0.00     0.173 A 
ATOM     98  F   UNL A   1      43.455  23.315  32.915  1.00  0.00    -0.203 F 
ATOM     99  C   UNL A   1      45.085  22.388  34.277  1.00  0.00     0.198 A 
ATOM    100  C   UNL A   1      47.274  23.309  34.373  1.00  0.00     0.198 A 
ATOM    101  F   UNL A   1      47.760  25.356  33.441  1.00  0.00    -0.203 F 
ATOM    102  F   UNL A   1      44.213  21.424  34.602  1.00  0.00    -0.200 F 
ATOM    103  C   UNL A   1      46.390  22.315  34.720  1.00  0.00     0.200 A 
ATOM    104  F   UNL A   1      48.570  23.210  34.702  1.00  0.00    -0.200 F 
ATOM    105  F   UNL A   1      46.799  21.277  35.458  1.00  0.00    -0.200 F 
ENDBRANCH  72  95
ENDBRANCH  46  47
ENDBRANCH  38  41
ENDBRANCH  36  37
ENDBRANCH  35  36
ENDBRANCH  34  35
ENDBRANCH   3  34
TORSDOF 15
ENDMDL
MODEL 2
REMARK VINA RESULT:     -14.0      4.028     10.119
REMARK SMILES Cc1ccc(NS(=O)(=O)c2cc(C(=O)Nc3ccccc3C(=O)NCCCNC(=O)c3ccc(-c4c5nc(c(-c6c(F)c(F)c(F)c(F)c6F)c6ccc([nH]6)c(-c6c(F)c(F)c(F)c(F)c6F)c6nc(c(-c7c(F)c(F)c(F)c(F)c7F)c7ccc4[nH]7)C=C6)C=C5)cc3)ccc2Br)cc1
REMARK SMILES IDX 22 1 23 2 24 3 21 5 16 6 17 7 18 8 20 9 19 10 15 11 13 12
REMARK SMILES IDX 14 13 12 15 10 16 11 17 96 18 95 19 97 20 94 21 7 22 8 23
REMARK SMILES IDX 9 24 6 25 5 27 1 28 2 29 3 30 99 31 4 32 98 33 25 34 26 35
REMARK SMILES IDX 27 36 28 37 29 38 30 40 31 41 32 42 93 43 33 44 92 45 34 46
REMARK SMILES IDX 35 47 36 48 86 49 37 50 91 51 85 52 87 53 38 54 90 55 84 56
REMARK SMILES IDX 83 57 39 59 71 60 51 61 70 62 52 63 55 64 69 65 88 66 53 67
REMARK SMILES IDX 54 68 68 70 89 71 56 72 40 73 41 74 49 75 42 76 43 77 47 78
REMARK SMILES IDX 50 79 44 80 45 81 48 82 46 83 72 84 73 85 81 86 74 87 75 88
REMARK SMILES IDX 79 89 82 90 76 91 77 92 80 93 78 94 57 95 58 96 66 97 59 98
REMARK SMILES IDX 60 99 64 100 67 101 61 102 62 103 65 104 63 105
REMARK H PARENT 24 4 15 14 6 26 28 39 87 58 55 69
REMARK Flexibility Score: inf
ROOT
ATOM      1  C   UNL A   1      41.431  20.625  27.378  1.00  0.00     0.253 C 
ATOM      2  O   UNL A   1      41.020  19.747  28.129  1.00  0.00    -0.269 OA
ATOM      3  N   UNL A   1      42.573  20.376  26.663  1.00  0.00    -0.352 N 
ATOM      4  H   UNL A   1      43.117  19.628  27.000  1.00  0.00     0.163 HD
ENDROOT
BRANCH   1   5
ATOM      5  C   UNL A   1      40.787  21.967  27.370  1.00  0.00     0.063 A 
ATOM      6  C   UNL A   1      39.245  22.180  26.418  1.00  0.00     0.054 A 
ATOM      7  C   UNL A   1      38.491  24.064  26.330  1.00  0.00     0.027 A 
ATOM      8  C   UNL A   1      39.281  25.377  27.275  1.00  0.00     0.002 A 
ATOM      9  C   UNL A   1      41.461  23.377  28.205  1.00  0.00     0.016 A 
ATOM     10  C   UNL A   1      40.724  24.994  28.176  1.00  0.00     0.001 A 
BRANCH   6  11
ATOM     11  N   UNL A   1      38.757  20.834  25.926  1.00  0.00    -0.321 N 
ATOM     12  C   UNL A   1      37.679  20.392  25.126  1.00  0.00     0.255 C 
ATOM     13  O   UNL A   1      37.604  19.188  24.863  1.00  0.00    -0.269 OA
ATOM     14  H   UNL A   1      39.323  20.091  26.237  1.00  0.00     0.170 HD
BRANCH  12  15
ATOM     15  C   UNL A   1      36.698  21.287  24.425  1.00  0.00     0.041 A 
ATOM     16  C   UNL A   1      34.380  22.031  24.475  1.00  0.00     0.102 A 
ATOM     17  C   UNL A   1      35.366  21.088  24.632  1.00  0.00     0.037 A 
ATOM     18  C   UNL A   1      34.655  23.096  23.647  1.00  0.00     0.038 A 
ATOM     19  C   UNL A   1      35.979  23.248  23.183  1.00  0.00     0.018 A 
ATOM     20  Br  UNL A   1      33.318  24.265  23.011  1.00  0.00    -0.049 Br
ATOM     21  C   UNL A   1      37.014  22.393  23.641  1.00  0.00     0.015 A 
BRANCH  16  22
ATOM     22  S   UNL A   1      33.000  21.847  25.593  1.00  0.00     0.263 S 
ATOM     23  O   UNL A   1      33.308  20.716  26.445  1.00  0.00    -0.201 OA
ATOM     24  O   UNL A   1      31.792  21.886  24.800  1.00  0.00    -0.201 OA
BRANCH  22  25
ATOM     25  N   UNL A   1      33.004  23.203  26.655  1.00  0.00    -0.280 N 
ATOM     26  H   UNL A   1      33.197  23.002  27.599  1.00  0.00     0.180 HD
BRANCH  25  27
ATOM     27  C   UNL A   1      32.748  24.682  26.331  1.00  0.00     0.049 A 
ATOM     28  C   UNL A   1      30.969  29.043  24.303  1.00  0.00     0.044 C 
ATOM     29  C   UNL A   1      31.482  27.843  25.046  1.00  0.00    -0.051 A 
ATOM     30  C   UNL A   1      30.385  26.515  25.497  1.00  0.00     0.005 A 
ATOM     31  C   UNL A   1      33.214  27.758  25.205  1.00  0.00     0.005 A 
ATOM     32  C   UNL A   1      30.957  24.960  26.137  1.00  0.00     0.027 A 
ATOM     33  C   UNL A   1      33.933  26.256  25.845  1.00  0.00     0.027 A 
ENDBRANCH  25  27
ENDBRANCH  22  25
ENDBRANCH  16  22
ENDBRANCH  12  15
ENDBRANCH   6  11
ENDBRANCH   1   5
BRANCH   3  34
ATOM     34  C   UNL A   1      43.104  21.034  25.496  1.00  0.00     0.118 C 
BRANCH  34  35
ATOM     35  C   UNL A   1      44.211  22.011  25.792  1.00  0.00     0.042 C 
BRANCH  35  36
ATOM     36  C   UNL A   1      44.327  23.046  24.707  1.00  0.00     0.118 C 
BRANCH  36  37
ATOM     37  N   UNL A   1      43.180  23.951  24.665  1.00  0.00    -0.352 N 
ATOM     38  C   UNL A   1      42.996  25.207  25.218  1.00  0.00     0.251 C 
ATOM     39  H   UNL A   1      42.407  23.608  24.161  1.00  0.00     0.163 HD
ATOM     40  O   UNL A   1      41.926  25.789  25.078  1.00  0.00    -0.269 OA
BRANCH  38  41
ATOM     41  C   UNL A   1      44.161  25.930  25.788  1.00  0.00     0.039 A 
ATOM     42  C   UNL A   1      44.517  25.464  27.060  1.00  0.00     0.014 A 
ATOM     43  C   UNL A   1      44.288  27.270  25.467  1.00  0.00     0.014 A 
ATOM     44  C   UNL A   1      44.538  26.363  28.107  1.00  0.00     0.010 A 
ATOM     45  C   UNL A   1      44.104  28.145  26.503  1.00  0.00     0.010 A 
ATOM     46  C   UNL A   1      44.171  27.670  27.815  1.00  0.00    -0.014 A 
BRANCH  46  47
ATOM     47  C   UNL A   1      44.092  28.722  28.795  1.00  0.00     0.031 A 
ATOM     48  C   UNL A   1      42.718  29.255  28.880  1.00  0.00     0.074 A 
ATOM     49  C   UNL A   1      45.188  28.965  29.551  1.00  0.00     0.049 A 
ATOM     50  N   UNL A   1      42.406  30.483  29.050  1.00  0.00    -0.248 NA
ATOM     51  C   UNL A   1      41.525  28.435  28.592  1.00  0.00     0.031 C 
ATOM     52  C   UNL A   1      45.362  29.799  30.735  1.00  0.00     0.029 A 
ATOM     53  N   UNL A   1      46.513  28.575  29.243  1.00  0.00    -0.354 N 
ATOM     54  C   UNL A   1      41.066  30.486  29.394  1.00  0.00     0.074 A 
ATOM     55  C   UNL A   1      40.527  29.281  28.844  1.00  0.00     0.031 C 
ATOM     56  C   UNL A   1      46.652  30.187  30.810  1.00  0.00     0.029 A 
ATOM     57  C   UNL A   1      47.333  29.660  29.637  1.00  0.00     0.049 A 
ATOM     58  H   UNL A   1      46.803  27.726  28.839  1.00  0.00     0.167 HD
ATOM     59  C   UNL A   1      40.666  31.372  30.348  1.00  0.00     0.037 A 
ATOM     60  C   UNL A   1      47.956  30.407  28.680  1.00  0.00     0.037 A 
ATOM     61  C   UNL A   1      41.837  32.151  30.753  1.00  0.00     0.049 A 
ATOM     62  C   UNL A   1      47.311  31.767  28.578  1.00  0.00     0.074 A 
ATOM     63  C   UNL A   1      42.725  32.002  31.807  1.00  0.00     0.029 A 
ATOM     64  N   UNL A   1      42.490  32.908  29.790  1.00  0.00    -0.354 N 
ATOM     65  N   UNL A   1      46.055  31.996  28.873  1.00  0.00    -0.248 NA
ATOM     66  C   UNL A   1      48.057  32.985  28.284  1.00  0.00     0.031 C 
ATOM     67  C   UNL A   1      43.943  32.640  31.436  1.00  0.00     0.029 A 
ATOM     68  C   UNL A   1      43.800  33.150  30.155  1.00  0.00     0.049 A 
ATOM     69  H   UNL A   1      42.075  33.231  28.958  1.00  0.00     0.167 HD
ATOM     70  C   UNL A   1      45.842  33.349  28.901  1.00  0.00     0.074 A 
ATOM     71  C   UNL A   1      47.123  33.921  28.521  1.00  0.00     0.031 C 
ATOM     72  C   UNL A   1      44.660  33.928  29.277  1.00  0.00     0.037 A 
BRANCH  59  73
ATOM     73  C   UNL A   1      39.376  31.360  31.138  1.00  0.00     0.064 A 
ATOM     74  C   UNL A   1      38.365  32.295  30.817  1.00  0.00     0.173 A 
ATOM     75  C   UNL A   1      39.050  30.496  32.203  1.00  0.00     0.173 A 
ATOM     76  F   UNL A   1      38.505  33.155  29.798  1.00  0.00    -0.203 F 
ATOM     77  C   UNL A   1      37.161  32.386  31.519  1.00  0.00     0.198 A 
ATOM     78  C   UNL A   1      37.844  30.591  32.912  1.00  0.00     0.198 A 
ATOM     79  F   UNL A   1      39.853  29.501  32.587  1.00  0.00    -0.203 F 
ATOM     80  F   UNL A   1      36.254  33.305  31.161  1.00  0.00    -0.200 F 
ATOM     81  C   UNL A   1      36.902  31.537  32.571  1.00  0.00     0.200 A 
ATOM     82  F   UNL A   1      37.602  29.747  33.926  1.00  0.00    -0.200 F 
ATOM     83  F   UNL A   1      35.744  31.617  33.239  1.00  0.00    -0.200 F 
ENDBRANCH  59  73
BRANCH  60  84
ATOM     84  C   UNL A   1      48.490  29.536  27.589  1.00  0.00     0.064 A 
ATOM     85  C   UNL A   1      49.562  28.690  27.953  1.00  0.00     0.173 A 
ATOM     86  C   UNL A   1      47.712  29.144  26.494  1.00  0.00     0.173 A 
ATOM     87  F   UNL A   1      50.363  29.029  28.977  1.00  0.00    -0.203 F 
ATOM     88  C   UNL A   1      49.705  27.420  27.401  1.00  0.00     0.198 A 
ATOM     89  C   UNL A   1      47.893  27.884  25.910  1.00  0.00     0.198 A 
ATOM     90  F   UNL A   1      46.695  29.910  26.078  1.00  0.00    -0.203 F 
ATOM     91  F   UNL A   1      50.604  26.564  27.912  1.00  0.00    -0.200 F 
ATOM     92  C   UNL A   1      48.841  27.001  26.407  1.00  0.00     0.200 A 
ATOM     93  F   UNL A   1      47.092  27.489  24.911  1.00  0.00    -0.200 F 
ATOM     94  F   UNL A   1      48.899  25.734  25.971  1.00  0.00    -0.200 F 
ENDBRANCH  60  84
BRANCH  72  95
ATOM     95  C   UNL A   1      44.240  35.340  28.931  1.00  0.00     0.064 A 
ATOM     96  C   UNL A   1      43.571  35.681  27.746  1.00  0.00     0.173 A 
ATOM     97  C   UNL A   1      44.369  36.396  29.871  1.00  0.00     0.173 A 
ATOM     98  F   UNL A   1      43.193  34.755  26.856  1.00  0.00    -0.203 F 
ATOM     99  C   UNL A   1      43.200  36.994  27.458  1.00  0.00     0.198 A 
ATOM    100  C   UNL A   1      43.889  37.679  29.627  1.00  0.00     0.198 A 
ATOM    101  F   UNL A   1      44.934  36.225  31.073  1.00  0.00    -0.203 F 
ATOM    102  F   UNL A   1      42.670  37.280  26.262  1.00  0.00    -0.200 F 
ATOM    103  C   UNL A   1      43.348  37.990  28.402  1.00  0.00     0.200 A 
ATOM    104  F   UNL A   1      43.948  38.603  30.597  1.00  0.00    -0.200 F 
ATOM    105  F   UNL A   1      42.948  39.239  28.140  1.00  0.00    -0.200 F 
ENDBRANCH  72  95
ENDBRANCH  46  47
ENDBRANCH  38  41
ENDBRANCH  36  37
ENDBRANCH  35  36
ENDBRANCH  34  35
ENDBRANCH   3  34
TORSDOF 15
ENDMDL
MODEL 3
REMARK VINA RESULT:     -13.9      5.277      8.720
REMARK SMILES Cc1ccc(NS(=O)(=O)c2cc(C(=O)Nc3ccccc3C(=O)NCCCNC(=O)c3ccc(-c4c5nc(c(-c6c(F)c(F)c(F)c(F)c6F)c6ccc([nH]6)c(-c6c(F)c(F)c(F)c(F)c6F)c6nc(c(-c7c(F)c(F)c(F)c(F)c7F)c7ccc4[nH]7)C=C6)C=C5)cc3)ccc2Br)cc1
REMARK SMILES IDX 22 1 23 2 24 3 21 5 16 6 17 7 18 8 20 9 19 10 15 11 13 12
REMARK SMILES IDX 14 13 12 15 10 16 11 17 96 18 95 19 97 20 94 21 7 22 8 23
REMARK SMILES IDX 9 24 6 25 5 27 1 28 2 29 3 30 99 31 4 32 98 33 25 34 26 35
REMARK SMILES IDX 27 36 28 37 29 38 30 40 31 41 32 42 93 43 33 44 92 45 34 46
REMARK SMILES IDX 35 47 36 48 86 49 37 50 91 51 85 52 87 53 38 54 90 55 84 56
REMARK SMILES IDX 83 57 39 59 71 60 51 61 70 62 52 63 55 64 69 65 88 66 53 67
REMARK SMILES IDX 54 68 68 70 89 71 56 72 40 73 41 74 49 75 42 76 43 77 47 78
REMARK SMILES IDX 50 79 44 80 45 81 48 82 46 83 72 84 73 85 81 86 74 87 75 88
REMARK SMILES IDX 79 89 82 90 76 91 77 92 80 93 78 94 57 95 58 96 66 97 59 98
REMARK SMILES IDX 60 99 64 100 67 101 61 102 62 103 65 104 63 105
REMARK H PARENT 24 4 15 14 6 26 28 39 87 58 55 69
REMARK Flexibility Score: inf
ROOT
ATOM      1  C   UNL A   1      35.884  33.214  28.969  1.00  0.00     0.253 C 
ATOM      2  O   UNL A   1      37.107  33.271  29.029  1.00  0.00    -0.269 OA
ATOM      3  N   UNL A   1      35.321  32.605  27.877  1.00  0.00    -0.352 N 
ATOM      4  H   UNL A   1      35.926  32.496  27.108  1.00  0.00     0.163 HD
ENDROOT
BRANCH   1   5
ATOM      5  C   UNL A   1      35.050  33.924  29.977  1.00  0.00     0.063 A 
ATOM      6  C   UNL A   1      35.096  33.338  31.704  1.00  0.00     0.054 A 
ATOM      7  C   UNL A   1      33.833  34.255  33.003  1.00  0.00     0.027 A 
ATOM      8  C   UNL A   1      32.847  35.652  32.440  1.00  0.00     0.002 A 
ATOM      9  C   UNL A   1      33.985  35.284  29.579  1.00  0.00     0.016 A 
ATOM     10  C   UNL A   1      32.958  36.119  30.763  1.00  0.00     0.001 A 
BRANCH   6  11
ATOM     11  N   UNL A   1      36.178  32.290  31.860  1.00  0.00    -0.321 N 
ATOM     12  C   UNL A   1      37.410  32.220  32.548  1.00  0.00     0.255 C 
ATOM     13  O   UNL A   1      38.040  31.158  32.510  1.00  0.00    -0.269 OA
ATOM     14  H   UNL A   1      35.977  31.464  31.365  1.00  0.00     0.170 HD
BRANCH  12  15
ATOM     15  C   UNL A   1      37.950  33.278  33.468  1.00  0.00     0.041 A 
ATOM     16  C   UNL A   1      38.366  33.771  35.815  1.00  0.00     0.102 A 
ATOM     17  C   UNL A   1      37.637  33.216  34.793  1.00  0.00     0.037 A 
ATOM     18  C   UNL A   1      39.203  34.817  35.495  1.00  0.00     0.038 A 
ATOM     19  C   UNL A   1      39.401  35.111  34.129  1.00  0.00     0.018 A 
ATOM     20  Br  UNL A   1      39.974  35.941  36.800  1.00  0.00    -0.049 Br
ATOM     21  C   UNL A   1      38.842  34.288  33.118  1.00  0.00     0.015 A 
BRANCH  16  22
ATOM     22  S   UNL A   1      38.301  32.856  37.347  1.00  0.00     0.263 S 
ATOM     23  O   UNL A   1      37.435  31.718  37.112  1.00  0.00    -0.201 OA
ATOM     24  O   UNL A   1      38.032  33.802  38.406  1.00  0.00    -0.201 OA
BRANCH  22  25
ATOM     25  N   UNL A   1      39.858  32.167  37.609  1.00  0.00    -0.280 N 
ATOM     26  H   UNL A   1      40.132  32.082  38.551  1.00  0.00     0.180 HD
BRANCH  25  27
ATOM     27  C   UNL A   1      40.878  31.667  36.576  1.00  0.00     0.049 A 
ATOM     28  C   UNL A   1      43.706  28.723  33.471  1.00  0.00     0.044 C 
ATOM     29  C   UNL A   1      42.869  29.695  34.253  1.00  0.00    -0.051 A 
ATOM     30  C   UNL A   1      41.107  29.473  34.392  1.00  0.00     0.005 A 
ATOM     31  C   UNL A   1      43.768  30.869  35.174  1.00  0.00     0.005 A 
ATOM     32  C   UNL A   1      40.096  30.419  35.503  1.00  0.00     0.027 A 
ATOM     33  C   UNL A   1      42.879  31.901  36.328  1.00  0.00     0.027 A 
ENDBRANCH  25  27
ENDBRANCH  22  25
ENDBRANCH  16  22
ENDBRANCH  12  15
ENDBRANCH   6  11
ENDBRANCH   1   5
BRANCH   3  34
ATOM     34  C   UNL A   1      33.988  32.097  27.678  1.00  0.00     0.118 C 
BRANCH  34  35
ATOM     35  C   UNL A   1      33.917  30.602  27.514  1.00  0.00     0.042 C 
BRANCH  35  36
ATOM     36  C   UNL A   1      35.289  29.987  27.542  1.00  0.00     0.118 C 
BRANCH  36  37
ATOM     37  N   UNL A   1      35.659  29.493  28.867  1.00  0.00    -0.352 N 
ATOM     38  C   UNL A   1      36.894  29.399  29.486  1.00  0.00     0.251 C 
ATOM     39  H   UNL A   1      34.903  29.172  29.409  1.00  0.00     0.163 HD
ATOM     40  O   UNL A   1      36.981  28.922  30.612  1.00  0.00    -0.269 OA
BRANCH  38  41
ATOM     41  C   UNL A   1      38.069  30.070  28.875  1.00  0.00     0.039 A 
ATOM     42  C   UNL A   1      38.244  29.732  27.528  1.00  0.00     0.014 A 
ATOM     43  C   UNL A   1      39.162  30.293  29.695  1.00  0.00     0.014 A 
ATOM     44  C   UNL A   1      39.446  29.172  27.142  1.00  0.00     0.010 A 
ATOM     45  C   UNL A   1      40.281  29.565  29.397  1.00  0.00     0.010 A 
ATOM     46  C   UNL A   1      40.385  28.960  28.142  1.00  0.00    -0.014 A 
BRANCH  46  47
ATOM     47  C   UNL A   1      41.668  28.344  27.924  1.00  0.00     0.031 A 
ATOM     48  C   UNL A   1      41.578  26.879  28.081  1.00  0.00     0.074 A 
ATOM     49  C   UNL A   1      42.683  29.131  27.497  1.00  0.00     0.049 A 
ATOM     50  N   UNL A   1      42.466  26.132  28.617  1.00  0.00    -0.248 NA
ATOM     51  C   UNL A   1      40.345  26.120  27.792  1.00  0.00     0.031 C 
ATOM     52  C   UNL A   1      44.011  28.787  27.001  1.00  0.00     0.029 A 
ATOM     53  N   UNL A   1      42.741  30.540  27.601  1.00  0.00    -0.354 N 
ATOM     54  C   UNL A   1      42.132  24.837  28.262  1.00  0.00     0.074 A 
ATOM     55  C   UNL A   1      40.725  24.861  28.008  1.00  0.00     0.031 C 
ATOM     56  C   UNL A   1      44.843  29.824  27.227  1.00  0.00     0.029 A 
ATOM     57  C   UNL A   1      44.084  30.845  27.932  1.00  0.00     0.049 A 
ATOM     58  H   UNL A   1      42.002  31.177  27.471  1.00  0.00     0.167 HD
ATOM     59  C   UNL A   1      43.151  23.988  27.954  1.00  0.00     0.037 A 
ATOM     60  C   UNL A   1      44.372  31.328  29.176  1.00  0.00     0.037 A 
ATOM     61  C   UNL A   1      44.408  24.720  28.123  1.00  0.00     0.049 A 
ATOM     62  C   UNL A   1      45.083  30.277  29.993  1.00  0.00     0.074 A 
ATOM     63  C   UNL A   1      45.208  25.399  27.219  1.00  0.00     0.029 A 
ATOM     64  N   UNL A   1      44.711  25.229  29.379  1.00  0.00    -0.354 N 
ATOM     65  N   UNL A   1      44.923  28.990  29.812  1.00  0.00    -0.248 NA
ATOM     66  C   UNL A   1      46.127  30.591  30.962  1.00  0.00     0.031 C 
ATOM     67  C   UNL A   1      45.960  26.362  27.949  1.00  0.00     0.029 A 
ATOM     68  C   UNL A   1      45.598  26.283  29.285  1.00  0.00     0.049 A 
ATOM     69  H   UNL A   1      44.344  24.882  30.225  1.00  0.00     0.167 HD
ATOM     70  C   UNL A   1      45.868  28.316  30.540  1.00  0.00     0.074 A 
ATOM     71  C   UNL A   1      46.590  29.362  31.244  1.00  0.00     0.031 C 
ATOM     72  C   UNL A   1      46.043  26.959  30.493  1.00  0.00     0.037 A 
BRANCH  59  73
ATOM     73  C   UNL A   1      43.065  22.664  27.228  1.00  0.00     0.064 A 
ATOM     74  C   UNL A   1      42.220  21.653  27.740  1.00  0.00     0.173 A 
ATOM     75  C   UNL A   1      43.757  22.303  26.054  1.00  0.00     0.173 A 
ATOM     76  F   UNL A   1      41.459  21.859  28.824  1.00  0.00    -0.203 F 
ATOM     77  C   UNL A   1      42.110  20.387  27.161  1.00  0.00     0.198 A 
ATOM     78  C   UNL A   1      43.652  21.030  25.477  1.00  0.00     0.198 A 
ATOM     79  F   UNL A   1      44.535  23.161  25.391  1.00  0.00    -0.203 F 
ATOM     80  F   UNL A   1      41.295  19.477  27.710  1.00  0.00    -0.200 F 
ATOM     81  C   UNL A   1      42.831  20.072  26.030  1.00  0.00     0.200 A 
ATOM     82  F   UNL A   1      44.351  20.744  24.368  1.00  0.00    -0.200 F 
ATOM     83  F   UNL A   1      42.719  18.862  25.468  1.00  0.00    -0.200 F 
ENDBRANCH  59  73
BRANCH  60  84
ATOM     84  C   UNL A   1      43.342  32.320  29.613  1.00  0.00     0.064 A 
ATOM     85  C   UNL A   1      42.630  31.983  30.786  1.00  0.00     0.173 A 
ATOM     86  C   UNL A   1      43.420  33.677  29.282  1.00  0.00     0.173 A 
ATOM     87  F   UNL A   1      42.494  30.694  31.138  1.00  0.00    -0.203 F 
ATOM     88  C   UNL A   1      42.218  32.957  31.691  1.00  0.00     0.198 A 
ATOM     89  C   UNL A   1      42.959  34.653  30.176  1.00  0.00     0.198 A 
ATOM     90  F   UNL A   1      44.059  34.068  28.171  1.00  0.00    -0.203 F 
ATOM     91  F   UNL A   1      41.731  32.597  32.889  1.00  0.00    -0.200 F 
ATOM     92  C   UNL A   1      42.423  34.293  31.404  1.00  0.00     0.200 A 
ATOM     93  F   UNL A   1      43.108  35.952  29.882  1.00  0.00    -0.200 F 
ATOM     94  F   UNL A   1      42.146  35.221  32.333  1.00  0.00    -0.200 F 
ENDBRANCH  60  84
BRANCH  72  95
ATOM     95  C   UNL A   1      46.750  26.141  31.552  1.00  0.00     0.064 A 
ATOM     96  C   UNL A   1      48.144  25.996  31.617  1.00  0.00     0.173 A 
ATOM     97  C   UNL A   1      46.039  25.585  32.648  1.00  0.00     0.173 A 
ATOM     98  F   UNL A   1      48.961  26.636  30.772  1.00  0.00    -0.203 F 
ATOM     99  C   UNL A   1      48.762  25.232  32.605  1.00  0.00     0.198 A 
ATOM    100  C   UNL A   1      46.673  24.926  33.696  1.00  0.00     0.198 A 
ATOM    101  F   UNL A   1      44.708  25.683  32.767  1.00  0.00    -0.203 F 
ATOM    102  F   UNL A   1      50.086  25.033  32.550  1.00  0.00    -0.200 F 
ATOM    103  C   UNL A   1      48.030  24.708  33.650  1.00  0.00     0.200 A 
ATOM    104  F   UNL A   1      45.955  24.517  34.752  1.00  0.00    -0.200 F 
ATOM    105  F   UNL A   1      48.633  24.015  34.623  1.00  0.00    -0.200 F 
ENDBRANCH  72  95
ENDBRANCH  46  47
ENDBRANCH  38  41
ENDBRANCH  36  37
ENDBRANCH  35  36
ENDBRANCH  34  35
ENDBRANCH   3  34
TORSDOF 15
ENDMDL
