MODEL 1
REMARK VINA RESULT:     -13.7      0.000      0.000
REMARK SMILES Cc1cc(NC(=O)N2CCO[C@@H](CC(=O)NCCCNC(=O)c3ccc(-c4c5nc(c(-c6c(F)c(F)c(F)c(F)c6F)c6ccc([nH]6)c(-c6c(F)c(F)c(F)c(F)c6F)c6nc(c(-c7c(F)c(F)c(F)c(F)c7F)c7ccc4[nH]7)C=C6)C=C5)cc3)C2)ccc1F
REMARK SMILES IDX 17 1 16 2 14 3 15 4 13 6 12 7 8 8 9 9 86 10 10 11 11 12 6 13
REMARK SMILES IDX 5 14 7 16 4 17 1 18 2 19 3 20 89 21 88 22 90 23 87 24 18 25
REMARK SMILES IDX 19 26 20 27 21 28 22 30 23 31 24 32 85 33 25 34 84 35 26 36
REMARK SMILES IDX 27 37 28 38 78 39 29 40 83 41 77 42 79 43 30 44 82 45 76 46
REMARK SMILES IDX 75 47 31 49 63 50 43 51 62 52 44 53 47 54 61 55 80 56 45 57
REMARK SMILES IDX 46 58 60 60 81 61 48 62 32 63 33 64 41 65 34 66 35 67 39 68
REMARK SMILES IDX 42 69 36 70 37 71 40 72 38 73 64 74 65 75 73 76 66 77 67 78
REMARK SMILES IDX 71 79 74 80 68 81 69 82 72 83 70 84 49 85 50 86 58 87 51 88
REMARK SMILES IDX 52 89 56 90 59 91 53 92 54 93 57 94 55 95
REMARK H PARENT 16 5 5 15 20 29 79 48 47 59
REMARK Flexibility Score: inf
ROOT
ATOM      1  C   UNL A   1      31.835  30.030  26.315  1.00  0.00     0.117 C 
ENDROOT
BRANCH   1   2
ATOM      2  N   UNL A   1      32.135  29.909  24.891  1.00  0.00    -0.356 N 
ATOM      3  C   UNL A   1      31.842  28.901  24.016  1.00  0.00     0.222 C 
ATOM      4  O   UNL A   1      32.365  28.923  22.900  1.00  0.00    -0.275 OA
ATOM      5  H   UNL A   1      32.623  30.670  24.501  1.00  0.00     0.163 HD
BRANCH   3   6
ATOM      6  C   UNL A   1      30.900  27.781  24.416  1.00  0.00     0.133 C 
BRANCH   6   7
ATOM      7  C   UNL A   1      31.513  26.374  24.352  1.00  0.00     0.147 C 
ATOM      8  N   UNL A   1      31.192  24.082  25.344  1.00  0.00    -0.320 N 
ATOM      9  C   UNL A   1      30.909  23.559  24.009  1.00  0.00     0.150 C 
ATOM     10  C   UNL A   1      30.950  25.495  25.463  1.00  0.00     0.154 C 
ATOM     11  C   UNL A   1      31.577  24.441  22.947  1.00  0.00     0.182 C 
ATOM     12  O   UNL A   1      31.164  25.814  23.065  1.00  0.00    -0.374 OA
BRANCH   8  13
ATOM     13  C   UNL A   1      31.067  23.310  26.481  1.00  0.00     0.322 C 
ATOM     14  N   UNL A   1      31.915  22.255  26.641  1.00  0.00    -0.308 N 
ATOM     15  H   UNL A   1      31.606  21.549  27.255  1.00  0.00     0.171 HD
ATOM     16  O   UNL A   1      30.237  23.552  27.359  1.00  0.00    -0.248 OA
BRANCH  14  17
ATOM     17  C   UNL A   1      33.171  22.039  26.050  1.00  0.00     0.043 A 
ATOM     18  C   UNL A   1      36.576  23.730  26.001  1.00  0.00     0.047 C 
ATOM     19  C   UNL A   1      35.476  22.735  25.806  1.00  0.00    -0.013 A 
ATOM     20  C   UNL A   1      34.173  22.989  26.254  1.00  0.00     0.032 A 
ATOM     21  C   UNL A   1      35.757  21.513  25.188  1.00  0.00     0.126 A 
ATOM     22  C   UNL A   1      34.750  20.611  24.895  1.00  0.00     0.041 A 
ATOM     23  F   UNL A   1      37.016  21.204  24.853  1.00  0.00    -0.207 F 
ATOM     24  C   UNL A   1      33.449  20.910  25.275  1.00  0.00     0.029 A 
ENDBRANCH  14  17
ENDBRANCH   8  13
ENDBRANCH   6   7
ENDBRANCH   3   6
ENDBRANCH   1   2
BRANCH   1  25
ATOM     25  C   UNL A   1      32.773  29.164  27.138  1.00  0.00     0.042 C 
BRANCH  25  26
ATOM     26  C   UNL A   1      34.214  29.443  26.898  1.00  0.00     0.118 C 
BRANCH  26  27
ATOM     27  N   UNL A   1      34.580  30.805  27.227  1.00  0.00    -0.352 N 
ATOM     28  C   UNL A   1      35.554  31.200  28.124  1.00  0.00     0.251 C 
ATOM     29  H   UNL A   1      34.087  31.521  26.765  1.00  0.00     0.163 HD
ATOM     30  O   UNL A   1      35.518  32.305  28.637  1.00  0.00    -0.269 OA
BRANCH  28  31
ATOM     31  C   UNL A   1      36.665  30.264  28.420  1.00  0.00     0.039 A 
ATOM     32  C   UNL A   1      36.695  29.493  29.587  1.00  0.00     0.014 A 
ATOM     33  C   UNL A   1      37.741  30.221  27.543  1.00  0.00     0.014 A 
ATOM     34  C   UNL A   1      37.846  28.763  29.877  1.00  0.00     0.010 A 
ATOM     35  C   UNL A   1      38.673  29.255  27.642  1.00  0.00     0.010 A 
ATOM     36  C   UNL A   1      38.834  28.705  28.899  1.00  0.00    -0.014 A 
BRANCH  36  37
ATOM     37  C   UNL A   1      40.182  28.218  29.046  1.00  0.00     0.031 A 
ATOM     38  C   UNL A   1      40.450  26.841  28.678  1.00  0.00     0.074 A 
ATOM     39  C   UNL A   1      41.110  29.197  29.186  1.00  0.00     0.049 A 
ATOM     40  N   UNL A   1      41.430  26.159  29.139  1.00  0.00    -0.248 NA
ATOM     41  C   UNL A   1      39.600  26.100  27.752  1.00  0.00     0.031 C 
ATOM     42  C   UNL A   1      42.538  29.215  28.930  1.00  0.00     0.029 A 
ATOM     43  N   UNL A   1      40.855  30.499  29.661  1.00  0.00    -0.354 N 
ATOM     44  C   UNL A   1      41.585  25.104  28.271  1.00  0.00     0.074 A 
ATOM     45  C   UNL A   1      40.324  24.989  27.576  1.00  0.00     0.031 C 
ATOM     46  C   UNL A   1      43.070  30.280  29.566  1.00  0.00     0.029 A 
ATOM     47  C   UNL A   1      42.009  30.898  30.351  1.00  0.00     0.049 A 
ATOM     48  H   UNL A   1      40.031  31.024  29.533  1.00  0.00     0.167 HD
ATOM     49  C   UNL A   1      42.844  24.627  28.062  1.00  0.00     0.037 A 
ATOM     50  C   UNL A   1      41.914  30.942  31.716  1.00  0.00     0.037 A 
ATOM     51  C   UNL A   1      43.822  25.454  28.788  1.00  0.00     0.049 A 
ATOM     52  C   UNL A   1      42.659  29.797  32.370  1.00  0.00     0.074 A 
ATOM     53  C   UNL A   1      44.708  26.454  28.416  1.00  0.00     0.029 A 
ATOM     54  N   UNL A   1      43.691  25.578  30.159  1.00  0.00    -0.354 N 
ATOM     55  N   UNL A   1      43.201  28.809  31.709  1.00  0.00    -0.248 NA
ATOM     56  C   UNL A   1      42.823  29.645  33.809  1.00  0.00     0.031 C 
ATOM     57  C   UNL A   1      45.118  27.153  29.595  1.00  0.00     0.029 A 
ATOM     58  C   UNL A   1      44.480  26.581  30.681  1.00  0.00     0.049 A 
ATOM     59  H   UNL A   1      43.099  25.012  30.704  1.00  0.00     0.167 HD
ATOM     60  C   UNL A   1      43.777  27.918  32.565  1.00  0.00     0.074 A 
ATOM     61  C   UNL A   1      43.480  28.472  33.879  1.00  0.00     0.031 C 
ATOM     62  C   UNL A   1      44.438  26.803  32.121  1.00  0.00     0.037 A 
BRANCH  49  63
ATOM     63  C   UNL A   1      43.223  23.621  27.002  1.00  0.00     0.064 A 
ATOM     64  C   UNL A   1      42.904  22.256  27.165  1.00  0.00     0.173 A 
ATOM     65  C   UNL A   1      43.864  23.932  25.785  1.00  0.00     0.173 A 
ATOM     66  F   UNL A   1      42.214  21.819  28.226  1.00  0.00    -0.203 F 
ATOM     67  C   UNL A   1      43.265  21.281  26.234  1.00  0.00     0.198 A 
ATOM     68  C   UNL A   1      44.267  22.950  24.873  1.00  0.00     0.198 A 
ATOM     69  F   UNL A   1      44.061  25.198  25.399  1.00  0.00    -0.203 F 
ATOM     70  F   UNL A   1      42.920  20.003  26.447  1.00  0.00    -0.200 F 
ATOM     71  C   UNL A   1      43.968  21.623  25.099  1.00  0.00     0.200 A 
ATOM     72  F   UNL A   1      44.931  23.304  23.763  1.00  0.00    -0.200 F 
ATOM     73  F   UNL A   1      44.323  20.684  24.212  1.00  0.00    -0.200 F 
ENDBRANCH  49  63
BRANCH  50  74
ATOM     74  C   UNL A   1      40.577  31.507  32.124  1.00  0.00     0.064 A 
ATOM     75  C   UNL A   1      39.665  30.602  32.719  1.00  0.00     0.173 A 
ATOM     76  C   UNL A   1      40.409  32.867  32.425  1.00  0.00     0.173 A 
ATOM     77  F   UNL A   1      39.763  29.287  32.462  1.00  0.00    -0.203 F 
ATOM     78  C   UNL A   1      38.778  31.011  33.716  1.00  0.00     0.198 A 
ATOM     79  C   UNL A   1      39.480  33.277  33.391  1.00  0.00     0.198 A 
ATOM     80  F   UNL A   1      41.223  33.785  31.887  1.00  0.00    -0.203 F 
ATOM     81  F   UNL A   1      38.072  30.098  34.399  1.00  0.00    -0.200 F 
ATOM     82  C   UNL A   1      38.710  32.345  34.072  1.00  0.00     0.200 A 
ATOM     83  F   UNL A   1      39.397  34.573  33.726  1.00  0.00    -0.200 F 
ATOM     84  F   UNL A   1      37.932  32.720  35.096  1.00  0.00    -0.200 F 
ENDBRANCH  50  74
BRANCH  62  85
ATOM     85  C   UNL A   1      45.069  25.770  33.023  1.00  0.00     0.064 A 
ATOM     86  C   UNL A   1      44.324  24.982  33.909  1.00  0.00     0.173 A 
ATOM     87  C   UNL A   1      46.474  25.579  33.082  1.00  0.00     0.173 A 
ATOM     88  F   UNL A   1      43.014  25.198  34.090  1.00  0.00    -0.203 F 
ATOM     89  C   UNL A   1      44.917  23.972  34.669  1.00  0.00     0.198 A 
ATOM     90  C   UNL A   1      47.068  24.612  33.882  1.00  0.00     0.198 A 
ATOM     91  F   UNL A   1      47.336  26.306  32.362  1.00  0.00    -0.203 F 
ATOM     92  F   UNL A   1      44.148  23.181  35.430  1.00  0.00    -0.200 F 
ATOM     93  C   UNL A   1      46.286  23.780  34.647  1.00  0.00     0.200 A 
ATOM     94  F   UNL A   1      48.403  24.491  33.889  1.00  0.00    -0.200 F 
ATOM     95  F   UNL A   1      46.852  22.806  35.369  1.00  0.00    -0.200 F 
ENDBRANCH  62  85
ENDBRANCH  36  37
ENDBRANCH  28  31
ENDBRANCH  26  27
ENDBRANCH  25  26
ENDBRANCH   1  25
TORSDOF 13
ENDMDL
MODEL 2
REMARK VINA RESULT:     -13.7      3.283      9.401
REMARK SMILES Cc1cc(NC(=O)N2CCO[C@@H](CC(=O)NCCCNC(=O)c3ccc(-c4c5nc(c(-c6c(F)c(F)c(F)c(F)c6F)c6ccc([nH]6)c(-c6c(F)c(F)c(F)c(F)c6F)c6nc(c(-c7c(F)c(F)c(F)c(F)c7F)c7ccc4[nH]7)C=C6)C=C5)cc3)C2)ccc1F
REMARK SMILES IDX 17 1 16 2 14 3 15 4 13 6 12 7 8 8 9 9 86 10 10 11 11 12 6 13
REMARK SMILES IDX 5 14 7 16 4 17 1 18 2 19 3 20 89 21 88 22 90 23 87 24 18 25
REMARK SMILES IDX 19 26 20 27 21 28 22 30 23 31 24 32 85 33 25 34 84 35 26 36
REMARK SMILES IDX 27 37 28 38 78 39 29 40 83 41 77 42 79 43 30 44 82 45 76 46
REMARK SMILES IDX 75 47 31 49 63 50 43 51 62 52 44 53 47 54 61 55 80 56 45 57
REMARK SMILES IDX 46 58 60 60 81 61 48 62 32 63 33 64 41 65 34 66 35 67 39 68
REMARK SMILES IDX 42 69 36 70 37 71 40 72 38 73 64 74 65 75 73 76 66 77 67 78
REMARK SMILES IDX 71 79 74 80 68 81 69 82 72 83 70 84 49 85 50 86 58 87 51 88
REMARK SMILES IDX 52 89 56 90 59 91 53 92 54 93 57 94 55 95
REMARK H PARENT 16 5 5 15 20 29 79 48 47 59
REMARK Flexibility Score: inf
ROOT
ATOM      1  C   UNL A   1      36.356  21.155  24.792  1.00  0.00     0.117 C 
ENDROOT
BRANCH   1   2
ATOM      2  N   UNL A   1      35.341  21.084  25.839  1.00  0.00    -0.356 N 
ATOM      3  C   UNL A   1      34.033  21.483  25.821  1.00  0.00     0.222 C 
ATOM      4  O   UNL A   1      33.414  21.507  26.887  1.00  0.00    -0.275 OA
ATOM      5  H   UNL A   1      35.644  20.690  26.689  1.00  0.00     0.163 HD
BRANCH   3   6
ATOM      6  C   UNL A   1      33.368  21.890  24.521  1.00  0.00     0.133 C 
BRANCH   6   7
ATOM      7  C   UNL A   1      32.763  23.302  24.523  1.00  0.00     0.147 C 
ATOM      8  N   UNL A   1      32.359  25.233  22.958  1.00  0.00    -0.320 N 
ATOM      9  C   UNL A   1      30.919  25.074  23.158  1.00  0.00     0.150 C 
ATOM     10  C   UNL A   1      33.103  24.032  23.230  1.00  0.00     0.154 C 
ATOM     11  C   UNL A   1      30.647  24.414  24.515  1.00  0.00     0.182 C 
ATOM     12  O   UNL A   1      31.329  23.152  24.635  1.00  0.00    -0.374 OA
BRANCH   8  13
ATOM     13  C   UNL A   1      32.884  26.123  22.044  1.00  0.00     0.322 C 
ATOM     14  N   UNL A   1      32.748  27.457  22.291  1.00  0.00    -0.308 N 
ATOM     15  H   UNL A   1      32.821  28.045  21.505  1.00  0.00     0.171 HD
ATOM     16  O   UNL A   1      33.484  25.758  21.032  1.00  0.00    -0.248 OA
BRANCH  14  17
ATOM     17  C   UNL A   1      32.520  28.105  23.516  1.00  0.00     0.043 A 
ATOM     18  C   UNL A   1      34.435  28.779  26.731  1.00  0.00     0.047 C 
ATOM     19  C   UNL A   1      33.389  28.810  25.662  1.00  0.00    -0.013 A 
ATOM     20  C   UNL A   1      33.519  28.054  24.490  1.00  0.00     0.032 A 
ATOM     21  C   UNL A   1      32.270  29.633  25.821  1.00  0.00     0.126 A 
ATOM     22  C   UNL A   1      31.231  29.612  24.907  1.00  0.00     0.041 A 
ATOM     23  F   UNL A   1      32.179  30.448  26.880  1.00  0.00    -0.207 F 
ATOM     24  C   UNL A   1      31.338  28.798  23.788  1.00  0.00     0.029 A 
ENDBRANCH  14  17
ENDBRANCH   8  13
ENDBRANCH   6   7
ENDBRANCH   3   6
ENDBRANCH   1   2
BRANCH   1  25
ATOM     25  C   UNL A   1      36.886  22.571  24.650  1.00  0.00     0.042 C 
BRANCH  25  26
ATOM     26  C   UNL A   1      37.423  23.141  25.915  1.00  0.00     0.118 C 
BRANCH  26  27
ATOM     27  N   UNL A   1      38.607  22.447  26.380  1.00  0.00    -0.352 N 
ATOM     28  C   UNL A   1      39.826  23.019  26.689  1.00  0.00     0.251 C 
ATOM     29  H   UNL A   1      38.535  21.471  26.487  1.00  0.00     0.163 HD
ATOM     30  O   UNL A   1      40.848  22.356  26.669  1.00  0.00    -0.269 OA
BRANCH  28  31
ATOM     31  C   UNL A   1      39.857  24.448  27.082  1.00  0.00     0.039 A 
ATOM     32  C   UNL A   1      40.356  25.441  26.233  1.00  0.00     0.014 A 
ATOM     33  C   UNL A   1      39.450  24.786  28.367  1.00  0.00     0.014 A 
ATOM     34  C   UNL A   1      40.508  26.733  26.732  1.00  0.00     0.010 A 
ATOM     35  C   UNL A   1      39.260  26.073  28.713  1.00  0.00     0.010 A 
ATOM     36  C   UNL A   1      39.989  27.000  27.995  1.00  0.00    -0.014 A 
BRANCH  36  37
ATOM     37  C   UNL A   1      40.218  28.170  28.805  1.00  0.00     0.031 A 
ATOM     38  C   UNL A   1      39.240  29.239  28.745  1.00  0.00     0.074 A 
ATOM     39  C   UNL A   1      41.139  27.991  29.783  1.00  0.00     0.049 A 
ATOM     40  N   UNL A   1      39.499  30.457  29.037  1.00  0.00    -0.248 NA
ATOM     41  C   UNL A   1      37.861  29.014  28.323  1.00  0.00     0.031 C 
ATOM     42  C   UNL A   1      41.360  28.684  31.039  1.00  0.00     0.029 A 
ATOM     43  N   UNL A   1      42.163  27.022  29.771  1.00  0.00    -0.354 N 
ATOM     44  C   UNL A   1      38.279  31.049  29.262  1.00  0.00     0.074 A 
ATOM     45  C   UNL A   1      37.312  30.200  28.608  1.00  0.00     0.031 C 
ATOM     46  C   UNL A   1      42.603  28.388  31.475  1.00  0.00     0.029 A 
ATOM     47  C   UNL A   1      43.254  27.596  30.441  1.00  0.00     0.049 A 
ATOM     48  H   UNL A   1      42.120  26.122  29.372  1.00  0.00     0.167 HD
ATOM     49  C   UNL A   1      38.211  32.041  30.195  1.00  0.00     0.037 A 
ATOM     50  C   UNL A   1      44.314  27.971  29.660  1.00  0.00     0.037 A 
ATOM     51  C   UNL A   1      39.518  32.204  30.851  1.00  0.00     0.049 A 
ATOM     52  C   UNL A   1      44.397  29.477  29.511  1.00  0.00     0.074 A 
ATOM     53  C   UNL A   1      40.040  31.812  32.075  1.00  0.00     0.029 A 
ATOM     54  N   UNL A   1      40.617  32.502  30.067  1.00  0.00    -0.354 N 
ATOM     55  N   UNL A   1      43.487  30.303  29.951  1.00  0.00    -0.248 NA
ATOM     56  C   UNL A   1      45.481  30.171  28.828  1.00  0.00     0.031 C 
ATOM     57  C   UNL A   1      41.466  31.910  32.007  1.00  0.00     0.029 A 
ATOM     58  C   UNL A   1      41.809  32.357  30.743  1.00  0.00     0.049 A 
ATOM     59  H   UNL A   1      40.555  32.787  29.127  1.00  0.00     0.167 HD
ATOM     60  C   UNL A   1      43.822  31.590  29.649  1.00  0.00     0.074 A 
ATOM     61  C   UNL A   1      45.068  31.450  28.909  1.00  0.00     0.031 C 
ATOM     62  C   UNL A   1      43.042  32.653  30.025  1.00  0.00     0.037 A 
BRANCH  49  63
ATOM     63  C   UNL A   1      36.932  32.656  30.712  1.00  0.00     0.064 A 
ATOM     64  C   UNL A   1      36.200  33.561  29.914  1.00  0.00     0.173 A 
ATOM     65  C   UNL A   1      36.348  32.372  31.963  1.00  0.00     0.173 A 
ATOM     66  F   UNL A   1      36.579  33.860  28.665  1.00  0.00    -0.203 F 
ATOM     67  C   UNL A   1      35.034  34.186  30.359  1.00  0.00     0.198 A 
ATOM     68  C   UNL A   1      35.205  33.032  32.428  1.00  0.00     0.198 A 
ATOM     69  F   UNL A   1      36.817  31.398  32.752  1.00  0.00    -0.203 F 
ATOM     70  F   UNL A   1      34.382  35.027  29.544  1.00  0.00    -0.200 F 
ATOM     71  C   UNL A   1      34.549  33.941  31.625  1.00  0.00     0.200 A 
ATOM     72  F   UNL A   1      34.735  32.765  33.655  1.00  0.00    -0.200 F 
ATOM     73  F   UNL A   1      33.436  34.549  32.056  1.00  0.00    -0.200 F 
ENDBRANCH  49  63
BRANCH  50  74
ATOM     74  C   UNL A   1      44.563  26.938  28.592  1.00  0.00     0.064 A 
ATOM     75  C   UNL A   1      44.245  27.313  27.264  1.00  0.00     0.173 A 
ATOM     76  C   UNL A   1      45.520  25.923  28.752  1.00  0.00     0.173 A 
ATOM     77  F   UNL A   1      43.328  28.269  27.040  1.00  0.00    -0.203 F 
ATOM     78  C   UNL A   1      44.990  26.852  26.178  1.00  0.00     0.198 A 
ATOM     79  C   UNL A   1      46.229  25.427  27.651  1.00  0.00     0.198 A 
ATOM     80  F   UNL A   1      45.862  25.503  29.978  1.00  0.00    -0.203 F 
ATOM     81  F   UNL A   1      44.793  27.379  24.960  1.00  0.00    -0.200 F 
ATOM     82  C   UNL A   1      46.002  25.932  26.377  1.00  0.00     0.200 A 
ATOM     83  F   UNL A   1      47.199  24.520  27.838  1.00  0.00    -0.200 F 
ATOM     84  F   UNL A   1      46.780  25.567  25.349  1.00  0.00    -0.200 F 
ENDBRANCH  50  74
BRANCH  62  85
ATOM     85  C   UNL A   1      43.349  34.093  29.694  1.00  0.00     0.064 A 
ATOM     86  C   UNL A   1      43.429  34.568  28.378  1.00  0.00     0.173 A 
ATOM     87  C   UNL A   1      43.648  35.050  30.698  1.00  0.00     0.173 A 
ATOM     88  F   UNL A   1      43.359  33.728  27.337  1.00  0.00    -0.203 F 
ATOM     89  C   UNL A   1      43.626  35.922  28.097  1.00  0.00     0.198 A 
ATOM     90  C   UNL A   1      43.901  36.386  30.413  1.00  0.00     0.198 A 
ATOM     91  F   UNL A   1      43.696  34.746  32.000  1.00  0.00    -0.203 F 
ATOM     92  F   UNL A   1      43.598  36.341  26.825  1.00  0.00    -0.200 F 
ATOM     93  C   UNL A   1      43.850  36.831  29.113  1.00  0.00     0.200 A 
ATOM     94  F   UNL A   1      44.178  37.233  31.414  1.00  0.00    -0.200 F 
ATOM     95  F   UNL A   1      44.030  38.129  28.843  1.00  0.00    -0.200 F 
ENDBRANCH  62  85
ENDBRANCH  36  37
ENDBRANCH  28  31
ENDBRANCH  26  27
ENDBRANCH  25  26
ENDBRANCH   1  25
TORSDOF 13
ENDMDL
MODEL 3
REMARK VINA RESULT:     -13.4      1.305      2.084
REMARK SMILES Cc1cc(NC(=O)N2CCO[C@@H](CC(=O)NCCCNC(=O)c3ccc(-c4c5nc(c(-c6c(F)c(F)c(F)c(F)c6F)c6ccc([nH]6)c(-c6c(F)c(F)c(F)c(F)c6F)c6nc(c(-c7c(F)c(F)c(F)c(F)c7F)c7ccc4[nH]7)C=C6)C=C5)cc3)C2)ccc1F
REMARK SMILES IDX 17 1 16 2 14 3 15 4 13 6 12 7 8 8 9 9 86 10 10 11 11 12 6 13
REMARK SMILES IDX 5 14 7 16 4 17 1 18 2 19 3 20 89 21 88 22 90 23 87 24 18 25
REMARK SMILES IDX 19 26 20 27 21 28 22 30 23 31 24 32 85 33 25 34 84 35 26 36
REMARK SMILES IDX 27 37 28 38 78 39 29 40 83 41 77 42 79 43 30 44 82 45 76 46
REMARK SMILES IDX 75 47 31 49 63 50 43 51 62 52 44 53 47 54 61 55 80 56 45 57
REMARK SMILES IDX 46 58 60 60 81 61 48 62 32 63 33 64 41 65 34 66 35 67 39 68
REMARK SMILES IDX 42 69 36 70 37 71 40 72 38 73 64 74 65 75 73 76 66 77 67 78
REMARK SMILES IDX 71 79 74 80 68 81 69 82 72 83 70 84 49 85 50 86 58 87 51 88
REMARK SMILES IDX 52 89 56 90 59 91 53 92 54 93 57 94 55 95
REMARK H PARENT 16 5 5 15 20 29 79 48 47 59
REMARK Flexibility Score: inf
ROOT
ATOM      1  C   UNL A   1      33.117  29.826  25.868  1.00  0.00     0.117 C 
ENDROOT
BRANCH   1   2
ATOM      2  N   UNL A   1      33.083  29.667  24.417  1.00  0.00    -0.356 N 
ATOM      3  C   UNL A   1      32.485  28.703  23.654  1.00  0.00     0.222 C 
ATOM      4  O   UNL A   1      32.752  28.659  22.452  1.00  0.00    -0.275 OA
ATOM      5  H   UNL A   1      33.564  30.360  23.910  1.00  0.00     0.163 HD
BRANCH   3   6
ATOM      6  C   UNL A   1      31.523  27.711  24.279  1.00  0.00     0.133 C 
BRANCH   6   7
ATOM      7  C   UNL A   1      31.979  26.246  24.214  1.00  0.00     0.147 C 
ATOM      8  N   UNL A   1      31.536  24.034  25.332  1.00  0.00    -0.320 N 
ATOM      9  C   UNL A   1      31.061  23.501  24.057  1.00  0.00     0.150 C 
ATOM     10  C   UNL A   1      31.451  25.467  25.413  1.00  0.00     0.154 C 
ATOM     11  C   UNL A   1      31.699  24.272  22.894  1.00  0.00     0.182 C 
ATOM     12  O   UNL A   1      31.441  25.684  22.995  1.00  0.00    -0.374 OA
BRANCH   8  13
ATOM     13  C   UNL A   1      31.454  23.317  26.508  1.00  0.00     0.322 C 
ATOM     14  N   UNL A   1      32.321  22.281  26.694  1.00  0.00    -0.308 N 
ATOM     15  H   UNL A   1      32.039  21.602  27.350  1.00  0.00     0.171 HD
ATOM     16  O   UNL A   1      30.647  23.591  27.398  1.00  0.00    -0.248 OA
BRANCH  14  17
ATOM     17  C   UNL A   1      33.561  22.052  26.076  1.00  0.00     0.043 A 
ATOM     18  C   UNL A   1      36.975  23.720  25.934  1.00  0.00     0.047 C 
ATOM     19  C   UNL A   1      35.864  22.731  25.773  1.00  0.00    -0.013 A 
ATOM     20  C   UNL A   1      34.574  22.997  26.248  1.00  0.00     0.032 A 
ATOM     21  C   UNL A   1      36.124  21.501  25.161  1.00  0.00     0.126 A 
ATOM     22  C   UNL A   1      35.105  20.603  24.899  1.00  0.00     0.041 A 
ATOM     23  F   UNL A   1      37.373  21.180  24.800  1.00  0.00    -0.207 F 
ATOM     24  C   UNL A   1      33.815  20.913  25.306  1.00  0.00     0.029 A 
ENDBRANCH  14  17
ENDBRANCH   8  13
ENDBRANCH   6   7
ENDBRANCH   3   6
ENDBRANCH   1   2
BRANCH   1  25
ATOM     25  C   UNL A   1      34.032  28.792  26.501  1.00  0.00     0.042 C 
BRANCH  25  26
ATOM     26  C   UNL A   1      34.697  29.260  27.746  1.00  0.00     0.118 C 
BRANCH  26  27
ATOM     27  N   UNL A   1      35.363  30.536  27.576  1.00  0.00    -0.352 N 
ATOM     28  C   UNL A   1      36.609  30.884  28.061  1.00  0.00     0.251 C 
ATOM     29  H   UNL A   1      34.878  31.224  27.064  1.00  0.00     0.163 HD
ATOM     30  O   UNL A   1      36.907  32.053  28.232  1.00  0.00    -0.269 OA
BRANCH  28  31
ATOM     31  C   UNL A   1      37.588  29.805  28.332  1.00  0.00     0.039 A 
ATOM     32  C   UNL A   1      37.471  28.958  29.440  1.00  0.00     0.014 A 
ATOM     33  C   UNL A   1      38.695  29.695  27.499  1.00  0.00     0.014 A 
ATOM     34  C   UNL A   1      38.515  28.079  29.722  1.00  0.00     0.010 A 
ATOM     35  C   UNL A   1      39.503  28.620  27.565  1.00  0.00     0.010 A 
ATOM     36  C   UNL A   1      39.538  27.971  28.783  1.00  0.00    -0.014 A 
BRANCH  36  37
ATOM     37  C   UNL A   1      40.812  27.318  28.950  1.00  0.00     0.031 A 
ATOM     38  C   UNL A   1      40.893  25.902  28.648  1.00  0.00     0.074 A 
ATOM     39  C   UNL A   1      41.861  28.173  29.039  1.00  0.00     0.049 A 
ATOM     40  N   UNL A   1      41.779  25.120  29.138  1.00  0.00    -0.248 NA
ATOM     41  C   UNL A   1      39.944  25.236  27.761  1.00  0.00     0.031 C 
ATOM     42  C   UNL A   1      43.276  27.991  28.777  1.00  0.00     0.029 A 
ATOM     43  N   UNL A   1      41.782  29.518  29.451  1.00  0.00    -0.354 N 
ATOM     44  C   UNL A   1      41.787  24.015  28.321  1.00  0.00     0.074 A 
ATOM     45  C   UNL A   1      40.515  24.033  27.637  1.00  0.00     0.031 C 
ATOM     46  C   UNL A   1      43.949  29.007  29.360  1.00  0.00     0.029 A 
ATOM     47  C   UNL A   1      42.986  29.794  30.118  1.00  0.00     0.049 A 
ATOM     48  H   UNL A   1      41.033  30.140  29.301  1.00  0.00     0.167 HD
ATOM     49  C   UNL A   1      42.971  23.367  28.131  1.00  0.00     0.037 A 
ATOM     50  C   UNL A   1      42.910  29.916  31.479  1.00  0.00     0.037 A 
ATOM     51  C   UNL A   1      44.055  24.092  28.813  1.00  0.00     0.049 A 
ATOM     52  C   UNL A   1      43.505  28.714  32.185  1.00  0.00     0.074 A 
ATOM     53  C   UNL A   1      45.061  24.948  28.390  1.00  0.00     0.029 A 
ATOM     54  N   UNL A   1      43.955  24.297  30.177  1.00  0.00    -0.354 N 
ATOM     55  N   UNL A   1      43.907  27.634  31.571  1.00  0.00    -0.248 NA
ATOM     56  C   UNL A   1      43.662  28.611  33.630  1.00  0.00     0.031 C 
ATOM     57  C   UNL A   1      45.571  25.642  29.533  1.00  0.00     0.029 A 
ATOM     58  C   UNL A   1      44.873  25.211  30.647  1.00  0.00     0.049 A 
ATOM     59  H   UNL A   1      43.299  23.840  30.750  1.00  0.00     0.167 HD
ATOM     60  C   UNL A   1      44.370  26.717  32.467  1.00  0.00     0.074 A 
ATOM     61  C   UNL A   1      44.160  27.366  33.754  1.00  0.00     0.031 C 
ATOM     62  C   UNL A   1      44.875  25.504  32.075  1.00  0.00     0.037 A 
BRANCH  49  63
ATOM     63  C   UNL A   1      43.204  22.270  27.119  1.00  0.00     0.064 A 
ATOM     64  C   UNL A   1      42.465  21.070  27.183  1.00  0.00     0.173 A 
ATOM     65  C   UNL A   1      44.108  22.346  26.040  1.00  0.00     0.173 A 
ATOM     66  F   UNL A   1      41.503  20.885  28.097  1.00  0.00    -0.203 F 
ATOM     67  C   UNL A   1      42.669  20.011  26.296  1.00  0.00     0.198 A 
ATOM     68  C   UNL A   1      44.346  21.269  25.180  1.00  0.00     0.198 A 
ATOM     69  F   UNL A   1      44.742  23.484  25.734  1.00  0.00    -0.203 F 
ATOM     70  F   UNL A   1      41.923  18.903  26.407  1.00  0.00    -0.200 F 
ATOM     71  C   UNL A   1      43.626  20.100  25.309  1.00  0.00     0.200 A 
ATOM     72  F   UNL A   1      45.267  21.381  24.211  1.00  0.00    -0.200 F 
ATOM     73  F   UNL A   1      43.829  19.079  24.466  1.00  0.00    -0.200 F 
ENDBRANCH  49  63
BRANCH  50  74
ATOM     74  C   UNL A   1      41.663  30.669  31.864  1.00  0.00     0.064 A 
ATOM     75  C   UNL A   1      41.495  31.951  31.287  1.00  0.00     0.173 A 
ATOM     76  C   UNL A   1      40.499  30.007  32.286  1.00  0.00     0.173 A 
ATOM     77  F   UNL A   1      42.570  32.643  30.873  1.00  0.00    -0.203 F 
ATOM     78  C   UNL A   1      40.233  32.445  30.960  1.00  0.00     0.198 A 
ATOM     79  C   UNL A   1      39.233  30.533  32.001  1.00  0.00     0.198 A 
ATOM     80  F   UNL A   1      40.578  28.797  32.857  1.00  0.00    -0.203 F 
ATOM     81  F   UNL A   1      40.119  33.568  30.236  1.00  0.00    -0.200 F 
ATOM     82  C   UNL A   1      39.103  31.720  31.291  1.00  0.00     0.200 A 
ATOM     83  F   UNL A   1      38.134  29.842  32.337  1.00  0.00    -0.200 F 
ATOM     84  F   UNL A   1      37.898  32.147  30.889  1.00  0.00    -0.200 F 
ENDBRANCH  50  74
BRANCH  62  85
ATOM     85  C   UNL A   1      45.373  24.442  33.023  1.00  0.00     0.064 A 
ATOM     86  C   UNL A   1      46.672  24.443  33.546  1.00  0.00     0.173 A 
ATOM     87  C   UNL A   1      44.577  23.328  33.393  1.00  0.00     0.173 A 
ATOM     88  F   UNL A   1      47.585  25.330  33.126  1.00  0.00    -0.203 F 
ATOM     89  C   UNL A   1      47.084  23.500  34.491  1.00  0.00     0.198 A 
ATOM     90  C   UNL A   1      45.008  22.358  34.289  1.00  0.00     0.198 A 
ATOM     91  F   UNL A   1      43.341  23.129  32.919  1.00  0.00    -0.203 F 
ATOM     92  F   UNL A   1      48.305  23.601  35.034  1.00  0.00    -0.200 F 
ATOM     93  C   UNL A   1      46.249  22.467  34.870  1.00  0.00     0.200 A 
ATOM     94  F   UNL A   1      44.201  21.332  34.590  1.00  0.00    -0.200 F 
ATOM     95  F   UNL A   1      46.642  21.569  35.782  1.00  0.00    -0.200 F 
ENDBRANCH  62  85
ENDBRANCH  36  37
ENDBRANCH  28  31
ENDBRANCH  26  27
ENDBRANCH  25  26
ENDBRANCH   1  25
TORSDOF 13
ENDMDL
