MODEL 1
REMARK VINA RESULT:     -14.0      0.000      0.000
REMARK SMILES O=C1O[C@@H](c2ccc(O)c(O)c2)[C@H](C(=O)NCCCNC(=O)c2ccc(-c3c4nc(c(-c5c(F)c(F)c(F)c(F)c5F)c5ccc([nH]5)c(-c5c(F)c(F)c(F)c(F)c5F)c5nc(c(-c6c(F)c(F)c(F)c(F)c6F)c6ccc3[nH]6)C=C5)C=C4)cc2)/C1=C\c1ccc(O)c(O)c1
REMARK SMILES IDX 18 1 17 2 16 3 14 4 15 5 13 7 1 8 2 9 3 10 86 11 4 12 87 13
REMARK SMILES IDX 5 14 6 15 12 16 7 17 10 18 8 19 11 20 9 22 88 24 89 25 95 26
REMARK SMILES IDX 90 27 93 28 91 29 94 30 92 32 19 34 20 35 21 36 22 38 23 39
REMARK SMILES IDX 24 40 85 41 25 42 84 43 26 44 27 45 28 46 78 47 29 48 83 49
REMARK SMILES IDX 77 50 79 51 30 52 82 53 76 54 75 55 31 57 63 58 43 59 62 60
REMARK SMILES IDX 44 61 47 62 61 63 80 64 45 65 46 66 60 68 81 69 48 70 32 71
REMARK SMILES IDX 33 72 41 73 34 74 35 75 39 76 42 77 36 78 37 79 40 80 38 81
REMARK SMILES IDX 64 82 65 83 73 84 66 85 67 86 71 87 74 88 68 89 69 90 72 91
REMARK SMILES IDX 70 92 49 93 50 94 58 95 51 96 52 97 56 98 59 99 53 100
REMARK SMILES IDX 54 101 57 102 55 103
REMARK H PARENT 16 6 11 21 9 23 94 31 92 33 20 37 79 56 47 67
REMARK Flexibility Score: inf
ROOT
ATOM      1  C   UNL A   1      37.877  20.055  24.938  1.00  0.00     0.042 C 
ENDROOT
BRANCH   1   2
ATOM      2  C   UNL A   1      37.373  21.263  24.171  1.00  0.00     0.117 C 
BRANCH   2   3
ATOM      3  N   UNL A   1      37.143  22.430  25.004  1.00  0.00    -0.355 N 
ATOM      4  C   UNL A   1      36.023  22.905  25.624  1.00  0.00     0.231 C 
ATOM      5  O   UNL A   1      36.196  23.855  26.391  1.00  0.00    -0.274 OA
ATOM      6  H   UNL A   1      37.945  22.982  25.150  1.00  0.00     0.163 HD
BRANCH   4   7
ATOM      7  C   UNL A   1      34.630  22.362  25.286  1.00  0.00     0.161 C 
ATOM      8  O   UNL A   1      32.571  22.557  28.204  1.00  0.00    -0.247 OA
ATOM      9  C   UNL A   1      33.226  22.226  27.232  1.00  0.00     0.335 C 
ATOM     10  O   UNL A   1      33.744  20.994  27.022  1.00  0.00    -0.453 OA
ATOM     11  C   UNL A   1      33.573  23.064  26.073  1.00  0.00     0.054 C 
ATOM     12  C   UNL A   1      34.409  20.925  25.750  1.00  0.00     0.224 C 
ATOM     13  C   UNL A   1      32.921  24.221  25.878  1.00  0.00     0.020 C 
BRANCH  12  14
ATOM     14  C   UNL A   1      33.645  20.051  24.751  1.00  0.00    -0.002 A 
ATOM     15  C   UNL A   1      32.756  20.621  23.808  1.00  0.00     0.012 A 
ATOM     16  C   UNL A   1      33.870  18.669  24.685  1.00  0.00     0.057 A 
ATOM     17  C   UNL A   1      32.118  19.845  22.834  1.00  0.00     0.050 A 
ATOM     18  C   UNL A   1      33.221  17.902  23.722  1.00  0.00     0.157 A 
ATOM     19  C   UNL A   1      32.357  18.482  22.800  1.00  0.00     0.157 A 
BRANCH  18  20
ATOM     20  O   UNL A   1      33.450  16.556  23.684  1.00  0.00    -0.504 OA
ATOM     21  H   UNL A   1      34.112  16.178  24.228  1.00  0.00     0.293 HD
ENDBRANCH  18  20
BRANCH  19  22
ATOM     22  O   UNL A   1      31.770  17.668  21.871  1.00  0.00    -0.504 OA
ATOM     23  H   UNL A   1      32.028  16.770  21.807  1.00  0.00     0.293 HD
ENDBRANCH  19  22
ENDBRANCH  12  14
BRANCH  13  24
ATOM     24  C   UNL A   1      33.149  25.130  24.758  1.00  0.00    -0.021 A 
ATOM     25  C   UNL A   1      33.553  26.457  24.971  1.00  0.00     0.012 A 
ATOM     26  C   UNL A   1      33.013  24.648  23.452  1.00  0.00     0.058 A 
ATOM     27  C   UNL A   1      33.792  27.309  23.889  1.00  0.00     0.051 A 
ATOM     28  C   UNL A   1      33.260  25.498  22.383  1.00  0.00     0.157 A 
ATOM     29  C   UNL A   1      33.641  26.820  22.597  1.00  0.00     0.157 A 
BRANCH  28  30
ATOM     30  O   UNL A   1      33.133  25.021  21.110  1.00  0.00    -0.504 OA
ATOM     31  H   UNL A   1      32.391  24.499  20.877  1.00  0.00     0.293 HD
ENDBRANCH  28  30
BRANCH  29  32
ATOM     32  O   UNL A   1      33.864  27.602  21.498  1.00  0.00    -0.504 OA
ATOM     33  H   UNL A   1      33.997  28.524  21.598  1.00  0.00     0.293 HD
ENDBRANCH  29  32
ENDBRANCH  13  24
ENDBRANCH   4   7
ENDBRANCH   2   3
ENDBRANCH   1   2
BRANCH   1  34
ATOM     34  C   UNL A   1      39.003  20.370  25.910  1.00  0.00     0.118 C 
BRANCH  34  35
ATOM     35  N   UNL A   1      40.031  19.337  25.934  1.00  0.00    -0.352 N 
ATOM     36  C   UNL A   1      41.396  19.431  26.047  1.00  0.00     0.251 C 
ATOM     37  H   UNL A   1      39.689  18.417  25.855  1.00  0.00     0.163 HD
ATOM     38  O   UNL A   1      42.091  18.442  25.835  1.00  0.00    -0.269 OA
BRANCH  36  39
ATOM     39  C   UNL A   1      42.035  20.716  26.396  1.00  0.00     0.039 A 
ATOM     40  C   UNL A   1      42.421  21.582  25.368  1.00  0.00     0.014 A 
ATOM     41  C   UNL A   1      42.271  21.067  27.726  1.00  0.00     0.014 A 
ATOM     42  C   UNL A   1      42.965  22.829  25.680  1.00  0.00     0.010 A 
ATOM     43  C   UNL A   1      42.714  22.347  28.037  1.00  0.00     0.010 A 
ATOM     44  C   UNL A   1      43.070  23.242  27.019  1.00  0.00    -0.014 A 
BRANCH  44  45
ATOM     45  C   UNL A   1      43.539  24.606  27.372  1.00  0.00     0.031 A 
ATOM     46  C   UNL A   1      42.570  25.626  27.903  1.00  0.00     0.074 A 
ATOM     47  C   UNL A   1      44.822  24.948  27.136  1.00  0.00     0.049 A 
ATOM     48  N   UNL A   1      42.771  26.888  28.186  1.00  0.00    -0.248 NA
ATOM     49  C   UNL A   1      41.183  25.180  28.114  1.00  0.00     0.031 C 
ATOM     50  C   UNL A   1      45.842  24.063  26.569  1.00  0.00     0.029 A 
ATOM     51  N   UNL A   1      45.484  26.134  27.329  1.00  0.00    -0.354 N 
ATOM     52  C   UNL A   1      41.538  27.387  28.585  1.00  0.00     0.074 A 
ATOM     53  C   UNL A   1      40.583  26.309  28.462  1.00  0.00     0.031 C 
ATOM     54  C   UNL A   1      47.003  24.730  26.477  1.00  0.00     0.029 A 
ATOM     55  C   UNL A   1      46.800  26.101  26.933  1.00  0.00     0.049 A 
ATOM     56  H   UNL A   1      45.058  26.933  27.714  1.00  0.00     0.167 HD
ATOM     57  C   UNL A   1      41.237  28.628  29.036  1.00  0.00     0.037 A 
ATOM     58  C   UNL A   1      47.734  27.072  26.922  1.00  0.00     0.037 A 
ATOM     59  C   UNL A   1      42.200  29.687  29.190  1.00  0.00     0.049 A 
ATOM     60  C   UNL A   1      47.370  28.441  27.433  1.00  0.00     0.074 A 
ATOM     61  C   UNL A   1      42.012  30.950  29.722  1.00  0.00     0.029 A 
ATOM     62  N   UNL A   1      43.530  29.608  28.805  1.00  0.00    -0.354 N 
ATOM     63  N   UNL A   1      46.221  28.873  27.896  1.00  0.00    -0.248 NA
ATOM     64  C   UNL A   1      48.432  29.455  27.426  1.00  0.00     0.031 C 
ATOM     65  C   UNL A   1      43.210  31.659  29.596  1.00  0.00     0.029 A 
ATOM     66  C   UNL A   1      44.164  30.816  29.052  1.00  0.00     0.049 A 
ATOM     67  H   UNL A   1      43.960  28.813  28.414  1.00  0.00     0.167 HD
ATOM     68  C   UNL A   1      46.431  30.197  28.260  1.00  0.00     0.074 A 
ATOM     69  C   UNL A   1      47.821  30.490  27.985  1.00  0.00     0.031 C 
ATOM     70  C   UNL A   1      45.551  31.090  28.776  1.00  0.00     0.037 A 
BRANCH  57  71
ATOM     71  C   UNL A   1      39.808  28.921  29.393  1.00  0.00     0.064 A 
ATOM     72  C   UNL A   1      38.883  29.375  28.441  1.00  0.00     0.173 A 
ATOM     73  C   UNL A   1      39.341  28.676  30.694  1.00  0.00     0.173 A 
ATOM     74  F   UNL A   1      39.278  29.634  27.186  1.00  0.00    -0.203 F 
ATOM     75  C   UNL A   1      37.550  29.592  28.782  1.00  0.00     0.198 A 
ATOM     76  C   UNL A   1      38.002  28.863  31.024  1.00  0.00     0.198 A 
ATOM     77  F   UNL A   1      40.182  28.237  31.644  1.00  0.00    -0.203 F 
ATOM     78  F   UNL A   1      36.695  30.065  27.866  1.00  0.00    -0.200 F 
ATOM     79  C   UNL A   1      37.109  29.326  30.070  1.00  0.00     0.200 A 
ATOM     80  F   UNL A   1      37.573  28.590  32.265  1.00  0.00    -0.200 F 
ATOM     81  F   UNL A   1      35.822  29.518  30.392  1.00  0.00    -0.200 F 
ENDBRANCH  57  71
BRANCH  58  82
ATOM     82  C   UNL A   1      49.101  26.790  26.408  1.00  0.00     0.064 A 
ATOM     83  C   UNL A   1      49.433  27.019  25.066  1.00  0.00     0.173 A 
ATOM     84  C   UNL A   1      50.097  26.262  27.243  1.00  0.00     0.173 A 
ATOM     85  F   UNL A   1      48.512  27.506  24.221  1.00  0.00    -0.203 F 
ATOM     86  C   UNL A   1      50.696  26.699  24.570  1.00  0.00     0.198 A 
ATOM     87  C   UNL A   1      51.371  25.977  26.756  1.00  0.00     0.198 A 
ATOM     88  F   UNL A   1      49.839  26.033  28.539  1.00  0.00    -0.203 F 
ATOM     89  F   UNL A   1      50.966  26.870  23.269  1.00  0.00    -0.200 F 
ATOM     90  C   UNL A   1      51.666  26.183  25.417  1.00  0.00     0.200 A 
ATOM     91  F   UNL A   1      52.310  25.499  27.584  1.00  0.00    -0.200 F 
ATOM     92  F   UNL A   1      52.880  25.876  24.941  1.00  0.00    -0.200 F 
ENDBRANCH  58  82
BRANCH  70  93
ATOM     93  C   UNL A   1      46.071  32.459  29.108  1.00  0.00     0.064 A 
ATOM     94  C   UNL A   1      46.003  33.518  28.191  1.00  0.00     0.173 A 
ATOM     95  C   UNL A   1      46.608  32.724  30.378  1.00  0.00     0.173 A 
ATOM     96  F   UNL A   1      45.513  33.314  26.958  1.00  0.00    -0.203 F 
ATOM     97  C   UNL A   1      46.479  34.783  28.522  1.00  0.00     0.198 A 
ATOM     98  C   UNL A   1      47.049  33.999  30.718  1.00  0.00     0.198 A 
ATOM     99  F   UNL A   1      46.689  31.749  31.296  1.00  0.00    -0.203 F 
ATOM    100  F   UNL A   1      46.454  35.766  27.611  1.00  0.00    -0.200 F 
ATOM    101  C   UNL A   1      46.993  35.026  29.787  1.00  0.00     0.200 A 
ATOM    102  F   UNL A   1      47.529  34.235  31.947  1.00  0.00    -0.200 F 
ATOM    103  F   UNL A   1      47.441  36.247  30.108  1.00  0.00    -0.200 F 
ENDBRANCH  70  93
ENDBRANCH  44  45
ENDBRANCH  36  39
ENDBRANCH  34  35
ENDBRANCH   1  34
TORSDOF 16
ENDMDL
MODEL 2
REMARK VINA RESULT:     -14.0      0.142      1.098
REMARK SMILES O=C1O[C@@H](c2ccc(O)c(O)c2)[C@H](C(=O)NCCCNC(=O)c2ccc(-c3c4nc(c(-c5c(F)c(F)c(F)c(F)c5F)c5ccc([nH]5)c(-c5c(F)c(F)c(F)c(F)c5F)c5nc(c(-c6c(F)c(F)c(F)c(F)c6F)c6ccc3[nH]6)C=C5)C=C4)cc2)/C1=C\c1ccc(O)c(O)c1
REMARK SMILES IDX 18 1 17 2 16 3 14 4 15 5 13 7 1 8 2 9 3 10 86 11 4 12 87 13
REMARK SMILES IDX 5 14 6 15 12 16 7 17 10 18 8 19 11 20 9 22 88 24 89 25 95 26
REMARK SMILES IDX 90 27 93 28 91 29 94 30 92 32 19 34 20 35 21 36 22 38 23 39
REMARK SMILES IDX 24 40 85 41 25 42 84 43 26 44 27 45 28 46 78 47 29 48 83 49
REMARK SMILES IDX 77 50 79 51 30 52 82 53 76 54 75 55 31 57 63 58 43 59 62 60
REMARK SMILES IDX 44 61 47 62 61 63 80 64 45 65 46 66 60 68 81 69 48 70 32 71
REMARK SMILES IDX 33 72 41 73 34 74 35 75 39 76 42 77 36 78 37 79 40 80 38 81
REMARK SMILES IDX 64 82 65 83 73 84 66 85 67 86 71 87 74 88 68 89 69 90 72 91
REMARK SMILES IDX 70 92 49 93 50 94 58 95 51 96 52 97 56 98 59 99 53 100
REMARK SMILES IDX 54 101 57 102 55 103
REMARK H PARENT 16 6 11 21 9 23 94 31 92 33 20 37 79 56 47 67
REMARK Flexibility Score: inf
ROOT
ATOM      1  C   UNL A   1      37.884  20.046  24.938  1.00  0.00     0.042 C 
ENDROOT
BRANCH   1   2
ATOM      2  C   UNL A   1      37.377  21.253  24.170  1.00  0.00     0.117 C 
BRANCH   2   3
ATOM      3  N   UNL A   1      37.144  22.419  25.002  1.00  0.00    -0.355 N 
ATOM      4  C   UNL A   1      36.023  22.894  25.621  1.00  0.00     0.231 C 
ATOM      5  O   UNL A   1      36.193  23.844  26.387  1.00  0.00    -0.274 OA
ATOM      6  H   UNL A   1      37.945  22.973  25.148  1.00  0.00     0.163 HD
BRANCH   4   7
ATOM      7  C   UNL A   1      34.631  22.348  25.282  1.00  0.00     0.161 C 
ATOM      8  O   UNL A   1      32.567  22.546  28.196  1.00  0.00    -0.247 OA
ATOM      9  C   UNL A   1      33.224  22.214  27.225  1.00  0.00     0.335 C 
ATOM     10  O   UNL A   1      33.744  20.982  27.019  1.00  0.00    -0.453 OA
ATOM     11  C   UNL A   1      33.572  23.051  26.065  1.00  0.00     0.054 C 
ATOM     12  C   UNL A   1      34.411  20.912  25.747  1.00  0.00     0.224 C 
ATOM     13  C   UNL A   1      32.919  24.207  25.867  1.00  0.00     0.020 C 
BRANCH  12  14
ATOM     14  C   UNL A   1      33.649  20.035  24.749  1.00  0.00    -0.002 A 
ATOM     15  C   UNL A   1      32.769  20.603  23.797  1.00  0.00     0.012 A 
ATOM     16  C   UNL A   1      33.869  18.651  24.692  1.00  0.00     0.057 A 
ATOM     17  C   UNL A   1      32.134  19.824  22.824  1.00  0.00     0.050 A 
ATOM     18  C   UNL A   1      33.223  17.881  23.731  1.00  0.00     0.157 A 
ATOM     19  C   UNL A   1      32.367  18.459  22.799  1.00  0.00     0.157 A 
BRANCH  18  20
ATOM     20  O   UNL A   1      33.446  16.535  23.702  1.00  0.00    -0.504 OA
ATOM     21  H   UNL A   1      32.969  15.968  24.276  1.00  0.00     0.293 HD
ENDBRANCH  18  20
BRANCH  19  22
ATOM     22  O   UNL A   1      31.783  17.643  21.872  1.00  0.00    -0.504 OA
ATOM     23  H   UNL A   1      32.004  16.733  21.844  1.00  0.00     0.293 HD
ENDBRANCH  19  22
ENDBRANCH  12  14
BRANCH  13  24
ATOM     24  C   UNL A   1      33.148  25.113  24.745  1.00  0.00    -0.021 A 
ATOM     25  C   UNL A   1      33.539  26.445  24.957  1.00  0.00     0.012 A 
ATOM     26  C   UNL A   1      33.025  24.626  23.440  1.00  0.00     0.058 A 
ATOM     27  C   UNL A   1      33.780  27.295  23.873  1.00  0.00     0.051 A 
ATOM     28  C   UNL A   1      33.273  25.474  22.370  1.00  0.00     0.157 A 
ATOM     29  C   UNL A   1      33.642  26.800  22.582  1.00  0.00     0.157 A 
BRANCH  28  30
ATOM     30  O   UNL A   1      33.158  24.993  21.098  1.00  0.00    -0.504 OA
ATOM     31  H   UNL A   1      32.906  25.567  20.401  1.00  0.00     0.293 HD
ENDBRANCH  28  30
BRANCH  29  32
ATOM     32  O   UNL A   1      33.866  27.580  21.482  1.00  0.00    -0.504 OA
ATOM     33  H   UNL A   1      34.041  28.495  21.584  1.00  0.00     0.293 HD
ENDBRANCH  29  32
ENDBRANCH  13  24
ENDBRANCH   4   7
ENDBRANCH   2   3
ENDBRANCH   1   2
BRANCH   1  34
ATOM     34  C   UNL A   1      39.016  20.363  25.903  1.00  0.00     0.118 C 
BRANCH  34  35
ATOM     35  N   UNL A   1      40.039  19.325  25.930  1.00  0.00    -0.352 N 
ATOM     36  C   UNL A   1      41.404  19.413  26.041  1.00  0.00     0.251 C 
ATOM     37  H   UNL A   1      39.692  18.406  25.855  1.00  0.00     0.163 HD
ATOM     38  O   UNL A   1      42.094  18.420  25.833  1.00  0.00    -0.269 OA
BRANCH  36  39
ATOM     39  C   UNL A   1      42.049  20.697  26.385  1.00  0.00     0.039 A 
ATOM     40  C   UNL A   1      42.457  21.547  25.352  1.00  0.00     0.014 A 
ATOM     41  C   UNL A   1      42.271  21.060  27.714  1.00  0.00     0.014 A 
ATOM     42  C   UNL A   1      43.008  22.792  25.658  1.00  0.00     0.010 A 
ATOM     43  C   UNL A   1      42.722  22.340  28.017  1.00  0.00     0.010 A 
ATOM     44  C   UNL A   1      43.099  23.219  26.994  1.00  0.00    -0.014 A 
BRANCH  44  45
ATOM     45  C   UNL A   1      43.575  24.583  27.337  1.00  0.00     0.031 A 
ATOM     46  C   UNL A   1      42.605  25.623  27.828  1.00  0.00     0.074 A 
ATOM     47  C   UNL A   1      44.868  24.907  27.130  1.00  0.00     0.049 A 
ATOM     48  N   UNL A   1      42.814  26.887  28.097  1.00  0.00    -0.248 NA
ATOM     49  C   UNL A   1      41.208  25.196  28.010  1.00  0.00     0.031 C 
ATOM     50  C   UNL A   1      45.891  24.001  26.602  1.00  0.00     0.029 A 
ATOM     51  N   UNL A   1      45.539  26.088  27.321  1.00  0.00    -0.354 N 
ATOM     52  C   UNL A   1      41.578  27.406  28.457  1.00  0.00     0.074 A 
ATOM     53  C   UNL A   1      40.613  26.338  28.326  1.00  0.00     0.031 C 
ATOM     54  C   UNL A   1      47.062  24.653  26.530  1.00  0.00     0.029 A 
ATOM     55  C   UNL A   1      46.864  26.033  26.960  1.00  0.00     0.049 A 
ATOM     56  H   UNL A   1      45.113  26.898  27.683  1.00  0.00     0.167 HD
ATOM     57  C   UNL A   1      41.280  28.658  28.880  1.00  0.00     0.037 A 
ATOM     58  C   UNL A   1      47.809  26.993  26.958  1.00  0.00     0.037 A 
ATOM     59  C   UNL A   1      42.252  29.707  29.043  1.00  0.00     0.049 A 
ATOM     60  C   UNL A   1      47.449  28.374  27.439  1.00  0.00     0.074 A 
ATOM     61  C   UNL A   1      42.066  30.981  29.551  1.00  0.00     0.029 A 
ATOM     62  N   UNL A   1      43.590  29.607  28.694  1.00  0.00    -0.354 N 
ATOM     63  N   UNL A   1      46.295  28.827  27.865  1.00  0.00    -0.248 NA
ATOM     64  C   UNL A   1      48.524  29.376  27.444  1.00  0.00     0.031 C 
ATOM     65  C   UNL A   1      43.275  31.674  29.445  1.00  0.00     0.029 A 
ATOM     66  C   UNL A   1      44.232  30.811  28.938  1.00  0.00     0.049 A 
ATOM     67  H   UNL A   1      44.020  28.801  28.326  1.00  0.00     0.167 HD
ATOM     68  C   UNL A   1      46.511  30.154  28.215  1.00  0.00     0.074 A 
ATOM     69  C   UNL A   1      47.911  30.426  27.971  1.00  0.00     0.031 C 
ATOM     70  C   UNL A   1      45.629  31.065  28.694  1.00  0.00     0.037 A 
BRANCH  57  71
ATOM     71  C   UNL A   1      39.846  28.973  29.197  1.00  0.00     0.064 A 
ATOM     72  C   UNL A   1      38.946  29.400  28.209  1.00  0.00     0.173 A 
ATOM     73  C   UNL A   1      39.350  28.776  30.495  1.00  0.00     0.173 A 
ATOM     74  F   UNL A   1      39.369  29.612  26.955  1.00  0.00    -0.203 F 
ATOM     75  C   UNL A   1      37.607  29.638  28.515  1.00  0.00     0.198 A 
ATOM     76  C   UNL A   1      38.005  28.984  30.789  1.00  0.00     0.198 A 
ATOM     77  F   UNL A   1      40.167  28.365  31.477  1.00  0.00    -0.203 F 
ATOM     78  F   UNL A   1      36.775  30.084  27.564  1.00  0.00    -0.200 F 
ATOM     79  C   UNL A   1      37.137  29.420  29.800  1.00  0.00     0.200 A 
ATOM     80  F   UNL A   1      37.549  28.757  32.029  1.00  0.00    -0.200 F 
ATOM     81  F   UNL A   1      35.844  29.632  30.088  1.00  0.00    -0.200 F 
ENDBRANCH  57  71
BRANCH  58  82
ATOM     82  C   UNL A   1      49.186  26.687  26.483  1.00  0.00     0.064 A 
ATOM     83  C   UNL A   1      50.163  26.195  27.359  1.00  0.00     0.173 A 
ATOM     84  C   UNL A   1      49.560  26.905  25.148  1.00  0.00     0.173 A 
ATOM     85  F   UNL A   1      49.863  25.987  28.649  1.00  0.00    -0.203 F 
ATOM     86  C   UNL A   1      51.468  25.965  26.928  1.00  0.00     0.198 A 
ATOM     87  C   UNL A   1      50.855  26.639  24.710  1.00  0.00     0.198 A 
ATOM     88  F   UNL A   1      48.662  27.364  24.263  1.00  0.00    -0.203 F 
ATOM     89  F   UNL A   1      52.397  25.554  27.801  1.00  0.00    -0.200 F 
ATOM     90  C   UNL A   1      51.812  26.182  25.602  1.00  0.00     0.200 A 
ATOM     91  F   UNL A   1      51.175  26.830  23.422  1.00  0.00    -0.200 F 
ATOM     92  F   UNL A   1      53.066  25.960  25.187  1.00  0.00    -0.200 F 
ENDBRANCH  58  82
BRANCH  70  93
ATOM     93  C   UNL A   1      46.157  32.433  29.018  1.00  0.00     0.064 A 
ATOM     94  C   UNL A   1      46.133  33.475  28.081  1.00  0.00     0.173 A 
ATOM     95  C   UNL A   1      46.657  32.714  30.300  1.00  0.00     0.173 A 
ATOM     96  F   UNL A   1      45.680  33.255  26.837  1.00  0.00    -0.203 F 
ATOM     97  C   UNL A   1      46.616  34.740  28.405  1.00  0.00     0.198 A 
ATOM     98  C   UNL A   1      47.104  33.989  30.632  1.00  0.00     0.198 A 
ATOM     99  F   UNL A   1      46.695  31.754  31.237  1.00  0.00    -0.203 F 
ATOM    100  F   UNL A   1      46.633  35.707  27.476  1.00  0.00    -0.200 F 
ATOM    101  C   UNL A   1      47.092  34.999  29.681  1.00  0.00     0.200 A 
ATOM    102  F   UNL A   1      47.547  34.240  31.871  1.00  0.00    -0.200 F 
ATOM    103  F   UNL A   1      47.546  36.219  29.995  1.00  0.00    -0.200 F 
ENDBRANCH  70  93
ENDBRANCH  44  45
ENDBRANCH  36  39
ENDBRANCH  34  35
ENDBRANCH   1  34
TORSDOF 16
ENDMDL
MODEL 3
REMARK VINA RESULT:     -13.9      5.539     10.945
REMARK SMILES O=C1O[C@@H](c2ccc(O)c(O)c2)[C@H](C(=O)NCCCNC(=O)c2ccc(-c3c4nc(c(-c5c(F)c(F)c(F)c(F)c5F)c5ccc([nH]5)c(-c5c(F)c(F)c(F)c(F)c5F)c5nc(c(-c6c(F)c(F)c(F)c(F)c6F)c6ccc3[nH]6)C=C5)C=C4)cc2)/C1=C\c1ccc(O)c(O)c1
REMARK SMILES IDX 18 1 17 2 16 3 14 4 15 5 13 7 1 8 2 9 3 10 86 11 4 12 87 13
REMARK SMILES IDX 5 14 6 15 12 16 7 17 10 18 8 19 11 20 9 22 88 24 89 25 95 26
REMARK SMILES IDX 90 27 93 28 91 29 94 30 92 32 19 34 20 35 21 36 22 38 23 39
REMARK SMILES IDX 24 40 85 41 25 42 84 43 26 44 27 45 28 46 78 47 29 48 83 49
REMARK SMILES IDX 77 50 79 51 30 52 82 53 76 54 75 55 31 57 63 58 43 59 62 60
REMARK SMILES IDX 44 61 47 62 61 63 80 64 45 65 46 66 60 68 81 69 48 70 32 71
REMARK SMILES IDX 33 72 41 73 34 74 35 75 39 76 42 77 36 78 37 79 40 80 38 81
REMARK SMILES IDX 64 82 65 83 73 84 66 85 67 86 71 87 74 88 68 89 69 90 72 91
REMARK SMILES IDX 70 92 49 93 50 94 58 95 51 96 52 97 56 98 59 99 53 100
REMARK SMILES IDX 54 101 57 102 55 103
REMARK H PARENT 16 6 11 21 9 23 94 31 92 33 20 37 79 56 47 67
REMARK Flexibility Score: inf
ROOT
ATOM      1  C   UNL A   1      31.627  31.322  26.664  1.00  0.00     0.042 C 
ENDROOT
BRANCH   1   2
ATOM      2  C   UNL A   1      31.726  29.894  27.168  1.00  0.00     0.117 C 
BRANCH   2   3
ATOM      3  N   UNL A   1      32.986  29.248  26.851  1.00  0.00    -0.355 N 
ATOM      4  C   UNL A   1      33.385  28.492  25.785  1.00  0.00     0.231 C 
ATOM      5  O   UNL A   1      34.584  28.211  25.744  1.00  0.00    -0.274 OA
ATOM      6  H   UNL A   1      33.686  29.380  27.531  1.00  0.00     0.163 HD
BRANCH   4   7
ATOM      7  C   UNL A   1      32.373  27.935  24.778  1.00  0.00     0.161 C 
ATOM      8  O   UNL A   1      34.003  27.487  21.626  1.00  0.00    -0.247 OA
ATOM      9  C   UNL A   1      33.293  27.810  22.561  1.00  0.00     0.335 C 
ATOM     10  O   UNL A   1      32.571  28.953  22.635  1.00  0.00    -0.453 OA
ATOM     11  C   UNL A   1      33.038  27.037  23.787  1.00  0.00     0.054 C 
ATOM     12  C   UNL A   1      31.797  28.996  23.844  1.00  0.00     0.224 C 
ATOM     13  C   UNL A   1      33.373  25.738  23.828  1.00  0.00     0.020 C 
BRANCH  12  14
ATOM     14  C   UNL A   1      30.298  28.846  23.570  1.00  0.00    -0.002 A 
ATOM     15  C   UNL A   1      29.656  27.587  23.664  1.00  0.00     0.012 A 
ATOM     16  C   UNL A   1      29.500  29.967  23.302  1.00  0.00     0.057 A 
ATOM     17  C   UNL A   1      28.274  27.451  23.501  1.00  0.00     0.050 A 
ATOM     18  C   UNL A   1      28.127  29.821  23.127  1.00  0.00     0.157 A 
ATOM     19  C   UNL A   1      27.515  28.577  23.231  1.00  0.00     0.157 A 
BRANCH  18  20
ATOM     20  O   UNL A   1      27.373  30.927  22.858  1.00  0.00    -0.504 OA
ATOM     21  H   UNL A   1      27.207  31.556  23.533  1.00  0.00     0.293 HD
ENDBRANCH  18  20
BRANCH  19  22
ATOM     22  O   UNL A   1      26.160  28.513  23.066  1.00  0.00    -0.504 OA
ATOM     23  H   UNL A   1      25.649  29.298  23.082  1.00  0.00     0.293 HD
ENDBRANCH  19  22
ENDBRANCH  12  14
BRANCH  13  24
ATOM     24  C   UNL A   1      33.151  24.854  24.969  1.00  0.00    -0.021 A 
ATOM     25  C   UNL A   1      34.217  24.168  25.573  1.00  0.00     0.012 A 
ATOM     26  C   UNL A   1      31.862  24.735  25.497  1.00  0.00     0.058 A 
ATOM     27  C   UNL A   1      33.995  23.345  26.681  1.00  0.00     0.051 A 
ATOM     28  C   UNL A   1      31.651  23.921  26.602  1.00  0.00     0.157 A 
ATOM     29  C   UNL A   1      32.706  23.226  27.187  1.00  0.00     0.157 A 
BRANCH  28  30
ATOM     30  O   UNL A   1      30.392  23.813  27.119  1.00  0.00    -0.504 OA
ATOM     31  H   UNL A   1      29.716  23.396  26.621  1.00  0.00     0.293 HD
ENDBRANCH  28  30
BRANCH  29  32
ATOM     32  O   UNL A   1      32.425  22.440  28.270  1.00  0.00    -0.504 OA
ATOM     33  H   UNL A   1      31.847  21.708  28.180  1.00  0.00     0.293 HD
ENDBRANCH  29  32
ENDBRANCH  13  24
ENDBRANCH   4   7
ENDBRANCH   2   3
ENDBRANCH   1   2
BRANCH   1  34
ATOM     34  C   UNL A   1      32.878  32.149  26.912  1.00  0.00     0.118 C 
BRANCH  34  35
ATOM     35  N   UNL A   1      32.577  33.523  27.295  1.00  0.00    -0.352 N 
ATOM     36  C   UNL A   1      33.075  34.302  28.310  1.00  0.00     0.251 C 
ATOM     37  H   UNL A   1      31.903  33.967  26.730  1.00  0.00     0.163 HD
ATOM     38  O   UNL A   1      32.528  35.367  28.580  1.00  0.00    -0.269 OA
BRANCH  36  39
ATOM     39  C   UNL A   1      34.245  33.857  29.094  1.00  0.00     0.039 A 
ATOM     40  C   UNL A   1      34.041  33.035  30.206  1.00  0.00     0.014 A 
ATOM     41  C   UNL A   1      35.537  34.258  28.752  1.00  0.00     0.014 A 
ATOM     42  C   UNL A   1      35.139  32.551  30.920  1.00  0.00     0.010 A 
ATOM     43  C   UNL A   1      36.631  33.693  29.397  1.00  0.00     0.010 A 
ATOM     44  C   UNL A   1      36.446  32.836  30.490  1.00  0.00    -0.014 A 
BRANCH  44  45
ATOM     45  C   UNL A   1      37.627  32.241  31.165  1.00  0.00     0.031 A 
ATOM     46  C   UNL A   1      38.351  31.080  30.539  1.00  0.00     0.074 A 
ATOM     47  C   UNL A   1      37.997  32.695  32.379  1.00  0.00     0.049 A 
ATOM     48  N   UNL A   1      39.346  30.374  31.013  1.00  0.00    -0.248 NA
ATOM     49  C   UNL A   1      37.875  30.631  29.221  1.00  0.00     0.031 C 
ATOM     50  C   UNL A   1      37.336  33.776  33.114  1.00  0.00     0.029 A 
ATOM     51  N   UNL A   1      39.007  32.295  33.218  1.00  0.00    -0.354 N 
ATOM     52  C   UNL A   1      39.598  29.391  30.065  1.00  0.00     0.074 A 
ATOM     53  C   UNL A   1      38.622  29.556  29.011  1.00  0.00     0.031 C 
ATOM     54  C   UNL A   1      37.969  33.965  34.283  1.00  0.00     0.029 A 
ATOM     55  C   UNL A   1      39.048  32.990  34.402  1.00  0.00     0.049 A 
ATOM     56  H   UNL A   1      39.643  31.578  32.992  1.00  0.00     0.167 HD
ATOM     57  C   UNL A   1      40.571  28.449  30.066  1.00  0.00     0.037 A 
ATOM     58  C   UNL A   1      39.853  32.846  35.473  1.00  0.00     0.037 A 
ATOM     59  C   UNL A   1      41.561  28.312  31.101  1.00  0.00     0.049 A 
ATOM     60  C   UNL A   1      40.928  31.793  35.441  1.00  0.00     0.074 A 
ATOM     61  C   UNL A   1      42.641  27.448  31.149  1.00  0.00     0.029 A 
ATOM     62  N   UNL A   1      41.588  29.052  32.272  1.00  0.00    -0.354 N 
ATOM     63  N   UNL A   1      41.213  30.930  34.497  1.00  0.00    -0.248 NA
ATOM     64  C   UNL A   1      41.797  31.697  36.622  1.00  0.00     0.031 C 
ATOM     65  C   UNL A   1      43.282  27.619  32.379  1.00  0.00     0.029 A 
ATOM     66  C   UNL A   1      42.645  28.638  33.068  1.00  0.00     0.049 A 
ATOM     67  H   UNL A   1      40.952  29.767  32.505  1.00  0.00     0.167 HD
ATOM     68  C   UNL A   1      42.309  30.210  34.956  1.00  0.00     0.074 A 
ATOM     69  C   UNL A   1      42.649  30.752  36.253  1.00  0.00     0.031 C 
ATOM     70  C   UNL A   1      42.973  29.191  34.356  1.00  0.00     0.037 A 
BRANCH  57  71
ATOM     71  C   UNL A   1      40.617  27.483  28.916  1.00  0.00     0.064 A 
ATOM     72  C   UNL A   1      39.778  26.360  28.856  1.00  0.00     0.173 A 
ATOM     73  C   UNL A   1      41.466  27.725  27.824  1.00  0.00     0.173 A 
ATOM     74  F   UNL A   1      38.954  26.077  29.876  1.00  0.00    -0.203 F 
ATOM     75  C   UNL A   1      39.802  25.505  27.757  1.00  0.00     0.198 A 
ATOM     76  C   UNL A   1      41.465  26.886  26.713  1.00  0.00     0.198 A 
ATOM     77  F   UNL A   1      42.287  28.787  27.828  1.00  0.00    -0.203 F 
ATOM     78  F   UNL A   1      39.021  24.417  27.740  1.00  0.00    -0.200 F 
ATOM     79  C   UNL A   1      40.637  25.774  26.683  1.00  0.00     0.200 A 
ATOM     80  F   UNL A   1      42.260  27.158  25.669  1.00  0.00    -0.200 F 
ATOM     81  F   UNL A   1      40.645  24.961  25.618  1.00  0.00    -0.200 F 
ENDBRANCH  57  71
BRANCH  58  82
ATOM     82  C   UNL A   1      39.674  33.717  36.666  1.00  0.00     0.064 A 
ATOM     83  C   UNL A   1      38.843  33.332  37.728  1.00  0.00     0.173 A 
ATOM     84  C   UNL A   1      40.311  34.964  36.759  1.00  0.00     0.173 A 
ATOM     85  F   UNL A   1      38.197  32.157  37.681  1.00  0.00    -0.203 F 
ATOM     86  C   UNL A   1      38.629  34.173  38.818  1.00  0.00     0.198 A 
ATOM     87  C   UNL A   1      40.125  35.788  37.866  1.00  0.00     0.198 A 
ATOM     88  F   UNL A   1      41.126  35.378  35.777  1.00  0.00    -0.203 F 
ATOM     89  F   UNL A   1      37.781  33.806  39.788  1.00  0.00    -0.200 F 
ATOM     90  C   UNL A   1      39.274  35.399  38.889  1.00  0.00     0.200 A 
ATOM     91  F   UNL A   1      40.769  36.962  37.939  1.00  0.00    -0.200 F 
ATOM     92  F   UNL A   1      39.070  36.207  39.938  1.00  0.00    -0.200 F 
ENDBRANCH  58  82
BRANCH  70  93
ATOM     93  C   UNL A   1      44.155  28.616  35.083  1.00  0.00     0.064 A 
ATOM     94  C   UNL A   1      45.445  29.144  34.930  1.00  0.00     0.173 A 
ATOM     95  C   UNL A   1      43.985  27.547  35.978  1.00  0.00     0.173 A 
ATOM     96  F   UNL A   1      45.664  30.156  34.076  1.00  0.00    -0.203 F 
ATOM     97  C   UNL A   1      46.526  28.606  35.623  1.00  0.00     0.198 A 
ATOM     98  C   UNL A   1      45.061  27.036  36.697  1.00  0.00     0.198 A 
ATOM     99  F   UNL A   1      42.771  27.010  36.167  1.00  0.00    -0.203 F 
ATOM    100  F   UNL A   1      47.759  29.091  35.420  1.00  0.00    -0.200 F 
ATOM    101  C   UNL A   1      46.332  27.559  36.512  1.00  0.00     0.200 A 
ATOM    102  F   UNL A   1      44.868  26.036  37.568  1.00  0.00    -0.200 F 
ATOM    103  F   UNL A   1      47.371  27.049  37.186  1.00  0.00    -0.200 F 
ENDBRANCH  70  93
ENDBRANCH  44  45
ENDBRANCH  36  39
ENDBRANCH  34  35
ENDBRANCH   1  34
TORSDOF 16
ENDMDL
