MODEL 1
REMARK VINA RESULT:     -13.3      0.000      0.000
REMARK SMILES C[C@@H]1[C@@H](C(=O)NCCCNC(=O)c2ccc(-c3c4nc(c(-c5c(F)c(F)c(F)c(F)c5F)c5ccc([nH]5)c(-c5c(F)c(F)c(F)c(F)c5F)c5nc(c(-c6c(F)c(F)c(F)c(F)c6F)c6ccc3[nH]6)C=C5)C=C4)cc2)CCN1C(=O)N1CCC[C@H]2CCC[C@@H]21
REMARK SMILES IDX 8 1 7 2 6 3 4 4 5 5 3 7 1 8 2 9 78 10 76 11 77 12 79 13
REMARK SMILES IDX 80 14 81 15 82 16 89 17 83 18 85 19 88 20 84 21 86 22 87 23
REMARK SMILES IDX 9 24 10 25 11 26 12 28 13 29 14 30 75 31 15 32 74 33 16 34
REMARK SMILES IDX 17 35 18 36 68 37 19 38 73 39 67 40 69 41 20 42 72 43 66 44
REMARK SMILES IDX 65 45 21 47 53 48 33 49 52 50 34 51 37 52 51 53 70 54 35 55
REMARK SMILES IDX 36 56 50 58 71 59 38 60 22 61 23 62 31 63 24 64 25 65 29 66
REMARK SMILES IDX 32 67 26 68 27 69 30 70 28 71 54 72 55 73 63 74 56 75 57 76
REMARK SMILES IDX 61 77 64 78 58 79 59 80 62 81 60 82 39 83 40 84 48 85 41 86
REMARK SMILES IDX 42 87 46 88 49 89 43 90 44 91 47 92 45 93
REMARK H PARENT 6 6 10 27 69 46 37 57
REMARK Flexibility Score: inf
ROOT
ATOM      1  C   UNL A   1      31.468  32.040  26.542  1.00  0.00     0.042 C 
ENDROOT
BRANCH   1   2
ATOM      2  C   UNL A   1      31.628  30.543  26.361  1.00  0.00     0.117 C 
BRANCH   2   3
ATOM      3  N   UNL A   1      32.588  30.179  25.335  1.00  0.00    -0.356 N 
ATOM      4  C   UNL A   1      32.673  29.032  24.600  1.00  0.00     0.225 C 
ATOM      5  O   UNL A   1      33.571  28.967  23.761  1.00  0.00    -0.275 OA
ATOM      6  H   UNL A   1      33.274  30.856  25.142  1.00  0.00     0.163 HD
BRANCH   4   7
ATOM      7  C   UNL A   1      31.752  27.865  24.930  1.00  0.00     0.102 C 
ATOM      8  C   UNL A   1      31.876  25.639  26.040  1.00  0.00     0.032 C 
ATOM      9  C   UNL A   1      32.509  26.513  24.949  1.00  0.00     0.096 C 
ATOM     10  N   UNL A   1      32.324  25.979  23.582  1.00  0.00    -0.321 N 
ATOM     11  C   UNL A   1      30.642  27.597  23.907  1.00  0.00     0.037 C 
ATOM     12  C   UNL A   1      31.314  26.729  22.868  1.00  0.00     0.122 C 
BRANCH  10  13
ATOM     13  C   UNL A   1      33.237  25.289  22.798  1.00  0.00     0.320 C 
ATOM     14  O   UNL A   1      33.941  25.866  21.968  1.00  0.00    -0.248 OA
BRANCH  13  15
ATOM     15  N   UNL A   1      33.408  23.962  23.085  1.00  0.00    -0.321 N 
ATOM     16  C   UNL A   1      32.826  22.917  22.259  1.00  0.00     0.121 C 
ATOM     17  C   UNL A   1      34.513  23.492  23.898  1.00  0.00     0.090 C 
ATOM     18  C   UNL A   1      32.276  21.784  23.131  1.00  0.00     0.022 C 
ATOM     19  C   UNL A   1      33.926  22.489  24.894  1.00  0.00     0.012 C 
ATOM     20  C   UNL A   1      35.255  24.453  24.820  1.00  0.00     0.025 C 
ATOM     21  C   UNL A   1      33.312  21.297  24.162  1.00  0.00     0.007 C 
ATOM     22  C   UNL A   1      35.092  22.208  25.826  1.00  0.00     0.006 C 
ATOM     23  C   UNL A   1      35.839  23.547  25.915  1.00  0.00     0.002 C 
ENDBRANCH  13  15
ENDBRANCH  10  13
ENDBRANCH   4   7
ENDBRANCH   2   3
ENDBRANCH   1   2
BRANCH   1  24
ATOM     24  C   UNL A   1      32.621  32.720  27.262  1.00  0.00     0.118 C 
BRANCH  24  25
ATOM     25  N   UNL A   1      32.357  34.110  27.603  1.00  0.00    -0.352 N 
ATOM     26  C   UNL A   1      32.949  34.936  28.532  1.00  0.00     0.251 C 
ATOM     27  H   UNL A   1      31.634  34.531  27.082  1.00  0.00     0.163 HD
ATOM     28  O   UNL A   1      32.475  36.043  28.752  1.00  0.00    -0.269 OA
BRANCH  26  29
ATOM     29  C   UNL A   1      34.132  34.479  29.297  1.00  0.00     0.039 A 
ATOM     30  C   UNL A   1      33.941  33.912  30.561  1.00  0.00     0.014 A 
ATOM     31  C   UNL A   1      35.421  34.595  28.777  1.00  0.00     0.014 A 
ATOM     32  C   UNL A   1      35.031  33.381  31.254  1.00  0.00     0.010 A 
ATOM     33  C   UNL A   1      36.484  33.960  29.412  1.00  0.00     0.010 A 
ATOM     34  C   UNL A   1      36.304  33.350  30.661  1.00  0.00    -0.014 A 
BRANCH  34  35
ATOM     35  C   UNL A   1      37.460  32.695  31.328  1.00  0.00     0.031 A 
ATOM     36  C   UNL A   1      38.176  31.556  30.652  1.00  0.00     0.074 A 
ATOM     37  C   UNL A   1      37.821  33.075  32.569  1.00  0.00     0.049 A 
ATOM     38  N   UNL A   1      39.145  30.801  31.104  1.00  0.00    -0.248 NA
ATOM     39  C   UNL A   1      37.717  31.195  29.301  1.00  0.00     0.031 C 
ATOM     40  C   UNL A   1      37.176  34.130  33.353  1.00  0.00     0.029 A 
ATOM     41  N   UNL A   1      38.813  32.610  33.396  1.00  0.00    -0.354 N 
ATOM     42  C   UNL A   1      39.397  29.872  30.103  1.00  0.00     0.074 A 
ATOM     43  C   UNL A   1      38.437  30.112  29.049  1.00  0.00     0.031 C 
ATOM     44  C   UNL A   1      37.809  34.253  34.532  1.00  0.00     0.029 A 
ATOM     45  C   UNL A   1      38.872  33.256  34.607  1.00  0.00     0.049 A 
ATOM     46  H   UNL A   1      39.426  31.881  33.145  1.00  0.00     0.167 HD
ATOM     47  C   UNL A   1      40.363  28.922  30.052  1.00  0.00     0.037 A 
ATOM     48  C   UNL A   1      39.685  33.060  35.663  1.00  0.00     0.037 A 
ATOM     49  C   UNL A   1      41.335  28.703  31.091  1.00  0.00     0.049 A 
ATOM     50  C   UNL A   1      40.739  31.988  35.589  1.00  0.00     0.074 A 
ATOM     51  C   UNL A   1      42.387  27.806  31.111  1.00  0.00     0.029 A 
ATOM     52  N   UNL A   1      41.369  29.388  32.298  1.00  0.00    -0.354 N 
ATOM     53  N   UNL A   1      41.012  31.162  34.608  1.00  0.00    -0.248 NA
ATOM     54  C   UNL A   1      41.602  31.826  36.766  1.00  0.00     0.031 C 
ATOM     55  C   UNL A   1      43.026  27.909  32.351  1.00  0.00     0.029 A 
ATOM     56  C   UNL A   1      42.410  28.915  33.079  1.00  0.00     0.049 A 
ATOM     57  H   UNL A   1      40.746  30.104  32.559  1.00  0.00     0.167 HD
ATOM     58  C   UNL A   1      42.096  30.406  35.036  1.00  0.00     0.074 A 
ATOM     59  C   UNL A   1      42.440  30.883  36.359  1.00  0.00     0.031 C 
ATOM     60  C   UNL A   1      42.748  29.409  34.390  1.00  0.00     0.037 A 
BRANCH  47  61
ATOM     61  C   UNL A   1      40.419  28.053  28.828  1.00  0.00     0.064 A 
ATOM     62  C   UNL A   1      41.176  28.412  27.703  1.00  0.00     0.173 A 
ATOM     63  C   UNL A   1      39.735  26.828  28.793  1.00  0.00     0.173 A 
ATOM     64  F   UNL A   1      41.840  29.578  27.679  1.00  0.00    -0.203 F 
ATOM     65  C   UNL A   1      41.219  27.595  26.576  1.00  0.00     0.198 A 
ATOM     66  C   UNL A   1      39.808  25.997  27.678  1.00  0.00     0.198 A 
ATOM     67  F   UNL A   1      39.000  26.432  29.842  1.00  0.00    -0.203 F 
ATOM     68  F   UNL A   1      41.903  27.987  25.492  1.00  0.00    -0.200 F 
ATOM     69  C   UNL A   1      40.543  26.385  26.567  1.00  0.00     0.200 A 
ATOM     70  F   UNL A   1      39.167  24.821  27.677  1.00  0.00    -0.200 F 
ATOM     71  F   UNL A   1      40.593  25.595  25.485  1.00  0.00    -0.200 F 
ENDBRANCH  47  61
BRANCH  48  72
ATOM     72  C   UNL A   1      39.554  33.915  36.874  1.00  0.00     0.064 A 
ATOM     73  C   UNL A   1      38.782  33.498  37.968  1.00  0.00     0.173 A 
ATOM     74  C   UNL A   1      40.182  35.166  36.959  1.00  0.00     0.173 A 
ATOM     75  F   UNL A   1      38.144  32.319  37.926  1.00  0.00    -0.203 F 
ATOM     76  C   UNL A   1      38.622  34.309  39.089  1.00  0.00     0.198 A 
ATOM     77  C   UNL A   1      40.048  35.962  38.095  1.00  0.00     0.198 A 
ATOM     78  F   UNL A   1      40.936  35.610  35.945  1.00  0.00    -0.203 F 
ATOM     79  F   UNL A   1      37.836  33.909  40.098  1.00  0.00    -0.200 F 
ATOM     80  C   UNL A   1      39.260  35.538  39.155  1.00  0.00     0.200 A 
ATOM     81  F   UNL A   1      40.680  37.143  38.162  1.00  0.00    -0.200 F 
ATOM     82  F   UNL A   1      39.110  36.318  40.234  1.00  0.00    -0.200 F 
ENDBRANCH  48  72
BRANCH  60  83
ATOM     83  C   UNL A   1      43.928  28.792  35.085  1.00  0.00     0.064 A 
ATOM     84  C   UNL A   1      43.796  27.673  35.919  1.00  0.00     0.173 A 
ATOM     85  C   UNL A   1      45.219  29.307  34.878  1.00  0.00     0.173 A 
ATOM     86  F   UNL A   1      42.584  27.151  36.162  1.00  0.00    -0.203 F 
ATOM     87  C   UNL A   1      44.906  27.109  36.544  1.00  0.00     0.198 A 
ATOM     88  C   UNL A   1      46.329  28.720  35.476  1.00  0.00     0.198 A 
ATOM     89  F   UNL A   1      45.403  30.371  34.083  1.00  0.00    -0.203 F 
ATOM     90  F   UNL A   1      44.748  26.073  37.379  1.00  0.00    -0.200 F 
ATOM     91  C   UNL A   1      46.172  27.627  36.316  1.00  0.00     0.200 A 
ATOM     92  F   UNL A   1      47.553  29.212  35.240  1.00  0.00    -0.200 F 
ATOM     93  F   UNL A   1      47.239  27.077  36.909  1.00  0.00    -0.200 F 
ENDBRANCH  60  83
ENDBRANCH  34  35
ENDBRANCH  26  29
ENDBRANCH  24  25
ENDBRANCH   1  24
TORSDOF 12
ENDMDL
MODEL 2
REMARK VINA RESULT:     -13.3      0.137      1.598
REMARK SMILES C[C@@H]1[C@@H](C(=O)NCCCNC(=O)c2ccc(-c3c4nc(c(-c5c(F)c(F)c(F)c(F)c5F)c5ccc([nH]5)c(-c5c(F)c(F)c(F)c(F)c5F)c5nc(c(-c6c(F)c(F)c(F)c(F)c6F)c6ccc3[nH]6)C=C5)C=C4)cc2)CCN1C(=O)N1CCC[C@H]2CCC[C@@H]21
REMARK SMILES IDX 8 1 7 2 6 3 4 4 5 5 3 7 1 8 2 9 78 10 76 11 77 12 79 13
REMARK SMILES IDX 80 14 81 15 82 16 89 17 83 18 85 19 88 20 84 21 86 22 87 23
REMARK SMILES IDX 9 24 10 25 11 26 12 28 13 29 14 30 75 31 15 32 74 33 16 34
REMARK SMILES IDX 17 35 18 36 68 37 19 38 73 39 67 40 69 41 20 42 72 43 66 44
REMARK SMILES IDX 65 45 21 47 53 48 33 49 52 50 34 51 37 52 51 53 70 54 35 55
REMARK SMILES IDX 36 56 50 58 71 59 38 60 22 61 23 62 31 63 24 64 25 65 29 66
REMARK SMILES IDX 32 67 26 68 27 69 30 70 28 71 54 72 55 73 63 74 56 75 57 76
REMARK SMILES IDX 61 77 64 78 58 79 59 80 62 81 60 82 39 83 40 84 48 85 41 86
REMARK SMILES IDX 42 87 46 88 49 89 43 90 44 91 47 92 45 93
REMARK H PARENT 6 6 10 27 69 46 37 57
REMARK Flexibility Score: inf
ROOT
ATOM      1  C   UNL A   1      31.536  32.000  26.514  1.00  0.00     0.042 C 
ENDROOT
BRANCH   1   2
ATOM      2  C   UNL A   1      31.695  30.503  26.329  1.00  0.00     0.117 C 
BRANCH   2   3
ATOM      3  N   UNL A   1      32.614  30.141  25.267  1.00  0.00    -0.356 N 
ATOM      4  C   UNL A   1      32.683  28.989  24.540  1.00  0.00     0.225 C 
ATOM      5  O   UNL A   1      33.547  28.927  23.665  1.00  0.00    -0.275 OA
ATOM      6  H   UNL A   1      33.284  30.825  25.039  1.00  0.00     0.163 HD
BRANCH   4   7
ATOM      7  C   UNL A   1      31.792  27.813  24.919  1.00  0.00     0.102 C 
ATOM      8  C   UNL A   1      31.977  25.630  26.101  1.00  0.00     0.032 C 
ATOM      9  C   UNL A   1      32.579  26.480  24.975  1.00  0.00     0.096 C 
ATOM     10  N   UNL A   1      32.392  25.896  23.628  1.00  0.00    -0.321 N 
ATOM     11  C   UNL A   1      30.678  27.487  23.917  1.00  0.00     0.037 C 
ATOM     12  C   UNL A   1      31.358  26.599  22.901  1.00  0.00     0.122 C 
BRANCH  10  13
ATOM     13  C   UNL A   1      33.313  25.200  22.858  1.00  0.00     0.320 C 
ATOM     14  O   UNL A   1      34.027  25.771  22.033  1.00  0.00    -0.248 OA
BRANCH  13  15
ATOM     15  N   UNL A   1      33.478  23.875  23.155  1.00  0.00    -0.321 N 
ATOM     16  C   UNL A   1      32.895  22.826  22.334  1.00  0.00     0.121 C 
ATOM     17  C   UNL A   1      34.579  23.407  23.975  1.00  0.00     0.090 C 
ATOM     18  C   UNL A   1      32.339  21.700  23.212  1.00  0.00     0.022 C 
ATOM     19  C   UNL A   1      33.985  22.412  24.976  1.00  0.00     0.012 C 
ATOM     20  C   UNL A   1      35.320  24.371  24.894  1.00  0.00     0.025 C 
ATOM     21  C   UNL A   1      33.369  21.216  24.250  1.00  0.00     0.007 C 
ATOM     22  C   UNL A   1      35.146  22.134  25.914  1.00  0.00     0.006 C 
ATOM     23  C   UNL A   1      35.897  23.471  25.997  1.00  0.00     0.002 C 
ENDBRANCH  13  15
ENDBRANCH  10  13
ENDBRANCH   4   7
ENDBRANCH   2   3
ENDBRANCH   1   2
BRANCH   1  24
ATOM     24  C   UNL A   1      32.683  32.675  27.248  1.00  0.00     0.118 C 
BRANCH  24  25
ATOM     25  N   UNL A   1      32.418  34.065  27.591  1.00  0.00    -0.352 N 
ATOM     26  C   UNL A   1      32.998  34.884  28.533  1.00  0.00     0.251 C 
ATOM     27  H   UNL A   1      31.704  34.490  27.062  1.00  0.00     0.163 HD
ATOM     28  O   UNL A   1      32.524  35.992  28.751  1.00  0.00    -0.269 OA
BRANCH  26  29
ATOM     29  C   UNL A   1      34.168  34.420  29.313  1.00  0.00     0.039 A 
ATOM     30  C   UNL A   1      33.954  33.814  30.555  1.00  0.00     0.014 A 
ATOM     31  C   UNL A   1      35.468  34.567  28.829  1.00  0.00     0.014 A 
ATOM     32  C   UNL A   1      35.033  33.276  31.260  1.00  0.00     0.010 A 
ATOM     33  C   UNL A   1      36.523  33.928  29.472  1.00  0.00     0.010 A 
ATOM     34  C   UNL A   1      36.321  33.279  30.698  1.00  0.00    -0.014 A 
BRANCH  34  35
ATOM     35  C   UNL A   1      37.469  32.620  31.374  1.00  0.00     0.031 A 
ATOM     36  C   UNL A   1      38.176  31.468  30.711  1.00  0.00     0.074 A 
ATOM     37  C   UNL A   1      37.830  33.007  32.613  1.00  0.00     0.049 A 
ATOM     38  N   UNL A   1      39.136  30.707  31.173  1.00  0.00    -0.248 NA
ATOM     39  C   UNL A   1      37.718  31.098  29.362  1.00  0.00     0.031 C 
ATOM     40  C   UNL A   1      37.193  34.075  33.386  1.00  0.00     0.029 A 
ATOM     41  N   UNL A   1      38.815  32.540  33.447  1.00  0.00    -0.354 N 
ATOM     42  C   UNL A   1      39.383  29.767  30.181  1.00  0.00     0.074 A 
ATOM     43  C   UNL A   1      38.428  30.006  29.122  1.00  0.00     0.031 C 
ATOM     44  C   UNL A   1      37.823  34.203  34.565  1.00  0.00     0.029 A 
ATOM     45  C   UNL A   1      38.876  33.197  34.653  1.00  0.00     0.049 A 
ATOM     46  H   UNL A   1      39.421  31.803  33.204  1.00  0.00     0.167 HD
ATOM     47  C   UNL A   1      40.339  28.808  30.142  1.00  0.00     0.037 A 
ATOM     48  C   UNL A   1      39.685  33.003  35.712  1.00  0.00     0.037 A 
ATOM     49  C   UNL A   1      41.306  28.589  31.186  1.00  0.00     0.049 A 
ATOM     50  C   UNL A   1      40.729  31.921  35.651  1.00  0.00     0.074 A 
ATOM     51  C   UNL A   1      42.350  27.682  31.217  1.00  0.00     0.029 A 
ATOM     52  N   UNL A   1      41.344  29.285  32.386  1.00  0.00    -0.354 N 
ATOM     53  N   UNL A   1      40.997  31.083  34.678  1.00  0.00    -0.248 NA
ATOM     54  C   UNL A   1      41.587  31.761  36.833  1.00  0.00     0.031 C 
ATOM     55  C   UNL A   1      42.986  27.791  32.458  1.00  0.00     0.029 A 
ATOM     56  C   UNL A   1      42.378  28.809  33.175  1.00  0.00     0.049 A 
ATOM     57  H   UNL A   1      40.726  30.009  32.639  1.00  0.00     0.167 HD
ATOM     58  C   UNL A   1      42.072  30.321  35.116  1.00  0.00     0.074 A 
ATOM     59  C   UNL A   1      42.416  30.807  36.436  1.00  0.00     0.031 C 
ATOM     60  C   UNL A   1      42.717  29.311  34.482  1.00  0.00     0.037 A 
BRANCH  47  61
ATOM     61  C   UNL A   1      40.391  27.927  28.926  1.00  0.00     0.064 A 
ATOM     62  C   UNL A   1      39.650  26.738  28.845  1.00  0.00     0.173 A 
ATOM     63  C   UNL A   1      41.163  28.293  27.813  1.00  0.00     0.173 A 
ATOM     64  F   UNL A   1      38.903  26.335  29.884  1.00  0.00    -0.203 F 
ATOM     65  C   UNL A   1      39.707  25.932  27.710  1.00  0.00     0.198 A 
ATOM     66  C   UNL A   1      41.191  27.503  26.667  1.00  0.00     0.198 A 
ATOM     67  F   UNL A   1      41.887  29.422  27.833  1.00  0.00    -0.203 F 
ATOM     68  F   UNL A   1      39.035  24.773  27.680  1.00  0.00    -0.200 F 
ATOM     69  C   UNL A   1      40.470  26.319  26.620  1.00  0.00     0.200 A 
ATOM     70  F   UNL A   1      41.916  27.886  25.608  1.00  0.00    -0.200 F 
ATOM     71  F   UNL A   1      40.517  25.547  25.525  1.00  0.00    -0.200 F 
ENDBRANCH  47  61
BRANCH  48  72
ATOM     72  C   UNL A   1      39.558  33.870  36.915  1.00  0.00     0.064 A 
ATOM     73  C   UNL A   1      38.782  33.468  38.012  1.00  0.00     0.173 A 
ATOM     74  C   UNL A   1      40.195  35.118  36.989  1.00  0.00     0.173 A 
ATOM     75  F   UNL A   1      38.137  32.294  37.981  1.00  0.00    -0.203 F 
ATOM     76  C   UNL A   1      38.627  34.292  39.126  1.00  0.00     0.198 A 
ATOM     77  C   UNL A   1      40.065  35.926  38.118  1.00  0.00     0.198 A 
ATOM     78  F   UNL A   1      40.953  35.547  35.971  1.00  0.00    -0.203 F 
ATOM     79  F   UNL A   1      37.837  33.906  40.137  1.00  0.00    -0.200 F 
ATOM     80  C   UNL A   1      39.273  35.517  39.180  1.00  0.00     0.200 A 
ATOM     81  F   UNL A   1      40.704  37.102  38.173  1.00  0.00    -0.200 F 
ATOM     82  F   UNL A   1      39.127  36.308  40.252  1.00  0.00    -0.200 F 
ENDBRANCH  48  72
BRANCH  60  83
ATOM     83  C   UNL A   1      43.889  28.690  35.186  1.00  0.00     0.064 A 
ATOM     84  C   UNL A   1      45.189  29.199  35.051  1.00  0.00     0.173 A 
ATOM     85  C   UNL A   1      43.700  27.592  36.041  1.00  0.00     0.173 A 
ATOM     86  F   UNL A   1      45.426  30.238  34.236  1.00  0.00    -0.203 F 
ATOM     87  C   UNL A   1      46.260  28.616  35.723  1.00  0.00     0.198 A 
ATOM     88  C   UNL A   1      44.768  27.034  36.738  1.00  0.00     0.198 A 
ATOM     89  F   UNL A   1      42.476  27.071  36.212  1.00  0.00    -0.203 F 
ATOM     90  F   UNL A   1      47.501  29.087  35.538  1.00  0.00    -0.200 F 
ATOM     91  C   UNL A   1      46.048  27.540  36.572  1.00  0.00     0.200 A 
ATOM     92  F   UNL A   1      44.557  26.005  37.571  1.00  0.00    -0.200 F 
ATOM     93  F   UNL A   1      47.078  26.987  37.225  1.00  0.00    -0.200 F 
ENDBRANCH  60  83
ENDBRANCH  34  35
ENDBRANCH  26  29
ENDBRANCH  24  25
ENDBRANCH   1  24
TORSDOF 12
ENDMDL
MODEL 3
REMARK VINA RESULT:     -13.2      0.070      1.594
REMARK SMILES C[C@@H]1[C@@H](C(=O)NCCCNC(=O)c2ccc(-c3c4nc(c(-c5c(F)c(F)c(F)c(F)c5F)c5ccc([nH]5)c(-c5c(F)c(F)c(F)c(F)c5F)c5nc(c(-c6c(F)c(F)c(F)c(F)c6F)c6ccc3[nH]6)C=C5)C=C4)cc2)CCN1C(=O)N1CCC[C@H]2CCC[C@@H]21
REMARK SMILES IDX 8 1 7 2 6 3 4 4 5 5 3 7 1 8 2 9 78 10 76 11 77 12 79 13
REMARK SMILES IDX 80 14 81 15 82 16 89 17 83 18 85 19 88 20 84 21 86 22 87 23
REMARK SMILES IDX 9 24 10 25 11 26 12 28 13 29 14 30 75 31 15 32 74 33 16 34
REMARK SMILES IDX 17 35 18 36 68 37 19 38 73 39 67 40 69 41 20 42 72 43 66 44
REMARK SMILES IDX 65 45 21 47 53 48 33 49 52 50 34 51 37 52 51 53 70 54 35 55
REMARK SMILES IDX 36 56 50 58 71 59 38 60 22 61 23 62 31 63 24 64 25 65 29 66
REMARK SMILES IDX 32 67 26 68 27 69 30 70 28 71 54 72 55 73 63 74 56 75 57 76
REMARK SMILES IDX 61 77 64 78 58 79 59 80 62 81 60 82 39 83 40 84 48 85 41 86
REMARK SMILES IDX 42 87 46 88 49 89 43 90 44 91 47 92 45 93
REMARK H PARENT 6 6 10 27 69 46 37 57
REMARK Flexibility Score: inf
ROOT
ATOM      1  C   UNL A   1      31.471  32.027  26.538  1.00  0.00     0.042 C 
ENDROOT
BRANCH   1   2
ATOM      2  C   UNL A   1      31.630  30.530  26.351  1.00  0.00     0.117 C 
BRANCH   2   3
ATOM      3  N   UNL A   1      32.577  30.170  25.313  1.00  0.00    -0.356 N 
ATOM      4  C   UNL A   1      32.653  29.027  24.571  1.00  0.00     0.225 C 
ATOM      5  O   UNL A   1      33.542  28.965  23.722  1.00  0.00    -0.275 OA
ATOM      6  H   UNL A   1      33.263  30.847  25.115  1.00  0.00     0.163 HD
BRANCH   4   7
ATOM      7  C   UNL A   1      31.734  27.859  24.905  1.00  0.00     0.102 C 
ATOM      8  C   UNL A   1      31.861  25.637  26.022  1.00  0.00     0.032 C 
ATOM      9  C   UNL A   1      32.493  26.509  24.928  1.00  0.00     0.096 C 
ATOM     10  N   UNL A   1      32.308  25.970  23.562  1.00  0.00    -0.321 N 
ATOM     11  C   UNL A   1      30.623  27.587  23.883  1.00  0.00     0.037 C 
ATOM     12  C   UNL A   1      31.296  26.716  22.847  1.00  0.00     0.122 C 
BRANCH  10  13
ATOM     13  C   UNL A   1      33.222  25.278  22.781  1.00  0.00     0.320 C 
ATOM     14  O   UNL A   1      33.923  25.853  21.947  1.00  0.00    -0.248 OA
BRANCH  13  15
ATOM     15  N   UNL A   1      33.398  23.954  23.075  1.00  0.00    -0.321 N 
ATOM     16  C   UNL A   1      32.818  22.902  22.255  1.00  0.00     0.121 C 
ATOM     17  C   UNL A   1      34.505  23.492  23.889  1.00  0.00     0.090 C 
ATOM     18  C   UNL A   1      32.273  21.772  23.134  1.00  0.00     0.022 C 
ATOM     19  C   UNL A   1      33.923  22.492  24.891  1.00  0.00     0.012 C 
ATOM     20  C   UNL A   1      35.244  24.460  24.805  1.00  0.00     0.025 C 
ATOM     21  C   UNL A   1      33.312  21.294  24.166  1.00  0.00     0.007 C 
ATOM     22  C   UNL A   1      35.091  22.221  25.823  1.00  0.00     0.006 C 
ATOM     23  C   UNL A   1      35.833  23.563  25.904  1.00  0.00     0.002 C 
ENDBRANCH  13  15
ENDBRANCH  10  13
ENDBRANCH   4   7
ENDBRANCH   2   3
ENDBRANCH   1   2
BRANCH   1  24
ATOM     24  C   UNL A   1      32.615  32.700  27.278  1.00  0.00     0.118 C 
BRANCH  24  25
ATOM     25  N   UNL A   1      32.352  34.091  27.616  1.00  0.00    -0.352 N 
ATOM     26  C   UNL A   1      32.945  34.919  28.542  1.00  0.00     0.251 C 
ATOM     27  H   UNL A   1      31.629  34.511  27.094  1.00  0.00     0.163 HD
ATOM     28  O   UNL A   1      32.472  36.027  28.760  1.00  0.00    -0.269 OA
BRANCH  26  29
ATOM     29  C   UNL A   1      34.128  34.462  29.308  1.00  0.00     0.039 A 
ATOM     30  C   UNL A   1      33.935  33.883  30.566  1.00  0.00     0.014 A 
ATOM     31  C   UNL A   1      35.418  34.590  28.795  1.00  0.00     0.014 A 
ATOM     32  C   UNL A   1      35.025  33.352  31.259  1.00  0.00     0.010 A 
ATOM     33  C   UNL A   1      36.482  33.957  29.428  1.00  0.00     0.010 A 
ATOM     34  C   UNL A   1      36.301  33.335  30.671  1.00  0.00    -0.014 A 
BRANCH  34  35
ATOM     35  C   UNL A   1      37.458  32.681  31.337  1.00  0.00     0.031 A 
ATOM     36  C   UNL A   1      38.167  31.535  30.667  1.00  0.00     0.074 A 
ATOM     37  C   UNL A   1      37.827  33.069  32.574  1.00  0.00     0.049 A 
ATOM     38  N   UNL A   1      39.136  30.780  31.119  1.00  0.00    -0.248 NA
ATOM     39  C   UNL A   1      37.701  31.165  29.320  1.00  0.00     0.031 C 
ATOM     40  C   UNL A   1      37.190  34.132  33.353  1.00  0.00     0.029 A 
ATOM     41  N   UNL A   1      38.822  32.607  33.399  1.00  0.00    -0.354 N 
ATOM     42  C   UNL A   1      39.381  29.843  30.124  1.00  0.00     0.074 A 
ATOM     43  C   UNL A   1      38.416  30.077  29.073  1.00  0.00     0.031 C 
ATOM     44  C   UNL A   1      37.829  34.262  34.527  1.00  0.00     0.029 A 
ATOM     45  C   UNL A   1      38.889  33.262  34.605  1.00  0.00     0.049 A 
ATOM     46  H   UNL A   1      39.431  31.874  33.150  1.00  0.00     0.167 HD
ATOM     47  C   UNL A   1      40.343  28.890  30.075  1.00  0.00     0.037 A 
ATOM     48  C   UNL A   1      39.707  33.072  35.658  1.00  0.00     0.037 A 
ATOM     49  C   UNL A   1      41.319  28.675  31.111  1.00  0.00     0.049 A 
ATOM     50  C   UNL A   1      40.757  31.996  35.587  1.00  0.00     0.074 A 
ATOM     51  C   UNL A   1      42.369  27.775  31.132  1.00  0.00     0.029 A 
ATOM     52  N   UNL A   1      41.362  29.369  32.312  1.00  0.00    -0.354 N 
ATOM     53  N   UNL A   1      41.023  31.161  34.611  1.00  0.00    -0.248 NA
ATOM     54  C   UNL A   1      41.625  31.839  36.761  1.00  0.00     0.031 C 
ATOM     55  C   UNL A   1      43.014  27.885  32.368  1.00  0.00     0.029 A 
ATOM     56  C   UNL A   1      42.405  28.899  33.092  1.00  0.00     0.049 A 
ATOM     57  H   UNL A   1      40.742  30.089  32.571  1.00  0.00     0.167 HD
ATOM     58  C   UNL A   1      42.106  30.405  35.039  1.00  0.00     0.074 A 
ATOM     59  C   UNL A   1      42.458  30.891  36.356  1.00  0.00     0.031 C 
ATOM     60  C   UNL A   1      42.751  29.401  34.397  1.00  0.00     0.037 A 
BRANCH  47  61
ATOM     61  C   UNL A   1      40.390  28.011  28.857  1.00  0.00     0.064 A 
ATOM     62  C   UNL A   1      41.144  28.358  27.726  1.00  0.00     0.173 A 
ATOM     63  C   UNL A   1      39.701  26.789  28.834  1.00  0.00     0.173 A 
ATOM     64  F   UNL A   1      41.813  29.521  27.691  1.00  0.00    -0.203 F 
ATOM     65  C   UNL A   1      41.179  27.533  26.605  1.00  0.00     0.198 A 
ATOM     66  C   UNL A   1      39.766  25.950  27.725  1.00  0.00     0.198 A 
ATOM     67  F   UNL A   1      38.969  26.404  29.890  1.00  0.00    -0.203 F 
ATOM     68  F   UNL A   1      41.860  27.914  25.516  1.00  0.00    -0.200 F 
ATOM     69  C   UNL A   1      40.497  26.326  26.608  1.00  0.00     0.200 A 
ATOM     70  F   UNL A   1      39.119  24.776  27.736  1.00  0.00    -0.200 F 
ATOM     71  F   UNL A   1      40.539  25.528  25.532  1.00  0.00    -0.200 F 
ENDBRANCH  47  61
BRANCH  48  72
ATOM     72  C   UNL A   1      39.584  33.935  36.864  1.00  0.00     0.064 A 
ATOM     73  C   UNL A   1      40.236  35.175  36.930  1.00  0.00     0.173 A 
ATOM     74  C   UNL A   1      38.827  33.537  37.976  1.00  0.00     0.173 A 
ATOM     75  F   UNL A   1      40.989  35.590  35.901  1.00  0.00    -0.203 F 
ATOM     76  C   UNL A   1      40.158  35.971  38.071  1.00  0.00     0.198 A 
ATOM     77  C   UNL A   1      38.723  34.350  39.103  1.00  0.00     0.198 A 
ATOM     78  F   UNL A   1      38.178  32.365  37.963  1.00  0.00    -0.203 F 
ATOM     79  F   UNL A   1      40.835  37.126  38.127  1.00  0.00    -0.200 F 
ATOM     80  C   UNL A   1      39.396  35.561  39.154  1.00  0.00     0.200 A 
ATOM     81  F   UNL A   1      37.973  33.957  40.142  1.00  0.00    -0.200 F 
ATOM     82  F   UNL A   1      39.318  36.328  40.250  1.00  0.00    -0.200 F 
ENDBRANCH  48  72
BRANCH  60  83
ATOM     83  C   UNL A   1      43.933  28.786  35.091  1.00  0.00     0.064 A 
ATOM     84  C   UNL A   1      45.233  29.282  34.919  1.00  0.00     0.173 A 
ATOM     85  C   UNL A   1      43.754  27.708  35.973  1.00  0.00     0.173 A 
ATOM     86  F   UNL A   1      45.462  30.301  34.076  1.00  0.00    -0.203 F 
ATOM     87  C   UNL A   1      46.314  28.705  35.582  1.00  0.00     0.198 A 
ATOM     88  C   UNL A   1      44.831  27.157  36.660  1.00  0.00     0.198 A 
ATOM     89  F   UNL A   1      42.530  27.200  36.180  1.00  0.00    -0.203 F 
ATOM     90  F   UNL A   1      47.554  29.161  35.361  1.00  0.00    -0.200 F 
ATOM     91  C   UNL A   1      46.111  27.649  36.458  1.00  0.00     0.200 A 
ATOM     92  F   UNL A   1      44.629  26.148  37.519  1.00  0.00    -0.200 F 
ATOM     93  F   UNL A   1      47.150  27.102  37.102  1.00  0.00    -0.200 F 
ENDBRANCH  60  83
ENDBRANCH  34  35
ENDBRANCH  26  29
ENDBRANCH  24  25
ENDBRANCH   1  24
TORSDOF 12
ENDMDL
