MODEL 1
REMARK VINA RESULT:     -12.8      0.000      0.000
REMARK SMILES N#C[C@H]1CN(c2cc(C(=O)NCCCNC(=O)c3ccc(-c4c5nc(c(-c6c(F)c(F)c(F)c(F)c6F)c6ccc([nH]6)c(-c6c(F)c(F)c(F)c(F)c6F)c6nc(c(-c7c(F)c(F)c(F)c(F)c7F)c7ccc4[nH]7)C=C6)C=C5)cc3)c(N)cc2F)CCO1
REMARK SMILES IDX 13 1 12 2 11 3 9 4 10 5 8 7 6 8 7 9 84 10 83 11 85 12 81 13
REMARK SMILES IDX 5 14 3 15 4 16 88 17 87 18 86 19 2 20 1 21 82 22 14 25 15 26
REMARK SMILES IDX 16 27 17 29 18 30 19 31 80 32 20 33 79 34 21 35 22 36 23 37
REMARK SMILES IDX 73 38 24 39 78 40 72 41 74 42 25 43 77 44 71 45 70 46 26 48
REMARK SMILES IDX 58 49 38 50 57 51 39 52 42 53 56 54 75 55 40 56 41 57 55 59
REMARK SMILES IDX 76 60 43 61 27 62 28 63 36 64 29 65 30 66 34 67 37 68 31 69
REMARK SMILES IDX 32 70 35 71 33 72 59 73 60 74 68 75 61 76 62 77 66 78 69 79
REMARK SMILES IDX 63 80 64 81 67 82 65 83 44 84 45 85 53 86 46 87 47 88 51 89
REMARK SMILES IDX 54 90 48 91 49 92 52 93 50 94
REMARK H PARENT 11 6 82 23 82 24 15 28 74 47 42 58
REMARK Flexibility Score: inf
ROOT
ATOM      1  C   UNL A   1      31.589  31.994  26.669  1.00  0.00     0.042 C 
ENDROOT
BRANCH   1   2
ATOM      2  C   UNL A   1      31.822  30.518  26.437  1.00  0.00     0.118 C 
BRANCH   2   3
ATOM      3  N   UNL A   1      32.787  30.182  25.408  1.00  0.00    -0.352 N 
ATOM      4  C   UNL A   1      32.639  29.423  24.268  1.00  0.00     0.253 C 
ATOM      5  O   UNL A   1      33.613  29.346  23.517  1.00  0.00    -0.269 OA
ATOM      6  H   UNL A   1      33.688  30.554  25.546  1.00  0.00     0.163 HD
BRANCH   4   7
ATOM      7  C   UNL A   1      31.406  28.636  23.948  1.00  0.00     0.065 A 
ATOM      8  C   UNL A   1      30.264  26.493  24.321  1.00  0.00     0.074 A 
ATOM      9  C   UNL A   1      31.349  27.347  24.535  1.00  0.00     0.045 A 
ATOM     10  C   UNL A   1      29.150  27.033  23.670  1.00  0.00     0.148 A 
ATOM     11  C   UNL A   1      29.186  28.284  23.073  1.00  0.00     0.067 A 
ATOM     12  F   UNL A   1      28.028  26.306  23.543  1.00  0.00    -0.205 F 
ATOM     13  C   UNL A   1      30.362  29.036  23.089  1.00  0.00     0.047 A 
BRANCH   8  14
ATOM     14  N   UNL A   1      30.340  25.155  24.636  1.00  0.00    -0.363 N 
ATOM     15  C   UNL A   1      31.854  23.325  23.994  1.00  0.00     0.240 C 
ATOM     16  C   UNL A   1      30.548  24.090  23.653  1.00  0.00     0.164 C 
ATOM     17  O   UNL A   1      31.855  22.875  25.375  1.00  0.00    -0.360 OA
ATOM     18  C   UNL A   1      31.739  23.988  26.277  1.00  0.00     0.183 C 
ATOM     19  C   UNL A   1      30.430  24.749  26.045  1.00  0.00     0.145 C 
BRANCH  15  20
ATOM     20  C   UNL A   1      32.001  22.167  23.093  1.00  0.00     0.096 C 
ATOM     21  N   UNL A   1      32.133  21.269  22.373  1.00  0.00    -0.195 NA
ENDBRANCH  15  20
ENDBRANCH   8  14
BRANCH  13  22
ATOM     22  N   UNL A   1      30.430  30.109  22.210  1.00  0.00    -0.398 N 
ATOM     23  H   UNL A   1      29.653  30.338  21.650  1.00  0.00     0.156 HD
ATOM     24  H   UNL A   1      31.258  30.640  22.145  1.00  0.00     0.156 HD
ENDBRANCH  13  22
ENDBRANCH   4   7
ENDBRANCH   2   3
ENDBRANCH   1   2
BRANCH   1  25
ATOM     25  C   UNL A   1      32.777  32.759  27.218  1.00  0.00     0.118 C 
BRANCH  25  26
ATOM     26  N   UNL A   1      32.470  34.124  27.629  1.00  0.00    -0.352 N 
ATOM     27  C   UNL A   1      33.005  34.923  28.614  1.00  0.00     0.251 C 
ATOM     28  H   UNL A   1      31.749  34.551  27.111  1.00  0.00     0.163 HD
ATOM     29  O   UNL A   1      32.487  36.010  28.858  1.00  0.00    -0.269 OA
BRANCH  27  30
ATOM     30  C   UNL A   1      34.167  34.473  29.415  1.00  0.00     0.039 A 
ATOM     31  C   UNL A   1      33.944  33.895  30.669  1.00  0.00     0.014 A 
ATOM     32  C   UNL A   1      35.472  34.602  28.944  1.00  0.00     0.014 A 
ATOM     33  C   UNL A   1      35.015  33.360  31.387  1.00  0.00     0.010 A 
ATOM     34  C   UNL A   1      36.513  33.942  29.586  1.00  0.00     0.010 A 
ATOM     35  C   UNL A   1      36.301  33.321  30.823  1.00  0.00    -0.014 A 
BRANCH  35  36
ATOM     36  C   UNL A   1      37.428  32.638  31.512  1.00  0.00     0.031 A 
ATOM     37  C   UNL A   1      38.125  31.472  30.862  1.00  0.00     0.074 A 
ATOM     38  C   UNL A   1      37.787  33.034  32.750  1.00  0.00     0.049 A 
ATOM     39  N   UNL A   1      39.106  30.735  31.320  1.00  0.00    -0.248 NA
ATOM     40  C   UNL A   1      37.638  31.055  29.538  1.00  0.00     0.031 C 
ATOM     41  C   UNL A   1      37.146  34.107  33.513  1.00  0.00     0.029 A 
ATOM     42  N   UNL A   1      38.778  32.582  33.585  1.00  0.00    -0.354 N 
ATOM     43  C   UNL A   1      39.343  29.772  30.348  1.00  0.00     0.074 A 
ATOM     44  C   UNL A   1      38.356  29.968  29.310  1.00  0.00     0.031 C 
ATOM     45  C   UNL A   1      37.789  34.261  34.681  1.00  0.00     0.029 A 
ATOM     46  C   UNL A   1      38.851  33.265  34.775  1.00  0.00     0.049 A 
ATOM     47  H   UNL A   1      39.380  31.838  33.353  1.00  0.00     0.167 HD
ATOM     48  C   UNL A   1      40.314  28.830  30.306  1.00  0.00     0.037 A 
ATOM     49  C   UNL A   1      39.676  33.103  35.827  1.00  0.00     0.037 A 
ATOM     50  C   UNL A   1      41.304  28.648  31.337  1.00  0.00     0.049 A 
ATOM     51  C   UNL A   1      40.733  32.034  35.765  1.00  0.00     0.074 A 
ATOM     52  C   UNL A   1      42.366  27.763  31.365  1.00  0.00     0.029 A 
ATOM     53  N   UNL A   1      41.343  29.359  32.528  1.00  0.00    -0.354 N 
ATOM     54  N   UNL A   1      41.001  31.187  34.801  1.00  0.00    -0.248 NA
ATOM     55  C   UNL A   1      41.608  31.903  36.938  1.00  0.00     0.031 C 
ATOM     56  C   UNL A   1      43.004  27.887  32.602  1.00  0.00     0.029 A 
ATOM     57  C   UNL A   1      42.391  28.905  33.314  1.00  0.00     0.049 A 
ATOM     58  H   UNL A   1      40.721  30.079  32.778  1.00  0.00     0.167 HD
ATOM     59  C   UNL A   1      42.090  30.444  35.236  1.00  0.00     0.074 A 
ATOM     60  C   UNL A   1      42.449  30.959  36.542  1.00  0.00     0.031 C 
ATOM     61  C   UNL A   1      42.735  29.425  34.614  1.00  0.00     0.037 A 
BRANCH  48  62
ATOM     62  C   UNL A   1      40.355  27.919  29.111  1.00  0.00     0.064 A 
ATOM     63  C   UNL A   1      39.621  26.723  29.065  1.00  0.00     0.173 A 
ATOM     64  C   UNL A   1      41.110  28.264  27.979  1.00  0.00     0.173 A 
ATOM     65  F   UNL A   1      38.890  26.338  30.122  1.00  0.00    -0.203 F 
ATOM     66  C   UNL A   1      39.668  25.892  27.948  1.00  0.00     0.198 A 
ATOM     67  C   UNL A   1      41.123  27.450  26.849  1.00  0.00     0.198 A 
ATOM     68  F   UNL A   1      41.827  29.397  27.963  1.00  0.00    -0.203 F 
ATOM     69  F   UNL A   1      39.005  24.727  27.953  1.00  0.00    -0.200 F 
ATOM     70  C   UNL A   1      40.412  26.260  26.838  1.00  0.00     0.200 A 
ATOM     71  F   UNL A   1      41.829  27.817  25.770  1.00  0.00    -0.200 F 
ATOM     72  F   UNL A   1      40.448  25.465  25.760  1.00  0.00    -0.200 F 
ENDBRANCH  48  62
BRANCH  49  73
ATOM     73  C   UNL A   1      39.548  33.983  37.021  1.00  0.00     0.064 A 
ATOM     74  C   UNL A   1      38.796  33.587  38.136  1.00  0.00     0.173 A 
ATOM     75  C   UNL A   1      40.160  35.245  37.065  1.00  0.00     0.173 A 
ATOM     76  F   UNL A   1      38.176  32.398  38.137  1.00  0.00    -0.203 F 
ATOM     77  C   UNL A   1      38.639  34.428  39.236  1.00  0.00     0.198 A 
ATOM     78  C   UNL A   1      40.033  36.070  38.181  1.00  0.00     0.198 A 
ATOM     79  F   UNL A   1      40.897  35.673  36.029  1.00  0.00    -0.203 F 
ATOM     80  F   UNL A   1      37.867  34.047  40.263  1.00  0.00    -0.200 F 
ATOM     81  C   UNL A   1      39.262  35.666  39.260  1.00  0.00     0.200 A 
ATOM     82  F   UNL A   1      40.655  37.256  38.208  1.00  0.00    -0.200 F 
ATOM     83  F   UNL A   1      39.115  36.473  40.320  1.00  0.00    -0.200 F 
ENDBRANCH  49  73
BRANCH  61  84
ATOM     84  C   UNL A   1      43.917  28.824  35.322  1.00  0.00     0.064 A 
ATOM     85  C   UNL A   1      45.225  29.276  35.096  1.00  0.00     0.173 A 
ATOM     86  C   UNL A   1      43.732  27.795  36.259  1.00  0.00     0.173 A 
ATOM     87  F   UNL A   1      45.459  30.249  34.203  1.00  0.00    -0.203 F 
ATOM     88  C   UNL A   1      46.307  28.694  35.751  1.00  0.00     0.198 A 
ATOM     89  C   UNL A   1      44.812  27.244  36.943  1.00  0.00     0.198 A 
ATOM     90  F   UNL A   1      42.501  27.330  36.522  1.00  0.00    -0.203 F 
ATOM     91  F   UNL A   1      47.554  29.097  35.468  1.00  0.00    -0.200 F 
ATOM     92  C   UNL A   1      46.100  27.684  36.678  1.00  0.00     0.200 A 
ATOM     93  F   UNL A   1      44.606  26.283  37.854  1.00  0.00    -0.200 F 
ATOM     94  F   UNL A   1      47.142  27.129  37.312  1.00  0.00    -0.200 F 
ENDBRANCH  61  84
ENDBRANCH  35  36
ENDBRANCH  27  30
ENDBRANCH  25  26
ENDBRANCH   1  25
TORSDOF 13
ENDMDL
MODEL 2
REMARK VINA RESULT:     -12.7      5.822     11.273
REMARK SMILES N#C[C@H]1CN(c2cc(C(=O)NCCCNC(=O)c3ccc(-c4c5nc(c(-c6c(F)c(F)c(F)c(F)c6F)c6ccc([nH]6)c(-c6c(F)c(F)c(F)c(F)c6F)c6nc(c(-c7c(F)c(F)c(F)c(F)c7F)c7ccc4[nH]7)C=C6)C=C5)cc3)c(N)cc2F)CCO1
REMARK SMILES IDX 13 1 12 2 11 3 9 4 10 5 8 7 6 8 7 9 84 10 83 11 85 12 81 13
REMARK SMILES IDX 5 14 3 15 4 16 88 17 87 18 86 19 2 20 1 21 82 22 14 25 15 26
REMARK SMILES IDX 16 27 17 29 18 30 19 31 80 32 20 33 79 34 21 35 22 36 23 37
REMARK SMILES IDX 73 38 24 39 78 40 72 41 74 42 25 43 77 44 71 45 70 46 26 48
REMARK SMILES IDX 58 49 38 50 57 51 39 52 42 53 56 54 75 55 40 56 41 57 55 59
REMARK SMILES IDX 76 60 43 61 27 62 28 63 36 64 29 65 30 66 34 67 37 68 31 69
REMARK SMILES IDX 32 70 35 71 33 72 59 73 60 74 68 75 61 76 62 77 66 78 69 79
REMARK SMILES IDX 63 80 64 81 67 82 65 83 44 84 45 85 53 86 46 87 47 88 51 89
REMARK SMILES IDX 54 90 48 91 49 92 52 93 50 94
REMARK H PARENT 11 6 82 23 82 24 15 28 74 47 42 58
REMARK Flexibility Score: inf
ROOT
ATOM      1  C   UNL A   1      38.120  19.977  24.951  1.00  0.00     0.042 C 
ENDROOT
BRANCH   1   2
ATOM      2  C   UNL A   1      37.391  21.250  24.580  1.00  0.00     0.118 C 
BRANCH   2   3
ATOM      3  N   UNL A   1      37.876  22.463  25.208  1.00  0.00    -0.352 N 
ATOM      4  C   UNL A   1      37.182  23.470  25.842  1.00  0.00     0.253 C 
ATOM      5  O   UNL A   1      37.848  24.371  26.355  1.00  0.00    -0.269 OA
ATOM      6  H   UNL A   1      38.851  22.587  25.177  1.00  0.00     0.163 HD
BRANCH   4   7
ATOM      7  C   UNL A   1      35.687  23.564  25.863  1.00  0.00     0.065 A 
ATOM      8  C   UNL A   1      33.779  25.015  25.325  1.00  0.00     0.074 A 
ATOM      9  C   UNL A   1      35.156  24.778  25.362  1.00  0.00     0.045 A 
ATOM     10  C   UNL A   1      32.942  23.933  25.617  1.00  0.00     0.148 A 
ATOM     11  C   UNL A   1      33.435  22.741  26.124  1.00  0.00     0.067 A 
ATOM     12  F   UNL A   1      31.612  24.057  25.478  1.00  0.00    -0.205 F 
ATOM     13  C   UNL A   1      34.799  22.599  26.381  1.00  0.00     0.047 A 
BRANCH   8  14
ATOM     14  N   UNL A   1      33.280  26.282  25.124  1.00  0.00    -0.363 N 
ATOM     15  C   UNL A   1      31.201  27.175  24.158  1.00  0.00     0.240 C 
ATOM     16  C   UNL A   1      32.661  26.734  23.876  1.00  0.00     0.164 C 
ATOM     17  O   UNL A   1      31.143  28.142  25.240  1.00  0.00    -0.360 OA
ATOM     18  C   UNL A   1      31.686  27.589  26.451  1.00  0.00     0.183 C 
ATOM     19  C   UNL A   1      33.155  27.197  26.266  1.00  0.00     0.145 C 
BRANCH  15  20
ATOM     20  C   UNL A   1      30.613  27.758  22.938  1.00  0.00     0.096 C 
ATOM     21  N   UNL A   1      30.166  28.232  21.980  1.00  0.00    -0.195 NA
ENDBRANCH  15  20
ENDBRANCH   8  14
BRANCH  13  22
ATOM     22  N   UNL A   1      35.177  21.527  27.180  1.00  0.00    -0.398 N 
ATOM     23  H   UNL A   1      36.096  21.177  27.133  1.00  0.00     0.156 HD
ATOM     24  H   UNL A   1      34.524  21.115  27.791  1.00  0.00     0.156 HD
ENDBRANCH  13  22
ENDBRANCH   4   7
ENDBRANCH   2   3
ENDBRANCH   1   2
BRANCH   1  25
ATOM     25  C   UNL A   1      39.196  20.131  26.007  1.00  0.00     0.118 C 
BRANCH  25  26
ATOM     26  N   UNL A   1      40.239  19.113  25.949  1.00  0.00    -0.352 N 
ATOM     27  C   UNL A   1      41.609  19.205  26.046  1.00  0.00     0.251 C 
ATOM     28  H   UNL A   1      39.904  18.197  25.816  1.00  0.00     0.163 HD
ATOM     29  O   UNL A   1      42.297  18.208  25.836  1.00  0.00    -0.269 OA
BRANCH  27  30
ATOM     30  C   UNL A   1      42.269  20.495  26.351  1.00  0.00     0.039 A 
ATOM     31  C   UNL A   1      42.758  21.273  25.298  1.00  0.00     0.014 A 
ATOM     32  C   UNL A   1      42.404  20.953  27.660  1.00  0.00     0.014 A 
ATOM     33  C   UNL A   1      43.278  22.543  25.556  1.00  0.00     0.010 A 
ATOM     34  C   UNL A   1      42.783  22.268  27.903  1.00  0.00     0.010 A 
ATOM     35  C   UNL A   1      43.236  23.079  26.854  1.00  0.00    -0.014 A 
BRANCH  35  36
ATOM     36  C   UNL A   1      43.660  24.477  27.129  1.00  0.00     0.031 A 
ATOM     37  C   UNL A   1      42.667  25.491  27.633  1.00  0.00     0.074 A 
ATOM     38  C   UNL A   1      44.931  24.848  26.871  1.00  0.00     0.049 A 
ATOM     39  N   UNL A   1      42.845  26.760  27.902  1.00  0.00    -0.248 NA
ATOM     40  C   UNL A   1      41.284  25.030  27.832  1.00  0.00     0.031 C 
ATOM     41  C   UNL A   1      45.970  23.977  26.319  1.00  0.00     0.029 A 
ATOM     42  N   UNL A   1      45.566  26.053  27.038  1.00  0.00    -0.354 N 
ATOM     43  C   UNL A   1      41.602  27.243  28.290  1.00  0.00     0.074 A 
ATOM     44  C   UNL A   1      40.663  26.154  28.150  1.00  0.00     0.031 C 
ATOM     45  C   UNL A   1      47.121  24.661  26.237  1.00  0.00     0.029 A 
ATOM     46  C   UNL A   1      46.892  26.032  26.679  1.00  0.00     0.049 A 
ATOM     47  H   UNL A   1      45.114  26.857  27.383  1.00  0.00     0.167 HD
ATOM     48  C   UNL A   1      41.277  28.474  28.752  1.00  0.00     0.037 A 
ATOM     49  C   UNL A   1      47.818  27.010  26.697  1.00  0.00     0.037 A 
ATOM     50  C   UNL A   1      42.221  29.552  28.903  1.00  0.00     0.049 A 
ATOM     51  C   UNL A   1      47.426  28.375  27.195  1.00  0.00     0.074 A 
ATOM     52  C   UNL A   1      42.007  30.818  29.417  1.00  0.00     0.029 A 
ATOM     53  N   UNL A   1      43.555  29.492  28.527  1.00  0.00    -0.354 N 
ATOM     54  N   UNL A   1      46.267  28.794  27.642  1.00  0.00    -0.248 NA
ATOM     55  C   UNL A   1      48.476  29.403  27.197  1.00  0.00     0.031 C 
ATOM     56  C   UNL A   1      43.192  31.547  29.285  1.00  0.00     0.029 A 
ATOM     57  C   UNL A   1      44.168  30.713  28.763  1.00  0.00     0.049 A 
ATOM     58  H   UNL A   1      44.001  28.701  28.148  1.00  0.00     0.167 HD
ATOM     59  C   UNL A   1      46.454  30.121  28.005  1.00  0.00     0.074 A 
ATOM     60  C   UNL A   1      47.845  30.429  27.749  1.00  0.00     0.031 C 
ATOM     61  C   UNL A   1      45.554  31.007  28.502  1.00  0.00     0.037 A 
BRANCH  48  62
ATOM     62  C   UNL A   1      39.843  28.724  29.127  1.00  0.00     0.064 A 
ATOM     63  C   UNL A   1      39.364  28.486  30.425  1.00  0.00     0.173 A 
ATOM     64  C   UNL A   1      38.941  29.243  28.185  1.00  0.00     0.173 A 
ATOM     65  F   UNL A   1      40.178  27.980  31.364  1.00  0.00    -0.203 F 
ATOM     66  C   UNL A   1      38.032  28.725  30.755  1.00  0.00     0.198 A 
ATOM     67  C   UNL A   1      37.620  29.518  28.530  1.00  0.00     0.198 A 
ATOM     68  F   UNL A   1      39.344  29.496  26.930  1.00  0.00    -0.203 F 
ATOM     69  F   UNL A   1      37.586  28.434  31.985  1.00  0.00    -0.200 F 
ATOM     70  C   UNL A   1      37.164  29.249  29.810  1.00  0.00     0.200 A 
ATOM     71  F   UNL A   1      36.788  30.042  27.619  1.00  0.00    -0.200 F 
ATOM     72  F   UNL A   1      35.886  29.489  30.133  1.00  0.00    -0.200 F 
ENDBRANCH  48  62
BRANCH  49  73
ATOM     73  C   UNL A   1      49.209  26.731  26.246  1.00  0.00     0.064 A 
ATOM     74  C   UNL A   1      49.601  26.963  24.920  1.00  0.00     0.173 A 
ATOM     75  C   UNL A   1      50.171  26.212  27.126  1.00  0.00     0.173 A 
ATOM     76  F   UNL A   1      48.715  27.442  24.034  1.00  0.00    -0.203 F 
ATOM     77  C   UNL A   1      50.891  26.662  24.486  1.00  0.00     0.198 A 
ATOM     78  C   UNL A   1      51.470  25.945  26.700  1.00  0.00     0.198 A 
ATOM     79  F   UNL A   1      49.853  25.977  28.408  1.00  0.00    -0.203 F 
ATOM     80  F   UNL A   1      51.219  26.839  23.199  1.00  0.00    -0.200 F 
ATOM     81  C   UNL A   1      51.825  26.158  25.376  1.00  0.00     0.200 A 
ATOM     82  F   UNL A   1      52.376  25.480  27.570  1.00  0.00    -0.200 F 
ATOM     83  F   UNL A   1      53.066  25.872  24.960  1.00  0.00    -0.200 F 
ENDBRANCH  49  73
BRANCH  61  84
ATOM     84  C   UNL A   1      46.057  32.384  28.835  1.00  0.00     0.064 A 
ATOM     85  C   UNL A   1      46.589  32.693  30.095  1.00  0.00     0.173 A 
ATOM     86  C   UNL A   1      46.026  33.402  27.869  1.00  0.00     0.173 A 
ATOM     87  F   UNL A   1      46.632  31.760  31.059  1.00  0.00    -0.203 F 
ATOM     88  C   UNL A   1      47.035  33.979  30.389  1.00  0.00     0.198 A 
ATOM     89  C   UNL A   1      46.511  34.676  28.153  1.00  0.00     0.198 A 
ATOM     90  F   UNL A   1      45.536  33.160  26.644  1.00  0.00    -0.203 F 
ATOM     91  F   UNL A   1      47.476  34.268  31.621  1.00  0.00    -0.200 F 
ATOM     92  C   UNL A   1      47.002  34.967  29.417  1.00  0.00     0.200 A 
ATOM     93  F   UNL A   1      46.497  35.622  27.205  1.00  0.00    -0.200 F 
ATOM     94  F   UNL A   1      47.436  36.203  29.699  1.00  0.00    -0.200 F 
ENDBRANCH  61  84
ENDBRANCH  35  36
ENDBRANCH  27  30
ENDBRANCH  25  26
ENDBRANCH   1  25
TORSDOF 13
ENDMDL
MODEL 3
REMARK VINA RESULT:     -12.7      5.834     11.348
REMARK SMILES N#C[C@H]1CN(c2cc(C(=O)NCCCNC(=O)c3ccc(-c4c5nc(c(-c6c(F)c(F)c(F)c(F)c6F)c6ccc([nH]6)c(-c6c(F)c(F)c(F)c(F)c6F)c6nc(c(-c7c(F)c(F)c(F)c(F)c7F)c7ccc4[nH]7)C=C6)C=C5)cc3)c(N)cc2F)CCO1
REMARK SMILES IDX 13 1 12 2 11 3 9 4 10 5 8 7 6 8 7 9 84 10 83 11 85 12 81 13
REMARK SMILES IDX 5 14 3 15 4 16 88 17 87 18 86 19 2 20 1 21 82 22 14 25 15 26
REMARK SMILES IDX 16 27 17 29 18 30 19 31 80 32 20 33 79 34 21 35 22 36 23 37
REMARK SMILES IDX 73 38 24 39 78 40 72 41 74 42 25 43 77 44 71 45 70 46 26 48
REMARK SMILES IDX 58 49 38 50 57 51 39 52 42 53 56 54 75 55 40 56 41 57 55 59
REMARK SMILES IDX 76 60 43 61 27 62 28 63 36 64 29 65 30 66 34 67 37 68 31 69
REMARK SMILES IDX 32 70 35 71 33 72 59 73 60 74 68 75 61 76 62 77 66 78 69 79
REMARK SMILES IDX 63 80 64 81 67 82 65 83 44 84 45 85 53 86 46 87 47 88 51 89
REMARK SMILES IDX 54 90 48 91 49 92 52 93 50 94
REMARK H PARENT 11 6 82 23 82 24 15 28 74 47 42 58
REMARK Flexibility Score: inf
ROOT
ATOM      1  C   UNL A   1      38.062  19.978  25.005  1.00  0.00     0.042 C 
ENDROOT
BRANCH   1   2
ATOM      2  C   UNL A   1      37.064  21.105  24.868  1.00  0.00     0.118 C 
BRANCH   2   3
ATOM      3  N   UNL A   1      36.323  21.445  26.068  1.00  0.00    -0.352 N 
ATOM      4  C   UNL A   1      34.965  21.453  26.298  1.00  0.00     0.253 C 
ATOM      5  O   UNL A   1      34.594  21.722  27.442  1.00  0.00    -0.269 OA
ATOM      6  H   UNL A   1      36.877  21.711  26.837  1.00  0.00     0.163 HD
BRANCH   4   7
ATOM      7  C   UNL A   1      33.939  21.240  25.228  1.00  0.00     0.065 A 
ATOM      8  C   UNL A   1      32.726  22.332  23.392  1.00  0.00     0.074 A 
ATOM      9  C   UNL A   1      33.665  22.375  24.426  1.00  0.00     0.045 A 
ATOM     10  C   UNL A   1      32.213  21.075  23.054  1.00  0.00     0.148 A 
ATOM     11  C   UNL A   1      32.452  19.952  23.832  1.00  0.00     0.067 A 
ATOM     12  F   UNL A   1      31.403  20.944  21.991  1.00  0.00    -0.205 F 
ATOM     13  C   UNL A   1      33.205  20.057  25.003  1.00  0.00     0.047 A 
BRANCH   8  14
ATOM     14  N   UNL A   1      32.247  23.487  22.818  1.00  0.00    -0.363 N 
ATOM     15  C   UNL A   1      31.150  25.510  23.690  1.00  0.00     0.240 C 
ATOM     16  C   UNL A   1      30.944  24.080  23.126  1.00  0.00     0.164 C 
ATOM     17  O   UNL A   1      31.978  26.310  22.805  1.00  0.00    -0.360 OA
ATOM     18  C   UNL A   1      33.271  25.707  22.628  1.00  0.00     0.183 C 
ATOM     19  C   UNL A   1      33.147  24.314  22.002  1.00  0.00     0.145 C 
BRANCH  15  20
ATOM     20  C   UNL A   1      29.842  26.164  23.876  1.00  0.00     0.096 C 
ATOM     21  N   UNL A   1      28.804  26.659  24.019  1.00  0.00    -0.195 NA
ENDBRANCH  15  20
ENDBRANCH   8  14
BRANCH  13  22
ATOM     22  N   UNL A   1      33.132  18.991  25.890  1.00  0.00    -0.398 N 
ATOM     23  H   UNL A   1      32.313  18.448  25.942  1.00  0.00     0.156 HD
ATOM     24  H   UNL A   1      33.901  18.781  26.469  1.00  0.00     0.156 HD
ENDBRANCH  13  22
ENDBRANCH   4   7
ENDBRANCH   2   3
ENDBRANCH   1   2
BRANCH   1  25
ATOM     25  C   UNL A   1      39.171  20.212  26.012  1.00  0.00     0.118 C 
BRANCH  25  26
ATOM     26  N   UNL A   1      40.209  19.188  26.006  1.00  0.00    -0.352 N 
ATOM     27  C   UNL A   1      41.577  19.275  26.126  1.00  0.00     0.251 C 
ATOM     28  H   UNL A   1      39.871  18.269  25.895  1.00  0.00     0.163 HD
ATOM     29  O   UNL A   1      42.263  18.269  25.961  1.00  0.00    -0.269 OA
BRANCH  27  30
ATOM     30  C   UNL A   1      42.239  20.570  26.403  1.00  0.00     0.039 A 
ATOM     31  C   UNL A   1      42.736  21.322  25.334  1.00  0.00     0.014 A 
ATOM     32  C   UNL A   1      42.368  21.061  27.701  1.00  0.00     0.014 A 
ATOM     33  C   UNL A   1      43.258  22.596  25.564  1.00  0.00     0.010 A 
ATOM     34  C   UNL A   1      42.749  22.380  27.913  1.00  0.00     0.010 A 
ATOM     35  C   UNL A   1      43.210  23.164  26.848  1.00  0.00    -0.014 A 
BRANCH  35  36
ATOM     36  C   UNL A   1      43.636  24.567  27.091  1.00  0.00     0.031 A 
ATOM     37  C   UNL A   1      42.650  25.588  27.592  1.00  0.00     0.074 A 
ATOM     38  C   UNL A   1      44.902  24.935  26.806  1.00  0.00     0.049 A 
ATOM     39  N   UNL A   1      42.830  26.863  27.835  1.00  0.00    -0.248 NA
ATOM     40  C   UNL A   1      41.271  25.130  27.822  1.00  0.00     0.031 C 
ATOM     41  C   UNL A   1      45.933  24.055  26.252  1.00  0.00     0.029 A 
ATOM     42  N   UNL A   1      45.538  26.144  26.941  1.00  0.00    -0.354 N 
ATOM     43  C   UNL A   1      41.593  27.351  28.235  1.00  0.00     0.074 A 
ATOM     44  C   UNL A   1      40.653  26.258  28.130  1.00  0.00     0.031 C 
ATOM     45  C   UNL A   1      47.082  24.739  26.140  1.00  0.00     0.029 A 
ATOM     46  C   UNL A   1      46.858  26.118  26.560  1.00  0.00     0.049 A 
ATOM     47  H   UNL A   1      45.090  26.954  27.278  1.00  0.00     0.167 HD
ATOM     48  C   UNL A   1      41.274  28.589  28.680  1.00  0.00     0.037 A 
ATOM     49  C   UNL A   1      47.782  27.097  26.546  1.00  0.00     0.037 A 
ATOM     50  C   UNL A   1      42.217  29.671  28.796  1.00  0.00     0.049 A 
ATOM     51  C   UNL A   1      47.396  28.471  27.026  1.00  0.00     0.074 A 
ATOM     52  C   UNL A   1      42.010  30.946  29.290  1.00  0.00     0.029 A 
ATOM     53  N   UNL A   1      43.546  29.607  28.399  1.00  0.00    -0.354 N 
ATOM     54  N   UNL A   1      46.244  28.896  27.483  1.00  0.00    -0.248 NA
ATOM     55  C   UNL A   1      48.444  29.500  26.992  1.00  0.00     0.031 C 
ATOM     56  C   UNL A   1      43.191  31.675  29.126  1.00  0.00     0.029 A 
ATOM     57  C   UNL A   1      44.160  30.832  28.604  1.00  0.00     0.049 A 
ATOM     58  H   UNL A   1      43.986  28.809  28.028  1.00  0.00     0.167 HD
ATOM     59  C   UNL A   1      46.434  30.229  27.819  1.00  0.00     0.074 A 
ATOM     60  C   UNL A   1      47.821  30.535  27.535  1.00  0.00     0.031 C 
ATOM     61  C   UNL A   1      45.542  31.123  28.315  1.00  0.00     0.037 A 
BRANCH  48  62
ATOM     62  C   UNL A   1      39.845  28.844  29.073  1.00  0.00     0.064 A 
ATOM     63  C   UNL A   1      39.392  28.646  30.388  1.00  0.00     0.173 A 
ATOM     64  C   UNL A   1      38.923  29.328  28.132  1.00  0.00     0.173 A 
ATOM     65  F   UNL A   1      40.226  28.175  31.327  1.00  0.00    -0.203 F 
ATOM     66  C   UNL A   1      38.065  28.889  30.735  1.00  0.00     0.198 A 
ATOM     67  C   UNL A   1      37.607  29.607  28.493  1.00  0.00     0.198 A 
ATOM     68  F   UNL A   1      39.301  29.542  26.863  1.00  0.00    -0.203 F 
ATOM     69  F   UNL A   1      37.643  28.636  31.982  1.00  0.00    -0.200 F 
ATOM     70  C   UNL A   1      37.176  29.378  29.790  1.00  0.00     0.200 A 
ATOM     71  F   UNL A   1      36.755  30.097  27.582  1.00  0.00    -0.200 F 
ATOM     72  F   UNL A   1      35.903  29.622  30.129  1.00  0.00    -0.200 F 
ENDBRANCH  48  62
BRANCH  49  73
ATOM     73  C   UNL A   1      49.166  26.812  26.077  1.00  0.00     0.064 A 
ATOM     74  C   UNL A   1      49.534  27.011  24.739  1.00  0.00     0.173 A 
ATOM     75  C   UNL A   1      50.146  26.320  26.953  1.00  0.00     0.173 A 
ATOM     76  F   UNL A   1      48.630  27.463  23.857  1.00  0.00    -0.203 F 
ATOM     77  C   UNL A   1      50.816  26.703  24.289  1.00  0.00     0.198 A 
ATOM     78  C   UNL A   1      51.438  26.048  26.510  1.00  0.00     0.198 A 
ATOM     79  F   UNL A   1      49.852  26.118  28.246  1.00  0.00    -0.203 F 
ATOM     80  F   UNL A   1      51.121  26.848  22.992  1.00  0.00    -0.200 F 
ATOM     81  C   UNL A   1      51.769  26.227  25.176  1.00  0.00     0.200 A 
ATOM     82  F   UNL A   1      52.362  25.609  27.376  1.00  0.00    -0.200 F 
ATOM     83  F   UNL A   1      53.004  25.935  24.745  1.00  0.00    -0.200 F 
ENDBRANCH  49  73
BRANCH  61  84
ATOM     84  C   UNL A   1      46.047  32.507  28.615  1.00  0.00     0.064 A 
ATOM     85  C   UNL A   1      45.978  33.542  27.672  1.00  0.00     0.173 A 
ATOM     86  C   UNL A   1      46.586  32.805  29.877  1.00  0.00     0.173 A 
ATOM     87  F   UNL A   1      45.482  33.308  26.447  1.00  0.00    -0.203 F 
ATOM     88  C   UNL A   1      46.467  34.812  27.965  1.00  0.00     0.198 A 
ATOM     89  C   UNL A   1      47.035  34.087  30.181  1.00  0.00     0.198 A 
ATOM     90  F   UNL A   1      46.668  31.855  30.821  1.00  0.00    -0.203 F 
ATOM     91  F   UNL A   1      46.452  35.767  27.024  1.00  0.00    -0.200 F 
ATOM     92  C   UNL A   1      46.988  35.086  29.221  1.00  0.00     0.200 A 
ATOM     93  F   UNL A   1      47.519  34.353  31.402  1.00  0.00    -0.200 F 
ATOM     94  F   UNL A   1      47.452  36.311  29.503  1.00  0.00    -0.200 F 
ENDBRANCH  61  84
ENDBRANCH  35  36
ENDBRANCH  27  30
ENDBRANCH  25  26
ENDBRANCH   1  25
TORSDOF 13
ENDMDL
