MODEL 1
REMARK VINA RESULT:     -13.0      0.000      0.000
REMARK SMILES O=C(NCCCNC(=O)c1cc(-c2ccc(C(F)(F)F)cc2)cc([N+](=O)[O-])c1)c1ccc(-c2c3nc(c(-c4c(F)c(F)c(F)c(F)c4F)c4ccc([nH]4)c(-c4c(F)c(F)c(F)c(F)c4F)c4nc(c(-c5c(F)c(F)c(F)c(F)c5F)c5ccc2[nH]5)C=C4)C=C3)cc1
REMARK SMILES IDX 5 1 4 2 3 3 1 4 2 5 29 7 30 8 91 9 31 10 90 11 32 12 33 13
REMARK SMILES IDX 34 14 84 15 35 16 89 17 83 18 85 19 36 20 88 21 82 22 81 23
REMARK SMILES IDX 37 25 69 26 49 27 68 28 50 29 53 30 67 31 86 32 51 33 52 34
REMARK SMILES IDX 66 36 87 37 54 38 38 39 39 40 47 41 40 42 41 43 45 44 48 45
REMARK SMILES IDX 42 46 43 47 46 48 44 49 70 50 71 51 79 52 72 53 73 54 77 55
REMARK SMILES IDX 80 56 74 57 75 58 78 59 76 60 55 61 56 62 64 63 57 64 58 65
REMARK SMILES IDX 62 66 65 67 59 68 60 69 63 70 61 71 6 72 7 73 8 74 9 76
REMARK SMILES IDX 10 77 11 78 28 79 12 80 24 81 23 82 13 83 14 84 22 85 15 86
REMARK SMILES IDX 21 87 16 88 17 89 18 90 19 91 20 92 25 93 26 94 27 95
REMARK H PARENT 3 6 85 24 53 35 7 75
REMARK Flexibility Score: inf
ROOT
ATOM      1  C   UNL A   1      32.902  28.963  23.812  1.00  0.00     0.042 C 
ENDROOT
BRANCH   1   2
ATOM      2  C   UNL A   1      33.344  29.201  25.248  1.00  0.00     0.118 C 
BRANCH   2   3
ATOM      3  N   UNL A   1      32.831  30.447  25.803  1.00  0.00    -0.352 N 
ATOM      4  O   UNL A   1      32.587  32.127  27.283  1.00  0.00    -0.269 OA
ATOM      5  C   UNL A   1      33.269  31.191  26.871  1.00  0.00     0.251 C 
ATOM      6  H   UNL A   1      32.045  30.813  25.338  1.00  0.00     0.163 HD
BRANCH   5   7
ATOM      7  C   UNL A   1      34.539  30.856  27.549  1.00  0.00     0.039 A 
ATOM      8  C   UNL A   1      34.772  29.570  28.037  1.00  0.00     0.014 A 
ATOM      9  C   UNL A   1      35.521  31.841  27.685  1.00  0.00     0.014 A 
ATOM     10  C   UNL A   1      35.896  29.319  28.814  1.00  0.00     0.010 A 
ATOM     11  C   UNL A   1      36.703  31.556  28.373  1.00  0.00     0.010 A 
ATOM     12  C   UNL A   1      36.882  30.304  28.980  1.00  0.00    -0.014 A 
BRANCH  12  13
ATOM     13  C   UNL A   1      38.108  29.976  29.749  1.00  0.00     0.031 A 
ATOM     14  C   UNL A   1      38.300  30.468  31.156  1.00  0.00     0.074 A 
ATOM     15  C   UNL A   1      39.041  29.192  29.175  1.00  0.00     0.049 A 
ATOM     16  N   UNL A   1      39.296  30.249  31.978  1.00  0.00    -0.248 NA
ATOM     17  C   UNL A   1      37.243  31.325  31.712  1.00  0.00     0.031 C 
ATOM     18  C   UNL A   1      38.967  28.662  27.812  1.00  0.00     0.029 A 
ATOM     19  N   UNL A   1      40.214  28.682  29.666  1.00  0.00    -0.354 N 
ATOM     20  C   UNL A   1      38.999  30.959  33.134  1.00  0.00     0.074 A 
ATOM     21  C   UNL A   1      37.742  31.636  32.900  1.00  0.00     0.031 C 
ATOM     22  C   UNL A   1      40.016  27.857  27.596  1.00  0.00     0.029 A 
ATOM     23  C   UNL A   1      40.868  27.865  28.779  1.00  0.00     0.049 A 
ATOM     24  H   UNL A   1      40.555  28.884  30.568  1.00  0.00     0.167 HD
ATOM     25  C   UNL A   1      39.710  31.032  34.286  1.00  0.00     0.037 A 
ATOM     26  C   UNL A   1      42.032  27.201  28.899  1.00  0.00     0.037 A 
ATOM     27  C   UNL A   1      40.951  30.337  34.519  1.00  0.00     0.049 A 
ATOM     28  C   UNL A   1      42.806  27.313  30.179  1.00  0.00     0.074 A 
ATOM     29  C   UNL A   1      41.724  30.311  35.667  1.00  0.00     0.029 A 
ATOM     30  N   UNL A   1      41.603  29.548  33.582  1.00  0.00    -0.354 N 
ATOM     31  N   UNL A   1      42.500  27.962  31.275  1.00  0.00    -0.248 NA
ATOM     32  C   UNL A   1      44.091  26.606  30.235  1.00  0.00     0.031 C 
ATOM     33  C   UNL A   1      42.867  29.545  35.409  1.00  0.00     0.029 A 
ATOM     34  C   UNL A   1      42.781  29.050  34.117  1.00  0.00     0.049 A 
ATOM     35  H   UNL A   1      41.276  29.366  32.671  1.00  0.00     0.167 HD
ATOM     36  C   UNL A   1      43.543  27.728  32.159  1.00  0.00     0.074 A 
ATOM     37  C   UNL A   1      44.483  26.863  31.475  1.00  0.00     0.031 C 
ATOM     38  C   UNL A   1      43.706  28.191  33.423  1.00  0.00     0.037 A 
BRANCH  25  39
ATOM     39  C   UNL A   1      39.175  31.916  35.376  1.00  0.00     0.064 A 
ATOM     40  C   UNL A   1      39.454  33.291  35.420  1.00  0.00     0.173 A 
ATOM     41  C   UNL A   1      38.349  31.384  36.379  1.00  0.00     0.173 A 
ATOM     42  F   UNL A   1      40.248  33.848  34.493  1.00  0.00    -0.203 F 
ATOM     43  C   UNL A   1      38.952  34.092  36.443  1.00  0.00     0.198 A 
ATOM     44  C   UNL A   1      37.826  32.193  37.385  1.00  0.00     0.198 A 
ATOM     45  F   UNL A   1      38.044  30.078  36.381  1.00  0.00    -0.203 F 
ATOM     46  F   UNL A   1      39.274  35.392  36.493  1.00  0.00    -0.200 F 
ATOM     47  C   UNL A   1      38.135  33.545  37.421  1.00  0.00     0.200 A 
ATOM     48  F   UNL A   1      37.027  31.665  38.321  1.00  0.00    -0.200 F 
ATOM     49  F   UNL A   1      37.654  34.318  38.404  1.00  0.00    -0.200 F 
ENDBRANCH  25  39
BRANCH  26  50
ATOM     50  C   UNL A   1      42.516  26.365  27.771  1.00  0.00     0.064 A 
ATOM     51  C   UNL A   1      43.233  26.935  26.711  1.00  0.00     0.173 A 
ATOM     52  C   UNL A   1      42.307  24.979  27.751  1.00  0.00     0.173 A 
ATOM     53  F   UNL A   1      43.443  28.260  26.680  1.00  0.00    -0.203 F 
ATOM     54  C   UNL A   1      43.719  26.149  25.668  1.00  0.00     0.198 A 
ATOM     55  C   UNL A   1      42.816  24.190  26.722  1.00  0.00     0.198 A 
ATOM     56  F   UNL A   1      41.632  24.386  28.747  1.00  0.00    -0.203 F 
ATOM     57  F   UNL A   1      44.377  26.722  24.653  1.00  0.00    -0.200 F 
ATOM     58  C   UNL A   1      43.518  24.776  25.680  1.00  0.00     0.200 A 
ATOM     59  F   UNL A   1      42.636  22.862  26.747  1.00  0.00    -0.200 F 
ATOM     60  F   UNL A   1      43.999  24.019  24.685  1.00  0.00    -0.200 F 
ENDBRANCH  26  50
BRANCH  38  61
ATOM     61  C   UNL A   1      44.936  27.744  34.156  1.00  0.00     0.064 A 
ATOM     62  C   UNL A   1      46.140  28.459  34.079  1.00  0.00     0.173 A 
ATOM     63  C   UNL A   1      44.902  26.596  34.962  1.00  0.00     0.173 A 
ATOM     64  F   UNL A   1      46.225  29.553  33.307  1.00  0.00    -0.203 F 
ATOM     65  C   UNL A   1      47.272  28.028  34.763  1.00  0.00     0.198 A 
ATOM     66  C   UNL A   1      46.030  26.183  35.666  1.00  0.00     0.198 A 
ATOM     67  F   UNL A   1      43.774  25.878  35.071  1.00  0.00    -0.203 F 
ATOM     68  F   UNL A   1      48.425  28.699  34.637  1.00  0.00    -0.200 F 
ATOM     69  C   UNL A   1      47.215  26.894  35.560  1.00  0.00     0.200 A 
ATOM     70  F   UNL A   1      45.970  25.093  36.444  1.00  0.00    -0.200 F 
ATOM     71  F   UNL A   1      48.307  26.481  36.219  1.00  0.00    -0.200 F 
ENDBRANCH  38  61
ENDBRANCH  12  13
ENDBRANCH   5   7
ENDBRANCH   2   3
ENDBRANCH   1   2
BRANCH   1  72
ATOM     72  C   UNL A   1      33.997  28.426  22.904  1.00  0.00     0.118 C 
BRANCH  72  73
ATOM     73  N   UNL A   1      33.512  27.387  22.008  1.00  0.00    -0.352 N 
ATOM     74  C   UNL A   1      33.374  26.037  22.189  1.00  0.00     0.251 C 
ATOM     75  H   UNL A   1      33.238  27.709  21.119  1.00  0.00     0.163 HD
ATOM     76  O   UNL A   1      33.145  25.322  21.215  1.00  0.00    -0.269 OA
BRANCH  74  77
ATOM     77  C   UNL A   1      33.487  25.423  23.529  1.00  0.00     0.047 A 
ATOM     78  C   UNL A   1      34.721  24.883  23.915  1.00  0.00     0.023 A 
ATOM     79  C   UNL A   1      32.373  25.269  24.357  1.00  0.00     0.099 A 
ATOM     80  C   UNL A   1      34.867  24.217  25.142  1.00  0.00    -0.011 A 
ATOM     81  C   UNL A   1      32.530  24.687  25.617  1.00  0.00     0.270 A 
ATOM     82  C   UNL A   1      33.767  24.164  26.014  1.00  0.00     0.094 A 
BRANCH  80  83
ATOM     83  C   UNL A   1      36.101  23.485  25.455  1.00  0.00    -0.018 A 
ATOM     84  C   UNL A   1      37.173  24.078  26.136  1.00  0.00     0.009 A 
ATOM     85  C   UNL A   1      36.241  22.158  25.017  1.00  0.00     0.009 A 
ATOM     86  C   UNL A   1      38.355  23.362  26.365  1.00  0.00     0.014 A 
ATOM     87  C   UNL A   1      37.419  21.444  25.240  1.00  0.00     0.014 A 
ATOM     88  C   UNL A   1      38.492  22.040  25.912  1.00  0.00     0.056 A 
BRANCH  88  89
ATOM     89  C   UNL A   1      39.779  21.285  26.135  1.00  0.00     0.416 C 
ATOM     90  F   UNL A   1      40.802  21.766  25.377  1.00  0.00    -0.166 F 
ATOM     91  F   UNL A   1      40.206  21.352  27.426  1.00  0.00    -0.166 F 
ATOM     92  F   UNL A   1      39.689  19.958  25.840  1.00  0.00    -0.166 F 
ENDBRANCH  88  89
ENDBRANCH  80  83
BRANCH  81  93
ATOM     93  N   UNL A   1      31.378  24.610  26.520  1.00  0.00     0.062 N 
ATOM     94  O   UNL A   1      31.362  23.701  27.361  1.00  0.00    -0.258 OA
ATOM     95  O   UNL A   1      30.496  25.472  26.394  1.00  0.00    -0.258 OA
ENDBRANCH  81  93
ENDBRANCH  74  77
ENDBRANCH  72  73
ENDBRANCH   1  72
TORSDOF 13
ENDMDL
MODEL 2
REMARK VINA RESULT:     -12.8      1.943      3.420
REMARK SMILES O=C(NCCCNC(=O)c1cc(-c2ccc(C(F)(F)F)cc2)cc([N+](=O)[O-])c1)c1ccc(-c2c3nc(c(-c4c(F)c(F)c(F)c(F)c4F)c4ccc([nH]4)c(-c4c(F)c(F)c(F)c(F)c4F)c4nc(c(-c5c(F)c(F)c(F)c(F)c5F)c5ccc2[nH]5)C=C4)C=C3)cc1
REMARK SMILES IDX 5 1 4 2 3 3 1 4 2 5 29 7 30 8 91 9 31 10 90 11 32 12 33 13
REMARK SMILES IDX 34 14 84 15 35 16 89 17 83 18 85 19 36 20 88 21 82 22 81 23
REMARK SMILES IDX 37 25 69 26 49 27 68 28 50 29 53 30 67 31 86 32 51 33 52 34
REMARK SMILES IDX 66 36 87 37 54 38 38 39 39 40 47 41 40 42 41 43 45 44 48 45
REMARK SMILES IDX 42 46 43 47 46 48 44 49 70 50 71 51 79 52 72 53 73 54 77 55
REMARK SMILES IDX 80 56 74 57 75 58 78 59 76 60 55 61 56 62 64 63 57 64 58 65
REMARK SMILES IDX 62 66 65 67 59 68 60 69 63 70 61 71 6 72 7 73 8 74 9 76
REMARK SMILES IDX 10 77 11 78 28 79 12 80 24 81 23 82 13 83 14 84 22 85 15 86
REMARK SMILES IDX 21 87 16 88 17 89 18 90 19 91 20 92 25 93 26 94 27 95
REMARK H PARENT 3 6 85 24 53 35 7 75
REMARK Flexibility Score: inf
ROOT
ATOM      1  C   UNL A   1      32.081  28.209  25.782  1.00  0.00     0.042 C 
ENDROOT
BRANCH   1   2
ATOM      2  C   UNL A   1      33.144  29.274  25.564  1.00  0.00     0.118 C 
BRANCH   2   3
ATOM      3  N   UNL A   1      32.731  30.593  26.026  1.00  0.00    -0.352 N 
ATOM      4  O   UNL A   1      32.650  32.405  27.363  1.00  0.00    -0.269 OA
ATOM      5  C   UNL A   1      33.256  31.394  27.010  1.00  0.00     0.251 C 
ATOM      6  H   UNL A   1      31.952  30.969  25.558  1.00  0.00     0.163 HD
BRANCH   5   7
ATOM      7  C   UNL A   1      34.528  31.036  27.672  1.00  0.00     0.039 A 
ATOM      8  C   UNL A   1      34.775  29.727  28.086  1.00  0.00     0.014 A 
ATOM      9  C   UNL A   1      35.499  32.023  27.866  1.00  0.00     0.014 A 
ATOM     10  C   UNL A   1      35.900  29.444  28.851  1.00  0.00     0.010 A 
ATOM     11  C   UNL A   1      36.683  31.712  28.540  1.00  0.00     0.010 A 
ATOM     12  C   UNL A   1      36.875  30.430  29.075  1.00  0.00    -0.014 A 
BRANCH  12  13
ATOM     13  C   UNL A   1      38.103  30.072  29.828  1.00  0.00     0.031 A 
ATOM     14  C   UNL A   1      38.322  30.553  31.234  1.00  0.00     0.074 A 
ATOM     15  C   UNL A   1      39.012  29.273  29.238  1.00  0.00     0.049 A 
ATOM     16  N   UNL A   1      39.323  30.309  32.043  1.00  0.00    -0.248 NA
ATOM     17  C   UNL A   1      37.290  31.429  31.807  1.00  0.00     0.031 C 
ATOM     18  C   UNL A   1      38.911  28.752  27.873  1.00  0.00     0.029 A 
ATOM     19  N   UNL A   1      40.180  28.736  29.712  1.00  0.00    -0.354 N 
ATOM     20  C   UNL A   1      39.056  31.018  33.206  1.00  0.00     0.074 A 
ATOM     21  C   UNL A   1      37.809  31.723  32.991  1.00  0.00     0.031 C 
ATOM     22  C   UNL A   1      39.940  27.926  27.640  1.00  0.00     0.029 A 
ATOM     23  C   UNL A   1      40.806  27.910  28.813  1.00  0.00     0.049 A 
ATOM     24  H   UNL A   1      40.537  28.926  30.610  1.00  0.00     0.167 HD
ATOM     25  C   UNL A   1      39.782  31.070  34.349  1.00  0.00     0.037 A 
ATOM     26  C   UNL A   1      41.958  27.222  28.914  1.00  0.00     0.037 A 
ATOM     27  C   UNL A   1      41.011  30.349  34.564  1.00  0.00     0.049 A 
ATOM     28  C   UNL A   1      42.750  27.311  30.185  1.00  0.00     0.074 A 
ATOM     29  C   UNL A   1      41.797  30.301  35.701  1.00  0.00     0.029 A 
ATOM     30  N   UNL A   1      41.635  29.551  33.615  1.00  0.00    -0.354 N 
ATOM     31  N   UNL A   1      42.471  27.960  31.289  1.00  0.00    -0.248 NA
ATOM     32  C   UNL A   1      44.021  26.577  30.222  1.00  0.00     0.031 C 
ATOM     33  C   UNL A   1      42.920  29.512  35.426  1.00  0.00     0.029 A 
ATOM     34  C   UNL A   1      42.809  29.027  34.133  1.00  0.00     0.049 A 
ATOM     35  H   UNL A   1      41.293  29.382  32.707  1.00  0.00     0.167 HD
ATOM     36  C   UNL A   1      43.519  27.700  32.159  1.00  0.00     0.074 A 
ATOM     37  C   UNL A   1      44.433  26.819  31.459  1.00  0.00     0.031 C 
ATOM     38  C   UNL A   1      43.707  28.152  33.422  1.00  0.00     0.037 A 
BRANCH  25  39
ATOM     39  C   UNL A   1      39.278  31.959  35.451  1.00  0.00     0.064 A 
ATOM     40  C   UNL A   1      38.457  31.473  36.480  1.00  0.00     0.173 A 
ATOM     41  C   UNL A   1      39.644  33.314  35.492  1.00  0.00     0.173 A 
ATOM     42  F   UNL A   1      38.067  30.189  36.482  1.00  0.00    -0.203 F 
ATOM     43  C   UNL A   1      37.997  32.315  37.489  1.00  0.00     0.198 A 
ATOM     44  C   UNL A   1      39.206  34.147  36.518  1.00  0.00     0.198 A 
ATOM     45  F   UNL A   1      40.434  33.830  34.537  1.00  0.00    -0.203 F 
ATOM     46  F   UNL A   1      37.172  31.840  38.432  1.00  0.00    -0.200 F 
ATOM     47  C   UNL A   1      38.375  33.650  37.511  1.00  0.00     0.200 A 
ATOM     48  F   UNL A   1      39.582  35.433  36.543  1.00  0.00    -0.200 F 
ATOM     49  F   UNL A   1      37.931  34.458  38.483  1.00  0.00    -0.200 F 
ENDBRANCH  25  39
BRANCH  26  50
ATOM     50  C   UNL A   1      42.411  26.382  27.777  1.00  0.00     0.064 A 
ATOM     51  C   UNL A   1      41.895  25.094  27.586  1.00  0.00     0.173 A 
ATOM     52  C   UNL A   1      43.335  26.864  26.838  1.00  0.00     0.173 A 
ATOM     53  F   UNL A   1      41.021  24.585  28.468  1.00  0.00    -0.203 F 
ATOM     54  C   UNL A   1      42.291  24.315  26.500  1.00  0.00     0.198 A 
ATOM     55  C   UNL A   1      43.709  26.096  25.738  1.00  0.00     0.198 A 
ATOM     56  F   UNL A   1      43.851  28.094  26.974  1.00  0.00    -0.203 F 
ATOM     57  F   UNL A   1      41.803  23.076  26.356  1.00  0.00    -0.200 F 
ATOM     58  C   UNL A   1      43.190  24.821  25.573  1.00  0.00     0.200 A 
ATOM     59  F   UNL A   1      44.563  26.595  24.835  1.00  0.00    -0.200 F 
ATOM     60  F   UNL A   1      43.558  24.077  24.521  1.00  0.00    -0.200 F 
ENDBRANCH  26  50
BRANCH  38  61
ATOM     61  C   UNL A   1      44.937  27.676  34.138  1.00  0.00     0.064 A 
ATOM     62  C   UNL A   1      44.923  26.523  34.936  1.00  0.00     0.173 A 
ATOM     63  C   UNL A   1      46.148  28.371  34.005  1.00  0.00     0.173 A 
ATOM     64  F   UNL A   1      43.785  25.835  35.108  1.00  0.00    -0.203 F 
ATOM     65  C   UNL A   1      46.073  26.098  35.596  1.00  0.00     0.198 A 
ATOM     66  C   UNL A   1      47.301  27.927  34.645  1.00  0.00     0.198 A 
ATOM     67  F   UNL A   1      46.213  29.479  33.251  1.00  0.00    -0.203 F 
ATOM     68  F   UNL A   1      46.026  25.021  36.393  1.00  0.00    -0.200 F 
ATOM     69  C   UNL A   1      47.261  26.796  35.446  1.00  0.00     0.200 A 
ATOM     70  F   UNL A   1      48.452  28.598  34.490  1.00  0.00    -0.200 F 
ATOM     71  F   UNL A   1      48.367  26.384  36.081  1.00  0.00    -0.200 F 
ENDBRANCH  38  61
ENDBRANCH  12  13
ENDBRANCH   5   7
ENDBRANCH   2   3
ENDBRANCH   1   2
BRANCH   1  72
ATOM     72  C   UNL A   1      32.609  26.917  26.386  1.00  0.00     0.118 C 
BRANCH  72  73
ATOM     73  N   UNL A   1      31.539  26.016  26.787  1.00  0.00    -0.352 N 
ATOM     74  C   UNL A   1      30.988  24.937  26.151  1.00  0.00     0.251 C 
ATOM     75  H   UNL A   1      31.142  26.218  27.665  1.00  0.00     0.163 HD
ATOM     76  O   UNL A   1      29.944  24.453  26.585  1.00  0.00    -0.269 OA
BRANCH  74  77
ATOM     77  C   UNL A   1      31.625  24.336  24.959  1.00  0.00     0.047 A 
ATOM     78  C   UNL A   1      31.833  22.950  24.940  1.00  0.00     0.023 A 
ATOM     79  C   UNL A   1      32.122  25.126  23.920  1.00  0.00     0.099 A 
ATOM     80  C   UNL A   1      32.504  22.334  23.872  1.00  0.00    -0.011 A 
ATOM     81  C   UNL A   1      32.711  24.512  22.813  1.00  0.00     0.270 A 
ATOM     82  C   UNL A   1      32.903  23.125  22.782  1.00  0.00     0.094 A 
BRANCH  80  83
ATOM     83  C   UNL A   1      32.892  20.920  23.946  1.00  0.00    -0.018 A 
ATOM     84  C   UNL A   1      33.990  20.482  24.698  1.00  0.00     0.009 A 
ATOM     85  C   UNL A   1      32.173  19.971  23.201  1.00  0.00     0.009 A 
ATOM     86  C   UNL A   1      34.360  19.130  24.697  1.00  0.00     0.014 A 
ATOM     87  C   UNL A   1      32.542  18.626  23.194  1.00  0.00     0.014 A 
ATOM     88  C   UNL A   1      33.644  18.191  23.938  1.00  0.00     0.056 A 
BRANCH  88  89
ATOM     89  C   UNL A   1      34.067  16.743  23.918  1.00  0.00     0.416 C 
ATOM     90  F   UNL A   1      33.071  15.905  24.315  1.00  0.00    -0.166 F 
ATOM     91  F   UNL A   1      34.437  16.324  22.676  1.00  0.00    -0.166 F 
ATOM     92  F   UNL A   1      35.126  16.474  24.733  1.00  0.00    -0.166 F 
ENDBRANCH  88  89
ENDBRANCH  80  83
BRANCH  81  93
ATOM     93  N   UNL A   1      33.149  25.338  21.684  1.00  0.00     0.062 N 
ATOM     94  O   UNL A   1      33.893  26.298  21.924  1.00  0.00    -0.258 OA
ATOM     95  O   UNL A   1      32.756  25.014  20.554  1.00  0.00    -0.258 OA
ENDBRANCH  81  93
ENDBRANCH  74  77
ENDBRANCH  72  73
ENDBRANCH   1  72
TORSDOF 13
ENDMDL
MODEL 3
REMARK VINA RESULT:     -12.7      1.959      2.818
REMARK SMILES O=C(NCCCNC(=O)c1cc(-c2ccc(C(F)(F)F)cc2)cc([N+](=O)[O-])c1)c1ccc(-c2c3nc(c(-c4c(F)c(F)c(F)c(F)c4F)c4ccc([nH]4)c(-c4c(F)c(F)c(F)c(F)c4F)c4nc(c(-c5c(F)c(F)c(F)c(F)c5F)c5ccc2[nH]5)C=C4)C=C3)cc1
REMARK SMILES IDX 5 1 4 2 3 3 1 4 2 5 29 7 30 8 91 9 31 10 90 11 32 12 33 13
REMARK SMILES IDX 34 14 84 15 35 16 89 17 83 18 85 19 36 20 88 21 82 22 81 23
REMARK SMILES IDX 37 25 69 26 49 27 68 28 50 29 53 30 67 31 86 32 51 33 52 34
REMARK SMILES IDX 66 36 87 37 54 38 38 39 39 40 47 41 40 42 41 43 45 44 48 45
REMARK SMILES IDX 42 46 43 47 46 48 44 49 70 50 71 51 79 52 72 53 73 54 77 55
REMARK SMILES IDX 80 56 74 57 75 58 78 59 76 60 55 61 56 62 64 63 57 64 58 65
REMARK SMILES IDX 62 66 65 67 59 68 60 69 63 70 61 71 6 72 7 73 8 74 9 76
REMARK SMILES IDX 10 77 11 78 28 79 12 80 24 81 23 82 13 83 14 84 22 85 15 86
REMARK SMILES IDX 21 87 16 88 17 89 18 90 19 91 20 92 25 93 26 94 27 95
REMARK H PARENT 3 6 85 24 53 35 7 75
REMARK Flexibility Score: inf
ROOT
ATOM      1  C   UNL A   1      32.104  28.404  26.557  1.00  0.00     0.042 C 
ENDROOT
BRANCH   1   2
ATOM      2  C   UNL A   1      33.027  29.415  25.895  1.00  0.00     0.118 C 
BRANCH   2   3
ATOM      3  N   UNL A   1      32.723  30.791  26.264  1.00  0.00    -0.352 N 
ATOM      4  O   UNL A   1      32.823  32.704  27.449  1.00  0.00    -0.269 OA
ATOM      5  C   UNL A   1      33.344  31.629  27.157  1.00  0.00     0.251 C 
ATOM      6  H   UNL A   1      31.949  31.182  25.798  1.00  0.00     0.163 HD
BRANCH   5   7
ATOM      7  C   UNL A   1      34.619  31.238  27.793  1.00  0.00     0.039 A 
ATOM      8  C   UNL A   1      34.806  29.946  28.284  1.00  0.00     0.014 A 
ATOM      9  C   UNL A   1      35.654  32.174  27.884  1.00  0.00     0.014 A 
ATOM     10  C   UNL A   1      35.943  29.645  29.024  1.00  0.00     0.010 A 
ATOM     11  C   UNL A   1      36.844  31.835  28.533  1.00  0.00     0.010 A 
ATOM     12  C   UNL A   1      36.982  30.581  29.145  1.00  0.00    -0.014 A 
BRANCH  12  13
ATOM     13  C   UNL A   1      38.218  30.198  29.873  1.00  0.00     0.031 A 
ATOM     14  C   UNL A   1      38.467  30.663  31.280  1.00  0.00     0.074 A 
ATOM     15  C   UNL A   1      39.104  29.390  29.262  1.00  0.00     0.049 A 
ATOM     16  N   UNL A   1      39.478  30.397  32.070  1.00  0.00    -0.248 NA
ATOM     17  C   UNL A   1      37.458  31.549  31.878  1.00  0.00     0.031 C 
ATOM     18  C   UNL A   1      38.973  28.883  27.894  1.00  0.00     0.029 A 
ATOM     19  N   UNL A   1      40.272  28.832  29.711  1.00  0.00    -0.354 N 
ATOM     20  C   UNL A   1      39.241  31.100  33.244  1.00  0.00     0.074 A 
ATOM     21  C   UNL A   1      38.002  31.825  33.055  1.00  0.00     0.031 C 
ATOM     22  C   UNL A   1      39.985  28.044  27.637  1.00  0.00     0.029 A 
ATOM     23  C   UNL A   1      40.870  28.005  28.795  1.00  0.00     0.049 A 
ATOM     24  H   UNL A   1      40.646  29.008  30.605  1.00  0.00     0.167 HD
ATOM     25  C   UNL A   1      39.987  31.131  34.374  1.00  0.00     0.037 A 
ATOM     26  C   UNL A   1      42.013  27.298  28.871  1.00  0.00     0.037 A 
ATOM     27  C   UNL A   1      41.208  30.390  34.562  1.00  0.00     0.049 A 
ATOM     28  C   UNL A   1      42.827  27.364  30.129  1.00  0.00     0.074 A 
ATOM     29  C   UNL A   1      42.013  30.320  35.686  1.00  0.00     0.029 A 
ATOM     30  N   UNL A   1      41.804  29.591  33.596  1.00  0.00    -0.354 N 
ATOM     31  N   UNL A   1      42.577  28.007  31.243  1.00  0.00    -0.248 NA
ATOM     32  C   UNL A   1      44.087  26.611  30.138  1.00  0.00     0.031 C 
ATOM     33  C   UNL A   1      43.119  29.517  35.384  1.00  0.00     0.029 A 
ATOM     34  C   UNL A   1      42.979  29.044  34.090  1.00  0.00     0.049 A 
ATOM     35  H   UNL A   1      41.444  29.434  32.693  1.00  0.00     0.167 HD
ATOM     36  C   UNL A   1      43.636  27.724  32.092  1.00  0.00     0.074 A 
ATOM     37  C   UNL A   1      44.524  26.836  31.370  1.00  0.00     0.031 C 
ATOM     38  C   UNL A   1      43.852  28.162  33.357  1.00  0.00     0.037 A 
BRANCH  25  39
ATOM     39  C   UNL A   1      39.516  32.018  35.492  1.00  0.00     0.064 A 
ATOM     40  C   UNL A   1      39.968  33.339  35.631  1.00  0.00     0.173 A 
ATOM     41  C   UNL A   1      38.577  31.547  36.423  1.00  0.00     0.173 A 
ATOM     42  F   UNL A   1      40.875  33.836  34.775  1.00  0.00    -0.203 F 
ATOM     43  C   UNL A   1      39.522  34.144  36.678  1.00  0.00     0.198 A 
ATOM     44  C   UNL A   1      38.112  32.363  37.452  1.00  0.00     0.198 A 
ATOM     45  F   UNL A   1      38.105  30.294  36.333  1.00  0.00    -0.203 F 
ATOM     46  F   UNL A   1      40.008  35.384  36.821  1.00  0.00    -0.200 F 
ATOM     47  C   UNL A   1      38.592  33.657  37.584  1.00  0.00     0.200 A 
ATOM     48  F   UNL A   1      37.204  31.895  38.319  1.00  0.00    -0.200 F 
ATOM     49  F   UNL A   1      38.165  34.433  38.590  1.00  0.00    -0.200 F 
ENDBRANCH  25  39
BRANCH  26  50
ATOM     50  C   UNL A   1      42.434  26.462  27.719  1.00  0.00     0.064 A 
ATOM     51  C   UNL A   1      43.374  26.934  26.794  1.00  0.00     0.173 A 
ATOM     52  C   UNL A   1      41.936  25.163  27.542  1.00  0.00     0.173 A 
ATOM     53  F   UNL A   1      43.865  28.177  26.914  1.00  0.00    -0.203 F 
ATOM     54  C   UNL A   1      43.797  26.140  25.731  1.00  0.00     0.198 A 
ATOM     55  C   UNL A   1      42.380  24.359  26.495  1.00  0.00     0.198 A 
ATOM     56  F   UNL A   1      41.039  24.663  28.405  1.00  0.00    -0.203 F 
ATOM     57  F   UNL A   1      44.677  26.625  24.845  1.00  0.00    -0.200 F 
ATOM     58  C   UNL A   1      43.307  24.850  25.588  1.00  0.00     0.200 A 
ATOM     59  F   UNL A   1      41.919  23.107  26.372  1.00  0.00    -0.200 F 
ATOM     60  F   UNL A   1      43.727  24.081  24.575  1.00  0.00    -0.200 F 
ENDBRANCH  26  50
BRANCH  38  61
ATOM     61  C   UNL A   1      45.085  27.661  34.047  1.00  0.00     0.064 A 
ATOM     62  C   UNL A   1      46.297  28.366  33.993  1.00  0.00     0.173 A 
ATOM     63  C   UNL A   1      45.047  26.472  34.790  1.00  0.00     0.173 A 
ATOM     64  F   UNL A   1      46.386  29.499  33.280  1.00  0.00    -0.203 F 
ATOM     65  C   UNL A   1      47.432  27.884  34.637  1.00  0.00     0.198 A 
ATOM     66  C   UNL A   1      46.179  26.008  35.455  1.00  0.00     0.198 A 
ATOM     67  F   UNL A   1      43.912  25.763  34.875  1.00  0.00    -0.203 F 
ATOM     68  F   UNL A   1      48.592  28.547  34.531  1.00  0.00    -0.200 F 
ATOM     69  C   UNL A   1      47.372  26.709  35.371  1.00  0.00     0.200 A 
ATOM     70  F   UNL A   1      46.115  24.877  36.173  1.00  0.00    -0.200 F 
ATOM     71  F   UNL A   1      48.466  26.248  35.992  1.00  0.00    -0.200 F 
ENDBRANCH  38  61
ENDBRANCH  12  13
ENDBRANCH   5   7
ENDBRANCH   2   3
ENDBRANCH   1   2
BRANCH   1  72
ATOM     72  C   UNL A   1      32.507  26.955  26.337  1.00  0.00     0.118 C 
BRANCH  72  73
ATOM     73  N   UNL A   1      31.472  26.022  26.759  1.00  0.00    -0.352 N 
ATOM     74  C   UNL A   1      30.962  24.910  26.146  1.00  0.00     0.251 C 
ATOM     75  H   UNL A   1      31.069  26.227  27.634  1.00  0.00     0.163 HD
ATOM     76  O   UNL A   1      29.938  24.396  26.592  1.00  0.00    -0.269 OA
BRANCH  74  77
ATOM     77  C   UNL A   1      31.620  24.309  24.966  1.00  0.00     0.047 A 
ATOM     78  C   UNL A   1      31.830  22.923  24.952  1.00  0.00     0.023 A 
ATOM     79  C   UNL A   1      32.134  25.099  23.936  1.00  0.00     0.099 A 
ATOM     80  C   UNL A   1      32.521  22.307  23.895  1.00  0.00    -0.011 A 
ATOM     81  C   UNL A   1      32.743  24.485  22.839  1.00  0.00     0.270 A 
ATOM     82  C   UNL A   1      32.937  23.098  22.812  1.00  0.00     0.094 A 
BRANCH  80  83
ATOM     83  C   UNL A   1      32.909  20.894  23.978  1.00  0.00    -0.018 A 
ATOM     84  C   UNL A   1      34.014  20.462  24.722  1.00  0.00     0.009 A 
ATOM     85  C   UNL A   1      32.182  19.940  23.247  1.00  0.00     0.009 A 
ATOM     86  C   UNL A   1      34.384  19.110  24.728  1.00  0.00     0.014 A 
ATOM     87  C   UNL A   1      32.551  18.594  23.248  1.00  0.00     0.014 A 
ATOM     88  C   UNL A   1      33.660  18.165  23.984  1.00  0.00     0.056 A 
BRANCH  88  89
ATOM     89  C   UNL A   1      34.083  16.716  23.971  1.00  0.00     0.416 C 
ATOM     90  F   UNL A   1      34.428  16.287  22.727  1.00  0.00    -0.166 F 
ATOM     91  F   UNL A   1      35.165  16.481  24.763  1.00  0.00    -0.166 F 
ATOM     92  F   UNL A   1      33.112  15.863  24.404  1.00  0.00    -0.166 F 
ENDBRANCH  88  89
ENDBRANCH  80  83
BRANCH  81  93
ATOM     93  N   UNL A   1      33.199  25.311  21.717  1.00  0.00     0.062 N 
ATOM     94  O   UNL A   1      33.935  26.275  21.970  1.00  0.00    -0.258 OA
ATOM     95  O   UNL A   1      32.830  24.983  20.580  1.00  0.00    -0.258 OA
ENDBRANCH  81  93
ENDBRANCH  74  77
ENDBRANCH  72  73
ENDBRANCH   1  72
TORSDOF 13
ENDMDL
