MODEL 1
REMARK VINA RESULT:     -11.6      0.000      0.000
REMARK SMILES CC[C@H](C)CN(CC)C(=O)Nc1ccc(C(=O)NCCCNC(=O)c2ccc(-c3c4nc(c(-c5c(F)c(F)c(F)c(F)c5F)c5ccc([nH]5)c(-c5c(F)c(F)c(F)c(F)c5F)c5nc(c(-c6c(F)c(F)c(F)c(F)c6F)c6ccc3[nH]6)C=C5)C=C4)cc2)cc1Cl
REMARK SMILES IDX 16 1 17 2 18 3 15 5 12 6 13 7 89 8 14 9 88 10 90 11 11 12
REMARK SMILES IDX 9 13 10 14 6 16 5 17 3 18 4 19 2 20 1 21 7 22 8 23 19 24
REMARK SMILES IDX 20 25 21 26 22 27 23 28 24 30 25 31 26 32 87 33 27 34 86 35
REMARK SMILES IDX 28 36 29 37 30 38 80 39 31 40 85 41 79 42 81 43 32 44 84 45
REMARK SMILES IDX 78 46 77 47 33 49 65 50 45 51 64 52 46 53 49 54 63 55 82 56
REMARK SMILES IDX 47 57 48 58 62 60 83 61 50 62 34 63 35 64 43 65 36 66 37 67
REMARK SMILES IDX 41 68 44 69 38 70 39 71 42 72 40 73 66 74 67 75 75 76 68 77
REMARK SMILES IDX 69 78 73 79 76 80 70 81 71 82 74 83 72 84 51 85 52 86 60 87
REMARK SMILES IDX 53 88 54 89 58 90 61 91 55 92 56 93 59 94 57 95
REMARK H PARENT 18 4 11 15 22 29 81 48 49 59
REMARK Flexibility Score: inf
ROOT
ATOM      1  C   UNL A   1      37.301  23.333  25.632  1.00  0.00     0.251 C 
ATOM      2  O   UNL A   1      37.975  24.208  26.171  1.00  0.00    -0.269 OA
ATOM      3  N   UNL A   1      37.928  22.230  25.109  1.00  0.00    -0.352 N 
ATOM      4  H   UNL A   1      38.912  22.274  25.126  1.00  0.00     0.163 HD
ENDROOT
BRANCH   1   5
ATOM      5  C   UNL A   1      35.825  23.445  25.641  1.00  0.00     0.041 A 
ATOM      6  C   UNL A   1      33.104  24.037  25.719  1.00  0.00     0.061 A 
ATOM      7  C   UNL A   1      33.847  24.355  24.579  1.00  0.00     0.028 A 
ATOM      8  C   UNL A   1      33.677  23.246  26.724  1.00  0.00     0.065 A 
ATOM      9  C   UNL A   1      35.214  24.078  24.551  1.00  0.00     0.016 A 
ATOM     10  C   UNL A   1      35.039  22.946  26.681  1.00  0.00     0.036 A 
ATOM     11  Cl  UNL A   1      32.732  22.568  28.001  1.00  0.00    -0.082 Cl
BRANCH   6  12
ATOM     12  N   UNL A   1      31.807  24.544  25.800  1.00  0.00    -0.306 N 
ATOM     13  C   UNL A   1      31.328  25.773  26.132  1.00  0.00     0.321 C 
ATOM     14  O   UNL A   1      30.139  25.801  26.468  1.00  0.00    -0.248 OA
ATOM     15  H   UNL A   1      31.107  23.889  25.574  1.00  0.00     0.171 HD
BRANCH  13  16
ATOM     16  N   UNL A   1      32.062  26.934  25.968  1.00  0.00    -0.325 N 
BRANCH  16  17
ATOM     17  C   UNL A   1      32.167  27.474  24.599  1.00  0.00     0.124 C 
BRANCH  17  18
ATOM     18  C   UNL A   1      30.794  27.815  23.956  1.00  0.00     0.005 C 
ATOM     19  C   UNL A   1      30.633  29.329  23.769  1.00  0.00     0.009 C 
BRANCH  18  20
ATOM     20  C   UNL A   1      30.656  27.085  22.600  1.00  0.00     0.002 C 
ATOM     21  C   UNL A   1      31.951  26.440  22.114  1.00  0.00     0.004 C 
ENDBRANCH  18  20
ENDBRANCH  17  18
ENDBRANCH  16  17
BRANCH  16  22
ATOM     22  C   UNL A   1      32.761  27.729  26.984  1.00  0.00     0.118 C 
ATOM     23  C   UNL A   1      34.055  28.318  26.432  1.00  0.00     0.027 C 
ENDBRANCH  16  22
ENDBRANCH  13  16
ENDBRANCH   6  12
ENDBRANCH   1   5
BRANCH   3  24
ATOM     24  C   UNL A   1      37.388  21.007  24.535  1.00  0.00     0.118 C 
BRANCH  24  25
ATOM     25  C   UNL A   1      38.160  19.776  25.002  1.00  0.00     0.042 C 
BRANCH  25  26
ATOM     26  C   UNL A   1      39.268  20.095  26.000  1.00  0.00     0.118 C 
BRANCH  26  27
ATOM     27  N   UNL A   1      40.315  19.082  26.019  1.00  0.00    -0.352 N 
ATOM     28  C   UNL A   1      41.676  19.228  26.122  1.00  0.00     0.251 C 
ATOM     29  H   UNL A   1      39.998  18.152  25.947  1.00  0.00     0.163 HD
ATOM     30  O   UNL A   1      42.410  18.257  25.939  1.00  0.00    -0.269 OA
BRANCH  28  31
ATOM     31  C   UNL A   1      42.268  20.549  26.427  1.00  0.00     0.039 A 
ATOM     32  C   UNL A   1      42.746  21.334  25.375  1.00  0.00     0.014 A 
ATOM     33  C   UNL A   1      42.364  21.010  27.742  1.00  0.00     0.014 A 
ATOM     34  C   UNL A   1      43.251  22.611  25.634  1.00  0.00     0.010 A 
ATOM     35  C   UNL A   1      42.791  22.312  27.990  1.00  0.00     0.010 A 
ATOM     36  C   UNL A   1      43.237  23.127  26.940  1.00  0.00    -0.014 A 
BRANCH  36  37
ATOM     37  C   UNL A   1      43.681  24.516  27.234  1.00  0.00     0.031 A 
ATOM     38  C   UNL A   1      42.688  25.539  27.713  1.00  0.00     0.074 A 
ATOM     39  C   UNL A   1      44.957  24.874  26.997  1.00  0.00     0.049 A 
ATOM     40  N   UNL A   1      42.850  26.822  27.914  1.00  0.00    -0.248 NA
ATOM     41  C   UNL A   1      41.321  25.060  27.974  1.00  0.00     0.031 C 
ATOM     42  C   UNL A   1      46.009  23.984  26.502  1.00  0.00     0.029 A 
ATOM     43  N   UNL A   1      45.586  26.089  27.125  1.00  0.00    -0.354 N 
ATOM     44  C   UNL A   1      41.609  27.302  28.312  1.00  0.00     0.074 A 
ATOM     45  C   UNL A   1      40.690  26.186  28.268  1.00  0.00     0.031 C 
ATOM     46  C   UNL A   1      47.153  24.676  26.386  1.00  0.00     0.029 A 
ATOM     47  C   UNL A   1      46.908  26.068  26.750  1.00  0.00     0.049 A 
ATOM     48  H   UNL A   1      45.132  26.897  27.455  1.00  0.00     0.167 HD
ATOM     49  C   UNL A   1      41.273  28.556  28.701  1.00  0.00     0.037 A 
ATOM     50  C   UNL A   1      47.814  27.062  26.690  1.00  0.00     0.037 A 
ATOM     51  C   UNL A   1      42.196  29.659  28.758  1.00  0.00     0.049 A 
ATOM     52  C   UNL A   1      47.403  28.454  27.090  1.00  0.00     0.074 A 
ATOM     53  C   UNL A   1      41.963  30.957  29.180  1.00  0.00     0.029 A 
ATOM     54  N   UNL A   1      43.528  29.596  28.378  1.00  0.00    -0.354 N 
ATOM     55  N   UNL A   1      46.242  28.885  27.519  1.00  0.00    -0.248 NA
ATOM     56  C   UNL A   1      48.432  29.500  26.999  1.00  0.00     0.031 C 
ATOM     57  C   UNL A   1      43.139  31.692  29.004  1.00  0.00     0.029 A 
ATOM     58  C   UNL A   1      44.124  30.838  28.533  1.00  0.00     0.049 A 
ATOM     59  H   UNL A   1      43.983  28.788  28.048  1.00  0.00     0.167 HD
ATOM     60  C   UNL A   1      46.410  30.238  27.784  1.00  0.00     0.074 A 
ATOM     61  C   UNL A   1      47.788  30.555  27.478  1.00  0.00     0.031 C 
ATOM     62  C   UNL A   1      45.503  31.135  28.243  1.00  0.00     0.037 A 
BRANCH  49  63
ATOM     63  C   UNL A   1      39.846  28.802  29.099  1.00  0.00     0.064 A 
ATOM     64  C   UNL A   1      39.411  28.632  30.422  1.00  0.00     0.173 A 
ATOM     65  C   UNL A   1      38.909  29.254  28.156  1.00  0.00     0.173 A 
ATOM     66  F   UNL A   1      40.262  28.193  31.361  1.00  0.00    -0.203 F 
ATOM     67  C   UNL A   1      38.087  28.876  30.780  1.00  0.00     0.198 A 
ATOM     68  C   UNL A   1      37.595  29.530  28.525  1.00  0.00     0.198 A 
ATOM     69  F   UNL A   1      39.272  29.442  26.878  1.00  0.00    -0.203 F 
ATOM     70  F   UNL A   1      37.684  28.656  32.040  1.00  0.00    -0.200 F 
ATOM     71  C   UNL A   1      37.183  29.332  29.833  1.00  0.00     0.200 A 
ATOM     72  F   UNL A   1      36.727  29.986  27.612  1.00  0.00    -0.200 F 
ATOM     73  F   UNL A   1      35.912  29.576  30.181  1.00  0.00    -0.200 F 
ENDBRANCH  49  63
BRANCH  50  74
ATOM     74  C   UNL A   1      49.206  26.781  26.245  1.00  0.00     0.064 A 
ATOM     75  C   UNL A   1      49.584  26.971  24.908  1.00  0.00     0.173 A 
ATOM     76  C   UNL A   1      50.178  26.298  27.134  1.00  0.00     0.173 A 
ATOM     77  F   UNL A   1      48.686  27.411  24.014  1.00  0.00    -0.203 F 
ATOM     78  C   UNL A   1      50.871  26.661  24.472  1.00  0.00     0.198 A 
ATOM     79  C   UNL A   1      51.473  26.021  26.703  1.00  0.00     0.198 A 
ATOM     80  F   UNL A   1      49.870  26.103  28.424  1.00  0.00    -0.203 F 
ATOM     81  F   UNL A   1      51.188  26.799  23.177  1.00  0.00    -0.200 F 
ATOM     82  C   UNL A   1      51.816  26.192  25.371  1.00  0.00     0.200 A 
ATOM     83  F   UNL A   1      52.388  25.582  27.578  1.00  0.00    -0.200 F 
ATOM     84  F   UNL A   1      53.054  25.894  24.950  1.00  0.00    -0.200 F 
ENDBRANCH  50  74
BRANCH  62  85
ATOM     85  C   UNL A   1      45.981  32.537  28.493  1.00  0.00     0.064 A 
ATOM     86  C   UNL A   1      45.907  33.532  27.507  1.00  0.00     0.173 A 
ATOM     87  C   UNL A   1      46.470  32.901  29.757  1.00  0.00     0.173 A 
ATOM     88  F   UNL A   1      45.461  33.233  26.278  1.00  0.00    -0.203 F 
ATOM     89  C   UNL A   1      46.326  34.833  27.772  1.00  0.00     0.198 A 
ATOM     90  C   UNL A   1      46.857  34.209  30.028  1.00  0.00     0.198 A 
ATOM     91  F   UNL A   1      46.555  31.989  30.738  1.00  0.00    -0.203 F 
ATOM     92  F   UNL A   1      46.291  35.757  26.800  1.00  0.00    -0.200 F 
ATOM     93  C   UNL A   1      46.792  35.173  29.033  1.00  0.00     0.200 A 
ATOM     94  F   UNL A   1      47.289  34.539  31.252  1.00  0.00    -0.200 F 
ATOM     95  F   UNL A   1      47.181  36.429  29.289  1.00  0.00    -0.200 F 
ENDBRANCH  62  85
ENDBRANCH  36  37
ENDBRANCH  28  31
ENDBRANCH  26  27
ENDBRANCH  25  26
ENDBRANCH  24  25
ENDBRANCH   3  24
TORSDOF 16
ENDMDL
MODEL 2
REMARK VINA RESULT:     -11.4      1.356      1.956
REMARK SMILES CC[C@H](C)CN(CC)C(=O)Nc1ccc(C(=O)NCCCNC(=O)c2ccc(-c3c4nc(c(-c5c(F)c(F)c(F)c(F)c5F)c5ccc([nH]5)c(-c5c(F)c(F)c(F)c(F)c5F)c5nc(c(-c6c(F)c(F)c(F)c(F)c6F)c6ccc3[nH]6)C=C5)C=C4)cc2)cc1Cl
REMARK SMILES IDX 16 1 17 2 18 3 15 5 12 6 13 7 89 8 14 9 88 10 90 11 11 12
REMARK SMILES IDX 9 13 10 14 6 16 5 17 3 18 4 19 2 20 1 21 7 22 8 23 19 24
REMARK SMILES IDX 20 25 21 26 22 27 23 28 24 30 25 31 26 32 87 33 27 34 86 35
REMARK SMILES IDX 28 36 29 37 30 38 80 39 31 40 85 41 79 42 81 43 32 44 84 45
REMARK SMILES IDX 78 46 77 47 33 49 65 50 45 51 64 52 46 53 49 54 63 55 82 56
REMARK SMILES IDX 47 57 48 58 62 60 83 61 50 62 34 63 35 64 43 65 36 66 37 67
REMARK SMILES IDX 41 68 44 69 38 70 39 71 42 72 40 73 66 74 67 75 75 76 68 77
REMARK SMILES IDX 69 78 73 79 76 80 70 81 71 82 74 83 72 84 51 85 52 86 60 87
REMARK SMILES IDX 53 88 54 89 58 90 61 91 55 92 56 93 59 94 57 95
REMARK H PARENT 18 4 11 15 22 29 81 48 49 59
REMARK Flexibility Score: inf
ROOT
ATOM      1  C   UNL A   1      34.145  19.500  24.957  1.00  0.00     0.251 C 
ATOM      2  O   UNL A   1      33.483  18.486  24.749  1.00  0.00    -0.269 OA
ATOM      3  N   UNL A   1      35.514  19.414  24.983  1.00  0.00    -0.352 N 
ATOM      4  H   UNL A   1      35.866  18.496  24.924  1.00  0.00     0.163 HD
ENDROOT
BRANCH   1   5
ATOM      5  C   UNL A   1      33.455  20.804  25.084  1.00  0.00     0.041 A 
ATOM      6  C   UNL A   1      31.858  23.053  25.469  1.00  0.00     0.061 A 
ATOM      7  C   UNL A   1      32.490  22.460  26.565  1.00  0.00     0.028 A 
ATOM      8  C   UNL A   1      32.189  22.645  24.170  1.00  0.00     0.065 A 
ATOM      9  C   UNL A   1      33.272  21.320  26.373  1.00  0.00     0.016 A 
ATOM     10  C   UNL A   1      32.993  21.520  23.978  1.00  0.00     0.036 A 
ATOM     11  Cl  UNL A   1      31.681  23.530  22.778  1.00  0.00    -0.082 Cl
BRANCH   6  12
ATOM     12  N   UNL A   1      30.903  24.035  25.735  1.00  0.00    -0.306 N 
ATOM     13  C   UNL A   1      31.005  25.378  25.922  1.00  0.00     0.321 C 
ATOM     14  O   UNL A   1      30.048  25.903  26.501  1.00  0.00    -0.248 OA
ATOM     15  H   UNL A   1      29.983  23.690  25.799  1.00  0.00     0.171 HD
BRANCH  13  16
ATOM     16  N   UNL A   1      32.028  26.136  25.381  1.00  0.00    -0.325 N 
BRANCH  16  17
ATOM     17  C   UNL A   1      31.735  26.865  24.132  1.00  0.00     0.124 C 
BRANCH  17  18
ATOM     18  C   UNL A   1      31.972  28.398  24.234  1.00  0.00     0.005 C 
ATOM     19  C   UNL A   1      33.118  28.840  23.315  1.00  0.00     0.009 C 
BRANCH  18  20
ATOM     20  C   UNL A   1      30.671  29.152  23.877  1.00  0.00     0.002 C 
ATOM     21  C   UNL A   1      29.736  28.369  22.959  1.00  0.00     0.004 C 
ENDBRANCH  18  20
ENDBRANCH  17  18
ENDBRANCH  16  17
BRANCH  16  22
ATOM     22  C   UNL A   1      33.391  26.331  25.885  1.00  0.00     0.118 C 
ATOM     23  C   UNL A   1      34.404  25.533  25.069  1.00  0.00     0.027 C 
ENDBRANCH  16  22
ENDBRANCH  13  16
ENDBRANCH   6  12
ENDBRANCH   1   5
BRANCH   3  24
ATOM     24  C   UNL A   1      36.535  20.446  25.085  1.00  0.00     0.118 C 
BRANCH  24  25
ATOM     25  C   UNL A   1      37.918  19.908  24.730  1.00  0.00     0.042 C 
BRANCH  25  26
ATOM     26  C   UNL A   1      38.989  20.258  25.757  1.00  0.00     0.118 C 
BRANCH  26  27
ATOM     27  N   UNL A   1      39.983  19.204  25.913  1.00  0.00    -0.352 N 
ATOM     28  C   UNL A   1      41.336  19.298  26.125  1.00  0.00     0.251 C 
ATOM     29  H   UNL A   1      39.631  18.286  25.859  1.00  0.00     0.163 HD
ATOM     30  O   UNL A   1      42.037  18.289  26.050  1.00  0.00    -0.269 OA
BRANCH  28  31
ATOM     31  C   UNL A   1      41.961  20.607  26.415  1.00  0.00     0.039 A 
ATOM     32  C   UNL A   1      42.289  21.451  25.351  1.00  0.00     0.014 A 
ATOM     33  C   UNL A   1      42.235  20.999  27.728  1.00  0.00     0.014 A 
ATOM     34  C   UNL A   1      42.821  22.718  25.607  1.00  0.00     0.010 A 
ATOM     35  C   UNL A   1      42.689  22.290  27.984  1.00  0.00     0.010 A 
ATOM     36  C   UNL A   1      42.985  23.164  26.928  1.00  0.00    -0.014 A 
BRANCH  36  37
ATOM     37  C   UNL A   1      43.462  24.539  27.233  1.00  0.00     0.031 A 
ATOM     38  C   UNL A   1      42.505  25.566  27.775  1.00  0.00     0.074 A 
ATOM     39  C   UNL A   1      44.733  24.884  26.950  1.00  0.00     0.049 A 
ATOM     40  N   UNL A   1      42.696  26.842  27.996  1.00  0.00    -0.248 NA
ATOM     41  C   UNL A   1      41.144  25.101  28.083  1.00  0.00     0.031 C 
ATOM     42  C   UNL A   1      45.749  23.991  26.392  1.00  0.00     0.029 A 
ATOM     43  N   UNL A   1      45.385  26.087  27.077  1.00  0.00    -0.354 N 
ATOM     44  C   UNL A   1      41.480  27.331  28.456  1.00  0.00     0.074 A 
ATOM     45  C   UNL A   1      40.543  26.229  28.427  1.00  0.00     0.031 C 
ATOM     46  C   UNL A   1      46.898  24.668  26.243  1.00  0.00     0.029 A 
ATOM     47  C   UNL A   1      46.689  26.055  26.646  1.00  0.00     0.049 A 
ATOM     48  H   UNL A   1      44.957  26.894  27.443  1.00  0.00     0.167 HD
ATOM     49  C   UNL A   1      41.179  28.580  28.885  1.00  0.00     0.037 A 
ATOM     50  C   UNL A   1      47.607  27.038  26.569  1.00  0.00     0.037 A 
ATOM     51  C   UNL A   1      42.120  29.669  28.927  1.00  0.00     0.049 A 
ATOM     52  C   UNL A   1      47.234  28.426  27.016  1.00  0.00     0.074 A 
ATOM     53  C   UNL A   1      41.924  30.960  29.385  1.00  0.00     0.029 A 
ATOM     54  N   UNL A   1      43.434  29.595  28.490  1.00  0.00    -0.354 N 
ATOM     55  N   UNL A   1      46.099  28.864  27.502  1.00  0.00    -0.248 NA
ATOM     56  C   UNL A   1      48.274  29.459  26.903  1.00  0.00     0.031 C 
ATOM     57  C   UNL A   1      43.104  31.682  29.176  1.00  0.00     0.029 A 
ATOM     58  C   UNL A   1      44.054  30.825  28.646  1.00  0.00     0.049 A 
ATOM     59  H   UNL A   1      43.863  28.788  28.124  1.00  0.00     0.167 HD
ATOM     60  C   UNL A   1      46.298  30.208  27.789  1.00  0.00     0.074 A 
ATOM     61  C   UNL A   1      47.667  30.512  27.432  1.00  0.00     0.031 C 
ATOM     62  C   UNL A   1      45.425  31.108  28.304  1.00  0.00     0.037 A 
BRANCH  49  63
ATOM     63  C   UNL A   1      39.773  28.838  29.348  1.00  0.00     0.064 A 
ATOM     64  C   UNL A   1      39.395  28.655  30.687  1.00  0.00     0.173 A 
ATOM     65  C   UNL A   1      38.803  29.314  28.453  1.00  0.00     0.173 A 
ATOM     66  F   UNL A   1      40.280  28.193  31.582  1.00  0.00    -0.203 F 
ATOM     67  C   UNL A   1      38.090  28.910  31.105  1.00  0.00     0.198 A 
ATOM     68  C   UNL A   1      37.510  29.600  28.882  1.00  0.00     0.198 A 
ATOM     69  F   UNL A   1      39.112  29.515  27.163  1.00  0.00    -0.203 F 
ATOM     70  F   UNL A   1      37.740  28.677  32.378  1.00  0.00    -0.200 F 
ATOM     71  C   UNL A   1      37.152  29.390  30.204  1.00  0.00     0.200 A 
ATOM     72  F   UNL A   1      36.608  30.079  28.014  1.00  0.00    -0.200 F 
ATOM     73  F   UNL A   1      35.900  29.644  30.611  1.00  0.00    -0.200 F 
ENDBRANCH  49  63
BRANCH  50  74
ATOM     74  C   UNL A   1      48.974  26.746  26.060  1.00  0.00     0.064 A 
ATOM     75  C   UNL A   1      49.974  26.267  26.919  1.00  0.00     0.173 A 
ATOM     76  C   UNL A   1      49.318  26.958  24.717  1.00  0.00     0.173 A 
ATOM     77  F   UNL A   1      49.701  26.068  28.218  1.00  0.00    -0.203 F 
ATOM     78  C   UNL A   1      51.271  26.040  26.462  1.00  0.00     0.198 A 
ATOM     79  C   UNL A   1      50.607  26.699  24.254  1.00  0.00     0.198 A 
ATOM     80  F   UNL A   1      48.399  27.410  23.851  1.00  0.00    -0.203 F 
ATOM     81  F   UNL A   1      52.219  25.637  27.319  1.00  0.00    -0.200 F 
ATOM     82  C   UNL A   1      51.584  26.251  25.128  1.00  0.00     0.200 A 
ATOM     83  F   UNL A   1      50.901  26.890  22.960  1.00  0.00    -0.200 F 
ATOM     84  F   UNL A   1      52.832  26.033  24.689  1.00  0.00    -0.200 F 
ENDBRANCH  50  74
BRANCH  62  85
ATOM     85  C   UNL A   1      45.934  32.497  28.563  1.00  0.00     0.064 A 
ATOM     86  C   UNL A   1      45.821  33.518  27.608  1.00  0.00     0.173 A 
ATOM     87  C   UNL A   1      46.495  32.822  29.808  1.00  0.00     0.173 A 
ATOM     88  F   UNL A   1      45.306  33.256  26.398  1.00  0.00    -0.203 F 
ATOM     89  C   UNL A   1      46.271  34.807  27.883  1.00  0.00     0.198 A 
ATOM     90  C   UNL A   1      46.913  34.119  30.091  1.00  0.00     0.198 A 
ATOM     91  F   UNL A   1      46.619  31.885  30.760  1.00  0.00    -0.203 F 
ATOM     92  F   UNL A   1      46.196  35.756  26.938  1.00  0.00    -0.200 F 
ATOM     93  C   UNL A   1      46.807  35.108  29.126  1.00  0.00     0.200 A 
ATOM     94  F   UNL A   1      47.414  34.412  31.298  1.00  0.00    -0.200 F 
ATOM     95  F   UNL A   1      47.227  36.353  29.392  1.00  0.00    -0.200 F 
ENDBRANCH  62  85
ENDBRANCH  36  37
ENDBRANCH  28  31
ENDBRANCH  26  27
ENDBRANCH  25  26
ENDBRANCH  24  25
ENDBRANCH   3  24
TORSDOF 16
ENDMDL
MODEL 3
REMARK VINA RESULT:     -11.3      1.420      2.328
REMARK SMILES CC[C@H](C)CN(CC)C(=O)Nc1ccc(C(=O)NCCCNC(=O)c2ccc(-c3c4nc(c(-c5c(F)c(F)c(F)c(F)c5F)c5ccc([nH]5)c(-c5c(F)c(F)c(F)c(F)c5F)c5nc(c(-c6c(F)c(F)c(F)c(F)c6F)c6ccc3[nH]6)C=C5)C=C4)cc2)cc1Cl
REMARK SMILES IDX 16 1 17 2 18 3 15 5 12 6 13 7 89 8 14 9 88 10 90 11 11 12
REMARK SMILES IDX 9 13 10 14 6 16 5 17 3 18 4 19 2 20 1 21 7 22 8 23 19 24
REMARK SMILES IDX 20 25 21 26 22 27 23 28 24 30 25 31 26 32 87 33 27 34 86 35
REMARK SMILES IDX 28 36 29 37 30 38 80 39 31 40 85 41 79 42 81 43 32 44 84 45
REMARK SMILES IDX 78 46 77 47 33 49 65 50 45 51 64 52 46 53 49 54 63 55 82 56
REMARK SMILES IDX 47 57 48 58 62 60 83 61 50 62 34 63 35 64 43 65 36 66 37 67
REMARK SMILES IDX 41 68 44 69 38 70 39 71 42 72 40 73 66 74 67 75 75 76 68 77
REMARK SMILES IDX 69 78 73 79 76 80 70 81 71 82 74 83 72 84 51 85 52 86 60 87
REMARK SMILES IDX 53 88 54 89 58 90 61 91 55 92 56 93 59 94 57 95
REMARK H PARENT 18 4 11 15 22 29 81 48 49 59
REMARK Flexibility Score: inf
ROOT
ATOM      1  C   UNL A   1      34.330  20.893  25.346  1.00  0.00     0.251 C 
ATOM      2  O   UNL A   1      33.356  20.241  25.715  1.00  0.00    -0.269 OA
ATOM      3  N   UNL A   1      35.574  20.314  25.369  1.00  0.00    -0.352 N 
ATOM      4  H   UNL A   1      35.600  19.421  25.782  1.00  0.00     0.163 HD
ENDROOT
BRANCH   1   5
ATOM      5  C   UNL A   1      34.127  22.255  24.801  1.00  0.00     0.041 A 
ATOM      6  C   UNL A   1      34.083  24.763  23.591  1.00  0.00     0.061 A 
ATOM      7  C   UNL A   1      33.762  23.629  22.841  1.00  0.00     0.028 A 
ATOM      8  C   UNL A   1      34.223  24.660  24.982  1.00  0.00     0.065 A 
ATOM      9  C   UNL A   1      33.806  22.372  23.443  1.00  0.00     0.016 A 
ATOM     10  C   UNL A   1      34.241  23.403  25.588  1.00  0.00     0.036 A 
ATOM     11  Cl  UNL A   1      34.318  26.055  25.995  1.00  0.00    -0.082 Cl
BRANCH   6  12
ATOM     12  N   UNL A   1      34.259  25.961  22.898  1.00  0.00    -0.306 N 
ATOM     13  C   UNL A   1      33.392  26.950  22.551  1.00  0.00     0.321 C 
ATOM     14  O   UNL A   1      33.771  27.684  21.633  1.00  0.00    -0.248 OA
ATOM     15  H   UNL A   1      35.186  26.121  22.604  1.00  0.00     0.171 HD
BRANCH  13  16
ATOM     16  N   UNL A   1      32.236  27.217  23.262  1.00  0.00    -0.325 N 
BRANCH  16  17
ATOM     17  C   UNL A   1      30.992  26.585  22.784  1.00  0.00     0.124 C 
BRANCH  17  18
ATOM     18  C   UNL A   1      30.183  25.873  23.904  1.00  0.00     0.005 C 
ATOM     19  C   UNL A   1      28.718  26.329  23.902  1.00  0.00     0.009 C 
BRANCH  18  20
ATOM     20  C   UNL A   1      30.273  24.341  23.720  1.00  0.00     0.002 C 
ATOM     21  C   UNL A   1      30.676  23.591  24.987  1.00  0.00     0.004 C 
ENDBRANCH  18  20
ENDBRANCH  17  18
ENDBRANCH  16  17
BRANCH  16  22
ATOM     22  C   UNL A   1      32.066  28.053  24.456  1.00  0.00     0.118 C 
ATOM     23  C   UNL A   1      31.315  29.341  24.129  1.00  0.00     0.027 C 
ENDBRANCH  16  22
ENDBRANCH  13  16
ENDBRANCH   6  12
ENDBRANCH   1   5
BRANCH   3  24
ATOM     24  C   UNL A   1      36.861  20.794  24.889  1.00  0.00     0.118 C 
BRANCH  24  25
ATOM     25  C   UNL A   1      37.939  19.721  24.999  1.00  0.00     0.042 C 
BRANCH  25  26
ATOM     26  C   UNL A   1      39.164  20.168  25.789  1.00  0.00     0.118 C 
BRANCH  26  27
ATOM     27  N   UNL A   1      40.183  19.130  25.878  1.00  0.00    -0.352 N 
ATOM     28  C   UNL A   1      41.541  19.246  26.052  1.00  0.00     0.251 C 
ATOM     29  H   UNL A   1      39.849  18.207  25.802  1.00  0.00     0.163 HD
ATOM     30  O   UNL A   1      42.259  18.255  25.921  1.00  0.00    -0.269 OA
BRANCH  28  31
ATOM     31  C   UNL A   1      42.147  20.557  26.369  1.00  0.00     0.039 A 
ATOM     32  C   UNL A   1      42.603  21.362  25.323  1.00  0.00     0.014 A 
ATOM     33  C   UNL A   1      42.279  20.989  27.691  1.00  0.00     0.014 A 
ATOM     34  C   UNL A   1      43.121  22.631  25.596  1.00  0.00     0.010 A 
ATOM     35  C   UNL A   1      42.720  22.283  27.956  1.00  0.00     0.010 A 
ATOM     36  C   UNL A   1      43.144  23.119  26.913  1.00  0.00    -0.014 A 
BRANCH  36  37
ATOM     37  C   UNL A   1      43.602  24.498  27.225  1.00  0.00     0.031 A 
ATOM     38  C   UNL A   1      42.623  25.522  27.731  1.00  0.00     0.074 A 
ATOM     39  C   UNL A   1      44.880  24.849  26.982  1.00  0.00     0.049 A 
ATOM     40  N   UNL A   1      42.799  26.800  27.953  1.00  0.00    -0.248 NA
ATOM     41  C   UNL A   1      41.255  25.050  27.999  1.00  0.00     0.031 C 
ATOM     42  C   UNL A   1      45.918  23.959  26.460  1.00  0.00     0.029 A 
ATOM     43  N   UNL A   1      45.521  26.057  27.123  1.00  0.00    -0.354 N 
ATOM     44  C   UNL A   1      41.567  27.284  28.371  1.00  0.00     0.074 A 
ATOM     45  C   UNL A   1      40.638  26.177  28.318  1.00  0.00     0.031 C 
ATOM     46  C   UNL A   1      47.067  24.642  26.344  1.00  0.00     0.029 A 
ATOM     47  C   UNL A   1      46.838  26.030  26.733  1.00  0.00     0.049 A 
ATOM     48  H   UNL A   1      45.077  26.863  27.471  1.00  0.00     0.167 HD
ATOM     49  C   UNL A   1      41.245  28.533  28.784  1.00  0.00     0.037 A 
ATOM     50  C   UNL A   1      47.752  27.018  26.681  1.00  0.00     0.037 A 
ATOM     51  C   UNL A   1      42.179  29.628  28.850  1.00  0.00     0.049 A 
ATOM     52  C   UNL A   1      47.358  28.406  27.108  1.00  0.00     0.074 A 
ATOM     53  C   UNL A   1      41.961  30.920  29.296  1.00  0.00     0.029 A 
ATOM     54  N   UNL A   1      43.506  29.560  28.455  1.00  0.00    -0.354 N 
ATOM     55  N   UNL A   1      46.205  28.839  27.556  1.00  0.00    -0.248 NA
ATOM     56  C   UNL A   1      48.395  29.445  27.023  1.00  0.00     0.031 C 
ATOM     57  C   UNL A   1      43.142  31.648  29.120  1.00  0.00     0.029 A 
ATOM     58  C   UNL A   1      44.114  30.794  28.624  1.00  0.00     0.049 A 
ATOM     59  H   UNL A   1      43.951  28.754  28.107  1.00  0.00     0.167 HD
ATOM     60  C   UNL A   1      46.387  30.186  27.842  1.00  0.00     0.074 A 
ATOM     61  C   UNL A   1      47.765  30.497  27.527  1.00  0.00     0.031 C 
ATOM     62  C   UNL A   1      45.493  31.084  28.325  1.00  0.00     0.037 A 
BRANCH  49  63
ATOM     63  C   UNL A   1      39.825  28.785  29.201  1.00  0.00     0.064 A 
ATOM     64  C   UNL A   1      39.403  28.599  30.526  1.00  0.00     0.173 A 
ATOM     65  C   UNL A   1      38.882  29.259  28.275  1.00  0.00     0.173 A 
ATOM     66  F   UNL A   1      40.260  28.139  31.450  1.00  0.00    -0.203 F 
ATOM     67  C   UNL A   1      38.084  28.848  30.902  1.00  0.00     0.198 A 
ATOM     68  C   UNL A   1      37.574  29.540  28.662  1.00  0.00     0.198 A 
ATOM     69  F   UNL A   1      39.233  29.464  26.997  1.00  0.00    -0.203 F 
ATOM     70  F   UNL A   1      37.693  28.612  32.162  1.00  0.00    -0.200 F 
ATOM     71  C   UNL A   1      37.175  29.326  29.972  1.00  0.00     0.200 A 
ATOM     72  F   UNL A   1      36.700  30.017  27.766  1.00  0.00    -0.200 F 
ATOM     73  F   UNL A   1      35.909  29.575  30.337  1.00  0.00    -0.200 F 
ENDBRANCH  49  63
BRANCH  50  74
ATOM     74  C   UNL A   1      49.137  26.732  26.216  1.00  0.00     0.064 A 
ATOM     75  C   UNL A   1      50.110  26.258  27.108  1.00  0.00     0.173 A 
ATOM     76  C   UNL A   1      49.523  26.944  24.885  1.00  0.00     0.173 A 
ATOM     77  F   UNL A   1      49.796  26.059  28.397  1.00  0.00    -0.203 F 
ATOM     78  C   UNL A   1      51.422  26.037  26.693  1.00  0.00     0.198 A 
ATOM     79  C   UNL A   1      50.827  26.690  24.464  1.00  0.00     0.198 A 
ATOM     80  F   UNL A   1      48.631  27.391  23.989  1.00  0.00    -0.203 F 
ATOM     81  F   UNL A   1      52.344  25.639  27.581  1.00  0.00    -0.200 F 
ATOM     82  C   UNL A   1      51.778  26.247  25.370  1.00  0.00     0.200 A 
ATOM     83  F   UNL A   1      51.163  26.881  23.181  1.00  0.00    -0.200 F 
ATOM     84  F   UNL A   1      53.040  26.034  24.972  1.00  0.00    -0.200 F 
ENDBRANCH  50  74
BRANCH  62  85
ATOM     85  C   UNL A   1      45.986  32.477  28.593  1.00  0.00     0.064 A 
ATOM     86  C   UNL A   1      46.561  32.836  29.821  1.00  0.00     0.173 A 
ATOM     87  C   UNL A   1      45.929  33.452  27.585  1.00  0.00     0.173 A 
ATOM     88  F   UNL A   1      46.626  31.946  30.821  1.00  0.00    -0.203 F 
ATOM     89  C   UNL A   1      47.040  34.126  30.035  1.00  0.00     0.198 A 
ATOM     90  C   UNL A   1      46.439  34.730  27.791  1.00  0.00     0.198 A 
ATOM     91  F   UNL A   1      45.395  33.159  26.389  1.00  0.00    -0.203 F 
ATOM     92  F   UNL A   1      47.543  34.460  31.233  1.00  0.00    -0.200 F 
ATOM     93  C   UNL A   1      46.988  35.068  29.019  1.00  0.00     0.200 A 
ATOM     94  F   UNL A   1      46.403  35.632  26.802  1.00  0.00    -0.200 F 
ATOM     95  F   UNL A   1      47.462  36.304  29.224  1.00  0.00    -0.200 F 
ENDBRANCH  62  85
ENDBRANCH  36  37
ENDBRANCH  28  31
ENDBRANCH  26  27
ENDBRANCH  25  26
ENDBRANCH  24  25
ENDBRANCH   3  24
TORSDOF 16
ENDMDL
