MODEL 1
REMARK VINA RESULT:     -12.0      0.000      0.000
REMARK SMILES [NH3+][C@@]1(C(=O)NCCCNC(=O)c2ccc(-c3c4nc(c(-c5c(F)c(F)c(F)c(F)c5F)c5ccc([nH]5)c(-c5c(F)c(F)c(F)c(F)c5F)c5nc(c(-c6c(F)c(F)c(F)c(F)c6F)c6ccc3[nH]6)C=C5)C=C4)cc2)CC[C@H](Sc2cccs2)C1
REMARK SMILES IDX 7 1 6 2 5 3 3 4 4 5 2 7 75 8 84 9 76 10 77 11 1 12 78 16
REMARK SMILES IDX 79 17 80 18 83 19 81 20 82 21 8 22 9 23 10 24 11 26 12 27
REMARK SMILES IDX 13 28 74 29 14 30 73 31 15 32 16 33 17 34 67 35 18 36 72 37
REMARK SMILES IDX 66 38 68 39 19 40 71 41 65 42 64 43 20 45 52 46 32 47 51 48
REMARK SMILES IDX 33 49 36 50 50 51 69 52 34 53 35 54 49 56 70 57 37 58 21 59
REMARK SMILES IDX 22 60 30 61 23 62 24 63 28 64 31 65 25 66 26 67 29 68 27 69
REMARK SMILES IDX 53 70 54 71 62 72 55 73 56 74 60 75 63 76 57 77 58 78 61 79
REMARK SMILES IDX 59 80 38 81 39 82 47 83 40 84 41 85 45 86 48 87 42 88 43 89
REMARK SMILES IDX 46 90 44 91
REMARK H PARENT 5 6 1 13 1 14 1 15 9 25 68 44 36 55
REMARK Flexibility Score: inf
ROOT
ATOM      1  C   UNL A   1      31.359  32.352  26.524  1.00  0.00     0.042 C 
ENDROOT
BRANCH   1   2
ATOM      2  C   UNL A   1      31.513  30.902  26.117  1.00  0.00     0.118 C 
BRANCH   2   3
ATOM      3  N   UNL A   1      32.836  30.378  26.355  1.00  0.00    -0.351 N 
ATOM      4  C   UNL A   1      33.272  29.095  26.452  1.00  0.00     0.281 C 
ATOM      5  O   UNL A   1      34.492  28.953  26.616  1.00  0.00    -0.268 OA
ATOM      6  H   UNL A   1      33.536  31.060  26.466  1.00  0.00     0.163 HD
BRANCH   4   7
ATOM      7  C   UNL A   1      32.326  27.833  26.386  1.00  0.00     0.175 C 
ATOM      8  C   UNL A   1      33.040  26.500  26.133  1.00  0.00     0.080 C 
ATOM      9  C   UNL A   1      31.242  27.960  25.312  1.00  0.00     0.094 C 
ATOM     10  C   UNL A   1      32.630  26.003  24.740  1.00  0.00     0.022 C 
ATOM     11  C   UNL A   1      31.337  26.733  24.381  1.00  0.00     0.059 C 
BRANCH   7  12
ATOM     12  N   UNL A   1      31.656  27.747  27.714  1.00  0.00    -0.345 N 
ATOM     13  H   UNL A   1      31.815  28.611  28.232  1.00  0.00     0.345 HD
ATOM     14  H   UNL A   1      32.041  26.961  28.238  1.00  0.00     0.345 HD
ATOM     15  H   UNL A   1      30.655  27.609  27.581  1.00  0.00     0.345 HD
ENDBRANCH   7  12
BRANCH  11  16
ATOM     16  S   UNL A   1      30.989  27.341  22.700  1.00  0.00    -0.112 SA
BRANCH  16  17
ATOM     17  C   UNL A   1      29.538  28.307  22.654  1.00  0.00     0.060 A 
ATOM     18  C   UNL A   1      28.278  28.051  23.148  1.00  0.00     0.027 A 
ATOM     19  S   UNL A   1      29.632  29.903  22.007  1.00  0.00    -0.137 S 
ATOM     20  C   UNL A   1      27.386  29.157  22.976  1.00  0.00     0.013 A 
ATOM     21  C   UNL A   1      27.998  30.231  22.371  1.00  0.00     0.066 A 
ENDBRANCH  16  17
ENDBRANCH  11  16
ENDBRANCH   4   7
ENDBRANCH   2   3
ENDBRANCH   1   2
BRANCH   1  22
ATOM     22  C   UNL A   1      32.574  32.890  27.251  1.00  0.00     0.118 C 
BRANCH  22  23
ATOM     23  N   UNL A   1      32.413  34.293  27.625  1.00  0.00    -0.352 N 
ATOM     24  C   UNL A   1      32.985  35.030  28.637  1.00  0.00     0.251 C 
ATOM     25  H   UNL A   1      31.787  34.799  27.057  1.00  0.00     0.163 HD
ATOM     26  O   UNL A   1      32.522  36.130  28.919  1.00  0.00    -0.269 OA
BRANCH  24  27
ATOM     27  C   UNL A   1      34.143  34.503  29.394  1.00  0.00     0.039 A 
ATOM     28  C   UNL A   1      33.936  33.913  30.644  1.00  0.00     0.014 A 
ATOM     29  C   UNL A   1      35.437  34.616  28.891  1.00  0.00     0.014 A 
ATOM     30  C   UNL A   1      35.019  33.372  31.345  1.00  0.00     0.010 A 
ATOM     31  C   UNL A   1      36.487  33.960  29.517  1.00  0.00     0.010 A 
ATOM     32  C   UNL A   1      36.297  33.350  30.765  1.00  0.00    -0.014 A 
BRANCH  32  33
ATOM     33  C   UNL A   1      37.471  32.746  31.448  1.00  0.00     0.031 A 
ATOM     34  C   UNL A   1      38.191  31.589  30.804  1.00  0.00     0.074 A 
ATOM     35  C   UNL A   1      37.831  33.171  32.675  1.00  0.00     0.049 A 
ATOM     36  N   UNL A   1      39.128  30.816  31.294  1.00  0.00    -0.248 NA
ATOM     37  C   UNL A   1      37.771  31.224  29.440  1.00  0.00     0.031 C 
ATOM     38  C   UNL A   1      37.182  34.245  33.428  1.00  0.00     0.029 A 
ATOM     39  N   UNL A   1      38.824  32.732  33.517  1.00  0.00    -0.354 N 
ATOM     40  C   UNL A   1      39.389  29.871  30.311  1.00  0.00     0.074 A 
ATOM     41  C   UNL A   1      38.463  30.115  29.228  1.00  0.00     0.031 C 
ATOM     42  C   UNL A   1      37.803  34.394  34.609  1.00  0.00     0.029 A 
ATOM     43  C   UNL A   1      38.860  33.395  34.719  1.00  0.00     0.049 A 
ATOM     44  H   UNL A   1      39.452  32.011  33.279  1.00  0.00     0.167 HD
ATOM     45  C   UNL A   1      40.339  28.907  30.293  1.00  0.00     0.037 A 
ATOM     46  C   UNL A   1      39.644  33.202  35.797  1.00  0.00     0.037 A 
ATOM     47  C   UNL A   1      41.281  28.689  31.356  1.00  0.00     0.049 A 
ATOM     48  C   UNL A   1      40.690  32.116  35.755  1.00  0.00     0.074 A 
ATOM     49  C   UNL A   1      42.309  27.766  31.424  1.00  0.00     0.029 A 
ATOM     50  N   UNL A   1      41.315  29.414  32.539  1.00  0.00    -0.354 N 
ATOM     51  N   UNL A   1      40.961  31.263  34.797  1.00  0.00    -0.248 NA
ATOM     52  C   UNL A   1      41.546  31.974  36.942  1.00  0.00     0.031 C 
ATOM     53  C   UNL A   1      42.940  27.903  32.663  1.00  0.00     0.029 A 
ATOM     54  C   UNL A   1      42.342  28.951  33.345  1.00  0.00     0.049 A 
ATOM     55  H   UNL A   1      40.701  30.148  32.769  1.00  0.00     0.167 HD
ATOM     56  C   UNL A   1      42.037  30.511  35.250  1.00  0.00     0.074 A 
ATOM     57  C   UNL A   1      42.379  31.017  36.562  1.00  0.00     0.031 C 
ATOM     58  C   UNL A   1      42.684  29.490  34.635  1.00  0.00     0.037 A 
BRANCH  45  59
ATOM     59  C   UNL A   1      40.424  28.031  29.076  1.00  0.00     0.064 A 
ATOM     60  C   UNL A   1      39.675  26.848  28.971  1.00  0.00     0.173 A 
ATOM     61  C   UNL A   1      41.223  28.399  27.983  1.00  0.00     0.173 A 
ATOM     62  F   UNL A   1      38.906  26.443  29.992  1.00  0.00    -0.203 F 
ATOM     63  C   UNL A   1      39.744  26.054  27.830  1.00  0.00     0.198 A 
ATOM     64  C   UNL A   1      41.262  27.619  26.828  1.00  0.00     0.198 A 
ATOM     65  F   UNL A   1      41.956  29.521  28.026  1.00  0.00    -0.203 F 
ATOM     66  F   UNL A   1      39.058  24.904  27.775  1.00  0.00    -0.200 F 
ATOM     67  C   UNL A   1      40.529  26.445  26.757  1.00  0.00     0.200 A 
ATOM     68  F   UNL A   1      42.009  28.006  25.786  1.00  0.00    -0.200 F 
ATOM     69  F   UNL A   1      40.583  25.686  25.652  1.00  0.00    -0.200 F 
ENDBRANCH  45  59
BRANCH  46  70
ATOM     70  C   UNL A   1      39.482  34.052  37.008  1.00  0.00     0.064 A 
ATOM     71  C   UNL A   1      40.112  35.302  37.103  1.00  0.00     0.173 A 
ATOM     72  C   UNL A   1      38.723  33.621  38.106  1.00  0.00     0.173 A 
ATOM     73  F   UNL A   1      40.863  35.752  36.087  1.00  0.00    -0.203 F 
ATOM     74  C   UNL A   1      40.021  36.068  38.264  1.00  0.00     0.198 A 
ATOM     75  C   UNL A   1      38.604  34.404  39.252  1.00  0.00     0.198 A 
ATOM     76  F   UNL A   1      38.094  32.437  38.065  1.00  0.00    -0.203 F 
ATOM     77  F   UNL A   1      40.689  37.227  38.352  1.00  0.00    -0.200 F 
ATOM     78  C   UNL A   1      39.265  35.621  39.336  1.00  0.00     0.200 A 
ATOM     79  F   UNL A   1      37.859  33.976  40.280  1.00  0.00    -0.200 F 
ATOM     80  F   UNL A   1      39.183  36.356  40.453  1.00  0.00    -0.200 F 
ENDBRANCH  46  70
BRANCH  58  81
ATOM     81  C   UNL A   1      43.864  28.892  35.343  1.00  0.00     0.064 A 
ATOM     82  C   UNL A   1      45.168  29.366  35.141  1.00  0.00     0.173 A 
ATOM     83  C   UNL A   1      43.677  27.865  36.282  1.00  0.00     0.173 A 
ATOM     84  F   UNL A   1      45.403  30.338  34.245  1.00  0.00    -0.203 F 
ATOM     85  C   UNL A   1      46.244  28.815  35.832  1.00  0.00     0.198 A 
ATOM     86  C   UNL A   1      44.750  27.341  36.996  1.00  0.00     0.198 A 
ATOM     87  F   UNL A   1      42.447  27.383  36.519  1.00  0.00    -0.203 F 
ATOM     88  F   UNL A   1      47.487  29.251  35.588  1.00  0.00    -0.200 F 
ATOM     89  C   UNL A   1      46.034  27.811  36.765  1.00  0.00     0.200 A 
ATOM     90  F   UNL A   1      44.540  26.383  37.909  1.00  0.00    -0.200 F 
ATOM     91  F   UNL A   1      47.068  27.292  37.439  1.00  0.00    -0.200 F 
ENDBRANCH  58  81
ENDBRANCH  32  33
ENDBRANCH  24  27
ENDBRANCH  22  23
ENDBRANCH   1  22
TORSDOF 13
ENDMDL
MODEL 2
REMARK VINA RESULT:     -12.0      0.338      2.035
REMARK SMILES [NH3+][C@@]1(C(=O)NCCCNC(=O)c2ccc(-c3c4nc(c(-c5c(F)c(F)c(F)c(F)c5F)c5ccc([nH]5)c(-c5c(F)c(F)c(F)c(F)c5F)c5nc(c(-c6c(F)c(F)c(F)c(F)c6F)c6ccc3[nH]6)C=C5)C=C4)cc2)CC[C@H](Sc2cccs2)C1
REMARK SMILES IDX 7 1 6 2 5 3 3 4 4 5 2 7 75 8 84 9 76 10 77 11 1 12 78 16
REMARK SMILES IDX 79 17 80 18 83 19 81 20 82 21 8 22 9 23 10 24 11 26 12 27
REMARK SMILES IDX 13 28 74 29 14 30 73 31 15 32 16 33 17 34 67 35 18 36 72 37
REMARK SMILES IDX 66 38 68 39 19 40 71 41 65 42 64 43 20 45 52 46 32 47 51 48
REMARK SMILES IDX 33 49 36 50 50 51 69 52 34 53 35 54 49 56 70 57 37 58 21 59
REMARK SMILES IDX 22 60 30 61 23 62 24 63 28 64 31 65 25 66 26 67 29 68 27 69
REMARK SMILES IDX 53 70 54 71 62 72 55 73 56 74 60 75 63 76 57 77 58 78 61 79
REMARK SMILES IDX 59 80 38 81 39 82 47 83 40 84 41 85 45 86 48 87 42 88 43 89
REMARK SMILES IDX 46 90 44 91
REMARK H PARENT 5 6 1 13 1 14 1 15 9 25 68 44 36 55
REMARK Flexibility Score: inf
ROOT
ATOM      1  C   UNL A   1      31.323  32.286  26.525  1.00  0.00     0.042 C 
ENDROOT
BRANCH   1   2
ATOM      2  C   UNL A   1      31.527  30.890  25.978  1.00  0.00     0.118 C 
BRANCH   2   3
ATOM      3  N   UNL A   1      32.836  30.352  26.254  1.00  0.00    -0.351 N 
ATOM      4  C   UNL A   1      33.245  29.067  26.421  1.00  0.00     0.281 C 
ATOM      5  O   UNL A   1      34.461  28.908  26.601  1.00  0.00    -0.268 OA
ATOM      6  H   UNL A   1      33.550  31.024  26.334  1.00  0.00     0.163 HD
BRANCH   4   7
ATOM      7  C   UNL A   1      32.273  27.823  26.414  1.00  0.00     0.175 C 
ATOM      8  C   UNL A   1      32.956  26.467  26.201  1.00  0.00     0.080 C 
ATOM      9  C   UNL A   1      31.177  27.933  25.350  1.00  0.00     0.094 C 
ATOM     10  C   UNL A   1      32.518  25.928  24.834  1.00  0.00     0.022 C 
ATOM     11  C   UNL A   1      31.235  26.670  24.464  1.00  0.00     0.059 C 
BRANCH   7  12
ATOM     12  N   UNL A   1      31.620  27.800  27.753  1.00  0.00    -0.345 N 
ATOM     13  H   UNL A   1      32.161  27.209  28.385  1.00  0.00     0.345 HD
ATOM     14  H   UNL A   1      30.675  27.427  27.664  1.00  0.00     0.345 HD
ATOM     15  H   UNL A   1      31.578  28.748  28.127  1.00  0.00     0.345 HD
ENDBRANCH   7  12
BRANCH  11  16
ATOM     16  S   UNL A   1      30.876  27.222  22.766  1.00  0.00    -0.112 SA
BRANCH  16  17
ATOM     17  C   UNL A   1      29.478  28.263  22.711  1.00  0.00     0.060 A 
ATOM     18  C   UNL A   1      28.192  28.056  23.161  1.00  0.00     0.027 A 
ATOM     19  S   UNL A   1      29.671  29.871  22.119  1.00  0.00    -0.137 S 
ATOM     20  C   UNL A   1      27.363  29.211  23.000  1.00  0.00     0.013 A 
ATOM     21  C   UNL A   1      28.045  30.271  22.448  1.00  0.00     0.066 A 
ENDBRANCH  16  17
ENDBRANCH  11  16
ENDBRANCH   4   7
ENDBRANCH   2   3
ENDBRANCH   1   2
BRANCH   1  22
ATOM     22  C   UNL A   1      32.543  32.817  27.251  1.00  0.00     0.118 C 
BRANCH  22  23
ATOM     23  N   UNL A   1      32.390  34.219  27.630  1.00  0.00    -0.352 N 
ATOM     24  C   UNL A   1      32.991  34.956  28.625  1.00  0.00     0.251 C 
ATOM     25  H   UNL A   1      31.747  34.723  27.081  1.00  0.00     0.163 HD
ATOM     26  O   UNL A   1      32.533  36.055  28.922  1.00  0.00    -0.269 OA
BRANCH  24  27
ATOM     27  C   UNL A   1      34.171  34.431  29.347  1.00  0.00     0.039 A 
ATOM     28  C   UNL A   1      33.996  33.785  30.574  1.00  0.00     0.014 A 
ATOM     29  C   UNL A   1      35.455  34.601  28.835  1.00  0.00     0.014 A 
ATOM     30  C   UNL A   1      35.102  33.247  31.240  1.00  0.00     0.010 A 
ATOM     31  C   UNL A   1      36.531  33.950  29.422  1.00  0.00     0.010 A 
ATOM     32  C   UNL A   1      36.373  33.284  30.646  1.00  0.00    -0.014 A 
BRANCH  32  33
ATOM     33  C   UNL A   1      37.572  32.687  31.291  1.00  0.00     0.031 A 
ATOM     34  C   UNL A   1      38.294  31.554  30.608  1.00  0.00     0.074 A 
ATOM     35  C   UNL A   1      37.954  33.095  32.517  1.00  0.00     0.049 A 
ATOM     36  N   UNL A   1      39.254  30.787  31.062  1.00  0.00    -0.248 NA
ATOM     37  C   UNL A   1      37.849  31.207  29.247  1.00  0.00     0.031 C 
ATOM     38  C   UNL A   1      37.305  34.144  33.304  1.00  0.00     0.029 A 
ATOM     39  N   UNL A   1      38.972  32.656  33.327  1.00  0.00    -0.354 N 
ATOM     40  C   UNL A   1      39.507  29.864  30.055  1.00  0.00     0.074 A 
ATOM     41  C   UNL A   1      38.553  30.113  28.999  1.00  0.00     0.031 C 
ATOM     42  C   UNL A   1      37.951  34.281  34.473  1.00  0.00     0.029 A 
ATOM     43  C   UNL A   1      39.025  33.296  34.541  1.00  0.00     0.049 A 
ATOM     44  H   UNL A   1      39.605  31.949  33.062  1.00  0.00     0.167 HD
ATOM     45  C   UNL A   1      40.471  28.916  29.998  1.00  0.00     0.037 A 
ATOM     46  C   UNL A   1      39.837  33.095  35.597  1.00  0.00     0.037 A 
ATOM     47  C   UNL A   1      41.441  28.693  31.035  1.00  0.00     0.049 A 
ATOM     48  C   UNL A   1      40.898  32.027  35.511  1.00  0.00     0.074 A 
ATOM     49  C   UNL A   1      42.484  27.785  31.061  1.00  0.00     0.029 A 
ATOM     50  N   UNL A   1      41.490  29.395  32.230  1.00  0.00    -0.354 N 
ATOM     51  N   UNL A   1      41.160  31.197  34.531  1.00  0.00    -0.248 NA
ATOM     52  C   UNL A   1      41.782  31.876  36.675  1.00  0.00     0.031 C 
ATOM     53  C   UNL A   1      43.141  27.909  32.289  1.00  0.00     0.029 A 
ATOM     54  C   UNL A   1      42.542  28.934  33.004  1.00  0.00     0.049 A 
ATOM     55  H   UNL A   1      40.871  30.115  32.488  1.00  0.00     0.167 HD
ATOM     56  C   UNL A   1      42.257  30.453  34.944  1.00  0.00     0.074 A 
ATOM     57  C   UNL A   1      42.621  30.940  36.258  1.00  0.00     0.031 C 
ATOM     58  C   UNL A   1      42.905  29.454  34.296  1.00  0.00     0.037 A 
BRANCH  45  59
ATOM     59  C   UNL A   1      40.541  28.064  28.763  1.00  0.00     0.064 A 
ATOM     60  C   UNL A   1      41.319  28.441  27.656  1.00  0.00     0.173 A 
ATOM     61  C   UNL A   1      39.864  26.837  28.698  1.00  0.00     0.173 A 
ATOM     62  F   UNL A   1      41.975  29.610  27.660  1.00  0.00    -0.203 F 
ATOM     63  C   UNL A   1      41.395  27.635  26.524  1.00  0.00     0.198 A 
ATOM     64  C   UNL A   1      39.971  26.016  27.578  1.00  0.00     0.198 A 
ATOM     65  F   UNL A   1      39.110  26.424  29.728  1.00  0.00    -0.203 F 
ATOM     66  F   UNL A   1      42.105  28.041  25.462  1.00  0.00    -0.200 F 
ATOM     67  C   UNL A   1      40.730  26.420  26.489  1.00  0.00     0.200 A 
ATOM     68  F   UNL A   1      39.339  24.835  27.552  1.00  0.00    -0.200 F 
ATOM     69  F   UNL A   1      40.816  25.637  25.404  1.00  0.00    -0.200 F 
ENDBRANCH  45  59
BRANCH  46  70
ATOM     70  C   UNL A   1      39.689  33.920  36.827  1.00  0.00     0.064 A 
ATOM     71  C   UNL A   1      38.898  33.484  37.899  1.00  0.00     0.173 A 
ATOM     72  C   UNL A   1      40.308  35.175  36.943  1.00  0.00     0.173 A 
ATOM     73  F   UNL A   1      38.271  32.301  37.831  1.00  0.00    -0.203 F 
ATOM     74  C   UNL A   1      38.698  34.287  39.021  1.00  0.00     0.198 A 
ATOM     75  C   UNL A   1      40.136  35.961  38.080  1.00  0.00     0.198 A 
ATOM     76  F   UNL A   1      41.081  35.637  35.949  1.00  0.00    -0.203 F 
ATOM     77  F   UNL A   1      37.883  33.873  40.001  1.00  0.00    -0.200 F 
ATOM     78  C   UNL A   1      39.320  35.522  39.112  1.00  0.00     0.200 A 
ATOM     79  F   UNL A   1      40.752  37.147  38.172  1.00  0.00    -0.200 F 
ATOM     80  F   UNL A   1      39.124  36.296  40.189  1.00  0.00    -0.200 F 
ENDBRANCH  46  70
BRANCH  58  81
ATOM     81  C   UNL A   1      44.111  28.862  34.965  1.00  0.00     0.064 A 
ATOM     82  C   UNL A   1      44.015  27.759  35.825  1.00  0.00     0.173 A 
ATOM     83  C   UNL A   1      45.390  29.375  34.695  1.00  0.00     0.173 A 
ATOM     84  F   UNL A   1      42.815  27.239  36.126  1.00  0.00    -0.203 F 
ATOM     85  C   UNL A   1      45.152  27.208  36.411  1.00  0.00     0.198 A 
ATOM     86  C   UNL A   1      46.526  28.801  35.255  1.00  0.00     0.198 A 
ATOM     87  F   UNL A   1      45.537  30.424  33.871  1.00  0.00    -0.203 F 
ATOM     88  F   UNL A   1      45.032  26.184  37.267  1.00  0.00    -0.200 F 
ATOM     89  C   UNL A   1      46.406  27.722  36.118  1.00  0.00     0.200 A 
ATOM     90  F   UNL A   1      47.738  29.289  34.956  1.00  0.00    -0.200 F 
ATOM     91  F   UNL A   1      47.499  27.182  36.672  1.00  0.00    -0.200 F 
ENDBRANCH  58  81
ENDBRANCH  32  33
ENDBRANCH  24  27
ENDBRANCH  22  23
ENDBRANCH   1  22
TORSDOF 13
ENDMDL
MODEL 3
REMARK VINA RESULT:     -11.9      1.354      2.994
REMARK SMILES [NH3+][C@@]1(C(=O)NCCCNC(=O)c2ccc(-c3c4nc(c(-c5c(F)c(F)c(F)c(F)c5F)c5ccc([nH]5)c(-c5c(F)c(F)c(F)c(F)c5F)c5nc(c(-c6c(F)c(F)c(F)c(F)c6F)c6ccc3[nH]6)C=C5)C=C4)cc2)CC[C@H](Sc2cccs2)C1
REMARK SMILES IDX 7 1 6 2 5 3 3 4 4 5 2 7 75 8 84 9 76 10 77 11 1 12 78 16
REMARK SMILES IDX 79 17 80 18 83 19 81 20 82 21 8 22 9 23 10 24 11 26 12 27
REMARK SMILES IDX 13 28 74 29 14 30 73 31 15 32 16 33 17 34 67 35 18 36 72 37
REMARK SMILES IDX 66 38 68 39 19 40 71 41 65 42 64 43 20 45 52 46 32 47 51 48
REMARK SMILES IDX 33 49 36 50 50 51 69 52 34 53 35 54 49 56 70 57 37 58 21 59
REMARK SMILES IDX 22 60 30 61 23 62 24 63 28 64 31 65 25 66 26 67 29 68 27 69
REMARK SMILES IDX 53 70 54 71 62 72 55 73 56 74 60 75 63 76 57 77 58 78 61 79
REMARK SMILES IDX 59 80 38 81 39 82 47 83 40 84 41 85 45 86 48 87 42 88 43 89
REMARK SMILES IDX 46 90 44 91
REMARK H PARENT 5 6 1 13 1 14 1 15 9 25 68 44 36 55
REMARK Flexibility Score: inf
ROOT
ATOM      1  C   UNL A   1      31.327  32.370  26.510  1.00  0.00     0.042 C 
ENDROOT
BRANCH   1   2
ATOM      2  C   UNL A   1      31.447  30.907  26.138  1.00  0.00     0.118 C 
BRANCH   2   3
ATOM      3  N   UNL A   1      32.680  30.303  26.578  1.00  0.00    -0.351 N 
ATOM      4  C   UNL A   1      33.425  29.312  26.023  1.00  0.00     0.281 C 
ATOM      5  O   UNL A   1      34.477  29.034  26.615  1.00  0.00    -0.268 OA
ATOM      6  H   UNL A   1      33.041  30.667  27.418  1.00  0.00     0.163 HD
BRANCH   4   7
ATOM      7  C   UNL A   1      33.012  28.521  24.721  1.00  0.00     0.175 C 
ATOM      8  C   UNL A   1      31.507  28.271  24.564  1.00  0.00     0.080 C 
ATOM      9  C   UNL A   1      33.696  27.156  24.613  1.00  0.00     0.094 C 
ATOM     10  C   UNL A   1      31.263  26.763  24.707  1.00  0.00     0.022 C 
ATOM     11  C   UNL A   1      32.604  26.079  24.446  1.00  0.00     0.059 C 
BRANCH   7  12
ATOM     12  N   UNL A   1      33.457  29.356  23.569  1.00  0.00    -0.345 N 
ATOM     13  H   UNL A   1      33.453  28.793  22.719  1.00  0.00     0.345 HD
ATOM     14  H   UNL A   1      34.401  29.702  23.744  1.00  0.00     0.345 HD
ATOM     15  H   UNL A   1      32.822  30.146  23.456  1.00  0.00     0.345 HD
ENDBRANCH   7  12
BRANCH  11  16
ATOM     16  S   UNL A   1      33.166  24.631  25.397  1.00  0.00    -0.112 SA
BRANCH  16  17
ATOM     17  C   UNL A   1      34.731  24.079  24.861  1.00  0.00     0.060 A 
ATOM     18  C   UNL A   1      35.948  24.079  25.507  1.00  0.00     0.027 A 
ATOM     19  S   UNL A   1      34.846  23.285  23.334  1.00  0.00    -0.137 S 
ATOM     20  C   UNL A   1      36.977  23.447  24.738  1.00  0.00     0.013 A 
ATOM     21  C   UNL A   1      36.509  22.967  23.536  1.00  0.00     0.066 A 
ENDBRANCH  16  17
ENDBRANCH  11  16
ENDBRANCH   4   7
ENDBRANCH   2   3
ENDBRANCH   1   2
BRANCH   1  22
ATOM     22  C   UNL A   1      32.549  32.893  27.236  1.00  0.00     0.118 C 
BRANCH  22  23
ATOM     23  N   UNL A   1      32.402  34.295  27.619  1.00  0.00    -0.352 N 
ATOM     24  C   UNL A   1      33.001  35.025  28.620  1.00  0.00     0.251 C 
ATOM     25  H   UNL A   1      31.766  34.805  27.068  1.00  0.00     0.163 HD
ATOM     26  O   UNL A   1      32.548  36.126  28.918  1.00  0.00    -0.269 OA
BRANCH  24  27
ATOM     27  C   UNL A   1      34.173  34.490  29.349  1.00  0.00     0.039 A 
ATOM     28  C   UNL A   1      33.992  33.888  30.597  1.00  0.00     0.014 A 
ATOM     29  C   UNL A   1      35.457  34.608  28.820  1.00  0.00     0.014 A 
ATOM     30  C   UNL A   1      35.089  33.341  31.270  1.00  0.00     0.010 A 
ATOM     31  C   UNL A   1      36.519  33.946  29.419  1.00  0.00     0.010 A 
ATOM     32  C   UNL A   1      36.355  33.324  30.665  1.00  0.00    -0.014 A 
BRANCH  32  33
ATOM     33  C   UNL A   1      37.542  32.714  31.318  1.00  0.00     0.031 A 
ATOM     34  C   UNL A   1      38.259  31.575  30.639  1.00  0.00     0.074 A 
ATOM     35  C   UNL A   1      37.918  33.115  32.549  1.00  0.00     0.049 A 
ATOM     36  N   UNL A   1      39.209  30.799  31.099  1.00  0.00    -0.248 NA
ATOM     37  C   UNL A   1      37.822  31.236  29.274  1.00  0.00     0.031 C 
ATOM     38  C   UNL A   1      37.273  34.169  33.332  1.00  0.00     0.029 A 
ATOM     39  N   UNL A   1      38.925  32.665  33.366  1.00  0.00    -0.354 N 
ATOM     40  C   UNL A   1      39.461  29.876  30.093  1.00  0.00     0.074 A 
ATOM     41  C   UNL A   1      38.518  30.136  29.029  1.00  0.00     0.031 C 
ATOM     42  C   UNL A   1      37.910  34.297  34.507  1.00  0.00     0.029 A 
ATOM     43  C   UNL A   1      38.975  33.303  34.582  1.00  0.00     0.049 A 
ATOM     44  H   UNL A   1      39.554  31.953  33.104  1.00  0.00     0.167 HD
ATOM     45  C   UNL A   1      40.416  28.918  30.041  1.00  0.00     0.037 A 
ATOM     46  C   UNL A   1      39.776  33.092  35.644  1.00  0.00     0.037 A 
ATOM     47  C   UNL A   1      41.375  28.684  31.086  1.00  0.00     0.049 A 
ATOM     48  C   UNL A   1      40.827  32.015  35.564  1.00  0.00     0.074 A 
ATOM     49  C   UNL A   1      42.410  27.766  31.119  1.00  0.00     0.029 A 
ATOM     50  N   UNL A   1      41.422  29.384  32.283  1.00  0.00    -0.354 N 
ATOM     51  N   UNL A   1      41.089  31.183  34.584  1.00  0.00    -0.248 NA
ATOM     52  C   UNL A   1      41.701  31.853  36.735  1.00  0.00     0.031 C 
ATOM     53  C   UNL A   1      43.058  27.882  32.352  1.00  0.00     0.029 A 
ATOM     54  C   UNL A   1      42.463  28.911  33.064  1.00  0.00     0.049 A 
ATOM     55  H   UNL A   1      40.807  30.109  32.538  1.00  0.00     0.167 HD
ATOM     56  C   UNL A   1      42.176  30.429  35.005  1.00  0.00     0.074 A 
ATOM     57  C   UNL A   1      42.534  30.910  36.323  1.00  0.00     0.031 C 
ATOM     58  C   UNL A   1      42.820  29.425  34.360  1.00  0.00     0.037 A 
BRANCH  45  59
ATOM     59  C   UNL A   1      40.489  28.069  28.805  1.00  0.00     0.064 A 
ATOM     60  C   UNL A   1      41.273  28.444  27.703  1.00  0.00     0.173 A 
ATOM     61  C   UNL A   1      39.807  26.844  28.735  1.00  0.00     0.173 A 
ATOM     62  F   UNL A   1      41.934  29.611  27.711  1.00  0.00    -0.203 F 
ATOM     63  C   UNL A   1      41.351  27.640  26.569  1.00  0.00     0.198 A 
ATOM     64  C   UNL A   1      39.916  26.025  27.614  1.00  0.00     0.198 A 
ATOM     65  F   UNL A   1      39.047  26.433  29.761  1.00  0.00    -0.203 F 
ATOM     66  F   UNL A   1      42.067  28.045  25.511  1.00  0.00    -0.200 F 
ATOM     67  C   UNL A   1      40.681  26.427  26.529  1.00  0.00     0.200 A 
ATOM     68  F   UNL A   1      39.279  24.846  27.583  1.00  0.00    -0.200 F 
ATOM     69  F   UNL A   1      40.769  25.647  25.443  1.00  0.00    -0.200 F 
ENDBRANCH  45  59
BRANCH  46  70
ATOM     70  C   UNL A   1      39.626  33.916  36.874  1.00  0.00     0.064 A 
ATOM     71  C   UNL A   1      38.831  33.480  37.943  1.00  0.00     0.173 A 
ATOM     72  C   UNL A   1      40.245  35.170  36.993  1.00  0.00     0.173 A 
ATOM     73  F   UNL A   1      38.203  32.297  37.873  1.00  0.00    -0.203 F 
ATOM     74  C   UNL A   1      38.629  34.282  39.066  1.00  0.00     0.198 A 
ATOM     75  C   UNL A   1      40.071  35.954  38.131  1.00  0.00     0.198 A 
ATOM     76  F   UNL A   1      41.022  35.632  36.002  1.00  0.00    -0.203 F 
ATOM     77  F   UNL A   1      37.810  33.868  40.043  1.00  0.00    -0.200 F 
ATOM     78  C   UNL A   1      39.252  35.516  39.161  1.00  0.00     0.200 A 
ATOM     79  F   UNL A   1      40.688  37.140  38.226  1.00  0.00    -0.200 F 
ATOM     80  F   UNL A   1      39.053  36.288  40.238  1.00  0.00    -0.200 F 
ENDBRANCH  46  70
BRANCH  58  81
ATOM     81  C   UNL A   1      44.015  28.820  35.038  1.00  0.00     0.064 A 
ATOM     82  C   UNL A   1      45.310  29.323  34.847  1.00  0.00     0.173 A 
ATOM     83  C   UNL A   1      43.850  27.755  35.939  1.00  0.00     0.173 A 
ATOM     84  F   UNL A   1      45.523  30.332  33.988  1.00  0.00    -0.203 F 
ATOM     85  C   UNL A   1      46.398  28.763  35.511  1.00  0.00     0.198 A 
ATOM     86  C   UNL A   1      44.935  27.222  36.626  1.00  0.00     0.198 A 
ATOM     87  F   UNL A   1      42.629  27.244  36.164  1.00  0.00    -0.203 F 
ATOM     88  F   UNL A   1      47.633  29.228  35.276  1.00  0.00    -0.200 F 
ATOM     89  C   UNL A   1      46.210  27.721  36.406  1.00  0.00     0.200 A 
ATOM     90  F   UNL A   1      44.747  26.226  37.503  1.00  0.00    -0.200 F 
ATOM     91  F   UNL A   1      47.257  27.194  37.054  1.00  0.00    -0.200 F 
ENDBRANCH  58  81
ENDBRANCH  32  33
ENDBRANCH  24  27
ENDBRANCH  22  23
ENDBRANCH   1  22
TORSDOF 13
ENDMDL
