MODEL 1
REMARK VINA RESULT:     -11.5      0.000      0.000
REMARK SMILES Cc1nnc(S[C@@H](C)CCO)c(C(=O)NCCCNC(=O)c2ccc(-c3c4nc(c(-c5c(F)c(F)c(F)c(F)c5F)c5ccc([nH]5)c(-c5c(F)c(F)c(F)c(F)c5F)c5nc(c(-c6c(F)c(F)c(F)c(F)c6F)c6ccc3[nH]6)C=C5)C=C4)cc2)c1C
REMARK SMILES IDX 13 1 14 2 15 3 12 5 1 6 2 7 3 8 85 9 4 10 86 11 5 12 6 13
REMARK SMILES IDX 7 14 8 15 9 16 10 17 11 18 16 20 17 21 18 22 19 23 20 24
REMARK SMILES IDX 21 26 22 27 23 28 84 29 24 30 83 31 25 32 26 33 27 34 77 35
REMARK SMILES IDX 28 36 82 37 76 38 78 39 29 40 81 41 75 42 74 43 30 45 62 46
REMARK SMILES IDX 42 47 61 48 43 49 46 50 60 51 79 52 44 53 45 54 59 56 80 57
REMARK SMILES IDX 47 58 31 59 32 60 40 61 33 62 34 63 38 64 41 65 35 66 36 67
REMARK SMILES IDX 39 68 37 69 63 70 64 71 72 72 65 73 66 74 70 75 73 76 67 77
REMARK SMILES IDX 68 78 71 79 69 80 48 81 49 82 57 83 50 84 51 85 55 86 58 87
REMARK SMILES IDX 52 88 53 89 56 90 54 91
REMARK H PARENT 15 4 11 19 19 25 78 44 46 55
REMARK Flexibility Score: inf
ROOT
ATOM      1  C   UNL A   1      32.156  29.399  24.801  1.00  0.00     0.254 C 
ATOM      2  O   UNL A   1      33.246  29.458  24.232  1.00  0.00    -0.269 OA
ATOM      3  N   UNL A   1      32.026  30.503  25.589  1.00  0.00    -0.352 N 
ATOM      4  H   UNL A   1      32.851  31.032  25.490  1.00  0.00     0.163 HD
ENDROOT
BRANCH   1   5
ATOM      5  C   UNL A   1      31.294  28.199  24.548  1.00  0.00     0.078 A 
ATOM      6  C   UNL A   1      29.877  24.965  26.097  1.00  0.00     0.069 C 
ATOM      7  C   UNL A   1      30.234  26.075  25.149  1.00  0.00     0.064 A 
ATOM      8  N   UNL A   1      29.628  26.014  23.961  1.00  0.00    -0.155 NA
ATOM      9  C   UNL A   1      31.110  27.125  25.472  1.00  0.00    -0.012 A 
ATOM     10  N   UNL A   1      29.779  27.034  23.080  1.00  0.00    -0.143 NA
ATOM     11  C   UNL A   1      31.759  27.060  26.812  1.00  0.00     0.047 C 
ATOM     12  C   UNL A   1      30.521  28.144  23.353  1.00  0.00     0.132 A 
BRANCH  12  13
ATOM     13  S   UNL A   1      29.953  29.362  22.160  1.00  0.00    -0.101 SA
BRANCH  13  14
ATOM     14  C   UNL A   1      28.548  30.413  22.729  1.00  0.00     0.052 C 
ATOM     15  C   UNL A   1      27.385  29.499  23.155  1.00  0.00     0.020 C 
BRANCH  14  16
ATOM     16  C   UNL A   1      28.826  31.623  23.635  1.00  0.00     0.043 C 
BRANCH  16  17
ATOM     17  C   UNL A   1      28.870  32.947  22.867  1.00  0.00     0.157 C 
BRANCH  17  18
ATOM     18  O   UNL A   1      29.826  33.831  23.442  1.00  0.00    -0.396 OA
ATOM     19  H   UNL A   1      29.469  34.205  24.263  1.00  0.00     0.210 HD
ENDBRANCH  17  18
ENDBRANCH  16  17
ENDBRANCH  14  16
ENDBRANCH  13  14
ENDBRANCH  12  13
ENDBRANCH   1   5
BRANCH   3  20
ATOM     20  C   UNL A   1      31.164  31.218  26.517  1.00  0.00     0.118 C 
BRANCH  20  21
ATOM     21  C   UNL A   1      31.405  32.720  26.509  1.00  0.00     0.042 C 
BRANCH  21  22
ATOM     22  C   UNL A   1      32.670  33.087  27.283  1.00  0.00     0.118 C 
BRANCH  22  23
ATOM     23  N   UNL A   1      32.630  34.477  27.735  1.00  0.00    -0.352 N 
ATOM     24  C   UNL A   1      33.132  35.013  28.897  1.00  0.00     0.251 C 
ATOM     25  H   UNL A   1      32.187  35.113  27.128  1.00  0.00     0.163 HD
ATOM     26  O   UNL A   1      32.672  36.051  29.359  1.00  0.00    -0.269 OA
BRANCH  24  27
ATOM     27  C   UNL A   1      34.249  34.328  29.571  1.00  0.00     0.039 A 
ATOM     28  C   UNL A   1      34.009  33.492  30.664  1.00  0.00     0.014 A 
ATOM     29  C   UNL A   1      35.552  34.571  29.131  1.00  0.00     0.014 A 
ATOM     30  C   UNL A   1      35.085  32.863  31.292  1.00  0.00     0.010 A 
ATOM     31  C   UNL A   1      36.610  33.885  29.701  1.00  0.00     0.010 A 
ATOM     32  C   UNL A   1      36.388  33.049  30.805  1.00  0.00    -0.014 A 
BRANCH  32  33
ATOM     33  C   UNL A   1      37.567  32.470  31.484  1.00  0.00     0.031 A 
ATOM     34  C   UNL A   1      38.311  31.351  30.811  1.00  0.00     0.074 A 
ATOM     35  C   UNL A   1      37.919  32.901  32.709  1.00  0.00     0.049 A 
ATOM     36  N   UNL A   1      39.295  30.620  31.264  1.00  0.00    -0.248 NA
ATOM     37  C   UNL A   1      37.866  30.982  29.454  1.00  0.00     0.031 C 
ATOM     38  C   UNL A   1      37.251  33.967  33.457  1.00  0.00     0.029 A 
ATOM     39  N   UNL A   1      38.924  32.485  33.543  1.00  0.00    -0.354 N 
ATOM     40  C   UNL A   1      39.587  29.717  30.250  1.00  0.00     0.074 A 
ATOM     41  C   UNL A   1      38.628  29.932  29.191  1.00  0.00     0.031 C 
ATOM     42  C   UNL A   1      37.883  34.141  34.629  1.00  0.00     0.029 A 
ATOM     43  C   UNL A   1      38.975  33.178  34.730  1.00  0.00     0.049 A 
ATOM     44  H   UNL A   1      39.548  31.761  33.315  1.00  0.00     0.167 HD
ATOM     45  C   UNL A   1      40.593  28.816  30.193  1.00  0.00     0.037 A 
ATOM     46  C   UNL A   1      39.816  33.039  35.772  1.00  0.00     0.037 A 
ATOM     47  C   UNL A   1      41.556  28.625  31.242  1.00  0.00     0.049 A 
ATOM     48  C   UNL A   1      40.891  31.986  35.702  1.00  0.00     0.074 A 
ATOM     49  C   UNL A   1      42.623  27.747  31.283  1.00  0.00     0.029 A 
ATOM     50  N   UNL A   1      41.571  29.339  32.430  1.00  0.00    -0.354 N 
ATOM     51  N   UNL A   1      41.180  31.161  34.725  1.00  0.00    -0.248 NA
ATOM     52  C   UNL A   1      41.759  31.848  36.880  1.00  0.00     0.031 C 
ATOM     53  C   UNL A   1      43.268  27.909  32.511  1.00  0.00     0.029 A 
ATOM     54  C   UNL A   1      42.629  28.917  33.217  1.00  0.00     0.049 A 
ATOM     55  H   UNL A   1      40.927  30.041  32.678  1.00  0.00     0.167 HD
ATOM     56  C   UNL A   1      42.283  30.433  35.153  1.00  0.00     0.074 A 
ATOM     57  C   UNL A   1      42.618  30.924  36.474  1.00  0.00     0.031 C 
ATOM     58  C   UNL A   1      42.957  29.446  34.515  1.00  0.00     0.037 A 
BRANCH  45  59
ATOM     59  C   UNL A   1      40.735  28.005  28.940  1.00  0.00     0.064 A 
ATOM     60  C   UNL A   1      40.003  26.820  28.762  1.00  0.00     0.173 A 
ATOM     61  C   UNL A   1      41.547  28.442  27.884  1.00  0.00     0.173 A 
ATOM     62  F   UNL A   1      39.227  26.351  29.750  1.00  0.00    -0.203 F 
ATOM     63  C   UNL A   1      40.086  26.099  27.574  1.00  0.00     0.198 A 
ATOM     64  C   UNL A   1      41.605  27.733  26.687  1.00  0.00     0.198 A 
ATOM     65  F   UNL A   1      42.267  29.567  28.006  1.00  0.00    -0.203 F 
ATOM     66  F   UNL A   1      39.401  24.956  27.438  1.00  0.00    -0.200 F 
ATOM     67  C   UNL A   1      40.877  26.563  26.534  1.00  0.00     0.200 A 
ATOM     68  F   UNL A   1      42.361  28.187  25.678  1.00  0.00    -0.200 F 
ATOM     69  F   UNL A   1      40.938  25.880  25.382  1.00  0.00    -0.200 F 
ENDBRANCH  45  59
BRANCH  46  70
ATOM     70  C   UNL A   1      39.714  33.944  36.947  1.00  0.00     0.064 A 
ATOM     71  C   UNL A   1      40.399  35.168  36.963  1.00  0.00     0.173 A 
ATOM     72  C   UNL A   1      38.959  33.606  38.080  1.00  0.00     0.173 A 
ATOM     73  F   UNL A   1      41.148  35.528  35.911  1.00  0.00    -0.203 F 
ATOM     74  C   UNL A   1      40.356  36.005  38.076  1.00  0.00     0.198 A 
ATOM     75  C   UNL A   1      38.893  34.458  39.181  1.00  0.00     0.198 A 
ATOM     76  F   UNL A   1      38.280  32.450  38.115  1.00  0.00    -0.203 F 
ATOM     77  F   UNL A   1      41.061  37.144  38.083  1.00  0.00    -0.200 F 
ATOM     78  C   UNL A   1      39.599  35.651  39.183  1.00  0.00     0.200 A 
ATOM     79  F   UNL A   1      38.149  34.120  40.243  1.00  0.00    -0.200 F 
ATOM     80  F   UNL A   1      39.558  36.456  40.253  1.00  0.00    -0.200 F 
ENDBRANCH  46  70
BRANCH  58  81
ATOM     81  C   UNL A   1      44.146  28.856  35.210  1.00  0.00     0.064 A 
ATOM     82  C   UNL A   1      44.025  27.741  36.051  1.00  0.00     0.173 A 
ATOM     83  C   UNL A   1      45.432  29.359  34.961  1.00  0.00     0.173 A 
ATOM     84  F   UNL A   1      42.814  27.233  36.327  1.00  0.00    -0.203 F 
ATOM     85  C   UNL A   1      45.147  27.159  36.630  1.00  0.00     0.198 A 
ATOM     86  C   UNL A   1      46.556  28.754  35.517  1.00  0.00     0.198 A 
ATOM     87  F   UNL A   1      45.601  30.417  34.154  1.00  0.00    -0.203 F 
ATOM     88  F   UNL A   1      45.006  26.114  37.458  1.00  0.00    -0.200 F 
ATOM     89  C   UNL A   1      46.412  27.658  36.354  1.00  0.00     0.200 A 
ATOM     90  F   UNL A   1      47.778  29.226  35.234  1.00  0.00    -0.200 F 
ATOM     91  F   UNL A   1      47.493  27.082  36.896  1.00  0.00    -0.200 F 
ENDBRANCH  58  81
ENDBRANCH  32  33
ENDBRANCH  24  27
ENDBRANCH  22  23
ENDBRANCH  21  22
ENDBRANCH  20  21
ENDBRANCH   3  20
TORSDOF 15
ENDMDL
MODEL 2
REMARK VINA RESULT:     -11.5      6.551     11.916
REMARK SMILES Cc1nnc(S[C@@H](C)CCO)c(C(=O)NCCCNC(=O)c2ccc(-c3c4nc(c(-c5c(F)c(F)c(F)c(F)c5F)c5ccc([nH]5)c(-c5c(F)c(F)c(F)c(F)c5F)c5nc(c(-c6c(F)c(F)c(F)c(F)c6F)c6ccc3[nH]6)C=C5)C=C4)cc2)c1C
REMARK SMILES IDX 13 1 14 2 15 3 12 5 1 6 2 7 3 8 85 9 4 10 86 11 5 12 6 13
REMARK SMILES IDX 7 14 8 15 9 16 10 17 11 18 16 20 17 21 18 22 19 23 20 24
REMARK SMILES IDX 21 26 22 27 23 28 84 29 24 30 83 31 25 32 26 33 27 34 77 35
REMARK SMILES IDX 28 36 82 37 76 38 78 39 29 40 81 41 75 42 74 43 30 45 62 46
REMARK SMILES IDX 42 47 61 48 43 49 46 50 60 51 79 52 44 53 45 54 59 56 80 57
REMARK SMILES IDX 47 58 31 59 32 60 40 61 33 62 34 63 38 64 41 65 35 66 36 67
REMARK SMILES IDX 39 68 37 69 63 70 64 71 72 72 65 73 66 74 70 75 73 76 67 77
REMARK SMILES IDX 68 78 71 79 69 80 48 81 49 82 57 83 50 84 51 85 55 86 58 87
REMARK SMILES IDX 52 88 53 89 56 90 54 91
REMARK H PARENT 15 4 11 19 19 25 78 44 46 55
REMARK Flexibility Score: inf
ROOT
ATOM      1  C   UNL A   1      34.742  21.440  25.773  1.00  0.00     0.254 C 
ATOM      2  O   UNL A   1      34.409  21.250  26.942  1.00  0.00    -0.269 OA
ATOM      3  N   UNL A   1      35.997  20.934  25.600  1.00  0.00    -0.352 N 
ATOM      4  H   UNL A   1      36.288  20.571  26.468  1.00  0.00     0.163 HD
ENDROOT
BRANCH   1   5
ATOM      5  C   UNL A   1      33.783  22.161  24.875  1.00  0.00     0.078 A 
ATOM      6  C   UNL A   1      33.005  25.528  23.165  1.00  0.00     0.069 C 
ATOM      7  C   UNL A   1      32.936  24.110  23.659  1.00  0.00     0.064 A 
ATOM      8  N   UNL A   1      31.932  23.389  23.154  1.00  0.00    -0.155 NA
ATOM      9  C   UNL A   1      33.861  23.551  24.557  1.00  0.00    -0.012 A 
ATOM     10  N   UNL A   1      31.855  22.064  23.433  1.00  0.00    -0.143 NA
ATOM     11  C   UNL A   1      34.912  24.468  25.085  1.00  0.00     0.047 C 
ATOM     12  C   UNL A   1      32.771  21.415  24.205  1.00  0.00     0.132 A 
BRANCH  12  13
ATOM     13  S   UNL A   1      32.538  19.679  23.805  1.00  0.00    -0.101 SA
BRANCH  13  14
ATOM     14  C   UNL A   1      33.500  18.503  24.852  1.00  0.00     0.052 C 
ATOM     15  C   UNL A   1      32.525  17.752  25.778  1.00  0.00     0.020 C 
BRANCH  14  16
ATOM     16  C   UNL A   1      34.615  17.659  24.214  1.00  0.00     0.043 C 
BRANCH  16  17
ATOM     17  C   UNL A   1      34.772  16.284  24.869  1.00  0.00     0.157 C 
BRANCH  17  18
ATOM     18  O   UNL A   1      35.887  16.271  25.754  1.00  0.00    -0.396 OA
ATOM     19  H   UNL A   1      36.708  16.217  25.240  1.00  0.00     0.210 HD
ENDBRANCH  17  18
ENDBRANCH  16  17
ENDBRANCH  14  16
ENDBRANCH  13  14
ENDBRANCH  12  13
ENDBRANCH   1   5
BRANCH   3  20
ATOM     20  C   UNL A   1      37.080  20.714  24.655  1.00  0.00     0.118 C 
BRANCH  20  21
ATOM     21  C   UNL A   1      38.044  19.627  25.105  1.00  0.00     0.042 C 
BRANCH  21  22
ATOM     22  C   UNL A   1      39.231  20.213  25.868  1.00  0.00     0.118 C 
BRANCH  22  23
ATOM     23  N   UNL A   1      40.265  19.205  26.097  1.00  0.00    -0.352 N 
ATOM     24  C   UNL A   1      41.630  19.365  26.104  1.00  0.00     0.251 C 
ATOM     25  H   UNL A   1      39.941  18.291  26.269  1.00  0.00     0.163 HD
ATOM     26  O   UNL A   1      42.373  18.419  25.871  1.00  0.00    -0.269 OA
BRANCH  24  27
ATOM     27  C   UNL A   1      42.187  20.693  26.415  1.00  0.00     0.039 A 
ATOM     28  C   UNL A   1      42.358  21.093  27.743  1.00  0.00     0.014 A 
ATOM     29  C   UNL A   1      42.491  21.560  25.363  1.00  0.00     0.014 A 
ATOM     30  C   UNL A   1      42.878  22.360  28.012  1.00  0.00     0.010 A 
ATOM     31  C   UNL A   1      43.081  22.784  25.629  1.00  0.00     0.010 A 
ATOM     32  C   UNL A   1      43.251  23.205  26.955  1.00  0.00    -0.014 A 
BRANCH  32  33
ATOM     33  C   UNL A   1      43.730  24.585  27.188  1.00  0.00     0.031 A 
ATOM     34  C   UNL A   1      42.753  25.615  27.680  1.00  0.00     0.074 A 
ATOM     35  C   UNL A   1      45.002  24.915  26.898  1.00  0.00     0.049 A 
ATOM     36  N   UNL A   1      42.917  26.901  27.845  1.00  0.00    -0.248 NA
ATOM     37  C   UNL A   1      41.394  25.137  28.002  1.00  0.00     0.031 C 
ATOM     38  C   UNL A   1      46.023  23.995  26.396  1.00  0.00     0.029 A 
ATOM     39  N   UNL A   1      45.648  26.121  26.979  1.00  0.00    -0.354 N 
ATOM     40  C   UNL A   1      41.693  27.379  28.292  1.00  0.00     0.074 A 
ATOM     41  C   UNL A   1      40.771  26.267  28.298  1.00  0.00     0.031 C 
ATOM     42  C   UNL A   1      47.177  24.666  26.241  1.00  0.00     0.029 A 
ATOM     43  C   UNL A   1      46.967  26.066  26.597  1.00  0.00     0.049 A 
ATOM     44  H   UNL A   1      45.209  26.948  27.281  1.00  0.00     0.167 HD
ATOM     45  C   UNL A   1      41.379  28.628  28.703  1.00  0.00     0.037 A 
ATOM     46  C   UNL A   1      47.891  27.043  26.546  1.00  0.00     0.037 A 
ATOM     47  C   UNL A   1      42.310  29.723  28.716  1.00  0.00     0.049 A 
ATOM     48  C   UNL A   1      47.494  28.438  26.954  1.00  0.00     0.074 A 
ATOM     49  C   UNL A   1      42.100  31.028  29.121  1.00  0.00     0.029 A 
ATOM     50  N   UNL A   1      43.634  29.630  28.315  1.00  0.00    -0.354 N 
ATOM     51  N   UNL A   1      46.344  28.873  27.409  1.00  0.00    -0.248 NA
ATOM     52  C   UNL A   1      48.527  29.478  26.845  1.00  0.00     0.031 C 
ATOM     53  C   UNL A   1      43.292  31.734  28.937  1.00  0.00     0.029 A 
ATOM     54  C   UNL A   1      44.254  30.859  28.458  1.00  0.00     0.049 A 
ATOM     55  H   UNL A   1      44.068  28.813  27.978  1.00  0.00     0.167 HD
ATOM     56  C   UNL A   1      46.524  30.224  27.674  1.00  0.00     0.074 A 
ATOM     57  C   UNL A   1      47.899  30.534  27.341  1.00  0.00     0.031 C 
ATOM     58  C   UNL A   1      45.634  31.129  28.147  1.00  0.00     0.037 A 
BRANCH  45  59
ATOM     59  C   UNL A   1      39.991  28.869  29.216  1.00  0.00     0.064 A 
ATOM     60  C   UNL A   1      38.966  29.291  28.354  1.00  0.00     0.173 A 
ATOM     61  C   UNL A   1      39.661  28.611  30.554  1.00  0.00     0.173 A 
ATOM     62  F   UNL A   1      39.237  29.569  27.070  1.00  0.00    -0.203 F 
ATOM     63  C   UNL A   1      37.664  29.454  28.816  1.00  0.00     0.198 A 
ATOM     64  C   UNL A   1      38.351  28.747  31.005  1.00  0.00     0.198 A 
ATOM     65  F   UNL A   1      40.604  28.205  31.417  1.00  0.00    -0.203 F 
ATOM     66  F   UNL A   1      36.709  29.886  27.982  1.00  0.00    -0.200 F 
ATOM     67  C   UNL A   1      37.355  29.169  30.137  1.00  0.00     0.200 A 
ATOM     68  F   UNL A   1      38.050  28.462  32.280  1.00  0.00    -0.200 F 
ATOM     69  F   UNL A   1      36.095  29.305  30.575  1.00  0.00    -0.200 F 
ENDBRANCH  45  59
BRANCH  46  70
ATOM     70  C   UNL A   1      49.288  26.738  26.143  1.00  0.00     0.064 A 
ATOM     71  C   UNL A   1      49.701  26.923  24.815  1.00  0.00     0.173 A 
ATOM     72  C   UNL A   1      50.232  26.241  27.053  1.00  0.00     0.173 A 
ATOM     73  F   UNL A   1      48.830  27.379  23.902  1.00  0.00    -0.203 F 
ATOM     74  C   UNL A   1      50.992  26.596  24.407  1.00  0.00     0.198 A 
ATOM     75  C   UNL A   1      51.533  25.942  26.651  1.00  0.00     0.198 A 
ATOM     76  F   UNL A   1      49.893  26.051  28.337  1.00  0.00    -0.203 F 
ATOM     77  F   UNL A   1      51.342  26.735  23.122  1.00  0.00    -0.200 F 
ATOM     78  C   UNL A   1      51.909  26.109  25.327  1.00  0.00     0.200 A 
ATOM     79  F   UNL A   1      52.420  25.485  27.545  1.00  0.00    -0.200 F 
ATOM     80  F   UNL A   1      53.150  25.794  24.935  1.00  0.00    -0.200 F 
ENDBRANCH  46  70
BRANCH  58  81
ATOM     81  C   UNL A   1      46.120  32.529  28.374  1.00  0.00     0.064 A 
ATOM     82  C   UNL A   1      46.007  33.513  27.383  1.00  0.00     0.173 A 
ATOM     83  C   UNL A   1      46.624  32.908  29.628  1.00  0.00     0.173 A 
ATOM     84  F   UNL A   1      45.543  33.194  26.165  1.00  0.00    -0.203 F 
ATOM     85  C   UNL A   1      46.394  34.825  27.634  1.00  0.00     0.198 A 
ATOM     86  C   UNL A   1      46.981  34.229  29.885  1.00  0.00     0.198 A 
ATOM     87  F   UNL A   1      46.739  32.005  30.612  1.00  0.00    -0.203 F 
ATOM     88  F   UNL A   1      46.311  35.744  26.661  1.00  0.00    -0.200 F 
ATOM     89  C   UNL A   1      46.870  35.184  28.886  1.00  0.00     0.200 A 
ATOM     90  F   UNL A   1      47.421  34.578  31.101  1.00  0.00    -0.200 F 
ATOM     91  F   UNL A   1      47.222  36.454  29.131  1.00  0.00    -0.200 F 
ENDBRANCH  58  81
ENDBRANCH  32  33
ENDBRANCH  24  27
ENDBRANCH  22  23
ENDBRANCH  21  22
ENDBRANCH  20  21
ENDBRANCH   3  20
TORSDOF 15
ENDMDL
MODEL 3
REMARK VINA RESULT:     -11.4      6.391     10.549
REMARK SMILES Cc1nnc(S[C@@H](C)CCO)c(C(=O)NCCCNC(=O)c2ccc(-c3c4nc(c(-c5c(F)c(F)c(F)c(F)c5F)c5ccc([nH]5)c(-c5c(F)c(F)c(F)c(F)c5F)c5nc(c(-c6c(F)c(F)c(F)c(F)c6F)c6ccc3[nH]6)C=C5)C=C4)cc2)c1C
REMARK SMILES IDX 13 1 14 2 15 3 12 5 1 6 2 7 3 8 85 9 4 10 86 11 5 12 6 13
REMARK SMILES IDX 7 14 8 15 9 16 10 17 11 18 16 20 17 21 18 22 19 23 20 24
REMARK SMILES IDX 21 26 22 27 23 28 84 29 24 30 83 31 25 32 26 33 27 34 77 35
REMARK SMILES IDX 28 36 82 37 76 38 78 39 29 40 81 41 75 42 74 43 30 45 62 46
REMARK SMILES IDX 42 47 61 48 43 49 46 50 60 51 79 52 44 53 45 54 59 56 80 57
REMARK SMILES IDX 47 58 31 59 32 60 40 61 33 62 34 63 38 64 41 65 35 66 36 67
REMARK SMILES IDX 39 68 37 69 63 70 64 71 72 72 65 73 66 74 70 75 73 76 67 77
REMARK SMILES IDX 68 78 71 79 69 80 48 81 49 82 57 83 50 84 51 85 55 86 58 87
REMARK SMILES IDX 52 88 53 89 56 90 54 91
REMARK H PARENT 15 4 11 19 19 25 78 44 46 55
REMARK Flexibility Score: inf
ROOT
ATOM      1  C   UNL A   1      34.799  21.230  25.587  1.00  0.00     0.254 C 
ATOM      2  O   UNL A   1      34.443  21.205  26.765  1.00  0.00    -0.269 OA
ATOM      3  N   UNL A   1      36.000  20.592  25.492  1.00  0.00    -0.352 N 
ATOM      4  H   UNL A   1      36.250  20.302  26.399  1.00  0.00     0.163 HD
ENDROOT
BRANCH   1   5
ATOM      5  C   UNL A   1      33.918  21.934  24.600  1.00  0.00     0.078 A 
ATOM      6  C   UNL A   1      33.393  25.209  22.632  1.00  0.00     0.069 C 
ATOM      7  C   UNL A   1      33.228  23.834  23.218  1.00  0.00     0.064 A 
ATOM      8  N   UNL A   1      32.209  23.131  22.718  1.00  0.00    -0.155 NA
ATOM      9  C   UNL A   1      34.083  23.294  24.193  1.00  0.00    -0.012 A 
ATOM     10  N   UNL A   1      32.050  21.834  23.082  1.00  0.00    -0.143 NA
ATOM     11  C   UNL A   1      35.158  24.191  24.704  1.00  0.00     0.047 C 
ATOM     12  C   UNL A   1      32.897  21.196  23.937  1.00  0.00     0.132 A 
BRANCH  12  13
ATOM     13  S   UNL A   1      32.589  19.450  23.645  1.00  0.00    -0.101 SA
BRANCH  13  14
ATOM     14  C   UNL A   1      33.523  18.300  24.744  1.00  0.00     0.052 C 
ATOM     15  C   UNL A   1      32.545  17.674  25.754  1.00  0.00     0.020 C 
BRANCH  14  16
ATOM     16  C   UNL A   1      34.567  17.351  24.134  1.00  0.00     0.043 C 
BRANCH  16  17
ATOM     17  C   UNL A   1      34.780  16.083  24.965  1.00  0.00     0.157 C 
BRANCH  17  18
ATOM     18  O   UNL A   1      35.978  16.175  25.728  1.00  0.00    -0.396 OA
ATOM     19  H   UNL A   1      36.027  17.047  26.151  1.00  0.00     0.210 HD
ENDBRANCH  17  18
ENDBRANCH  16  17
ENDBRANCH  14  16
ENDBRANCH  13  14
ENDBRANCH  12  13
ENDBRANCH   1   5
BRANCH   3  20
ATOM     20  C   UNL A   1      37.062  20.166  24.594  1.00  0.00     0.118 C 
BRANCH  20  21
ATOM     21  C   UNL A   1      38.069  19.245  25.266  1.00  0.00     0.042 C 
BRANCH  21  22
ATOM     22  C   UNL A   1      39.318  20.007  25.705  1.00  0.00     0.118 C 
BRANCH  22  23
ATOM     23  N   UNL A   1      40.422  19.092  25.995  1.00  0.00    -0.352 N 
ATOM     24  C   UNL A   1      41.763  19.376  26.097  1.00  0.00     0.251 C 
ATOM     25  H   UNL A   1      40.172  18.151  26.137  1.00  0.00     0.163 HD
ATOM     26  O   UNL A   1      42.604  18.505  25.907  1.00  0.00    -0.269 OA
BRANCH  24  27
ATOM     27  C   UNL A   1      42.174  20.744  26.458  1.00  0.00     0.039 A 
ATOM     28  C   UNL A   1      42.400  21.084  27.794  1.00  0.00     0.014 A 
ATOM     29  C   UNL A   1      42.281  21.704  25.449  1.00  0.00     0.014 A 
ATOM     30  C   UNL A   1      42.778  22.390  28.111  1.00  0.00     0.010 A 
ATOM     31  C   UNL A   1      42.733  22.976  25.754  1.00  0.00     0.010 A 
ATOM     32  C   UNL A   1      42.957  23.337  27.090  1.00  0.00    -0.014 A 
BRANCH  32  33
ATOM     33  C   UNL A   1      43.277  24.751  27.382  1.00  0.00     0.031 A 
ATOM     34  C   UNL A   1      44.679  25.238  27.145  1.00  0.00     0.074 A 
ATOM     35  C   UNL A   1      42.340  25.559  27.911  1.00  0.00     0.049 A 
ATOM     36  N   UNL A   1      45.214  26.395  27.432  1.00  0.00    -0.248 NA
ATOM     37  C   UNL A   1      45.616  24.280  26.527  1.00  0.00     0.031 C 
ATOM     38  C   UNL A   1      40.957  25.178  28.199  1.00  0.00     0.029 A 
ATOM     39  N   UNL A   1      42.417  26.868  28.307  1.00  0.00    -0.354 N 
ATOM     40  C   UNL A   1      46.539  26.304  27.027  1.00  0.00     0.074 A 
ATOM     41  C   UNL A   1      46.753  24.958  26.548  1.00  0.00     0.031 C 
ATOM     42  C   UNL A   1      40.306  26.242  28.699  1.00  0.00     0.029 A 
ATOM     43  C   UNL A   1      41.234  27.364  28.802  1.00  0.00     0.049 A 
ATOM     44  H   UNL A   1      43.240  27.403  28.245  1.00  0.00     0.167 HD
ATOM     45  C   UNL A   1      47.481  27.273  27.017  1.00  0.00     0.037 A 
ATOM     46  C   UNL A   1      40.945  28.589  29.279  1.00  0.00     0.037 A 
ATOM     47  C   UNL A   1      47.252  28.617  27.473  1.00  0.00     0.049 A 
ATOM     48  C   UNL A   1      42.033  29.630  29.309  1.00  0.00     0.074 A 
ATOM     49  C   UNL A   1      48.134  29.681  27.498  1.00  0.00     0.029 A 
ATOM     50  N   UNL A   1      46.044  29.078  27.974  1.00  0.00    -0.354 N 
ATOM     51  N   UNL A   1      43.273  29.546  28.891  1.00  0.00    -0.248 NA
ATOM     52  C   UNL A   1      41.680  30.940  29.874  1.00  0.00     0.031 C 
ATOM     53  C   UNL A   1      47.467  30.781  28.042  1.00  0.00     0.029 A 
ATOM     54  C   UNL A   1      46.159  30.414  28.317  1.00  0.00     0.049 A 
ATOM     55  H   UNL A   1      45.227  28.537  28.071  1.00  0.00     0.167 HD
ATOM     56  C   UNL A   1      43.836  30.797  29.108  1.00  0.00     0.074 A 
ATOM     57  C   UNL A   1      42.797  31.626  29.683  1.00  0.00     0.031 C 
ATOM     58  C   UNL A   1      45.098  31.223  28.858  1.00  0.00     0.037 A 
BRANCH  45  59
ATOM     59  C   UNL A   1      48.828  26.934  26.452  1.00  0.00     0.064 A 
ATOM     60  C   UNL A   1      49.832  26.384  27.264  1.00  0.00     0.173 A 
ATOM     61  C   UNL A   1      49.098  27.090  25.086  1.00  0.00     0.173 A 
ATOM     62  F   UNL A   1      49.628  26.232  28.581  1.00  0.00    -0.203 F 
ATOM     63  C   UNL A   1      51.061  26.010  26.728  1.00  0.00     0.198 A 
ATOM     64  C   UNL A   1      50.318  26.689  24.548  1.00  0.00     0.198 A 
ATOM     65  F   UNL A   1      48.172  27.612  24.268  1.00  0.00    -0.203 F 
ATOM     66  F   UNL A   1      52.015  25.514  27.528  1.00  0.00    -0.200 F 
ATOM     67  C   UNL A   1      51.298  26.150  25.369  1.00  0.00     0.200 A 
ATOM     68  F   UNL A   1      50.543  26.815  23.233  1.00  0.00    -0.200 F 
ATOM     69  F   UNL A   1      52.474  25.769  24.851  1.00  0.00    -0.200 F 
ENDBRANCH  45  59
BRANCH  46  70
ATOM     70  C   UNL A   1      39.565  28.919  29.721  1.00  0.00     0.064 A 
ATOM     71  C   UNL A   1      38.641  29.466  28.818  1.00  0.00     0.173 A 
ATOM     72  C   UNL A   1      39.143  28.723  31.044  1.00  0.00     0.173 A 
ATOM     73  F   UNL A   1      39.003  29.689  27.546  1.00  0.00    -0.203 F 
ATOM     74  C   UNL A   1      37.359  29.828  29.226  1.00  0.00     0.198 A 
ATOM     75  C   UNL A   1      37.851  29.059  31.445  1.00  0.00     0.198 A 
ATOM     76  F   UNL A   1      39.984  28.198  31.947  1.00  0.00    -0.203 F 
ATOM     77  F   UNL A   1      36.516  30.394  28.354  1.00  0.00    -0.200 F 
ATOM     78  C   UNL A   1      36.963  29.621  30.539  1.00  0.00     0.200 A 
ATOM     79  F   UNL A   1      37.467  28.844  32.710  1.00  0.00    -0.200 F 
ATOM     80  F   UNL A   1      35.732  29.970  30.932  1.00  0.00    -0.200 F 
ENDBRANCH  46  70
BRANCH  58  81
ATOM     81  C   UNL A   1      45.421  32.654  29.162  1.00  0.00     0.064 A 
ATOM     82  C   UNL A   1      45.176  33.674  28.233  1.00  0.00     0.173 A 
ATOM     83  C   UNL A   1      45.900  33.017  30.431  1.00  0.00     0.173 A 
ATOM     84  F   UNL A   1      44.730  33.374  27.004  1.00  0.00    -0.203 F 
ATOM     85  C   UNL A   1      45.412  35.006  28.557  1.00  0.00     0.198 A 
ATOM     86  C   UNL A   1      46.105  34.353  30.762  1.00  0.00     0.198 A 
ATOM     87  F   UNL A   1      46.138  32.078  31.358  1.00  0.00    -0.203 F 
ATOM     88  F   UNL A   1      45.204  35.963  27.642  1.00  0.00    -0.200 F 
ATOM     89  C   UNL A   1      45.865  35.345  29.823  1.00  0.00     0.200 A 
ATOM     90  F   UNL A   1      46.523  34.680  31.992  1.00  0.00    -0.200 F 
ATOM     91  F   UNL A   1      46.072  36.630  30.140  1.00  0.00    -0.200 F 
ENDBRANCH  58  81
ENDBRANCH  32  33
ENDBRANCH  24  27
ENDBRANCH  22  23
ENDBRANCH  21  22
ENDBRANCH  20  21
ENDBRANCH   3  20
TORSDOF 15
ENDMDL
