MODEL 1
REMARK VINA RESULT:     -12.5      0.000      0.000
REMARK SMILES O=C(CNC(=O)CN1C(=O)S/C(=C\c2cccc(Br)c2)C1=O)NCCCNC(=O)c1ccc(-c2c3nc(c(-c4c(F)c(F)c(F)c(F)c4F)c4ccc([nH]4)c(-c4c(F)c(F)c(F)c(F)c4F)c4nc(c(-c5c(F)c(F)c(F)c(F)c5F)c5ccc2[nH]5)C=C4)C=C3)cc1
REMARK SMILES IDX 24 1 23 2 1 3 2 4 3 6 4 7 5 8 6 10 7 11 8 12 9 13 21 14
REMARK SMILES IDX 10 15 11 16 12 17 22 18 13 19 14 20 15 21 20 22 16 23 18 24
REMARK SMILES IDX 17 25 19 26 25 27 26 28 27 29 28 30 29 32 30 33 31 34 92 35
REMARK SMILES IDX 32 36 91 37 33 38 34 39 35 40 85 41 36 42 90 43 84 44 86 45
REMARK SMILES IDX 37 46 89 47 83 48 82 49 38 51 70 52 50 53 69 54 51 55 54 56
REMARK SMILES IDX 68 57 87 58 52 59 53 60 67 62 88 63 55 64 39 65 40 66 48 67
REMARK SMILES IDX 41 68 42 69 46 70 49 71 43 72 44 73 47 74 45 75 71 76 72 77
REMARK SMILES IDX 80 78 73 79 74 80 78 81 81 82 75 83 76 84 79 85 77 86 56 87
REMARK SMILES IDX 57 88 65 89 58 90 59 91 63 92 66 93 60 94 61 95 64 96 62 97
REMARK H PARENT 23 5 4 9 27 31 86 50 54 61
REMARK Flexibility Score: inf
ROOT
ATOM      1  C   UNL A   1      32.829  28.484  23.527  1.00  0.00     0.117 C 
ENDROOT
BRANCH   1   2
ATOM      2  N   UNL A   1      32.252  27.266  22.969  1.00  0.00    -0.355 N 
ATOM      3  O   UNL A   1      34.028  26.685  21.626  1.00  0.00    -0.273 OA
ATOM      4  C   UNL A   1      32.935  26.419  22.114  1.00  0.00     0.239 C 
ATOM      5  H   UNL A   1      31.327  27.034  23.214  1.00  0.00     0.163 HD
BRANCH   4   6
ATOM      6  C   UNL A   1      32.165  25.146  21.719  1.00  0.00     0.216 C 
BRANCH   6   7
ATOM      7  N   UNL A   1      31.335  24.636  22.803  1.00  0.00    -0.345 N 
ATOM      8  C   UNL A   1      31.366  23.473  23.503  1.00  0.00     0.240 C 
ATOM      9  H   UNL A   1      30.616  25.250  23.080  1.00  0.00     0.164 HD
ATOM     10  O   UNL A   1      30.631  23.416  24.494  1.00  0.00    -0.273 OA
BRANCH   8  11
ATOM     11  C   UNL A   1      32.367  22.350  23.220  1.00  0.00     0.229 C 
BRANCH  11  12
ATOM     12  N   UNL A   1      33.542  22.323  24.071  1.00  0.00    -0.259 N 
ATOM     13  C   UNL A   1      33.560  21.626  25.250  1.00  0.00     0.294 C 
ATOM     14  C   UNL A   1      34.738  22.842  23.648  1.00  0.00     0.268 C 
ATOM     15  O   UNL A   1      32.649  20.977  25.728  1.00  0.00    -0.261 OA
ATOM     16  S   UNL A   1      35.124  21.782  26.024  1.00  0.00    -0.022 SA
ATOM     17  C   UNL A   1      35.786  22.601  24.677  1.00  0.00     0.083 C 
ATOM     18  O   UNL A   1      34.928  23.458  22.609  1.00  0.00    -0.268 OA
ATOM     19  C   UNL A   1      37.039  23.033  24.513  1.00  0.00     0.029 C 
BRANCH  19  20
ATOM     20  C   UNL A   1      38.110  23.026  25.517  1.00  0.00    -0.023 A 
ATOM     21  C   UNL A   1      38.296  24.109  26.373  1.00  0.00     0.008 A 
ATOM     22  C   UNL A   1      38.910  21.886  25.683  1.00  0.00     0.023 A 
ATOM     23  C   UNL A   1      39.253  24.038  27.393  1.00  0.00     0.002 A 
ATOM     24  C   UNL A   1      39.856  21.815  26.702  1.00  0.00     0.018 A 
ATOM     25  C   UNL A   1      40.028  22.888  27.565  1.00  0.00     0.016 A 
ATOM     26  Br  UNL A   1      40.873  20.235  26.902  1.00  0.00    -0.051 Br
ENDBRANCH  19  20
ENDBRANCH  11  12
ENDBRANCH   8  11
ENDBRANCH   6   7
ENDBRANCH   4   6
ENDBRANCH   1   2
BRANCH   1  27
ATOM     27  C   UNL A   1      31.862  29.274  24.423  1.00  0.00     0.042 C 
BRANCH  27  28
ATOM     28  C   UNL A   1      32.309  29.452  25.888  1.00  0.00     0.118 C 
BRANCH  28  29
ATOM     29  N   UNL A   1      32.288  30.817  26.391  1.00  0.00    -0.352 N 
ATOM     30  C   UNL A   1      33.159  31.591  27.135  1.00  0.00     0.251 C 
ATOM     31  H   UNL A   1      31.465  31.300  26.147  1.00  0.00     0.163 HD
ATOM     32  O   UNL A   1      32.870  32.783  27.262  1.00  0.00    -0.269 OA
BRANCH  30  33
ATOM     33  C   UNL A   1      34.385  31.115  27.849  1.00  0.00     0.039 A 
ATOM     34  C   UNL A   1      35.347  32.068  28.204  1.00  0.00     0.014 A 
ATOM     35  C   UNL A   1      34.748  29.787  28.010  1.00  0.00     0.014 A 
ATOM     36  C   UNL A   1      36.589  31.701  28.780  1.00  0.00     0.010 A 
ATOM     37  C   UNL A   1      35.944  29.431  28.701  1.00  0.00     0.010 A 
ATOM     38  C   UNL A   1      36.900  30.373  29.128  1.00  0.00    -0.014 A 
BRANCH  38  39
ATOM     39  C   UNL A   1      38.174  30.024  29.918  1.00  0.00     0.031 A 
ATOM     40  C   UNL A   1      38.441  30.513  31.347  1.00  0.00     0.074 A 
ATOM     41  C   UNL A   1      39.187  29.307  29.359  1.00  0.00     0.049 A 
ATOM     42  N   UNL A   1      39.487  30.297  32.126  1.00  0.00    -0.248 NA
ATOM     43  C   UNL A   1      37.445  31.393  31.967  1.00  0.00     0.031 C 
ATOM     44  C   UNL A   1      39.233  28.825  27.979  1.00  0.00     0.029 A 
ATOM     45  N   UNL A   1      40.394  28.864  29.879  1.00  0.00    -0.354 N 
ATOM     46  C   UNL A   1      39.272  31.029  33.292  1.00  0.00     0.074 A 
ATOM     47  C   UNL A   1      38.064  31.793  33.067  1.00  0.00     0.031 C 
ATOM     48  C   UNL A   1      40.369  28.142  27.769  1.00  0.00     0.029 A 
ATOM     49  C   UNL A   1      41.160  28.132  28.994  1.00  0.00     0.049 A 
ATOM     50  H   UNL A   1      40.680  29.054  30.802  1.00  0.00     0.167 HD
ATOM     51  C   UNL A   1      39.945  31.029  34.476  1.00  0.00     0.037 A 
ATOM     52  C   UNL A   1      42.347  27.499  29.124  1.00  0.00     0.037 A 
ATOM     53  C   UNL A   1      41.113  30.239  34.776  1.00  0.00     0.049 A 
ATOM     54  C   UNL A   1      43.066  27.471  30.448  1.00  0.00     0.074 A 
ATOM     55  C   UNL A   1      41.779  30.101  35.986  1.00  0.00     0.029 A 
ATOM     56  N   UNL A   1      41.795  29.454  33.864  1.00  0.00    -0.354 N 
ATOM     57  N   UNL A   1      42.745  28.046  31.578  1.00  0.00    -0.248 NA
ATOM     58  C   UNL A   1      44.299  26.667  30.520  1.00  0.00     0.031 C 
ATOM     59  C   UNL A   1      42.890  29.274  35.794  1.00  0.00     0.029 A 
ATOM     60  C   UNL A   1      42.880  28.842  34.480  1.00  0.00     0.049 A 
ATOM     61  H   UNL A   1      41.549  29.344  32.917  1.00  0.00     0.167 HD
ATOM     62  C   UNL A   1      43.692  27.622  32.505  1.00  0.00     0.074 A 
ATOM     63  C   UNL A   1      44.601  26.741  31.808  1.00  0.00     0.031 C 
ATOM     64  C   UNL A   1      43.782  27.934  33.820  1.00  0.00     0.037 A 
BRANCH  51  65
ATOM     65  C   UNL A   1      39.387  31.883  35.591  1.00  0.00     0.064 A 
ATOM     66  C   UNL A   1      38.486  31.356  36.533  1.00  0.00     0.173 A 
ATOM     67  C   UNL A   1      39.777  33.223  35.748  1.00  0.00     0.173 A 
ATOM     68  F   UNL A   1      38.087  30.078  36.441  1.00  0.00    -0.203 F 
ATOM     69  C   UNL A   1      37.947  32.151  37.541  1.00  0.00     0.198 A 
ATOM     70  C   UNL A   1      39.270  34.003  36.787  1.00  0.00     0.198 A 
ATOM     71  F   UNL A   1      40.660  33.776  34.903  1.00  0.00    -0.203 F 
ATOM     72  F   UNL A   1      37.026  31.642  38.370  1.00  0.00    -0.200 F 
ATOM     73  C   UNL A   1      38.342  33.472  37.669  1.00  0.00     0.200 A 
ATOM     74  F   UNL A   1      39.674  35.274  36.928  1.00  0.00    -0.200 F 
ATOM     75  F   UNL A   1      37.821  34.237  38.638  1.00  0.00    -0.200 F 
ENDBRANCH  51  65
BRANCH  52  76
ATOM     76  C   UNL A   1      42.923  26.741  27.971  1.00  0.00     0.064 A 
ATOM     77  C   UNL A   1      43.600  27.410  26.940  1.00  0.00     0.173 A 
ATOM     78  C   UNL A   1      42.762  25.354  27.849  1.00  0.00     0.173 A 
ATOM     79  F   UNL A   1      43.753  28.742  26.994  1.00  0.00    -0.203 F 
ATOM     80  C   UNL A   1      44.057  26.729  25.813  1.00  0.00     0.198 A 
ATOM     81  C   UNL A   1      43.250  24.668  26.735  1.00  0.00     0.198 A 
ATOM     82  F   UNL A   1      42.125  24.664  28.805  1.00  0.00    -0.203 F 
ATOM     83  F   UNL A   1      44.634  27.408  24.811  1.00  0.00    -0.200 F 
ATOM     84  C   UNL A   1      43.885  25.358  25.713  1.00  0.00     0.200 A 
ATOM     85  F   UNL A   1      43.090  23.341  26.645  1.00  0.00    -0.200 F 
ATOM     86  F   UNL A   1      44.317  24.705  24.626  1.00  0.00    -0.200 F 
ENDBRANCH  52  76
BRANCH  64  87
ATOM     87  C   UNL A   1      44.849  27.257  34.638  1.00  0.00     0.064 A 
ATOM     88  C   UNL A   1      44.626  26.048  35.315  1.00  0.00     0.173 A 
ATOM     89  C   UNL A   1      46.129  27.827  34.735  1.00  0.00     0.173 A 
ATOM     90  F   UNL A   1      43.422  25.460  35.268  1.00  0.00    -0.203 F 
ATOM     91  C   UNL A   1      45.628  25.458  36.086  1.00  0.00     0.198 A 
ATOM     92  C   UNL A   1      47.139  27.216  35.475  1.00  0.00     0.198 A 
ATOM     93  F   UNL A   1      46.407  28.980  34.105  1.00  0.00    -0.203 F 
ATOM     94  F   UNL A   1      45.369  24.337  36.772  1.00  0.00    -0.200 F 
ATOM     95  C   UNL A   1      46.885  26.039  36.160  1.00  0.00     0.200 A 
ATOM     96  F   UNL A   1      48.359  27.772  35.529  1.00  0.00    -0.200 F 
ATOM     97  F   UNL A   1      47.847  25.470  36.897  1.00  0.00    -0.200 F 
ENDBRANCH  64  87
ENDBRANCH  38  39
ENDBRANCH  30  33
ENDBRANCH  28  29
ENDBRANCH  27  28
ENDBRANCH   1  27
TORSDOF 14
ENDMDL
MODEL 2
REMARK VINA RESULT:     -12.5      4.342      9.746
REMARK SMILES O=C(CNC(=O)CN1C(=O)S/C(=C\c2cccc(Br)c2)C1=O)NCCCNC(=O)c1ccc(-c2c3nc(c(-c4c(F)c(F)c(F)c(F)c4F)c4ccc([nH]4)c(-c4c(F)c(F)c(F)c(F)c4F)c4nc(c(-c5c(F)c(F)c(F)c(F)c5F)c5ccc2[nH]5)C=C4)C=C3)cc1
REMARK SMILES IDX 24 1 23 2 1 3 2 4 3 6 4 7 5 8 6 10 7 11 8 12 9 13 21 14
REMARK SMILES IDX 10 15 11 16 12 17 22 18 13 19 14 20 15 21 20 22 16 23 18 24
REMARK SMILES IDX 17 25 19 26 25 27 26 28 27 29 28 30 29 32 30 33 31 34 92 35
REMARK SMILES IDX 32 36 91 37 33 38 34 39 35 40 85 41 36 42 90 43 84 44 86 45
REMARK SMILES IDX 37 46 89 47 83 48 82 49 38 51 70 52 50 53 69 54 51 55 54 56
REMARK SMILES IDX 68 57 87 58 52 59 53 60 67 62 88 63 55 64 39 65 40 66 48 67
REMARK SMILES IDX 41 68 42 69 46 70 49 71 43 72 44 73 47 74 45 75 71 76 72 77
REMARK SMILES IDX 80 78 73 79 74 80 78 81 81 82 75 83 76 84 79 85 77 86 56 87
REMARK SMILES IDX 57 88 65 89 58 90 59 91 63 92 66 93 60 94 61 95 64 96 62 97
REMARK H PARENT 23 5 4 9 27 31 86 50 54 61
REMARK Flexibility Score: inf
ROOT
ATOM      1  C   UNL A   1      33.639  21.208  26.592  1.00  0.00     0.117 C 
ENDROOT
BRANCH   1   2
ATOM      2  N   UNL A   1      32.962  22.162  25.721  1.00  0.00    -0.355 N 
ATOM      3  O   UNL A   1      31.803  20.631  24.452  1.00  0.00    -0.273 OA
ATOM      4  C   UNL A   1      32.033  21.795  24.763  1.00  0.00     0.239 C 
ATOM      5  H   UNL A   1      33.177  23.117  25.820  1.00  0.00     0.163 HD
BRANCH   4   6
ATOM      6  C   UNL A   1      31.378  22.972  24.019  1.00  0.00     0.216 C 
BRANCH   6   7
ATOM      7  N   UNL A   1      31.878  23.119  22.657  1.00  0.00    -0.345 N 
ATOM      8  C   UNL A   1      33.080  23.520  22.168  1.00  0.00     0.240 C 
ATOM      9  H   UNL A   1      31.221  22.884  21.963  1.00  0.00     0.164 HD
ATOM     10  O   UNL A   1      33.251  23.362  20.955  1.00  0.00    -0.273 OA
BRANCH   8  11
ATOM     11  C   UNL A   1      34.239  23.976  23.058  1.00  0.00     0.229 C 
BRANCH  11  12
ATOM     12  N   UNL A   1      34.119  25.310  23.615  1.00  0.00    -0.259 N 
ATOM     13  C   UNL A   1      33.871  26.401  22.824  1.00  0.00     0.294 C 
ATOM     14  C   UNL A   1      34.068  25.512  24.970  1.00  0.00     0.268 C 
ATOM     15  O   UNL A   1      33.733  26.409  21.615  1.00  0.00    -0.261 OA
ATOM     16  S   UNL A   1      33.767  27.850  23.802  1.00  0.00    -0.022 SA
ATOM     17  C   UNL A   1      33.855  26.957  25.258  1.00  0.00     0.083 C 
ATOM     18  O   UNL A   1      34.224  24.659  25.831  1.00  0.00    -0.268 OA
ATOM     19  C   UNL A   1      33.793  27.419  26.509  1.00  0.00     0.029 C 
BRANCH  19  20
ATOM     20  C   UNL A   1      33.773  28.825  26.928  1.00  0.00    -0.023 A 
ATOM     21  C   UNL A   1      34.884  29.409  27.533  1.00  0.00     0.008 A 
ATOM     22  C   UNL A   1      32.657  29.628  26.643  1.00  0.00     0.023 A 
ATOM     23  C   UNL A   1      34.882  30.777  27.827  1.00  0.00     0.002 A 
ATOM     24  C   UNL A   1      32.661  30.990  26.930  1.00  0.00     0.018 A 
ATOM     25  C   UNL A   1      33.775  31.572  27.518  1.00  0.00     0.016 A 
ATOM     26  Br  UNL A   1      31.144  32.026  26.484  1.00  0.00    -0.051 Br
ENDBRANCH  19  20
ENDBRANCH  11  12
ENDBRANCH   8  11
ENDBRANCH   6   7
ENDBRANCH   4   6
ENDBRANCH   1   2
BRANCH   1  27
ATOM     27  C   UNL A   1      35.142  21.482  26.761  1.00  0.00     0.042 C 
BRANCH  27  28
ATOM     28  C   UNL A   1      35.950  21.580  25.452  1.00  0.00     0.118 C 
BRANCH  28  29
ATOM     29  N   UNL A   1      37.185  20.812  25.415  1.00  0.00    -0.352 N 
ATOM     30  C   UNL A   1      38.493  21.056  25.793  1.00  0.00     0.251 C 
ATOM     31  H   UNL A   1      37.062  19.913  25.033  1.00  0.00     0.163 HD
ATOM     32  O   UNL A   1      39.271  20.101  25.742  1.00  0.00    -0.269 OA
BRANCH  30  33
ATOM     33  C   UNL A   1      39.069  22.375  26.199  1.00  0.00     0.039 A 
ATOM     34  C   UNL A   1      40.258  22.369  26.938  1.00  0.00     0.014 A 
ATOM     35  C   UNL A   1      38.424  23.597  26.085  1.00  0.00     0.014 A 
ATOM     36  C   UNL A   1      40.821  23.560  27.464  1.00  0.00     0.010 A 
ATOM     37  C   UNL A   1      39.055  24.804  26.509  1.00  0.00     0.010 A 
ATOM     38  C   UNL A   1      40.283  24.833  27.198  1.00  0.00    -0.014 A 
BRANCH  38  39
ATOM     39  C   UNL A   1      41.011  26.120  27.625  1.00  0.00     0.031 A 
ATOM     40  C   UNL A   1      42.474  26.420  27.272  1.00  0.00     0.074 A 
ATOM     41  C   UNL A   1      40.410  27.053  28.414  1.00  0.00     0.049 A 
ATOM     42  N   UNL A   1      43.214  27.470  27.582  1.00  0.00    -0.248 NA
ATOM     43  C   UNL A   1      43.219  25.400  26.527  1.00  0.00     0.031 C 
ATOM     44  C   UNL A   1      39.066  26.954  28.983  1.00  0.00     0.029 A 
ATOM     45  N   UNL A   1      40.857  28.275  28.894  1.00  0.00    -0.354 N 
ATOM     46  C   UNL A   1      44.492  27.213  27.091  1.00  0.00     0.074 A 
ATOM     47  C   UNL A   1      44.460  25.860  26.580  1.00  0.00     0.031 C 
ATOM     48  C   UNL A   1      38.788  28.056  29.696  1.00  0.00     0.029 A 
ATOM     49  C   UNL A   1      39.932  28.958  29.658  1.00  0.00     0.049 A 
ATOM     50  H   UNL A   1      41.757  28.627  28.704  1.00  0.00     0.167 HD
ATOM     51  C   UNL A   1      45.582  28.024  26.988  1.00  0.00     0.037 A 
ATOM     52  C   UNL A   1      39.960  30.171  30.254  1.00  0.00     0.037 A 
ATOM     53  C   UNL A   1      45.649  29.398  27.420  1.00  0.00     0.049 A 
ATOM     54  C   UNL A   1      41.154  31.078  30.101  1.00  0.00     0.074 A 
ATOM     55  C   UNL A   1      46.677  30.313  27.245  1.00  0.00     0.029 A 
ATOM     56  N   UNL A   1      44.651  30.060  28.114  1.00  0.00    -0.354 N 
ATOM     57  N   UNL A   1      42.289  30.859  29.489  1.00  0.00    -0.248 NA
ATOM     58  C   UNL A   1      41.050  32.422  30.696  1.00  0.00     0.031 C 
ATOM     59  C   UNL A   1      46.323  31.510  27.876  1.00  0.00     0.029 A 
ATOM     60  C   UNL A   1      45.046  31.364  28.387  1.00  0.00     0.049 A 
ATOM     61  H   UNL A   1      43.789  29.666  28.377  1.00  0.00     0.167 HD
ATOM     62  C   UNL A   1      43.001  32.052  29.567  1.00  0.00     0.074 A 
ATOM     63  C   UNL A   1      42.172  32.993  30.285  1.00  0.00     0.031 C 
ATOM     64  C   UNL A   1      44.230  32.333  29.070  1.00  0.00     0.037 A 
BRANCH  51  65
ATOM     65  C   UNL A   1      46.807  27.456  26.310  1.00  0.00     0.064 A 
ATOM     66  C   UNL A   1      46.987  27.564  24.919  1.00  0.00     0.173 A 
ATOM     67  C   UNL A   1      47.827  26.835  27.048  1.00  0.00     0.173 A 
ATOM     68  F   UNL A   1      46.052  28.160  24.163  1.00  0.00    -0.203 F 
ATOM     69  C   UNL A   1      48.100  27.013  24.290  1.00  0.00     0.198 A 
ATOM     70  C   UNL A   1      48.962  26.325  26.418  1.00  0.00     0.198 A 
ATOM     71  F   UNL A   1      47.732  26.730  28.381  1.00  0.00    -0.203 F 
ATOM     72  F   UNL A   1      48.200  27.057  22.955  1.00  0.00    -0.200 F 
ATOM     73  C   UNL A   1      49.088  26.397  25.040  1.00  0.00     0.200 A 
ATOM     74  F   UNL A   1      49.932  25.754  27.147  1.00  0.00    -0.200 F 
ATOM     75  F   UNL A   1      50.158  25.865  24.432  1.00  0.00    -0.200 F 
ENDBRANCH  51  65
BRANCH  52  76
ATOM     76  C   UNL A   1      38.765  30.667  31.002  1.00  0.00     0.064 A 
ATOM     77  C   UNL A   1      37.753  31.383  30.343  1.00  0.00     0.173 A 
ATOM     78  C   UNL A   1      38.638  30.488  32.386  1.00  0.00     0.173 A 
ATOM     79  F   UNL A   1      37.844  31.609  29.024  1.00  0.00    -0.203 F 
ATOM     80  C   UNL A   1      36.682  31.934  31.044  1.00  0.00     0.198 A 
ATOM     81  C   UNL A   1      37.547  31.013  33.083  1.00  0.00     0.198 A 
ATOM     82  F   UNL A   1      39.574  29.811  33.066  1.00  0.00    -0.203 F 
ATOM     83  F   UNL A   1      35.772  32.676  30.398  1.00  0.00    -0.200 F 
ATOM     84  C   UNL A   1      36.578  31.746  32.413  1.00  0.00     0.200 A 
ATOM     85  F   UNL A   1      37.444  30.822  34.404  1.00  0.00    -0.200 F 
ATOM     86  F   UNL A   1      35.553  32.284  33.089  1.00  0.00    -0.200 F 
ENDBRANCH  52  76
BRANCH  64  87
ATOM     87  C   UNL A   1      44.741  33.744  29.198  1.00  0.00     0.064 A 
ATOM     88  C   UNL A   1      45.563  34.154  30.259  1.00  0.00     0.173 A 
ATOM     89  C   UNL A   1      44.410  34.702  28.226  1.00  0.00     0.173 A 
ATOM     90  F   UNL A   1      45.904  33.287  31.223  1.00  0.00    -0.203 F 
ATOM     91  C   UNL A   1      45.998  35.475  30.363  1.00  0.00     0.198 A 
ATOM     92  C   UNL A   1      44.878  36.011  28.312  1.00  0.00     0.198 A 
ATOM     93  F   UNL A   1      43.633  34.369  27.183  1.00  0.00    -0.203 F 
ATOM     94  F   UNL A   1      46.729  35.855  31.420  1.00  0.00    -0.200 F 
ATOM     95  C   UNL A   1      45.662  36.400  29.387  1.00  0.00     0.200 A 
ATOM     96  F   UNL A   1      44.566  36.898  27.357  1.00  0.00    -0.200 F 
ATOM     97  F   UNL A   1      46.085  37.667  29.486  1.00  0.00    -0.200 F 
ENDBRANCH  64  87
ENDBRANCH  38  39
ENDBRANCH  30  33
ENDBRANCH  28  29
ENDBRANCH  27  28
ENDBRANCH   1  27
TORSDOF 14
ENDMDL
MODEL 3
REMARK VINA RESULT:     -12.4      0.971      1.940
REMARK SMILES O=C(CNC(=O)CN1C(=O)S/C(=C\c2cccc(Br)c2)C1=O)NCCCNC(=O)c1ccc(-c2c3nc(c(-c4c(F)c(F)c(F)c(F)c4F)c4ccc([nH]4)c(-c4c(F)c(F)c(F)c(F)c4F)c4nc(c(-c5c(F)c(F)c(F)c(F)c5F)c5ccc2[nH]5)C=C4)C=C3)cc1
REMARK SMILES IDX 24 1 23 2 1 3 2 4 3 6 4 7 5 8 6 10 7 11 8 12 9 13 21 14
REMARK SMILES IDX 10 15 11 16 12 17 22 18 13 19 14 20 15 21 20 22 16 23 18 24
REMARK SMILES IDX 17 25 19 26 25 27 26 28 27 29 28 30 29 32 30 33 31 34 92 35
REMARK SMILES IDX 32 36 91 37 33 38 34 39 35 40 85 41 36 42 90 43 84 44 86 45
REMARK SMILES IDX 37 46 89 47 83 48 82 49 38 51 70 52 50 53 69 54 51 55 54 56
REMARK SMILES IDX 68 57 87 58 52 59 53 60 67 62 88 63 55 64 39 65 40 66 48 67
REMARK SMILES IDX 41 68 42 69 46 70 49 71 43 72 44 73 47 74 45 75 71 76 72 77
REMARK SMILES IDX 80 78 73 79 74 80 78 81 81 82 75 83 76 84 79 85 77 86 56 87
REMARK SMILES IDX 57 88 65 89 58 90 59 91 63 92 66 93 60 94 61 95 64 96 62 97
REMARK H PARENT 23 5 4 9 27 31 86 50 54 61
REMARK Flexibility Score: inf
ROOT
ATOM      1  C   UNL A   1      32.490  27.189  25.699  1.00  0.00     0.117 C 
ENDROOT
BRANCH   1   2
ATOM      2  N   UNL A   1      31.842  26.041  25.075  1.00  0.00    -0.355 N 
ATOM      3  O   UNL A   1      30.421  27.216  23.698  1.00  0.00    -0.273 OA
ATOM      4  C   UNL A   1      30.906  26.150  24.062  1.00  0.00     0.239 C 
ATOM      5  H   UNL A   1      32.083  25.141  25.391  1.00  0.00     0.163 HD
BRANCH   4   6
ATOM      6  C   UNL A   1      30.418  24.806  23.490  1.00  0.00     0.216 C 
BRANCH   6   7
ATOM      7  N   UNL A   1      30.360  23.757  24.501  1.00  0.00    -0.345 N 
ATOM      8  C   UNL A   1      31.103  22.637  24.692  1.00  0.00     0.240 C 
ATOM      9  H   UNL A   1      29.649  23.885  25.169  1.00  0.00     0.164 HD
ATOM     10  O   UNL A   1      30.918  22.039  25.757  1.00  0.00    -0.273 OA
BRANCH   8  11
ATOM     11  C   UNL A   1      32.234  22.209  23.754  1.00  0.00     0.229 C 
BRANCH  11  12
ATOM     12  N   UNL A   1      33.548  22.101  24.360  1.00  0.00    -0.259 N 
ATOM     13  C   UNL A   1      34.063  20.894  24.752  1.00  0.00     0.294 C 
ATOM     14  C   UNL A   1      34.402  23.173  24.401  1.00  0.00     0.268 C 
ATOM     15  O   UNL A   1      33.524  19.807  24.662  1.00  0.00    -0.261 OA
ATOM     16  S   UNL A   1      35.667  21.107  25.424  1.00  0.00    -0.022 SA
ATOM     17  C   UNL A   1      35.704  22.761  24.992  1.00  0.00     0.083 C 
ATOM     18  O   UNL A   1      34.138  24.317  24.057  1.00  0.00    -0.268 OA
ATOM     19  C   UNL A   1      36.701  23.632  25.164  1.00  0.00     0.029 C 
BRANCH  19  20
ATOM     20  C   UNL A   1      37.953  23.403  25.895  1.00  0.00    -0.023 A 
ATOM     21  C   UNL A   1      38.447  24.354  26.785  1.00  0.00     0.008 A 
ATOM     22  C   UNL A   1      38.626  22.178  25.770  1.00  0.00     0.023 A 
ATOM     23  C   UNL A   1      39.584  24.071  27.551  1.00  0.00     0.002 A 
ATOM     24  C   UNL A   1      39.753  21.897  26.538  1.00  0.00     0.018 A 
ATOM     25  C   UNL A   1      40.234  22.839  27.436  1.00  0.00     0.016 A 
ATOM     26  Br  UNL A   1      40.591  20.212  26.355  1.00  0.00    -0.051 Br
ENDBRANCH  19  20
ENDBRANCH  11  12
ENDBRANCH   8  11
ENDBRANCH   6   7
ENDBRANCH   4   6
ENDBRANCH   1   2
BRANCH   1  27
ATOM     27  C   UNL A   1      33.669  27.751  24.888  1.00  0.00     0.042 C 
BRANCH  27  28
ATOM     28  C   UNL A   1      33.529  29.220  24.443  1.00  0.00     0.118 C 
BRANCH  28  29
ATOM     29  N   UNL A   1      32.795  30.087  25.351  1.00  0.00    -0.352 N 
ATOM     30  C   UNL A   1      33.121  30.801  26.489  1.00  0.00     0.251 C 
ATOM     31  H   UNL A   1      31.849  30.190  25.097  1.00  0.00     0.163 HD
ATOM     32  O   UNL A   1      32.258  31.560  26.934  1.00  0.00    -0.269 OA
BRANCH  30  33
ATOM     33  C   UNL A   1      34.395  30.699  27.268  1.00  0.00     0.039 A 
ATOM     34  C   UNL A   1      34.770  29.437  27.745  1.00  0.00     0.014 A 
ATOM     35  C   UNL A   1      35.133  31.776  27.734  1.00  0.00     0.014 A 
ATOM     36  C   UNL A   1      35.897  29.258  28.586  1.00  0.00     0.010 A 
ATOM     37  C   UNL A   1      36.333  31.576  28.478  1.00  0.00     0.010 A 
ATOM     38  C   UNL A   1      36.771  30.311  28.916  1.00  0.00    -0.014 A 
BRANCH  38  39
ATOM     39  C   UNL A   1      38.085  30.059  29.676  1.00  0.00     0.031 A 
ATOM     40  C   UNL A   1      38.363  30.602  31.084  1.00  0.00     0.074 A 
ATOM     41  C   UNL A   1      39.122  29.387  29.107  1.00  0.00     0.049 A 
ATOM     42  N   UNL A   1      39.441  30.469  31.837  1.00  0.00    -0.248 NA
ATOM     43  C   UNL A   1      37.334  31.439  31.709  1.00  0.00     0.031 C 
ATOM     44  C   UNL A   1      39.159  28.870  27.738  1.00  0.00     0.029 A 
ATOM     45  N   UNL A   1      40.368  29.030  29.602  1.00  0.00    -0.354 N 
ATOM     46  C   UNL A   1      39.216  31.219  32.989  1.00  0.00     0.074 A 
ATOM     47  C   UNL A   1      37.960  31.905  32.779  1.00  0.00     0.031 C 
ATOM     48  C   UNL A   1      40.327  28.249  27.514  1.00  0.00     0.029 A 
ATOM     49  C   UNL A   1      41.150  28.319  28.714  1.00  0.00     0.049 A 
ATOM     50  H   UNL A   1      40.668  29.261  30.511  1.00  0.00     0.167 HD
ATOM     51  C   UNL A   1      39.921  31.292  34.152  1.00  0.00     0.037 A 
ATOM     52  C   UNL A   1      42.376  27.760  28.825  1.00  0.00     0.037 A 
ATOM     53  C   UNL A   1      41.142  30.580  34.438  1.00  0.00     0.049 A 
ATOM     54  C   UNL A   1      43.132  27.811  30.128  1.00  0.00     0.074 A 
ATOM     55  C   UNL A   1      41.848  30.515  35.631  1.00  0.00     0.029 A 
ATOM     56  N   UNL A   1      41.843  29.811  33.527  1.00  0.00    -0.354 N 
ATOM     57  N   UNL A   1      42.810  28.397  31.251  1.00  0.00    -0.248 NA
ATOM     58  C   UNL A   1      44.412  27.082  30.184  1.00  0.00     0.031 C 
ATOM     59  C   UNL A   1      43.001  29.749  35.427  1.00  0.00     0.029 A 
ATOM     60  C   UNL A   1      42.979  29.281  34.126  1.00  0.00     0.049 A 
ATOM     61  H   UNL A   1      41.578  29.660  32.591  1.00  0.00     0.167 HD
ATOM     62  C   UNL A   1      43.806  28.055  32.160  1.00  0.00     0.074 A 
ATOM     63  C   UNL A   1      44.746  27.210  31.460  1.00  0.00     0.031 C 
ATOM     64  C   UNL A   1      43.914  28.409  33.464  1.00  0.00     0.037 A 
BRANCH  51  65
ATOM     65  C   UNL A   1      39.345  32.143  35.260  1.00  0.00     0.064 A 
ATOM     66  C   UNL A   1      39.582  33.528  35.314  1.00  0.00     0.173 A 
ATOM     67  C   UNL A   1      38.522  31.588  36.253  1.00  0.00     0.173 A 
ATOM     68  F   UNL A   1      40.350  34.117  34.385  1.00  0.00    -0.203 F 
ATOM     69  C   UNL A   1      39.079  34.307  36.353  1.00  0.00     0.198 A 
ATOM     70  C   UNL A   1      37.982  32.380  37.266  1.00  0.00     0.198 A 
ATOM     71  F   UNL A   1      38.230  30.279  36.238  1.00  0.00    -0.203 F 
ATOM     72  F   UNL A   1      39.393  35.607  36.423  1.00  0.00    -0.200 F 
ATOM     73  C   UNL A   1      38.276  33.733  37.325  1.00  0.00     0.200 A 
ATOM     74  F   UNL A   1      37.182  31.830  38.191  1.00  0.00    -0.200 F 
ATOM     75  F   UNL A   1      37.794  34.484  38.325  1.00  0.00    -0.200 F 
ENDBRANCH  51  65
BRANCH  52  76
ATOM     76  C   UNL A   1      42.963  27.005  27.676  1.00  0.00     0.064 A 
ATOM     77  C   UNL A   1      42.912  25.602  27.640  1.00  0.00     0.173 A 
ATOM     78  C   UNL A   1      43.630  27.658  26.631  1.00  0.00     0.173 A 
ATOM     79  F   UNL A   1      42.313  24.929  28.633  1.00  0.00    -0.203 F 
ATOM     80  C   UNL A   1      43.539  24.881  26.625  1.00  0.00     0.198 A 
ATOM     81  C   UNL A   1      44.229  26.935  25.597  1.00  0.00     0.198 A 
ATOM     82  F   UNL A   1      43.708  28.996  26.614  1.00  0.00    -0.203 F 
ATOM     83  F   UNL A   1      43.537  23.541  26.659  1.00  0.00    -0.200 F 
ATOM     84  C   UNL A   1      44.195  25.548  25.603  1.00  0.00     0.200 A 
ATOM     85  F   UNL A   1      44.855  27.582  24.605  1.00  0.00    -0.200 F 
ATOM     86  F   UNL A   1      44.805  24.855  24.632  1.00  0.00    -0.200 F 
ENDBRANCH  52  76
BRANCH  64  87
ATOM     87  C   UNL A   1      45.042  27.818  34.268  1.00  0.00     0.064 A 
ATOM     88  C   UNL A   1      44.917  26.606  34.963  1.00  0.00     0.173 A 
ATOM     89  C   UNL A   1      46.281  28.477  34.330  1.00  0.00     0.173 A 
ATOM     90  F   UNL A   1      43.756  25.936  34.949  1.00  0.00    -0.203 F 
ATOM     91  C   UNL A   1      45.973  26.097  35.720  1.00  0.00     0.198 A 
ATOM     92  C   UNL A   1      47.346  27.948  35.056  1.00  0.00     0.198 A 
ATOM     93  F   UNL A   1      46.465  29.637  33.681  1.00  0.00    -0.203 F 
ATOM     94  F   UNL A   1      45.806  24.970  36.425  1.00  0.00    -0.200 F 
ATOM     95  C   UNL A   1      47.188  26.765  35.760  1.00  0.00     0.200 A 
ATOM     96  F   UNL A   1      48.525  28.586  35.078  1.00  0.00    -0.200 F 
ATOM     97  F   UNL A   1      48.202  26.273  36.484  1.00  0.00    -0.200 F 
ENDBRANCH  64  87
ENDBRANCH  38  39
ENDBRANCH  30  33
ENDBRANCH  28  29
ENDBRANCH  27  28
ENDBRANCH   1  27
TORSDOF 14
ENDMDL
