MODEL 1
REMARK VINA RESULT:     -13.0      0.000      0.000
REMARK SMILES COc1cc(Cl)c2c(c1)C=C(C(=O)NCCCNC(=O)c1ccc(-c3c4nc(c(-c5c(F)c(F)c(F)c(F)c5F)c5ccc([nH]5)c(-c5c(F)c(F)c(F)c(F)c5F)c5nc(c(-c6c(F)c(F)c(F)c(F)c6F)c6ccc3[nH]6)C=C5)C=C4)cc1)[C@@H](C(F)(F)F)O2
REMARK SMILES IDX 16 1 15 2 14 3 12 4 13 5 11 7 3 8 4 9 9 10 5 11 8 12 6 13
REMARK SMILES IDX 7 14 10 15 89 16 84 17 2 18 1 19 85 20 86 21 87 22 88 23
REMARK SMILES IDX 17 24 18 25 19 26 20 28 21 29 22 30 83 31 23 32 82 33 24 34
REMARK SMILES IDX 25 35 26 36 76 37 27 38 81 39 75 40 77 41 28 42 80 43 74 44
REMARK SMILES IDX 73 45 29 47 61 48 41 49 60 50 42 51 45 52 59 53 78 54 43 55
REMARK SMILES IDX 44 56 58 58 79 59 46 60 30 61 31 62 39 63 32 64 33 65 37 66
REMARK SMILES IDX 40 67 34 68 35 69 38 70 36 71 62 72 63 73 71 74 64 75 65 76
REMARK SMILES IDX 69 77 72 78 66 79 67 80 70 81 68 82 47 83 48 84 56 85 49 86
REMARK SMILES IDX 50 87 54 88 57 89 51 90 52 91 55 92 53 93
REMARK H PARENT 14 6 18 27 77 46 45 57
REMARK Flexibility Score: inf
ROOT
ATOM      1  C   UNL A   1      31.215  31.873  26.260  1.00  0.00     0.042 C 
ENDROOT
BRANCH   1   2
ATOM      2  C   UNL A   1      31.417  30.528  25.578  1.00  0.00     0.118 C 
BRANCH   2   3
ATOM      3  N   UNL A   1      30.599  30.415  24.379  1.00  0.00    -0.352 N 
ATOM      4  C   UNL A   1      30.273  29.460  23.480  1.00  0.00     0.251 C 
ATOM      5  O   UNL A   1      29.560  29.844  22.549  1.00  0.00    -0.270 OA
ATOM      6  H   UNL A   1      30.161  31.271  24.165  1.00  0.00     0.163 HD
BRANCH   4   7
ATOM      7  C   UNL A   1      30.698  28.033  23.548  1.00  0.00     0.067 C 
ATOM      8  C   UNL A   1      30.716  23.907  26.070  1.00  0.00     0.121 A 
ATOM      9  C   UNL A   1      31.401  23.267  25.038  1.00  0.00     0.070 A 
ATOM     10  C   UNL A   1      30.305  25.234  25.911  1.00  0.00     0.058 A 
ATOM     11  C   UNL A   1      31.690  23.962  23.862  1.00  0.00     0.087 A 
ATOM     12  C   UNL A   1      30.611  25.938  24.743  1.00  0.00     0.022 A 
ATOM     13  Cl  UNL A   1      32.536  23.136  22.602  1.00  0.00    -0.080 Cl
ATOM     14  C   UNL A   1      31.310  25.300  23.717  1.00  0.00     0.146 A 
ATOM     15  C   UNL A   1      30.192  27.324  24.574  1.00  0.00     0.025 C 
ATOM     16  O   UNL A   1      31.590  25.940  22.541  1.00  0.00    -0.474 OA
ATOM     17  C   UNL A   1      31.664  27.390  22.596  1.00  0.00     0.314 C 
BRANCH   8  18
ATOM     18  O   UNL A   1      30.361  23.332  27.259  1.00  0.00    -0.497 OA
ATOM     19  C   UNL A   1      29.153  22.578  27.251  1.00  0.00     0.278 C 
ENDBRANCH   8  18
BRANCH  17  20
ATOM     20  C   UNL A   1      33.125  27.819  22.838  1.00  0.00     0.429 C 
ATOM     21  F   UNL A   1      33.332  29.076  22.376  1.00  0.00    -0.167 F 
ATOM     22  F   UNL A   1      33.449  27.837  24.153  1.00  0.00    -0.167 F 
ATOM     23  F   UNL A   1      34.014  27.006  22.227  1.00  0.00    -0.167 F 
ENDBRANCH  17  20
ENDBRANCH   4   7
ENDBRANCH   2   3
ENDBRANCH   1   2
BRANCH   1  24
ATOM     24  C   UNL A   1      32.454  32.294  27.043  1.00  0.00     0.118 C 
BRANCH  24  25
ATOM     25  N   UNL A   1      32.403  33.708  27.401  1.00  0.00    -0.352 N 
ATOM     26  C   UNL A   1      33.092  34.380  28.379  1.00  0.00     0.251 C 
ATOM     27  H   UNL A   1      31.786  34.258  26.865  1.00  0.00     0.163 HD
ATOM     28  O   UNL A   1      32.724  35.491  28.751  1.00  0.00    -0.269 OA
BRANCH  26  29
ATOM     29  C   UNL A   1      34.282  33.756  28.985  1.00  0.00     0.039 A 
ATOM     30  C   UNL A   1      35.556  34.202  28.625  1.00  0.00     0.014 A 
ATOM     31  C   UNL A   1      34.128  32.707  29.895  1.00  0.00     0.014 A 
ATOM     32  C   UNL A   1      36.678  33.624  29.219  1.00  0.00     0.010 A 
ATOM     33  C   UNL A   1      35.239  32.192  30.549  1.00  0.00     0.010 A 
ATOM     34  C   UNL A   1      36.523  32.627  30.197  1.00  0.00    -0.014 A 
BRANCH  34  35
ATOM     35  C   UNL A   1      37.697  31.964  30.806  1.00  0.00     0.031 A 
ATOM     36  C   UNL A   1      38.136  32.373  32.184  1.00  0.00     0.074 A 
ATOM     37  C   UNL A   1      38.381  31.035  30.114  1.00  0.00     0.049 A 
ATOM     38  N   UNL A   1      39.146  31.940  32.893  1.00  0.00    -0.248 NA
ATOM     39  C   UNL A   1      37.349  33.428  32.846  1.00  0.00     0.031 C 
ATOM     40  C   UNL A   1      38.068  30.593  28.754  1.00  0.00     0.029 A 
ATOM     41  N   UNL A   1      39.481  30.294  30.460  1.00  0.00    -0.354 N 
ATOM     42  C   UNL A   1      39.109  32.663  34.076  1.00  0.00     0.074 A 
ATOM     43  C   UNL A   1      38.030  33.617  33.965  1.00  0.00     0.031 C 
ATOM     44  C   UNL A   1      38.937  29.634  28.394  1.00  0.00     0.029 A 
ATOM     45  C   UNL A   1      39.880  29.411  29.487  1.00  0.00     0.049 A 
ATOM     46  H   UNL A   1      39.942  30.386  31.325  1.00  0.00     0.167 HD
ATOM     47  C   UNL A   1      39.878  32.512  35.179  1.00  0.00     0.037 A 
ATOM     48  C   UNL A   1      40.888  28.519  29.488  1.00  0.00     0.037 A 
ATOM     49  C   UNL A   1      40.926  31.538  35.296  1.00  0.00     0.049 A 
ATOM     50  C   UNL A   1      41.757  28.400  30.712  1.00  0.00     0.074 A 
ATOM     51  C   UNL A   1      41.727  31.262  36.389  1.00  0.00     0.029 A 
ATOM     52  N   UNL A   1      41.314  30.676  34.282  1.00  0.00    -0.354 N 
ATOM     53  N   UNL A   1      41.666  29.036  31.855  1.00  0.00    -0.248 NA
ATOM     54  C   UNL A   1      42.868  27.439  30.648  1.00  0.00     0.031 C 
ATOM     55  C   UNL A   1      42.626  30.256  36.024  1.00  0.00     0.029 A 
ATOM     56  C   UNL A   1      42.362  29.883  34.715  1.00  0.00     0.049 A 
ATOM     57  H   UNL A   1      40.905  30.636  33.387  1.00  0.00     0.167 HD
ATOM     58  C   UNL A   1      42.688  28.541  32.651  1.00  0.00     0.074 A 
ATOM     59  C   UNL A   1      43.381  27.540  31.867  1.00  0.00     0.031 C 
ATOM     60  C   UNL A   1      43.027  28.887  33.917  1.00  0.00     0.037 A 
BRANCH  47  61
ATOM     61  C   UNL A   1      39.585  33.391  36.356  1.00  0.00     0.064 A 
ATOM     62  C   UNL A   1      38.703  32.980  37.366  1.00  0.00     0.173 A 
ATOM     63  C   UNL A   1      40.225  34.630  36.505  1.00  0.00     0.173 A 
ATOM     64  F   UNL A   1      38.056  31.809  37.261  1.00  0.00    -0.203 F 
ATOM     65  C   UNL A   1      38.456  33.786  38.474  1.00  0.00     0.198 A 
ATOM     66  C   UNL A   1      39.996  35.423  37.626  1.00  0.00     0.198 A 
ATOM     67  F   UNL A   1      41.080  35.068  35.567  1.00  0.00    -0.203 F 
ATOM     68  F   UNL A   1      37.581  33.389  39.407  1.00  0.00    -0.200 F 
ATOM     69  C   UNL A   1      39.110  35.002  38.607  1.00  0.00     0.200 A 
ATOM     70  F   UNL A   1      40.635  36.593  37.760  1.00  0.00    -0.200 F 
ATOM     71  F   UNL A   1      38.880  35.772  39.680  1.00  0.00    -0.200 F 
ENDBRANCH  47  61
BRANCH  48  72
ATOM     72  C   UNL A   1      41.102  27.636  28.312  1.00  0.00     0.064 A 
ATOM     73  C   UNL A   1      41.972  28.020  27.281  1.00  0.00     0.173 A 
ATOM     74  C   UNL A   1      40.450  26.401  28.190  1.00  0.00     0.173 A 
ATOM     75  F   UNL A   1      42.604  29.201  27.344  1.00  0.00    -0.203 F 
ATOM     76  C   UNL A   1      42.170  27.207  26.166  1.00  0.00     0.198 A 
ATOM     77  C   UNL A   1      40.667  25.579  27.085  1.00  0.00     0.198 A 
ATOM     78  F   UNL A   1      39.611  25.987  29.150  1.00  0.00    -0.203 F 
ATOM     79  F   UNL A   1      42.979  27.616  25.179  1.00  0.00    -0.200 F 
ATOM     80  C   UNL A   1      41.522  25.986  26.072  1.00  0.00     0.200 A 
ATOM     81  F   UNL A   1      40.047  24.394  27.001  1.00  0.00    -0.200 F 
ATOM     82  F   UNL A   1      41.715  25.204  25.000  1.00  0.00    -0.200 F 
ENDBRANCH  48  72
BRANCH  60  83
ATOM     83  C   UNL A   1      44.192  28.184  34.544  1.00  0.00     0.064 A 
ATOM     84  C   UNL A   1      45.477  28.744  34.511  1.00  0.00     0.173 A 
ATOM     85  C   UNL A   1      44.001  27.006  35.280  1.00  0.00     0.173 A 
ATOM     86  F   UNL A   1      45.707  29.863  33.809  1.00  0.00    -0.203 F 
ATOM     87  C   UNL A   1      46.530  28.148  35.197  1.00  0.00     0.198 A 
ATOM     88  C   UNL A   1      45.051  26.427  35.985  1.00  0.00     0.198 A 
ATOM     89  F   UNL A   1      42.786  26.440  35.347  1.00  0.00    -0.203 F 
ATOM     90  F   UNL A   1      47.755  28.690  35.141  1.00  0.00    -0.200 F 
ATOM     91  C   UNL A   1      46.315  26.998  35.944  1.00  0.00     0.200 A 
ATOM     92  F   UNL A   1      44.837  25.327  36.720  1.00  0.00    -0.200 F 
ATOM     93  F   UNL A   1      47.324  26.444  36.627  1.00  0.00    -0.200 F 
ENDBRANCH  60  83
ENDBRANCH  34  35
ENDBRANCH  26  29
ENDBRANCH  24  25
ENDBRANCH   1  24
TORSDOF 12
ENDMDL
MODEL 2
REMARK VINA RESULT:     -12.9      0.463      7.418
REMARK SMILES COc1cc(Cl)c2c(c1)C=C(C(=O)NCCCNC(=O)c1ccc(-c3c4nc(c(-c5c(F)c(F)c(F)c(F)c5F)c5ccc([nH]5)c(-c5c(F)c(F)c(F)c(F)c5F)c5nc(c(-c6c(F)c(F)c(F)c(F)c6F)c6ccc3[nH]6)C=C5)C=C4)cc1)[C@@H](C(F)(F)F)O2
REMARK SMILES IDX 16 1 15 2 14 3 12 4 13 5 11 7 3 8 4 9 9 10 5 11 8 12 6 13
REMARK SMILES IDX 7 14 10 15 89 16 84 17 2 18 1 19 85 20 86 21 87 22 88 23
REMARK SMILES IDX 17 24 18 25 19 26 20 28 21 29 22 30 83 31 23 32 82 33 24 34
REMARK SMILES IDX 25 35 26 36 76 37 27 38 81 39 75 40 77 41 28 42 80 43 74 44
REMARK SMILES IDX 73 45 29 47 61 48 41 49 60 50 42 51 45 52 59 53 78 54 43 55
REMARK SMILES IDX 44 56 58 58 79 59 46 60 30 61 31 62 39 63 32 64 33 65 37 66
REMARK SMILES IDX 40 67 34 68 35 69 38 70 36 71 62 72 63 73 71 74 64 75 65 76
REMARK SMILES IDX 69 77 72 78 66 79 67 80 70 81 68 82 47 83 48 84 56 85 49 86
REMARK SMILES IDX 50 87 54 88 57 89 51 90 52 91 55 92 53 93
REMARK H PARENT 14 6 18 27 77 46 45 57
REMARK Flexibility Score: inf
ROOT
ATOM      1  C   UNL A   1      31.284  31.872  26.437  1.00  0.00     0.042 C 
ENDROOT
BRANCH   1   2
ATOM      2  C   UNL A   1      31.526  30.566  25.694  1.00  0.00     0.118 C 
BRANCH   2   3
ATOM      3  N   UNL A   1      30.689  30.468  24.509  1.00  0.00    -0.352 N 
ATOM      4  C   UNL A   1      30.342  29.522  23.607  1.00  0.00     0.251 C 
ATOM      5  O   UNL A   1      29.617  29.918  22.690  1.00  0.00    -0.270 OA
ATOM      6  H   UNL A   1      30.253  31.328  24.308  1.00  0.00     0.163 HD
BRANCH   4   7
ATOM      7  C   UNL A   1      30.759  28.091  23.658  1.00  0.00     0.067 C 
ATOM      8  C   UNL A   1      30.793  23.947  26.149  1.00  0.00     0.121 A 
ATOM      9  C   UNL A   1      31.455  23.310  25.101  1.00  0.00     0.070 A 
ATOM     10  C   UNL A   1      30.388  25.278  26.007  1.00  0.00     0.058 A 
ATOM     11  C   UNL A   1      31.728  24.012  23.924  1.00  0.00     0.087 A 
ATOM     12  C   UNL A   1      30.678  25.989  24.839  1.00  0.00     0.022 A 
ATOM     13  Cl  UNL A   1      32.545  23.189  22.644  1.00  0.00    -0.080 Cl
ATOM     14  C   UNL A   1      31.354  25.354  23.796  1.00  0.00     0.146 A 
ATOM     15  C   UNL A   1      30.266  27.379  24.687  1.00  0.00     0.025 C 
ATOM     16  O   UNL A   1      31.618  26.000  22.620  1.00  0.00    -0.474 OA
ATOM     17  C   UNL A   1      31.702  27.449  22.683  1.00  0.00     0.314 C 
BRANCH   8  18
ATOM     18  O   UNL A   1      30.455  23.366  27.340  1.00  0.00    -0.497 OA
ATOM     19  C   UNL A   1      29.238  22.628  27.351  1.00  0.00     0.278 C 
ENDBRANCH   8  18
BRANCH  17  20
ATOM     20  C   UNL A   1      33.171  27.866  22.903  1.00  0.00     0.429 C 
ATOM     21  F   UNL A   1      33.345  29.171  22.581  1.00  0.00    -0.167 F 
ATOM     22  F   UNL A   1      33.560  27.735  24.193  1.00  0.00    -0.167 F 
ATOM     23  F   UNL A   1      34.034  27.142  22.157  1.00  0.00    -0.167 F 
ENDBRANCH  17  20
ENDBRANCH   4   7
ENDBRANCH   2   3
ENDBRANCH   1   2
BRANCH   1  24
ATOM     24  C   UNL A   1      32.567  32.404  27.066  1.00  0.00     0.118 C 
BRANCH  24  25
ATOM     25  N   UNL A   1      32.450  33.820  27.398  1.00  0.00    -0.352 N 
ATOM     26  C   UNL A   1      33.046  34.524  28.414  1.00  0.00     0.251 C 
ATOM     27  H   UNL A   1      31.860  34.345  26.809  1.00  0.00     0.163 HD
ATOM     28  O   UNL A   1      32.621  35.630  28.741  1.00  0.00    -0.269 OA
BRANCH  26  29
ATOM     29  C   UNL A   1      34.204  33.943  29.116  1.00  0.00     0.039 A 
ATOM     30  C   UNL A   1      35.492  34.396  28.819  1.00  0.00     0.014 A 
ATOM     31  C   UNL A   1      34.008  32.925  30.053  1.00  0.00     0.014 A 
ATOM     32  C   UNL A   1      36.582  33.858  29.504  1.00  0.00     0.010 A 
ATOM     33  C   UNL A   1      35.082  32.453  30.794  1.00  0.00     0.010 A 
ATOM     34  C   UNL A   1      36.380  32.896  30.507  1.00  0.00    -0.014 A 
BRANCH  34  35
ATOM     35  C   UNL A   1      37.523  32.275  31.212  1.00  0.00     0.031 A 
ATOM     36  C   UNL A   1      38.290  31.174  30.536  1.00  0.00     0.074 A 
ATOM     37  C   UNL A   1      37.841  32.671  32.459  1.00  0.00     0.049 A 
ATOM     38  N   UNL A   1      39.305  30.480  30.980  1.00  0.00    -0.248 NA
ATOM     39  C   UNL A   1      37.840  30.781  29.189  1.00  0.00     0.031 C 
ATOM     40  C   UNL A   1      37.138  33.700  33.224  1.00  0.00     0.029 A 
ATOM     41  N   UNL A   1      38.840  32.253  33.300  1.00  0.00    -0.354 N 
ATOM     42  C   UNL A   1      39.614  29.581  29.969  1.00  0.00     0.074 A 
ATOM     43  C   UNL A   1      38.635  29.758  28.922  1.00  0.00     0.031 C 
ATOM     44  C   UNL A   1      37.748  33.857  34.412  1.00  0.00     0.029 A 
ATOM     45  C   UNL A   1      38.868  32.924  34.498  1.00  0.00     0.049 A 
ATOM     46  H   UNL A   1      39.477  31.539  33.067  1.00  0.00     0.167 HD
ATOM     47  C   UNL A   1      40.652  28.716  29.901  1.00  0.00     0.037 A 
ATOM     48  C   UNL A   1      39.712  32.800  35.539  1.00  0.00     0.037 A 
ATOM     49  C   UNL A   1      41.641  28.570  30.930  1.00  0.00     0.049 A 
ATOM     50  C   UNL A   1      40.834  31.800  35.455  1.00  0.00     0.074 A 
ATOM     51  C   UNL A   1      42.766  27.765  30.936  1.00  0.00     0.029 A 
ATOM     52  N   UNL A   1      41.624  29.252  32.138  1.00  0.00    -0.354 N 
ATOM     53  N   UNL A   1      41.163  31.007  34.463  1.00  0.00    -0.248 NA
ATOM     54  C   UNL A   1      41.704  31.675  36.634  1.00  0.00     0.031 C 
ATOM     55  C   UNL A   1      43.411  27.933  32.165  1.00  0.00     0.029 A 
ATOM     56  C   UNL A   1      42.707  28.867  32.909  1.00  0.00     0.049 A 
ATOM     57  H   UNL A   1      40.943  29.910  32.406  1.00  0.00     0.167 HD
ATOM     58  C   UNL A   1      42.284  30.309  34.887  1.00  0.00     0.074 A 
ATOM     59  C   UNL A   1      42.591  30.779  36.221  1.00  0.00     0.031 C 
ATOM     60  C   UNL A   1      42.994  29.359  34.231  1.00  0.00     0.037 A 
BRANCH  47  61
ATOM     61  C   UNL A   1      40.790  27.895  28.656  1.00  0.00     0.064 A 
ATOM     62  C   UNL A   1      40.112  26.675  28.513  1.00  0.00     0.173 A 
ATOM     63  C   UNL A   1      41.562  28.348  27.577  1.00  0.00     0.173 A 
ATOM     64  F   UNL A   1      39.371  26.193  29.523  1.00  0.00    -0.203 F 
ATOM     65  C   UNL A   1      40.217  25.929  27.343  1.00  0.00     0.198 A 
ATOM     66  C   UNL A   1      41.646  27.612  26.398  1.00  0.00     0.198 A 
ATOM     67  F   UNL A   1      42.229  29.510  27.663  1.00  0.00    -0.203 F 
ATOM     68  F   UNL A   1      39.591  24.748  27.244  1.00  0.00    -0.200 F 
ATOM     69  C   UNL A   1      40.977  26.402  26.283  1.00  0.00     0.200 A 
ATOM     70  F   UNL A   1      42.371  28.074  25.371  1.00  0.00    -0.200 F 
ATOM     71  F   UNL A   1      41.068  25.688  25.153  1.00  0.00    -0.200 F 
ENDBRANCH  47  61
BRANCH  48  72
ATOM     72  C   UNL A   1      39.559  33.676  36.730  1.00  0.00     0.064 A 
ATOM     73  C   UNL A   1      38.797  33.257  37.830  1.00  0.00     0.173 A 
ATOM     74  C   UNL A   1      40.162  34.940  36.796  1.00  0.00     0.173 A 
ATOM     75  F   UNL A   1      38.186  32.064  37.805  1.00  0.00    -0.203 F 
ATOM     76  C   UNL A   1      38.634  34.075  38.947  1.00  0.00     0.198 A 
ATOM     77  C   UNL A   1      40.017  35.747  37.923  1.00  0.00     0.198 A 
ATOM     78  F   UNL A   1      40.903  35.385  35.772  1.00  0.00    -0.203 F 
ATOM     79  F   UNL A   1      37.872  33.664  39.969  1.00  0.00    -0.200 F 
ATOM     80  C   UNL A   1      39.249  35.317  38.994  1.00  0.00     0.200 A 
ATOM     81  F   UNL A   1      40.620  36.943  37.971  1.00  0.00    -0.200 F 
ATOM     82  F   UNL A   1      39.093  36.102  40.069  1.00  0.00    -0.200 F 
ENDBRANCH  48  72
BRANCH  60  83
ATOM     83  C   UNL A   1      44.175  28.761  34.934  1.00  0.00     0.064 A 
ATOM     84  C   UNL A   1      44.049  27.585  35.684  1.00  0.00     0.173 A 
ATOM     85  C   UNL A   1      45.457  29.303  34.760  1.00  0.00     0.173 A 
ATOM     86  F   UNL A   1      42.841  27.038  35.886  1.00  0.00    -0.203 F 
ATOM     87  C   UNL A   1      45.169  26.968  36.235  1.00  0.00     0.198 A 
ATOM     88  C   UNL A   1      46.576  28.670  35.290  1.00  0.00     0.198 A 
ATOM     89  F   UNL A   1      45.626  30.423  34.041  1.00  0.00    -0.203 F 
ATOM     90  F   UNL A   1      45.027  25.852  36.962  1.00  0.00    -0.200 F 
ATOM     91  C   UNL A   1      46.432  27.504  36.026  1.00  0.00     0.200 A 
ATOM     92  F   UNL A   1      47.797  29.179  35.073  1.00  0.00    -0.200 F 
ATOM     93  F   UNL A   1      47.511  26.892  36.533  1.00  0.00    -0.200 F 
ENDBRANCH  60  83
ENDBRANCH  34  35
ENDBRANCH  26  29
ENDBRANCH  24  25
ENDBRANCH   1  24
TORSDOF 12
ENDMDL
MODEL 3
REMARK VINA RESULT:     -12.9      0.131      1.133
REMARK SMILES COc1cc(Cl)c2c(c1)C=C(C(=O)NCCCNC(=O)c1ccc(-c3c4nc(c(-c5c(F)c(F)c(F)c(F)c5F)c5ccc([nH]5)c(-c5c(F)c(F)c(F)c(F)c5F)c5nc(c(-c6c(F)c(F)c(F)c(F)c6F)c6ccc3[nH]6)C=C5)C=C4)cc1)[C@@H](C(F)(F)F)O2
REMARK SMILES IDX 16 1 15 2 14 3 12 4 13 5 11 7 3 8 4 9 9 10 5 11 8 12 6 13
REMARK SMILES IDX 7 14 10 15 89 16 84 17 2 18 1 19 85 20 86 21 87 22 88 23
REMARK SMILES IDX 17 24 18 25 19 26 20 28 21 29 22 30 83 31 23 32 82 33 24 34
REMARK SMILES IDX 25 35 26 36 76 37 27 38 81 39 75 40 77 41 28 42 80 43 74 44
REMARK SMILES IDX 73 45 29 47 61 48 41 49 60 50 42 51 45 52 59 53 78 54 43 55
REMARK SMILES IDX 44 56 58 58 79 59 46 60 30 61 31 62 39 63 32 64 33 65 37 66
REMARK SMILES IDX 40 67 34 68 35 69 38 70 36 71 62 72 63 73 71 74 64 75 65 76
REMARK SMILES IDX 69 77 72 78 66 79 67 80 70 81 68 82 47 83 48 84 56 85 49 86
REMARK SMILES IDX 50 87 54 88 57 89 51 90 52 91 55 92 53 93
REMARK H PARENT 14 6 18 27 77 46 45 57
REMARK Flexibility Score: inf
ROOT
ATOM      1  C   UNL A   1      31.254  31.912  26.318  1.00  0.00     0.042 C 
ENDROOT
BRANCH   1   2
ATOM      2  C   UNL A   1      31.426  30.550  25.661  1.00  0.00     0.118 C 
BRANCH   2   3
ATOM      3  N   UNL A   1      30.610  30.434  24.462  1.00  0.00    -0.352 N 
ATOM      4  C   UNL A   1      30.288  29.477  23.563  1.00  0.00     0.251 C 
ATOM      5  O   UNL A   1      29.576  29.859  22.630  1.00  0.00    -0.270 OA
ATOM      6  H   UNL A   1      30.170  31.289  24.245  1.00  0.00     0.163 HD
BRANCH   4   7
ATOM      7  C   UNL A   1      30.716  28.051  23.633  1.00  0.00     0.067 C 
ATOM      8  C   UNL A   1      30.743  23.930  26.162  1.00  0.00     0.121 A 
ATOM      9  C   UNL A   1      31.429  23.290  25.131  1.00  0.00     0.070 A 
ATOM     10  C   UNL A   1      30.329  25.256  26.001  1.00  0.00     0.058 A 
ATOM     11  C   UNL A   1      31.716  23.983  23.953  1.00  0.00     0.087 A 
ATOM     12  C   UNL A   1      30.633  25.958  24.832  1.00  0.00     0.022 A 
ATOM     13  Cl  UNL A   1      32.563  23.156  22.695  1.00  0.00    -0.080 Cl
ATOM     14  C   UNL A   1      31.333  25.320  23.807  1.00  0.00     0.146 A 
ATOM     15  C   UNL A   1      30.212  27.344  24.660  1.00  0.00     0.025 C 
ATOM     16  O   UNL A   1      31.612  25.958  22.629  1.00  0.00    -0.474 OA
ATOM     17  C   UNL A   1      31.682  27.409  22.681  1.00  0.00     0.314 C 
BRANCH   8  18
ATOM     18  O   UNL A   1      30.390  23.356  27.352  1.00  0.00    -0.497 OA
ATOM     19  C   UNL A   1      29.191  22.588  27.343  1.00  0.00     0.278 C 
ENDBRANCH   8  18
BRANCH  17  20
ATOM     20  C   UNL A   1      33.143  27.841  22.922  1.00  0.00     0.429 C 
ATOM     21  F   UNL A   1      33.369  29.064  22.384  1.00  0.00    -0.167 F 
ATOM     22  F   UNL A   1      33.444  27.941  24.239  1.00  0.00    -0.167 F 
ATOM     23  F   UNL A   1      34.035  26.984  22.381  1.00  0.00    -0.167 F 
ENDBRANCH  17  20
ENDBRANCH   4   7
ENDBRANCH   2   3
ENDBRANCH   1   2
BRANCH   1  24
ATOM     24  C   UNL A   1      32.506  32.326  27.083  1.00  0.00     0.118 C 
BRANCH  24  25
ATOM     25  N   UNL A   1      32.477  33.745  27.423  1.00  0.00    -0.352 N 
ATOM     26  C   UNL A   1      33.181  34.419  28.389  1.00  0.00     0.251 C 
ATOM     27  H   UNL A   1      31.866  34.297  26.883  1.00  0.00     0.163 HD
ATOM     28  O   UNL A   1      32.831  35.540  28.750  1.00  0.00    -0.269 OA
BRANCH  26  29
ATOM     29  C   UNL A   1      34.365  33.785  28.998  1.00  0.00     0.039 A 
ATOM     30  C   UNL A   1      35.642  34.246  28.669  1.00  0.00     0.014 A 
ATOM     31  C   UNL A   1      34.202  32.712  29.878  1.00  0.00     0.014 A 
ATOM     32  C   UNL A   1      36.757  33.657  29.266  1.00  0.00     0.010 A 
ATOM     33  C   UNL A   1      35.304  32.185  30.535  1.00  0.00     0.010 A 
ATOM     34  C   UNL A   1      36.592  32.635  30.216  1.00  0.00    -0.014 A 
BRANCH  34  35
ATOM     35  C   UNL A   1      37.759  31.962  30.825  1.00  0.00     0.031 A 
ATOM     36  C   UNL A   1      38.175  32.338  32.220  1.00  0.00     0.074 A 
ATOM     37  C   UNL A   1      38.458  31.053  30.121  1.00  0.00     0.049 A 
ATOM     38  N   UNL A   1      39.177  31.892  32.933  1.00  0.00    -0.248 NA
ATOM     39  C   UNL A   1      37.374  33.373  32.896  1.00  0.00     0.031 C 
ATOM     40  C   UNL A   1      38.167  30.645  28.746  1.00  0.00     0.029 A 
ATOM     41  N   UNL A   1      39.557  30.308  30.465  1.00  0.00    -0.354 N 
ATOM     42  C   UNL A   1      39.118  32.585  34.133  1.00  0.00     0.074 A 
ATOM     43  C   UNL A   1      38.038  33.537  34.029  1.00  0.00     0.031 C 
ATOM     44  C   UNL A   1      39.046  29.698  28.375  1.00  0.00     0.029 A 
ATOM     45  C   UNL A   1      39.973  29.452  29.476  1.00  0.00     0.049 A 
ATOM     46  H   UNL A   1      40.004  30.380  31.339  1.00  0.00     0.167 HD
ATOM     47  C   UNL A   1      39.872  32.410  35.243  1.00  0.00     0.037 A 
ATOM     48  C   UNL A   1      40.986  28.565  29.470  1.00  0.00     0.037 A 
ATOM     49  C   UNL A   1      40.923  31.438  35.352  1.00  0.00     0.049 A 
ATOM     50  C   UNL A   1      41.836  28.418  30.704  1.00  0.00     0.074 A 
ATOM     51  C   UNL A   1      41.708  31.138  36.450  1.00  0.00     0.029 A 
ATOM     52  N   UNL A   1      41.330  30.603  34.322  1.00  0.00    -0.354 N 
ATOM     53  N   UNL A   1      41.725  29.026  31.861  1.00  0.00    -0.248 NA
ATOM     54  C   UNL A   1      42.953  27.464  30.633  1.00  0.00     0.031 C 
ATOM     55  C   UNL A   1      42.617  30.145  36.073  1.00  0.00     0.029 A 
ATOM     56  C   UNL A   1      42.374  29.804  34.752  1.00  0.00     0.049 A 
ATOM     57  H   UNL A   1      40.935  30.583  33.421  1.00  0.00     0.167 HD
ATOM     58  C   UNL A   1      42.738  28.515  32.659  1.00  0.00     0.074 A 
ATOM     59  C   UNL A   1      43.447  27.536  31.862  1.00  0.00     0.031 C 
ATOM     60  C   UNL A   1      43.056  28.830  33.939  1.00  0.00     0.037 A 
BRANCH  47  61
ATOM     61  C   UNL A   1      39.558  33.258  36.437  1.00  0.00     0.064 A 
ATOM     62  C   UNL A   1      38.622  32.841  37.396  1.00  0.00     0.173 A 
ATOM     63  C   UNL A   1      40.228  34.470  36.654  1.00  0.00     0.173 A 
ATOM     64  F   UNL A   1      37.945  31.695  37.225  1.00  0.00    -0.203 F 
ATOM     65  C   UNL A   1      38.355  33.617  38.521  1.00  0.00     0.198 A 
ATOM     66  C   UNL A   1      39.976  35.232  37.792  1.00  0.00     0.198 A 
ATOM     67  F   UNL A   1      41.132  34.912  35.767  1.00  0.00    -0.203 F 
ATOM     68  F   UNL A   1      37.430  33.217  39.404  1.00  0.00    -0.200 F 
ATOM     69  C   UNL A   1      39.038  34.807  38.722  1.00  0.00     0.200 A 
ATOM     70  F   UNL A   1      40.644  36.377  37.992  1.00  0.00    -0.200 F 
ATOM     71  F   UNL A   1      38.788  35.548  39.811  1.00  0.00    -0.200 F 
ENDBRANCH  47  61
BRANCH  48  72
ATOM     72  C   UNL A   1      41.222  27.712  28.276  1.00  0.00     0.064 A 
ATOM     73  C   UNL A   1      40.574  26.476  28.143  1.00  0.00     0.173 A 
ATOM     74  C   UNL A   1      42.091  28.108  27.249  1.00  0.00     0.173 A 
ATOM     75  F   UNL A   1      39.748  26.047  29.108  1.00  0.00    -0.203 F 
ATOM     76  C   UNL A   1      40.798  25.661  27.034  1.00  0.00     0.198 A 
ATOM     77  C   UNL A   1      42.296  27.302  26.130  1.00  0.00     0.198 A 
ATOM     78  F   UNL A   1      42.732  29.283  27.327  1.00  0.00    -0.203 F 
ATOM     79  F   UNL A   1      40.193  24.469  26.951  1.00  0.00    -0.200 F 
ATOM     80  C   UNL A   1      41.654  26.078  26.027  1.00  0.00     0.200 A 
ATOM     81  F   UNL A   1      43.116  27.712  25.153  1.00  0.00    -0.200 F 
ATOM     82  F   UNL A   1      41.866  25.294  24.960  1.00  0.00    -0.200 F 
ENDBRANCH  48  72
BRANCH  60  83
ATOM     83  C   UNL A   1      44.215  28.117  34.566  1.00  0.00     0.064 A 
ATOM     84  C   UNL A   1      45.492  28.694  34.589  1.00  0.00     0.173 A 
ATOM     85  C   UNL A   1      44.022  26.906  35.247  1.00  0.00     0.173 A 
ATOM     86  F   UNL A   1      45.724  29.846  33.942  1.00  0.00    -0.203 F 
ATOM     87  C   UNL A   1      46.536  28.084  35.277  1.00  0.00     0.198 A 
ATOM     88  C   UNL A   1      45.062  26.312  35.954  1.00  0.00     0.198 A 
ATOM     89  F   UNL A   1      42.814  26.322  35.259  1.00  0.00    -0.203 F 
ATOM     90  F   UNL A   1      47.754  28.644  35.276  1.00  0.00    -0.200 F 
ATOM     91  C   UNL A   1      46.318  26.901  35.970  1.00  0.00     0.200 A 
ATOM     92  F   UNL A   1      44.845  25.179  36.637  1.00  0.00    -0.200 F 
ATOM     93  F   UNL A   1      47.318  26.331  36.655  1.00  0.00    -0.200 F 
ENDBRANCH  60  83
ENDBRANCH  34  35
ENDBRANCH  26  29
ENDBRANCH  24  25
ENDBRANCH   1  24
TORSDOF 12
ENDMDL
