MODEL 1
REMARK VINA RESULT:     -14.0      0.000      0.000
REMARK SMILES O=C(NCCCNC(=O)[C@@H]1C[N@@H+](C2CCN(C(=O)c3ccccc3)CC2)C[C@H]1C1CC1)c1ccc(-c2c3nc(c(-c4c(F)c(F)c(F)c(F)c4F)c4ccc([nH]4)c(-c4c(F)c(F)c(F)c(F)c4F)c4nc(c(-c5c(F)c(F)c(F)c(F)c5F)c5ccc2[nH]5)C=C4)C=C3)cc1
REMARK SMILES IDX 5 1 4 2 3 3 1 4 2 5 32 7 33 8 94 9 34 10 93 11 35 12 36 13
REMARK SMILES IDX 37 14 87 15 38 16 92 17 86 18 88 19 39 20 91 21 85 22 84 23
REMARK SMILES IDX 40 25 72 26 52 27 71 28 53 29 56 30 70 31 89 32 54 33 55 34
REMARK SMILES IDX 69 36 90 37 57 38 41 39 42 40 50 41 43 42 44 43 48 44 51 45
REMARK SMILES IDX 45 46 46 47 49 48 47 49 73 50 74 51 82 52 75 53 76 54 80 55
REMARK SMILES IDX 83 56 77 57 78 58 81 59 79 60 58 61 59 62 67 63 60 64 61 65
REMARK SMILES IDX 65 66 68 67 62 68 63 69 66 70 64 71 6 72 7 73 8 74 9 76
REMARK SMILES IDX 10 77 11 78 28 79 12 80 27 81 29 83 30 84 31 85 13 86 14 87
REMARK SMILES IDX 26 88 15 89 25 90 16 91 17 92 18 93 19 94 20 95 24 96 21 97
REMARK SMILES IDX 23 98 22 99
REMARK H PARENT 3 6 88 24 56 35 7 75 12 82
REMARK Flexibility Score: inf
ROOT
ATOM      1  C   UNL A   1      32.448  29.861  25.354  1.00  0.00     0.042 C 
ENDROOT
BRANCH   1   2
ATOM      2  C   UNL A   1      32.182  30.336  26.772  1.00  0.00     0.118 C 
BRANCH   2   3
ATOM      3  N   UNL A   1      32.187  31.792  26.897  1.00  0.00    -0.352 N 
ATOM      4  O   UNL A   1      32.725  33.833  27.664  1.00  0.00    -0.269 OA
ATOM      5  C   UNL A   1      33.044  32.659  27.535  1.00  0.00     0.251 C 
ATOM      6  H   UNL A   1      31.437  32.236  26.439  1.00  0.00     0.163 HD
BRANCH   5   7
ATOM      7  C   UNL A   1      34.331  32.184  28.090  1.00  0.00     0.039 A 
ATOM      8  C   UNL A   1      34.489  30.864  28.497  1.00  0.00     0.014 A 
ATOM      9  C   UNL A   1      35.412  33.068  28.184  1.00  0.00     0.014 A 
ATOM     10  C   UNL A   1      35.619  30.491  29.208  1.00  0.00     0.010 A 
ATOM     11  C   UNL A   1      36.611  32.647  28.772  1.00  0.00     0.010 A 
ATOM     12  C   UNL A   1      36.705  31.370  29.342  1.00  0.00    -0.014 A 
BRANCH  12  13
ATOM     13  C   UNL A   1      37.919  30.894  30.056  1.00  0.00     0.031 A 
ATOM     14  C   UNL A   1      38.152  31.227  31.505  1.00  0.00     0.074 A 
ATOM     15  C   UNL A   1      38.777  30.085  29.403  1.00  0.00     0.049 A 
ATOM     16  N   UNL A   1      39.125  30.840  32.293  1.00  0.00    -0.248 NA
ATOM     17  C   UNL A   1      37.181  32.121  32.154  1.00  0.00     0.031 C 
ATOM     18  C   UNL A   1      38.663  29.702  27.992  1.00  0.00     0.029 A 
ATOM     19  N   UNL A   1      39.882  29.401  29.841  1.00  0.00    -0.354 N 
ATOM     20  C   UNL A   1      38.902  31.467  33.511  1.00  0.00     0.074 A 
ATOM     21  C   UNL A   1      37.714  32.279  33.357  1.00  0.00     0.031 C 
ATOM     22  C   UNL A   1      39.598  28.788  27.706  1.00  0.00     0.029 A 
ATOM     23  C   UNL A   1      40.429  28.579  28.886  1.00  0.00     0.049 A 
ATOM     24  H   UNL A   1      40.248  29.492  30.750  1.00  0.00     0.167 HD
ATOM     25  C   UNL A   1      39.621  31.369  34.656  1.00  0.00     0.037 A 
ATOM     26  C   UNL A   1      41.486  27.750  28.950  1.00  0.00     0.037 A 
ATOM     27  C   UNL A   1      40.775  30.521  34.818  1.00  0.00     0.049 A 
ATOM     28  C   UNL A   1      42.252  27.647  30.236  1.00  0.00     0.074 A 
ATOM     29  C   UNL A   1      41.548  30.322  35.949  1.00  0.00     0.029 A 
ATOM     30  N   UNL A   1      41.317  29.726  33.819  1.00  0.00    -0.354 N 
ATOM     31  N   UNL A   1      42.020  28.236  31.384  1.00  0.00    -0.248 NA
ATOM     32  C   UNL A   1      43.429  26.771  30.233  1.00  0.00     0.031 C 
ATOM     33  C   UNL A   1      42.582  29.437  35.624  1.00  0.00     0.029 A 
ATOM     34  C   UNL A   1      42.426  29.048  34.303  1.00  0.00     0.049 A 
ATOM     35  H   UNL A   1      40.967  29.655  32.902  1.00  0.00     0.167 HD
ATOM     36  C   UNL A   1      43.012  27.791  32.245  1.00  0.00     0.074 A 
ATOM     37  C   UNL A   1      43.834  26.864  31.492  1.00  0.00     0.031 C 
ATOM     38  C   UNL A   1      43.227  28.125  33.541  1.00  0.00     0.037 A 
BRANCH  25  39
ATOM     39  C   UNL A   1      39.198  32.215  35.822  1.00  0.00     0.064 A 
ATOM     40  C   UNL A   1      38.321  31.739  36.808  1.00  0.00     0.173 A 
ATOM     41  C   UNL A   1      39.715  33.512  35.977  1.00  0.00     0.173 A 
ATOM     42  F   UNL A   1      37.790  30.511  36.703  1.00  0.00    -0.203 F 
ATOM     43  C   UNL A   1      37.958  32.537  37.891  1.00  0.00     0.198 A 
ATOM     44  C   UNL A   1      39.373  34.296  37.076  1.00  0.00     0.198 A 
ATOM     45  F   UNL A   1      40.563  34.014  35.068  1.00  0.00    -0.203 F 
ATOM     46  F   UNL A   1      37.086  32.077  38.799  1.00  0.00    -0.200 F 
ATOM     47  C   UNL A   1      38.489  33.811  38.028  1.00  0.00     0.200 A 
ATOM     48  F   UNL A   1      39.897  35.521  37.213  1.00  0.00    -0.200 F 
ATOM     49  F   UNL A   1      38.146  34.574  39.075  1.00  0.00    -0.200 F 
ENDBRANCH  25  39
BRANCH  26  50
ATOM     50  C   UNL A   1      41.872  26.951  27.756  1.00  0.00     0.064 A 
ATOM     51  C   UNL A   1      42.791  27.448  26.823  1.00  0.00     0.173 A 
ATOM     52  C   UNL A   1      41.343  25.671  27.536  1.00  0.00     0.173 A 
ATOM     53  F   UNL A   1      43.310  28.675  26.980  1.00  0.00    -0.203 F 
ATOM     54  C   UNL A   1      43.156  26.699  25.706  1.00  0.00     0.198 A 
ATOM     55  C   UNL A   1      41.734  24.910  26.437  1.00  0.00     0.198 A 
ATOM     56  F   UNL A   1      40.466  25.148  28.404  1.00  0.00    -0.203 F 
ATOM     57  F   UNL A   1      44.007  27.213  24.807  1.00  0.00    -0.200 F 
ATOM     58  C   UNL A   1      42.633  25.428  25.519  1.00  0.00     0.200 A 
ATOM     59  F   UNL A   1      41.242  23.675  26.271  1.00  0.00    -0.200 F 
ATOM     60  F   UNL A   1      42.995  24.704  24.451  1.00  0.00    -0.200 F 
ENDBRANCH  26  50
BRANCH  38  61
ATOM     61  C   UNL A   1      44.377  27.454  34.230  1.00  0.00     0.064 A 
ATOM     62  C   UNL A   1      44.240  26.198  34.839  1.00  0.00     0.173 A 
ATOM     63  C   UNL A   1      45.636  28.072  34.270  1.00  0.00     0.173 A 
ATOM     64  F   UNL A   1      43.050  25.577  34.843  1.00  0.00    -0.203 F 
ATOM     65  C   UNL A   1      45.312  25.599  35.491  1.00  0.00     0.198 A 
ATOM     66  C   UNL A   1      46.715  27.457  34.898  1.00  0.00     0.198 A 
ATOM     67  F   UNL A   1      45.820  29.271  33.697  1.00  0.00    -0.203 F 
ATOM     68  F   UNL A   1      45.145  24.425  36.115  1.00  0.00    -0.200 F 
ATOM     69  C   UNL A   1      46.549  26.226  35.516  1.00  0.00     0.200 A 
ATOM     70  F   UNL A   1      47.912  28.058  34.912  1.00  0.00    -0.200 F 
ATOM     71  F   UNL A   1      47.582  25.648  36.145  1.00  0.00    -0.200 F 
ENDBRANCH  38  61
ENDBRANCH  12  13
ENDBRANCH   5   7
ENDBRANCH   2   3
ENDBRANCH   1   2
BRANCH   1  72
ATOM     72  C   UNL A   1      33.707  29.026  25.231  1.00  0.00     0.117 C 
BRANCH  72  73
ATOM     73  N   UNL A   1      34.090  28.745  23.855  1.00  0.00    -0.356 N 
ATOM     74  C   UNL A   1      33.612  27.795  22.994  1.00  0.00     0.229 C 
ATOM     75  H   UNL A   1      34.797  29.324  23.490  1.00  0.00     0.163 HD
ATOM     76  O   UNL A   1      33.927  27.873  21.807  1.00  0.00    -0.275 OA
BRANCH  74  77
ATOM     77  C   UNL A   1      32.781  26.658  23.542  1.00  0.00     0.142 C 
ATOM     78  C   UNL A   1      33.392  25.335  23.094  1.00  0.00     0.276 C 
ATOM     79  C   UNL A   1      31.353  26.534  23.039  1.00  0.00     0.065 C 
ATOM     80  N   UNL A   1      32.379  24.328  23.408  1.00  0.00    -0.331 N 
ATOM     81  C   UNL A   1      31.079  25.018  23.215  1.00  0.00     0.267 C 
ATOM     82  H   UNL A   1      32.520  23.536  22.780  1.00  0.00     0.348 HD
BRANCH  79  83
ATOM     83  C   UNL A   1      30.274  27.354  23.715  1.00  0.00    -0.001 C 
ATOM     84  C   UNL A   1      29.263  28.203  22.980  1.00  0.00     0.004 C 
ATOM     85  C   UNL A   1      28.819  26.959  23.703  1.00  0.00     0.004 C 
ENDBRANCH  79  83
BRANCH  80  86
ATOM     86  C   UNL A   1      32.477  23.605  24.695  1.00  0.00     0.187 C 
ATOM     87  C   UNL A   1      33.853  23.428  25.351  1.00  0.00     0.086 C 
ATOM     88  C   UNL A   1      31.753  22.245  24.702  1.00  0.00     0.086 C 
ATOM     89  C   UNL A   1      34.674  22.276  24.792  1.00  0.00     0.126 C 
ATOM     90  C   UNL A   1      32.574  21.048  24.228  1.00  0.00     0.126 C 
ATOM     91  N   UNL A   1      33.952  21.017  24.728  1.00  0.00    -0.338 N 
ATOM     92  C   UNL A   1      34.732  19.860  24.823  1.00  0.00     0.253 C 
ATOM     93  O   UNL A   1      35.943  19.874  25.039  1.00  0.00    -0.269 OA
BRANCH  92  94
ATOM     94  C   UNL A   1      34.095  18.539  24.690  1.00  0.00     0.040 A 
ATOM     95  C   UNL A   1      33.096  18.199  25.606  1.00  0.00     0.014 A 
ATOM     96  C   UNL A   1      34.531  17.617  23.734  1.00  0.00     0.014 A 
ATOM     97  C   UNL A   1      32.500  16.942  25.541  1.00  0.00     0.001 A 
ATOM     98  C   UNL A   1      33.928  16.361  23.671  1.00  0.00     0.001 A 
ATOM     99  C   UNL A   1      32.912  16.026  24.571  1.00  0.00     0.000 A 
ENDBRANCH  92  94
ENDBRANCH  80  86
ENDBRANCH  74  77
ENDBRANCH  72  73
ENDBRANCH   1  72
TORSDOF 13
ENDMDL
MODEL 2
REMARK VINA RESULT:     -14.0      0.234      1.566
REMARK SMILES O=C(NCCCNC(=O)[C@@H]1C[N@@H+](C2CCN(C(=O)c3ccccc3)CC2)C[C@H]1C1CC1)c1ccc(-c2c3nc(c(-c4c(F)c(F)c(F)c(F)c4F)c4ccc([nH]4)c(-c4c(F)c(F)c(F)c(F)c4F)c4nc(c(-c5c(F)c(F)c(F)c(F)c5F)c5ccc2[nH]5)C=C4)C=C3)cc1
REMARK SMILES IDX 5 1 4 2 3 3 1 4 2 5 32 7 33 8 94 9 34 10 93 11 35 12 36 13
REMARK SMILES IDX 37 14 87 15 38 16 92 17 86 18 88 19 39 20 91 21 85 22 84 23
REMARK SMILES IDX 40 25 72 26 52 27 71 28 53 29 56 30 70 31 89 32 54 33 55 34
REMARK SMILES IDX 69 36 90 37 57 38 41 39 42 40 50 41 43 42 44 43 48 44 51 45
REMARK SMILES IDX 45 46 46 47 49 48 47 49 73 50 74 51 82 52 75 53 76 54 80 55
REMARK SMILES IDX 83 56 77 57 78 58 81 59 79 60 58 61 59 62 67 63 60 64 61 65
REMARK SMILES IDX 65 66 68 67 62 68 63 69 66 70 64 71 6 72 7 73 8 74 9 76
REMARK SMILES IDX 10 77 11 78 28 79 12 80 27 81 29 83 30 84 31 85 13 86 14 87
REMARK SMILES IDX 26 88 15 89 25 90 16 91 17 92 18 93 19 94 20 95 24 96 21 97
REMARK SMILES IDX 23 98 22 99
REMARK H PARENT 3 6 88 24 56 35 7 75 12 82
REMARK Flexibility Score: inf
ROOT
ATOM      1  C   UNL A   1      32.605  29.706  25.344  1.00  0.00     0.042 C 
ENDROOT
BRANCH   1   2
ATOM      2  C   UNL A   1      32.416  30.213  26.762  1.00  0.00     0.118 C 
BRANCH   2   3
ATOM      3  N   UNL A   1      32.443  31.672  26.857  1.00  0.00    -0.352 N 
ATOM      4  O   UNL A   1      33.010  33.720  27.582  1.00  0.00    -0.269 OA
ATOM      5  C   UNL A   1      33.311  32.539  27.479  1.00  0.00     0.251 C 
ATOM      6  H   UNL A   1      31.702  32.117  26.386  1.00  0.00     0.163 HD
BRANCH   5   7
ATOM      7  C   UNL A   1      34.589  32.056  28.049  1.00  0.00     0.039 A 
ATOM      8  C   UNL A   1      34.721  30.747  28.499  1.00  0.00     0.014 A 
ATOM      9  C   UNL A   1      35.688  32.920  28.114  1.00  0.00     0.014 A 
ATOM     10  C   UNL A   1      35.843  30.374  29.221  1.00  0.00     0.010 A 
ATOM     11  C   UNL A   1      36.878  32.495  28.715  1.00  0.00     0.010 A 
ATOM     12  C   UNL A   1      36.947  31.235  29.326  1.00  0.00    -0.014 A 
BRANCH  12  13
ATOM     13  C   UNL A   1      38.152  30.758  30.055  1.00  0.00     0.031 A 
ATOM     14  C   UNL A   1      38.378  31.109  31.500  1.00  0.00     0.074 A 
ATOM     15  C   UNL A   1      39.006  29.932  29.419  1.00  0.00     0.049 A 
ATOM     16  N   UNL A   1      39.342  30.724  32.300  1.00  0.00    -0.248 NA
ATOM     17  C   UNL A   1      37.411  32.022  32.130  1.00  0.00     0.031 C 
ATOM     18  C   UNL A   1      38.897  29.529  28.014  1.00  0.00     0.029 A 
ATOM     19  N   UNL A   1      40.102  29.244  29.874  1.00  0.00    -0.354 N 
ATOM     20  C   UNL A   1      39.117  31.371  33.509  1.00  0.00     0.074 A 
ATOM     21  C   UNL A   1      37.938  32.191  33.334  1.00  0.00     0.031 C 
ATOM     22  C   UNL A   1      39.826  28.602  27.747  1.00  0.00     0.029 A 
ATOM     23  C   UNL A   1      40.647  28.402  28.935  1.00  0.00     0.049 A 
ATOM     24  H   UNL A   1      40.462  29.344  30.785  1.00  0.00     0.167 HD
ATOM     25  C   UNL A   1      39.828  31.282  34.659  1.00  0.00     0.037 A 
ATOM     26  C   UNL A   1      41.696  27.565  29.017  1.00  0.00     0.037 A 
ATOM     27  C   UNL A   1      40.972  30.426  34.841  1.00  0.00     0.049 A 
ATOM     28  C   UNL A   1      42.452  27.473  30.310  1.00  0.00     0.074 A 
ATOM     29  C   UNL A   1      41.736  30.235  35.980  1.00  0.00     0.029 A 
ATOM     30  N   UNL A   1      41.514  29.612  33.857  1.00  0.00    -0.354 N 
ATOM     31  N   UNL A   1      42.219  28.080  31.448  1.00  0.00    -0.248 NA
ATOM     32  C   UNL A   1      43.621  26.586  30.328  1.00  0.00     0.031 C 
ATOM     33  C   UNL A   1      42.764  29.336  35.674  1.00  0.00     0.029 A 
ATOM     34  C   UNL A   1      42.613  28.930  34.358  1.00  0.00     0.049 A 
ATOM     35  H   UNL A   1      41.169  29.530  32.939  1.00  0.00     0.167 HD
ATOM     36  C   UNL A   1      43.200  27.638  32.322  1.00  0.00     0.074 A 
ATOM     37  C   UNL A   1      44.018  26.693  31.588  1.00  0.00     0.031 C 
ATOM     38  C   UNL A   1      43.410  27.989  33.614  1.00  0.00     0.037 A 
BRANCH  25  39
ATOM     39  C   UNL A   1      39.405  32.149  35.810  1.00  0.00     0.064 A 
ATOM     40  C   UNL A   1      38.461  31.722  36.756  1.00  0.00     0.173 A 
ATOM     41  C   UNL A   1      39.988  33.413  35.993  1.00  0.00     0.173 A 
ATOM     42  F   UNL A   1      37.866  30.527  36.624  1.00  0.00    -0.203 F 
ATOM     43  C   UNL A   1      38.100  32.538  37.827  1.00  0.00     0.198 A 
ATOM     44  C   UNL A   1      39.646  34.213  37.080  1.00  0.00     0.198 A 
ATOM     45  F   UNL A   1      40.902  33.868  35.123  1.00  0.00    -0.203 F 
ATOM     46  F   UNL A   1      37.164  32.126  38.695  1.00  0.00    -0.200 F 
ATOM     47  C   UNL A   1      38.696  33.779  37.992  1.00  0.00     0.200 A 
ATOM     48  F   UNL A   1      40.234  35.406  37.244  1.00  0.00    -0.200 F 
ATOM     49  F   UNL A   1      38.353  34.557  39.027  1.00  0.00    -0.200 F 
ENDBRANCH  25  39
BRANCH  26  50
ATOM     50  C   UNL A   1      42.082  26.746  27.838  1.00  0.00     0.064 A 
ATOM     51  C   UNL A   1      41.477  25.506  27.593  1.00  0.00     0.173 A 
ATOM     52  C   UNL A   1      43.048  27.194  26.926  1.00  0.00     0.173 A 
ATOM     53  F   UNL A   1      40.561  25.026  28.447  1.00  0.00    -0.203 F 
ATOM     54  C   UNL A   1      41.835  24.739  26.486  1.00  0.00     0.198 A 
ATOM     55  C   UNL A   1      43.381  26.442  25.802  1.00  0.00     0.198 A 
ATOM     56  F   UNL A   1      43.651  28.377  27.113  1.00  0.00    -0.203 F 
ATOM     57  F   UNL A   1      41.270  23.539  26.295  1.00  0.00    -0.200 F 
ATOM     58  C   UNL A   1      42.781  25.211  25.587  1.00  0.00     0.200 A 
ATOM     59  F   UNL A   1      44.280  26.911  24.927  1.00  0.00    -0.200 F 
ATOM     60  F   UNL A   1      43.114  24.478  24.517  1.00  0.00    -0.200 F 
ENDBRANCH  26  50
BRANCH  38  61
ATOM     61  C   UNL A   1      44.549  27.317  34.321  1.00  0.00     0.064 A 
ATOM     62  C   UNL A   1      45.831  27.883  34.355  1.00  0.00     0.173 A 
ATOM     63  C   UNL A   1      44.349  26.097  34.984  1.00  0.00     0.173 A 
ATOM     64  F   UNL A   1      46.075  29.039  33.720  1.00  0.00    -0.203 F 
ATOM     65  C   UNL A   1      46.881  27.236  34.998  1.00  0.00     0.198 A 
ATOM     66  C   UNL A   1      45.394  25.466  35.652  1.00  0.00     0.198 A 
ATOM     67  F   UNL A   1      43.139  25.517  34.986  1.00  0.00    -0.203 F 
ATOM     68  F   UNL A   1      48.112  27.766  34.971  1.00  0.00    -0.200 F 
ATOM     69  C   UNL A   1      46.661  26.031  35.650  1.00  0.00     0.200 A 
ATOM     70  F   UNL A   1      45.178  24.308  36.290  1.00  0.00    -0.200 F 
ATOM     71  F   UNL A   1      47.674  25.409  36.270  1.00  0.00    -0.200 F 
ENDBRANCH  38  61
ENDBRANCH  12  13
ENDBRANCH   5   7
ENDBRANCH   2   3
ENDBRANCH   1   2
BRANCH   1  72
ATOM     72  C   UNL A   1      33.899  28.940  25.151  1.00  0.00     0.117 C 
BRANCH  72  73
ATOM     73  N   UNL A   1      34.213  28.664  23.757  1.00  0.00    -0.356 N 
ATOM     74  C   UNL A   1      33.663  27.745  22.905  1.00  0.00     0.229 C 
ATOM     75  H   UNL A   1      34.926  29.221  23.370  1.00  0.00     0.163 HD
ATOM     76  O   UNL A   1      33.931  27.828  21.707  1.00  0.00    -0.275 OA
BRANCH  74  77
ATOM     77  C   UNL A   1      32.812  26.633  23.473  1.00  0.00     0.142 C 
ATOM     78  C   UNL A   1      33.385  25.292  23.029  1.00  0.00     0.276 C 
ATOM     79  C   UNL A   1      31.375  26.539  22.989  1.00  0.00     0.065 C 
ATOM     80  N   UNL A   1      32.353  24.312  23.364  1.00  0.00    -0.331 N 
ATOM     81  C   UNL A   1      31.067  25.031  23.182  1.00  0.00     0.267 C 
ATOM     82  H   UNL A   1      32.466  23.512  22.741  1.00  0.00     0.348 HD
BRANCH  79  83
ATOM     83  C   UNL A   1      30.325  27.390  23.672  1.00  0.00    -0.001 C 
ATOM     84  C   UNL A   1      29.320  28.251  22.943  1.00  0.00     0.004 C 
ATOM     85  C   UNL A   1      28.862  27.027  23.689  1.00  0.00     0.004 C 
ENDBRANCH  79  83
BRANCH  80  86
ATOM     86  C   UNL A   1      32.450  23.598  24.656  1.00  0.00     0.187 C 
ATOM     87  C   UNL A   1      33.825  23.429  25.316  1.00  0.00     0.086 C 
ATOM     88  C   UNL A   1      31.730  22.235  24.670  1.00  0.00     0.086 C 
ATOM     89  C   UNL A   1      34.650  22.275  24.767  1.00  0.00     0.126 C 
ATOM     90  C   UNL A   1      32.555  21.038  24.206  1.00  0.00     0.126 C 
ATOM     91  N   UNL A   1      33.932  21.014  24.709  1.00  0.00    -0.338 N 
ATOM     92  C   UNL A   1      34.715  19.859  24.813  1.00  0.00     0.253 C 
ATOM     93  O   UNL A   1      35.925  19.879  25.032  1.00  0.00    -0.269 OA
BRANCH  92  94
ATOM     94  C   UNL A   1      34.082  18.536  24.687  1.00  0.00     0.040 A 
ATOM     95  C   UNL A   1      33.161  18.155  25.667  1.00  0.00     0.014 A 
ATOM     96  C   UNL A   1      34.450  17.650  23.670  1.00  0.00     0.014 A 
ATOM     97  C   UNL A   1      32.574  16.894  25.608  1.00  0.00     0.001 A 
ATOM     98  C   UNL A   1      33.855  16.390  23.614  1.00  0.00     0.001 A 
ATOM     99  C   UNL A   1      32.917  16.014  24.579  1.00  0.00     0.000 A 
ENDBRANCH  92  94
ENDBRANCH  80  86
ENDBRANCH  74  77
ENDBRANCH  72  73
ENDBRANCH   1  72
TORSDOF 13
ENDMDL
MODEL 3
REMARK VINA RESULT:     -13.6      4.452     10.405
REMARK SMILES O=C(NCCCNC(=O)[C@@H]1C[N@@H+](C2CCN(C(=O)c3ccccc3)CC2)C[C@H]1C1CC1)c1ccc(-c2c3nc(c(-c4c(F)c(F)c(F)c(F)c4F)c4ccc([nH]4)c(-c4c(F)c(F)c(F)c(F)c4F)c4nc(c(-c5c(F)c(F)c(F)c(F)c5F)c5ccc2[nH]5)C=C4)C=C3)cc1
REMARK SMILES IDX 5 1 4 2 3 3 1 4 2 5 32 7 33 8 94 9 34 10 93 11 35 12 36 13
REMARK SMILES IDX 37 14 87 15 38 16 92 17 86 18 88 19 39 20 91 21 85 22 84 23
REMARK SMILES IDX 40 25 72 26 52 27 71 28 53 29 56 30 70 31 89 32 54 33 55 34
REMARK SMILES IDX 69 36 90 37 57 38 41 39 42 40 50 41 43 42 44 43 48 44 51 45
REMARK SMILES IDX 45 46 46 47 49 48 47 49 73 50 74 51 82 52 75 53 76 54 80 55
REMARK SMILES IDX 83 56 77 57 78 58 81 59 79 60 58 61 59 62 67 63 60 64 61 65
REMARK SMILES IDX 65 66 68 67 62 68 63 69 66 70 64 71 6 72 7 73 8 74 9 76
REMARK SMILES IDX 10 77 11 78 28 79 12 80 27 81 29 83 30 84 31 85 13 86 14 87
REMARK SMILES IDX 26 88 15 89 25 90 16 91 17 92 18 93 19 94 20 95 24 96 21 97
REMARK SMILES IDX 23 98 22 99
REMARK H PARENT 3 6 88 24 56 35 7 75 12 82
REMARK Flexibility Score: inf
ROOT
ATOM      1  C   UNL A   1      37.858  19.761  25.009  1.00  0.00     0.042 C 
ENDROOT
BRANCH   1   2
ATOM      2  C   UNL A   1      39.022  20.211  25.875  1.00  0.00     0.118 C 
BRANCH   2   3
ATOM      3  N   UNL A   1      40.121  19.247  25.900  1.00  0.00    -0.352 N 
ATOM      4  O   UNL A   1      42.221  18.453  25.851  1.00  0.00    -0.269 OA
ATOM      5  C   UNL A   1      41.478  19.401  26.068  1.00  0.00     0.251 C 
ATOM      6  H   UNL A   1      39.836  18.313  25.774  1.00  0.00     0.163 HD
BRANCH   5   7
ATOM      7  C   UNL A   1      42.050  20.703  26.478  1.00  0.00     0.039 A 
ATOM      8  C   UNL A   1      42.248  21.005  27.821  1.00  0.00     0.014 A 
ATOM      9  C   UNL A   1      42.419  21.635  25.501  1.00  0.00     0.014 A 
ATOM     10  C   UNL A   1      42.578  22.296  28.197  1.00  0.00     0.010 A 
ATOM     11  C   UNL A   1      42.895  22.895  25.880  1.00  0.00     0.010 A 
ATOM     12  C   UNL A   1      42.924  23.258  27.235  1.00  0.00    -0.014 A 
BRANCH  12  13
ATOM     13  C   UNL A   1      43.336  24.609  27.697  1.00  0.00     0.031 A 
ATOM     14  C   UNL A   1      44.777  25.041  27.659  1.00  0.00     0.074 A 
ATOM     15  C   UNL A   1      42.380  25.479  28.080  1.00  0.00     0.049 A 
ATOM     16  N   UNL A   1      45.296  26.205  27.965  1.00  0.00    -0.248 NA
ATOM     17  C   UNL A   1      45.768  24.039  27.239  1.00  0.00     0.031 C 
ATOM     18  C   UNL A   1      40.950  25.171  28.170  1.00  0.00     0.029 A 
ATOM     19  N   UNL A   1      42.452  26.807  28.418  1.00  0.00    -0.354 N 
ATOM     20  C   UNL A   1      46.669  26.063  27.810  1.00  0.00     0.074 A 
ATOM     21  C   UNL A   1      46.908  24.696  27.402  1.00  0.00     0.031 C 
ATOM     22  C   UNL A   1      40.273  26.293  28.449  1.00  0.00     0.029 A 
ATOM     23  C   UNL A   1      41.224  27.382  28.637  1.00  0.00     0.049 A 
ATOM     24  H   UNL A   1      43.301  27.299  28.495  1.00  0.00     0.167 HD
ATOM     25  C   UNL A   1      47.639  26.993  27.985  1.00  0.00     0.037 A 
ATOM     26  C   UNL A   1      40.897  28.646  28.961  1.00  0.00     0.037 A 
ATOM     27  C   UNL A   1      47.391  28.366  28.344  1.00  0.00     0.049 A 
ATOM     28  C   UNL A   1      41.991  29.658  29.130  1.00  0.00     0.074 A 
ATOM     29  C   UNL A   1      48.302  29.394  28.507  1.00  0.00     0.029 A 
ATOM     30  N   UNL A   1      46.135  28.903  28.589  1.00  0.00    -0.354 N 
ATOM     31  N   UNL A   1      43.283  29.512  28.965  1.00  0.00    -0.248 NA
ATOM     32  C   UNL A   1      41.582  31.007  29.538  1.00  0.00     0.031 C 
ATOM     33  C   UNL A   1      47.603  30.545  28.891  1.00  0.00     0.029 A 
ATOM     34  C   UNL A   1      46.251  30.245  28.920  1.00  0.00     0.049 A 
ATOM     35  H   UNL A   1      45.288  28.406  28.537  1.00  0.00     0.167 HD
ATOM     36  C   UNL A   1      43.842  30.753  29.232  1.00  0.00     0.074 A 
ATOM     37  C   UNL A   1      42.744  31.645  29.548  1.00  0.00     0.031 C 
ATOM     38  C   UNL A   1      45.147  31.118  29.224  1.00  0.00     0.037 A 
BRANCH  25  39
ATOM     39  C   UNL A   1      49.066  26.555  27.814  1.00  0.00     0.064 A 
ATOM     40  C   UNL A   1      49.663  26.441  26.550  1.00  0.00     0.173 A 
ATOM     41  C   UNL A   1      49.860  26.287  28.940  1.00  0.00     0.173 A 
ATOM     42  F   UNL A   1      48.945  26.676  25.441  1.00  0.00    -0.203 F 
ATOM     43  C   UNL A   1      50.994  26.051  26.419  1.00  0.00     0.198 A 
ATOM     44  C   UNL A   1      51.199  25.926  28.806  1.00  0.00     0.198 A 
ATOM     45  F   UNL A   1      49.343  26.389  30.173  1.00  0.00    -0.203 F 
ATOM     46  F   UNL A   1      51.532  25.908  25.199  1.00  0.00    -0.200 F 
ATOM     47  C   UNL A   1      51.763  25.801  27.546  1.00  0.00     0.200 A 
ATOM     48  F   UNL A   1      51.943  25.698  29.898  1.00  0.00    -0.200 F 
ATOM     49  F   UNL A   1      53.045  25.435  27.418  1.00  0.00    -0.200 F 
ENDBRANCH  25  39
BRANCH  26  50
ATOM     50  C   UNL A   1      39.468  29.017  29.138  1.00  0.00     0.064 A 
ATOM     51  C   UNL A   1      38.697  29.453  28.052  1.00  0.00     0.173 A 
ATOM     52  C   UNL A   1      38.843  28.926  30.390  1.00  0.00     0.173 A 
ATOM     53  F   UNL A   1      39.256  29.574  26.838  1.00  0.00    -0.203 F 
ATOM     54  C   UNL A   1      37.357  29.797  28.216  1.00  0.00     0.198 A 
ATOM     55  C   UNL A   1      37.494  29.239  30.545  1.00  0.00     0.198 A 
ATOM     56  F   UNL A   1      39.535  28.507  31.458  1.00  0.00    -0.203 F 
ATOM     57  F   UNL A   1      36.652  30.249  27.169  1.00  0.00    -0.200 F 
ATOM     58  C   UNL A   1      36.755  29.682  29.460  1.00  0.00     0.200 A 
ATOM     59  F   UNL A   1      36.913  29.108  31.744  1.00  0.00    -0.200 F 
ATOM     60  F   UNL A   1      35.463  30.002  29.613  1.00  0.00    -0.200 F 
ENDBRANCH  26  50
BRANCH  38  61
ATOM     61  C   UNL A   1      45.449  32.555  29.533  1.00  0.00     0.064 A 
ATOM     62  C   UNL A   1      45.470  33.534  28.531  1.00  0.00     0.173 A 
ATOM     63  C   UNL A   1      45.707  32.955  30.852  1.00  0.00     0.173 A 
ATOM     64  F   UNL A   1      45.248  33.196  27.251  1.00  0.00    -0.203 F 
ATOM     65  C   UNL A   1      45.772  34.859  28.832  1.00  0.00     0.198 A 
ATOM     66  C   UNL A   1      45.979  34.286  31.156  1.00  0.00     0.198 A 
ATOM     67  F   UNL A   1      45.693  32.056  31.848  1.00  0.00    -0.203 F 
ATOM     68  F   UNL A   1      45.842  35.769  27.851  1.00  0.00    -0.200 F 
ATOM     69  C   UNL A   1      46.021  35.234  30.144  1.00  0.00     0.200 A 
ATOM     70  F   UNL A   1      46.209  34.649  32.424  1.00  0.00    -0.200 F 
ATOM     71  F   UNL A   1      46.311  36.510  30.433  1.00  0.00    -0.200 F 
ENDBRANCH  38  61
ENDBRANCH  12  13
ENDBRANCH   5   7
ENDBRANCH   2   3
ENDBRANCH   1   2
BRANCH   1  72
ATOM     72  C   UNL A   1      36.767  20.806  24.885  1.00  0.00     0.117 C 
BRANCH  72  73
ATOM     73  N   UNL A   1      36.129  21.137  26.151  1.00  0.00    -0.356 N 
ATOM     74  C   UNL A   1      34.846  21.544  26.400  1.00  0.00     0.229 C 
ATOM     75  H   UNL A   1      36.705  21.057  26.945  1.00  0.00     0.163 HD
ATOM     76  O   UNL A   1      34.458  21.563  27.568  1.00  0.00    -0.275 OA
BRANCH  74  77
ATOM     77  C   UNL A   1      33.988  22.016  25.249  1.00  0.00     0.142 C 
ATOM     78  C   UNL A   1      33.276  23.301  25.655  1.00  0.00     0.276 C 
ATOM     79  C   UNL A   1      32.827  21.127  24.837  1.00  0.00     0.065 C 
ATOM     80  N   UNL A   1      32.265  23.513  24.620  1.00  0.00    -0.331 N 
ATOM     81  C   UNL A   1      31.845  22.150  24.209  1.00  0.00     0.267 C 
ATOM     82  H   UNL A   1      31.511  24.068  25.027  1.00  0.00     0.348 HD
BRANCH  79  83
ATOM     83  C   UNL A   1      33.094  19.986  23.879  1.00  0.00    -0.001 C 
ATOM     84  C   UNL A   1      33.701  18.661  24.279  1.00  0.00     0.004 C 
ATOM     85  C   UNL A   1      32.260  18.731  23.848  1.00  0.00     0.004 C 
ENDBRANCH  79  83
BRANCH  80  86
ATOM     86  C   UNL A   1      32.595  24.397  23.481  1.00  0.00     0.187 C 
ATOM     87  C   UNL A   1      33.517  25.601  23.709  1.00  0.00     0.086 C 
ATOM     88  C   UNL A   1      31.364  24.868  22.682  1.00  0.00     0.086 C 
ATOM     89  C   UNL A   1      32.824  26.825  24.288  1.00  0.00     0.126 C 
ATOM     90  C   UNL A   1      30.691  26.144  23.181  1.00  0.00     0.126 C 
ATOM     91  N   UNL A   1      31.618  27.210  23.573  1.00  0.00    -0.338 N 
ATOM     92  C   UNL A   1      31.287  28.568  23.622  1.00  0.00     0.253 C 
ATOM     93  O   UNL A   1      31.998  29.421  24.150  1.00  0.00    -0.269 OA
BRANCH  92  94
ATOM     94  C   UNL A   1      30.041  29.036  22.992  1.00  0.00     0.040 A 
ATOM     95  C   UNL A   1      30.142  29.962  21.949  1.00  0.00     0.014 A 
ATOM     96  C   UNL A   1      28.791  28.637  23.473  1.00  0.00     0.014 A 
ATOM     97  C   UNL A   1      28.986  30.463  21.357  1.00  0.00     0.001 A 
ATOM     98  C   UNL A   1      27.636  29.140  22.874  1.00  0.00     0.001 A 
ATOM     99  C   UNL A   1      27.734  30.048  21.816  1.00  0.00     0.000 A 
ENDBRANCH  92  94
ENDBRANCH  80  86
ENDBRANCH  74  77
ENDBRANCH  72  73
ENDBRANCH   1  72
TORSDOF 13
ENDMDL
