MODEL 1
REMARK VINA RESULT:     -11.8      0.000      0.000
REMARK SMILES CCCCOc1ccc(-c2nc(C)c(C(=O)NCCCNC(=O)c3ccc(-c4c5nc(c(-c6c(F)c(F)c(F)c(F)c6F)c6ccc([nH]6)c(-c6c(F)c(F)c(F)c(F)c6F)c6nc(c(-c7c(F)c(F)c(F)c(F)c7F)c7ccc4[nH]7)C=C6)C=C5)cc3)s2)cc1OC
REMARK SMILES IDX 15 1 16 2 17 3 14 5 10 6 11 7 87 8 12 9 13 10 9 11 6 12 7 13
REMARK SMILES IDX 89 14 8 15 88 16 5 17 4 18 3 19 2 20 1 21 90 22 91 23 18 24
REMARK SMILES IDX 19 25 20 26 21 27 22 28 23 30 24 31 25 32 86 33 26 34 85 35
REMARK SMILES IDX 27 36 28 37 29 38 79 39 30 40 84 41 78 42 80 43 31 44 83 45
REMARK SMILES IDX 77 46 76 47 32 49 64 50 44 51 63 52 45 53 48 54 62 55 81 56
REMARK SMILES IDX 46 57 47 58 61 60 82 61 49 62 33 63 34 64 42 65 35 66 36 67
REMARK SMILES IDX 40 68 43 69 37 70 38 71 41 72 39 73 65 74 66 75 74 76 67 77
REMARK SMILES IDX 68 78 72 79 75 80 69 81 70 82 73 83 71 84 50 85 51 86 59 87
REMARK SMILES IDX 52 88 53 89 57 90 60 91 54 92 55 93 58 94 56 95
REMARK H PARENT 17 4 21 29 80 48 48 59
REMARK Flexibility Score: inf
ROOT
ATOM      1  C   UNL A   1      31.625  27.404  22.657  1.00  0.00     0.263 C 
ATOM      2  O   UNL A   1      30.398  27.550  22.606  1.00  0.00    -0.268 OA
ATOM      3  N   UNL A   1      32.280  28.548  23.032  1.00  0.00    -0.351 N 
ATOM      4  H   UNL A   1      31.674  29.306  23.199  1.00  0.00     0.163 HD
ENDROOT
BRANCH   1   5
ATOM      5  C   UNL A   1      32.273  26.128  22.381  1.00  0.00     0.115 A 
ATOM      6  C   UNL A   1      33.135  23.867  22.819  1.00  0.00     0.124 A 
ATOM      7  N   UNL A   1      33.242  24.163  21.546  1.00  0.00    -0.241 NA
ATOM      8  S   UNL A   1      32.577  25.145  23.794  1.00  0.00    -0.108 S 
ATOM      9  C   UNL A   1      32.674  25.398  21.265  1.00  0.00     0.062 A 
ATOM     10  C   UNL A   1      32.535  25.649  19.809  1.00  0.00     0.068 C 
BRANCH   6  11
ATOM     11  C   UNL A   1      33.417  22.528  23.344  1.00  0.00     0.014 A 
ATOM     12  C   UNL A   1      33.649  20.110  24.745  1.00  0.00     0.161 A 
ATOM     13  C   UNL A   1      32.570  20.317  23.880  1.00  0.00     0.051 A 
ATOM     14  C   UNL A   1      34.688  21.045  24.806  1.00  0.00     0.161 A 
ATOM     15  C   UNL A   1      32.448  21.526  23.196  1.00  0.00     0.015 A 
ATOM     16  C   UNL A   1      34.549  22.260  24.125  1.00  0.00     0.061 A 
BRANCH  12  17
ATOM     17  O   UNL A   1      33.658  19.003  25.550  1.00  0.00    -0.490 OA
BRANCH  17  18
ATOM     18  C   UNL A   1      32.532  18.137  25.327  1.00  0.00     0.230 C 
BRANCH  18  19
ATOM     19  C   UNL A   1      32.965  16.670  25.221  1.00  0.00     0.041 C 
BRANCH  19  20
ATOM     20  C   UNL A   1      34.216  16.410  24.375  1.00  0.00     0.000 C 
ATOM     21  C   UNL A   1      34.066  16.814  22.916  1.00  0.00     0.004 C 
ENDBRANCH  19  20
ENDBRANCH  18  19
ENDBRANCH  17  18
ENDBRANCH  12  17
BRANCH  14  22
ATOM     22  O   UNL A   1      35.812  20.976  25.588  1.00  0.00    -0.493 OA
ATOM     23  C   UNL A   1      37.057  21.142  24.921  1.00  0.00     0.278 C 
ENDBRANCH  14  22
ENDBRANCH   6  11
ENDBRANCH   1   5
BRANCH   3  24
ATOM     24  C   UNL A   1      33.672  28.877  23.234  1.00  0.00     0.118 C 
BRANCH  24  25
ATOM     25  C   UNL A   1      34.094  28.550  24.665  1.00  0.00     0.042 C 
BRANCH  25  26
ATOM     26  C   UNL A   1      32.965  28.687  25.679  1.00  0.00     0.118 C 
BRANCH  26  27
ATOM     27  N   UNL A   1      32.579  30.076  25.869  1.00  0.00    -0.352 N 
ATOM     28  C   UNL A   1      33.032  31.001  26.776  1.00  0.00     0.251 C 
ATOM     29  H   UNL A   1      31.885  30.403  25.251  1.00  0.00     0.163 HD
ATOM     30  O   UNL A   1      32.402  32.042  26.939  1.00  0.00    -0.269 OA
BRANCH  28  31
ATOM     31  C   UNL A   1      34.263  30.760  27.565  1.00  0.00     0.039 A 
ATOM     32  C   UNL A   1      35.240  31.761  27.611  1.00  0.00     0.014 A 
ATOM     33  C   UNL A   1      34.494  29.537  28.200  1.00  0.00     0.014 A 
ATOM     34  C   UNL A   1      36.423  31.551  28.326  1.00  0.00     0.010 A 
ATOM     35  C   UNL A   1      35.636  29.357  28.976  1.00  0.00     0.010 A 
ATOM     36  C   UNL A   1      36.621  30.355  29.034  1.00  0.00    -0.014 A 
BRANCH  36  37
ATOM     37  C   UNL A   1      37.866  30.101  29.803  1.00  0.00     0.031 A 
ATOM     38  C   UNL A   1      38.917  29.183  29.240  1.00  0.00     0.074 A 
ATOM     39  C   UNL A   1      38.022  30.636  31.029  1.00  0.00     0.049 A 
ATOM     40  N   UNL A   1      40.009  28.728  29.799  1.00  0.00    -0.248 NA
ATOM     41  C   UNL A   1      38.694  28.688  27.871  1.00  0.00     0.031 C 
ATOM     42  C   UNL A   1      37.063  31.518  31.696  1.00  0.00     0.029 A 
ATOM     43  N   UNL A   1      39.039  30.500  31.942  1.00  0.00    -0.354 N 
ATOM     44  C   UNL A   1      40.587  27.878  28.864  1.00  0.00     0.074 A 
ATOM     45  C   UNL A   1      39.702  27.843  27.719  1.00  0.00     0.031 C 
ATOM     46  C   UNL A   1      37.543  31.855  32.904  1.00  0.00     0.029 A 
ATOM     47  C   UNL A   1      38.821  31.181  33.114  1.00  0.00     0.049 A 
ATOM     48  H   UNL A   1      39.847  29.965  31.771  1.00  0.00     0.167 HD
ATOM     49  C   UNL A   1      41.759  27.205  28.944  1.00  0.00     0.037 A 
ATOM     50  C   UNL A   1      39.564  31.242  34.237  1.00  0.00     0.037 A 
ATOM     51  C   UNL A   1      42.653  27.271  30.069  1.00  0.00     0.049 A 
ATOM     52  C   UNL A   1      40.861  30.482  34.300  1.00  0.00     0.074 A 
ATOM     53  C   UNL A   1      43.885  26.661  30.231  1.00  0.00     0.029 A 
ATOM     54  N   UNL A   1      42.412  28.000  31.224  1.00  0.00    -0.354 N 
ATOM     55  N   UNL A   1      41.417  29.716  33.393  1.00  0.00    -0.248 NA
ATOM     56  C   UNL A   1      41.638  30.601  35.542  1.00  0.00     0.031 C 
ATOM     57  C   UNL A   1      44.374  26.995  31.498  1.00  0.00     0.029 A 
ATOM     58  C   UNL A   1      43.469  27.848  32.106  1.00  0.00     0.049 A 
ATOM     59  H   UNL A   1      41.610  28.545  31.392  1.00  0.00     0.167 HD
ATOM     60  C   UNL A   1      42.621  29.291  33.938  1.00  0.00     0.074 A 
ATOM     61  C   UNL A   1      42.720  29.891  35.251  1.00  0.00     0.031 C 
ATOM     62  C   UNL A   1      43.560  28.477  33.399  1.00  0.00     0.037 A 
BRANCH  49  63
ATOM     63  C   UNL A   1      42.150  26.345  27.777  1.00  0.00     0.064 A 
ATOM     64  C   UNL A   1      43.039  26.802  26.793  1.00  0.00     0.173 A 
ATOM     65  C   UNL A   1      41.665  25.033  27.663  1.00  0.00     0.173 A 
ATOM     66  F   UNL A   1      43.523  28.053  26.849  1.00  0.00    -0.203 F 
ATOM     67  C   UNL A   1      43.407  25.989  25.725  1.00  0.00     0.198 A 
ATOM     68  C   UNL A   1      42.058  24.212  26.609  1.00  0.00     0.198 A 
ATOM     69  F   UNL A   1      40.817  24.543  28.580  1.00  0.00    -0.203 F 
ATOM     70  F   UNL A   1      44.221  26.465  24.772  1.00  0.00    -0.200 F 
ATOM     71  C   UNL A   1      42.924  24.693  25.637  1.00  0.00     0.200 A 
ATOM     72  F   UNL A   1      41.600  22.955  26.533  1.00  0.00    -0.200 F 
ATOM     73  F   UNL A   1      43.286  23.908  24.614  1.00  0.00    -0.200 F 
ENDBRANCH  49  63
BRANCH  50  74
ATOM     74  C   UNL A   1      39.112  32.069  35.386  1.00  0.00     0.064 A 
ATOM     75  C   UNL A   1      39.455  33.427  35.472  1.00  0.00     0.173 A 
ATOM     76  C   UNL A   1      38.347  31.523  36.427  1.00  0.00     0.173 A 
ATOM     77  F   UNL A   1      40.202  33.989  34.511  1.00  0.00    -0.203 F 
ATOM     78  C   UNL A   1      39.071  34.199  36.565  1.00  0.00     0.198 A 
ATOM     79  C   UNL A   1      37.940  32.305  37.506  1.00  0.00     0.198 A 
ATOM     80  F   UNL A   1      37.988  30.232  36.391  1.00  0.00    -0.203 F 
ATOM     81  F   UNL A   1      39.454  35.481  36.645  1.00  0.00    -0.200 F 
ATOM     82  C   UNL A   1      38.309  33.639  37.580  1.00  0.00     0.200 A 
ATOM     83  F   UNL A   1      37.192  31.763  38.478  1.00  0.00    -0.200 F 
ATOM     84  F   UNL A   1      37.941  34.382  38.631  1.00  0.00    -0.200 F 
ENDBRANCH  50  74
BRANCH  62  85
ATOM     85  C   UNL A   1      44.804  28.233  34.201  1.00  0.00     0.064 A 
ATOM     86  C   UNL A   1      45.917  29.081  34.113  1.00  0.00     0.173 A 
ATOM     87  C   UNL A   1      44.861  27.163  35.108  1.00  0.00     0.173 A 
ATOM     88  F   UNL A   1      45.915  30.108  33.249  1.00  0.00    -0.203 F 
ATOM     89  C   UNL A   1      47.049  28.856  34.890  1.00  0.00     0.198 A 
ATOM     90  C   UNL A   1      45.984  26.959  35.903  1.00  0.00     0.198 A 
ATOM     91  F   UNL A   1      43.819  26.327  35.233  1.00  0.00    -0.203 F 
ATOM     92  F   UNL A   1      48.117  29.655  34.762  1.00  0.00    -0.200 F 
ATOM     93  C   UNL A   1      47.079  27.801  35.790  1.00  0.00     0.200 A 
ATOM     94  F   UNL A   1      46.005  25.946  36.781  1.00  0.00    -0.200 F 
ATOM     95  F   UNL A   1      48.166  27.593  36.545  1.00  0.00    -0.200 F 
ENDBRANCH  62  85
ENDBRANCH  36  37
ENDBRANCH  28  31
ENDBRANCH  26  27
ENDBRANCH  25  26
ENDBRANCH  24  25
ENDBRANCH   3  24
TORSDOF 16
ENDMDL
MODEL 2
REMARK VINA RESULT:     -11.7      4.620     10.414
REMARK SMILES CCCCOc1ccc(-c2nc(C)c(C(=O)NCCCNC(=O)c3ccc(-c4c5nc(c(-c6c(F)c(F)c(F)c(F)c6F)c6ccc([nH]6)c(-c6c(F)c(F)c(F)c(F)c6F)c6nc(c(-c7c(F)c(F)c(F)c(F)c7F)c7ccc4[nH]7)C=C6)C=C5)cc3)s2)cc1OC
REMARK SMILES IDX 15 1 16 2 17 3 14 5 10 6 11 7 87 8 12 9 13 10 9 11 6 12 7 13
REMARK SMILES IDX 89 14 8 15 88 16 5 17 4 18 3 19 2 20 1 21 90 22 91 23 18 24
REMARK SMILES IDX 19 25 20 26 21 27 22 28 23 30 24 31 25 32 86 33 26 34 85 35
REMARK SMILES IDX 27 36 28 37 29 38 79 39 30 40 84 41 78 42 80 43 31 44 83 45
REMARK SMILES IDX 77 46 76 47 32 49 64 50 44 51 63 52 45 53 48 54 62 55 81 56
REMARK SMILES IDX 46 57 47 58 61 60 82 61 49 62 33 63 34 64 42 65 35 66 36 67
REMARK SMILES IDX 40 68 43 69 37 70 38 71 41 72 39 73 65 74 66 75 74 76 67 77
REMARK SMILES IDX 68 78 72 79 75 80 69 81 70 82 73 83 71 84 50 85 51 86 59 87
REMARK SMILES IDX 52 88 53 89 57 90 60 91 54 92 55 93 58 94 56 95
REMARK H PARENT 17 4 21 29 80 48 48 59
REMARK Flexibility Score: inf
ROOT
ATOM      1  C   UNL A   1      34.576  21.026  25.565  1.00  0.00     0.263 C 
ATOM      2  O   UNL A   1      33.679  20.454  26.196  1.00  0.00    -0.268 OA
ATOM      3  N   UNL A   1      35.635  20.202  25.283  1.00  0.00    -0.351 N 
ATOM      4  H   UNL A   1      35.518  19.287  25.629  1.00  0.00     0.163 HD
ENDROOT
BRANCH   1   5
ATOM      5  C   UNL A   1      34.473  22.418  25.145  1.00  0.00     0.115 A 
ATOM      6  C   UNL A   1      33.409  24.479  24.330  1.00  0.00     0.124 A 
ATOM      7  N   UNL A   1      34.653  24.707  24.675  1.00  0.00    -0.241 NA
ATOM      8  S   UNL A   1      32.944  22.844  24.411  1.00  0.00    -0.108 S 
ATOM      9  C   UNL A   1      35.240  23.577  25.226  1.00  0.00     0.062 A 
ATOM     10  C   UNL A   1      36.546  23.862  25.870  1.00  0.00     0.068 C 
BRANCH   6  11
ATOM     11  C   UNL A   1      32.482  25.554  23.963  1.00  0.00     0.014 A 
ATOM     12  C   UNL A   1      30.708  27.382  22.790  1.00  0.00     0.161 A 
ATOM     13  C   UNL A   1      30.226  26.187  23.331  1.00  0.00     0.051 A 
ATOM     14  C   UNL A   1      32.052  27.736  22.960  1.00  0.00     0.161 A 
ATOM     15  C   UNL A   1      31.111  25.272  23.899  1.00  0.00     0.015 A 
ATOM     16  C   UNL A   1      32.934  26.805  23.521  1.00  0.00     0.061 A 
BRANCH  12  17
ATOM     17  O   UNL A   1      29.862  28.181  22.070  1.00  0.00    -0.490 OA
BRANCH  17  18
ATOM     18  C   UNL A   1      29.405  29.327  22.810  1.00  0.00     0.230 C 
BRANCH  18  19
ATOM     19  C   UNL A   1      29.342  30.577  21.924  1.00  0.00     0.041 C 
BRANCH  19  20
ATOM     20  C   UNL A   1      28.543  31.752  22.497  1.00  0.00     0.000 C 
ATOM     21  C   UNL A   1      27.575  31.357  23.602  1.00  0.00     0.004 C 
ENDBRANCH  19  20
ENDBRANCH  18  19
ENDBRANCH  17  18
ENDBRANCH  12  17
BRANCH  14  22
ATOM     22  O   UNL A   1      32.666  28.874  22.504  1.00  0.00    -0.493 OA
ATOM     23  C   UNL A   1      33.885  29.232  23.144  1.00  0.00     0.278 C 
ENDBRANCH  14  22
ENDBRANCH   6  11
ENDBRANCH   1   5
BRANCH   3  24
ATOM     24  C   UNL A   1      36.885  20.391  24.587  1.00  0.00     0.118 C 
BRANCH  24  25
ATOM     25  C   UNL A   1      37.924  19.383  25.076  1.00  0.00     0.042 C 
BRANCH  25  26
ATOM     26  C   UNL A   1      39.127  20.028  25.752  1.00  0.00     0.118 C 
BRANCH  26  27
ATOM     27  N   UNL A   1      40.228  19.090  25.901  1.00  0.00    -0.352 N 
ATOM     28  C   UNL A   1      41.572  19.324  26.050  1.00  0.00     0.251 C 
ATOM     29  H   UNL A   1      39.968  18.140  25.894  1.00  0.00     0.163 HD
ATOM     30  O   UNL A   1      42.364  18.397  25.907  1.00  0.00    -0.269 OA
BRANCH  28  31
ATOM     31  C   UNL A   1      42.082  20.677  26.374  1.00  0.00     0.039 A 
ATOM     32  C   UNL A   1      42.278  21.020  27.716  1.00  0.00     0.014 A 
ATOM     33  C   UNL A   1      42.303  21.631  25.377  1.00  0.00     0.014 A 
ATOM     34  C   UNL A   1      42.733  22.298  28.054  1.00  0.00     0.010 A 
ATOM     35  C   UNL A   1      42.830  22.877  25.706  1.00  0.00     0.010 A 
ATOM     36  C   UNL A   1      43.035  23.231  27.049  1.00  0.00    -0.014 A 
BRANCH  36  37
ATOM     37  C   UNL A   1      43.520  24.596  27.373  1.00  0.00     0.031 A 
ATOM     38  C   UNL A   1      42.563  25.618  27.924  1.00  0.00     0.074 A 
ATOM     39  C   UNL A   1      44.797  24.938  27.109  1.00  0.00     0.049 A 
ATOM     40  N   UNL A   1      42.748  26.894  28.151  1.00  0.00    -0.248 NA
ATOM     41  C   UNL A   1      41.203  25.145  28.236  1.00  0.00     0.031 C 
ATOM     42  C   UNL A   1      45.813  24.048  26.549  1.00  0.00     0.029 A 
ATOM     43  N   UNL A   1      45.451  26.136  27.262  1.00  0.00    -0.354 N 
ATOM     44  C   UNL A   1      41.528  27.377  28.606  1.00  0.00     0.074 A 
ATOM     45  C   UNL A   1      40.596  26.271  28.580  1.00  0.00     0.031 C 
ATOM     46  C   UNL A   1      46.966  24.723  26.417  1.00  0.00     0.029 A 
ATOM     47  C   UNL A   1      46.759  26.105  26.844  1.00  0.00     0.049 A 
ATOM     48  H   UNL A   1      45.023  26.940  27.635  1.00  0.00     0.167 HD
ATOM     49  C   UNL A   1      41.218  28.627  29.028  1.00  0.00     0.037 A 
ATOM     50  C   UNL A   1      47.682  27.085  26.798  1.00  0.00     0.037 A 
ATOM     51  C   UNL A   1      42.157  29.715  29.088  1.00  0.00     0.049 A 
ATOM     52  C   UNL A   1      47.311  28.465  27.271  1.00  0.00     0.074 A 
ATOM     53  C   UNL A   1      41.954  31.007  29.540  1.00  0.00     0.029 A 
ATOM     54  N   UNL A   1      43.482  29.633  28.687  1.00  0.00    -0.354 N 
ATOM     55  N   UNL A   1      46.166  28.900  27.738  1.00  0.00    -0.248 NA
ATOM     56  C   UNL A   1      48.362  29.490  27.215  1.00  0.00     0.031 C 
ATOM     57  C   UNL A   1      43.149  31.717  29.382  1.00  0.00     0.029 A 
ATOM     58  C   UNL A   1      44.107  30.856  28.875  1.00  0.00     0.049 A 
ATOM     59  H   UNL A   1      43.915  28.827  28.325  1.00  0.00     0.167 HD
ATOM     60  C   UNL A   1      46.368  30.234  28.066  1.00  0.00     0.074 A 
ATOM     61  C   UNL A   1      47.748  30.536  27.750  1.00  0.00     0.031 C 
ATOM     62  C   UNL A   1      45.490  31.128  28.580  1.00  0.00     0.037 A 
BRANCH  49  63
ATOM     63  C   UNL A   1      39.806  28.882  29.472  1.00  0.00     0.064 A 
ATOM     64  C   UNL A   1      38.834  29.367  28.584  1.00  0.00     0.173 A 
ATOM     65  C   UNL A   1      39.409  28.597  30.787  1.00  0.00     0.173 A 
ATOM     66  F   UNL A   1      39.166  29.666  27.318  1.00  0.00    -0.203 F 
ATOM     67  C   UNL A   1      37.524  29.583  29.002  1.00  0.00     0.198 A 
ATOM     68  C   UNL A   1      38.090  28.786  31.195  1.00  0.00     0.198 A 
ATOM     69  F   UNL A   1      40.296  28.125  31.675  1.00  0.00    -0.203 F 
ATOM     70  F   UNL A   1      36.625  30.091  28.148  1.00  0.00    -0.200 F 
ATOM     71  C   UNL A   1      37.151  29.285  30.304  1.00  0.00     0.200 A 
ATOM     72  F   UNL A   1      37.729  28.486  32.449  1.00  0.00    -0.200 F 
ATOM     73  F   UNL A   1      35.888  29.484  30.704  1.00  0.00    -0.200 F 
ENDBRANCH  49  63
BRANCH  50  74
ATOM     74  C   UNL A   1      49.054  26.796  26.306  1.00  0.00     0.064 A 
ATOM     75  C   UNL A   1      49.395  27.010  24.962  1.00  0.00     0.173 A 
ATOM     76  C   UNL A   1      50.046  26.286  27.156  1.00  0.00     0.173 A 
ATOM     77  F   UNL A   1      48.474  27.476  24.106  1.00  0.00    -0.203 F 
ATOM     78  C   UNL A   1      50.666  26.702  24.483  1.00  0.00     0.198 A 
ATOM     79  C   UNL A   1      51.326  26.005  26.681  1.00  0.00     0.198 A 
ATOM     80  F   UNL A   1      49.774  26.068  28.450  1.00  0.00    -0.203 F 
ATOM     81  F   UNL A   1      50.949  26.870  23.184  1.00  0.00    -0.200 F 
ATOM     82  C   UNL A   1      51.632  26.204  25.344  1.00  0.00     0.200 A 
ATOM     83  F   UNL A   1      52.261  25.538  27.520  1.00  0.00    -0.200 F 
ATOM     84  F   UNL A   1      52.854  25.909  24.883  1.00  0.00    -0.200 F 
ENDBRANCH  50  74
BRANCH  62  85
ATOM     85  C   UNL A   1      46.006  32.501  28.891  1.00  0.00     0.064 A 
ATOM     86  C   UNL A   1      46.595  32.805  30.126  1.00  0.00     0.173 A 
ATOM     87  C   UNL A   1      45.956  33.512  27.918  1.00  0.00     0.173 A 
ATOM     88  F   UNL A   1      46.652  31.877  31.093  1.00  0.00    -0.203 F 
ATOM     89  C   UNL A   1      47.099  34.077  30.384  1.00  0.00     0.198 A 
ATOM     90  C   UNL A   1      46.486  34.773  28.169  1.00  0.00     0.198 A 
ATOM     91  F   UNL A   1      45.408  33.268  26.718  1.00  0.00    -0.203 F 
ATOM     92  F   UNL A   1      47.621  34.359  31.585  1.00  0.00    -0.200 F 
ATOM     93  C   UNL A   1      47.050  35.058  29.403  1.00  0.00     0.200 A 
ATOM     94  F   UNL A   1      46.450  35.714  27.215  1.00  0.00    -0.200 F 
ATOM     95  F   UNL A   1      47.545  36.278  29.649  1.00  0.00    -0.200 F 
ENDBRANCH  62  85
ENDBRANCH  36  37
ENDBRANCH  28  31
ENDBRANCH  26  27
ENDBRANCH  25  26
ENDBRANCH  24  25
ENDBRANCH   3  24
TORSDOF 16
ENDMDL
MODEL 3
REMARK VINA RESULT:     -11.4      1.184      2.733
REMARK SMILES CCCCOc1ccc(-c2nc(C)c(C(=O)NCCCNC(=O)c3ccc(-c4c5nc(c(-c6c(F)c(F)c(F)c(F)c6F)c6ccc([nH]6)c(-c6c(F)c(F)c(F)c(F)c6F)c6nc(c(-c7c(F)c(F)c(F)c(F)c7F)c7ccc4[nH]7)C=C6)C=C5)cc3)s2)cc1OC
REMARK SMILES IDX 15 1 16 2 17 3 14 5 10 6 11 7 87 8 12 9 13 10 9 11 6 12 7 13
REMARK SMILES IDX 89 14 8 15 88 16 5 17 4 18 3 19 2 20 1 21 90 22 91 23 18 24
REMARK SMILES IDX 19 25 20 26 21 27 22 28 23 30 24 31 25 32 86 33 26 34 85 35
REMARK SMILES IDX 27 36 28 37 29 38 79 39 30 40 84 41 78 42 80 43 31 44 83 45
REMARK SMILES IDX 77 46 76 47 32 49 64 50 44 51 63 52 45 53 48 54 62 55 81 56
REMARK SMILES IDX 46 57 47 58 61 60 82 61 49 62 33 63 34 64 42 65 35 66 36 67
REMARK SMILES IDX 40 68 43 69 37 70 38 71 41 72 39 73 65 74 66 75 74 76 67 77
REMARK SMILES IDX 68 78 72 79 75 80 69 81 70 82 73 83 71 84 50 85 51 86 59 87
REMARK SMILES IDX 52 88 53 89 57 90 60 91 54 92 55 93 58 94 56 95
REMARK H PARENT 17 4 21 29 80 48 48 59
REMARK Flexibility Score: inf
ROOT
ATOM      1  C   UNL A   1      31.224  26.652  24.171  1.00  0.00     0.263 C 
ATOM      2  O   UNL A   1      30.241  26.180  24.755  1.00  0.00    -0.268 OA
ATOM      3  N   UNL A   1      31.091  27.989  23.902  1.00  0.00    -0.351 N 
ATOM      4  H   UNL A   1      30.234  28.364  24.212  1.00  0.00     0.163 HD
ENDROOT
BRANCH   1   5
ATOM      5  C   UNL A   1      32.402  25.854  23.852  1.00  0.00     0.115 A 
ATOM      6  C   UNL A   1      34.302  24.343  24.236  1.00  0.00     0.124 A 
ATOM      7  N   UNL A   1      34.161  24.591  22.955  1.00  0.00    -0.241 NA
ATOM      8  S   UNL A   1      33.250  25.221  25.244  1.00  0.00    -0.108 S 
ATOM      9  C   UNL A   1      33.036  25.366  22.713  1.00  0.00     0.062 A 
ATOM     10  C   UNL A   1      32.690  25.443  21.272  1.00  0.00     0.068 C 
BRANCH   6  11
ATOM     11  C   UNL A   1      35.250  23.347  24.746  1.00  0.00     0.014 A 
ATOM     12  C   UNL A   1      37.274  21.472  25.247  1.00  0.00     0.161 A 
ATOM     13  C   UNL A   1      37.530  22.837  25.405  1.00  0.00     0.051 A 
ATOM     14  C   UNL A   1      35.973  21.029  24.981  1.00  0.00     0.161 A 
ATOM     15  C   UNL A   1      36.527  23.769  25.140  1.00  0.00     0.015 A 
ATOM     16  C   UNL A   1      34.977  21.973  24.705  1.00  0.00     0.061 A 
BRANCH  12  17
ATOM     17  O   UNL A   1      38.311  20.583  25.325  1.00  0.00    -0.490 OA
BRANCH  17  18
ATOM     18  C   UNL A   1      39.468  21.127  25.985  1.00  0.00     0.230 C 
BRANCH  18  19
ATOM     19  C   UNL A   1      40.578  20.078  26.126  1.00  0.00     0.041 C 
BRANCH  19  20
ATOM     20  C   UNL A   1      41.307  20.066  27.474  1.00  0.00     0.000 C 
ATOM     21  C   UNL A   1      42.335  18.953  27.608  1.00  0.00     0.004 C 
ENDBRANCH  19  20
ENDBRANCH  18  19
ENDBRANCH  17  18
ENDBRANCH  12  17
BRANCH  14  22
ATOM     22  O   UNL A   1      35.564  19.731  24.816  1.00  0.00    -0.493 OA
ATOM     23  C   UNL A   1      34.170  19.528  24.626  1.00  0.00     0.278 C 
ENDBRANCH  14  22
ENDBRANCH   6  11
ENDBRANCH   1   5
BRANCH   3  24
ATOM     24  C   UNL A   1      31.940  28.964  23.260  1.00  0.00     0.118 C 
BRANCH  24  25
ATOM     25  C   UNL A   1      33.333  28.951  23.887  1.00  0.00     0.042 C 
BRANCH  25  26
ATOM     26  C   UNL A   1      33.323  29.140  25.398  1.00  0.00     0.118 C 
BRANCH  26  27
ATOM     27  N   UNL A   1      32.807  30.446  25.774  1.00  0.00    -0.352 N 
ATOM     28  C   UNL A   1      33.144  31.258  26.828  1.00  0.00     0.251 C 
ATOM     29  H   UNL A   1      32.108  30.804  25.179  1.00  0.00     0.163 HD
ATOM     30  O   UNL A   1      32.419  32.206  27.114  1.00  0.00    -0.269 OA
BRANCH  28  31
ATOM     31  C   UNL A   1      34.365  31.004  27.629  1.00  0.00     0.039 A 
ATOM     32  C   UNL A   1      35.293  32.039  27.789  1.00  0.00     0.014 A 
ATOM     33  C   UNL A   1      34.637  29.743  28.164  1.00  0.00     0.014 A 
ATOM     34  C   UNL A   1      36.467  31.821  28.517  1.00  0.00     0.010 A 
ATOM     35  C   UNL A   1      35.766  29.547  28.955  1.00  0.00     0.010 A 
ATOM     36  C   UNL A   1      36.702  30.579  29.126  1.00  0.00    -0.014 A 
BRANCH  36  37
ATOM     37  C   UNL A   1      37.937  30.315  29.907  1.00  0.00     0.031 A 
ATOM     38  C   UNL A   1      39.009  29.428  29.331  1.00  0.00     0.074 A 
ATOM     39  C   UNL A   1      38.067  30.810  31.152  1.00  0.00     0.049 A 
ATOM     40  N   UNL A   1      40.098  28.968  29.893  1.00  0.00    -0.248 NA
ATOM     41  C   UNL A   1      38.814  28.976  27.943  1.00  0.00     0.031 C 
ATOM     42  C   UNL A   1      37.087  31.658  31.832  1.00  0.00     0.029 A 
ATOM     43  N   UNL A   1      39.071  30.656  32.076  1.00  0.00    -0.354 N 
ATOM     44  C   UNL A   1      40.701  28.157  28.940  1.00  0.00     0.074 A 
ATOM     45  C   UNL A   1      39.835  28.149  27.780  1.00  0.00     0.031 C 
ATOM     46  C   UNL A   1      37.542  31.961  33.058  1.00  0.00     0.029 A 
ATOM     47  C   UNL A   1      38.826  31.296  33.267  1.00  0.00     0.049 A 
ATOM     48  H   UNL A   1      39.889  30.137  31.902  1.00  0.00     0.167 HD
ATOM     49  C   UNL A   1      41.880  27.495  29.017  1.00  0.00     0.037 A 
ATOM     50  C   UNL A   1      39.549  31.329  34.403  1.00  0.00     0.037 A 
ATOM     51  C   UNL A   1      42.755  27.536  30.158  1.00  0.00     0.049 A 
ATOM     52  C   UNL A   1      40.855  30.583  34.463  1.00  0.00     0.074 A 
ATOM     53  C   UNL A   1      43.992  26.935  30.320  1.00  0.00     0.029 A 
ATOM     54  N   UNL A   1      42.486  28.223  31.332  1.00  0.00    -0.354 N 
ATOM     55  N   UNL A   1      41.435  29.853  33.540  1.00  0.00    -0.248 NA
ATOM     56  C   UNL A   1      41.611  30.669  35.720  1.00  0.00     0.031 C 
ATOM     57  C   UNL A   1      44.456  27.233  31.605  1.00  0.00     0.029 A 
ATOM     58  C   UNL A   1      43.531  28.054  32.227  1.00  0.00     0.049 A 
ATOM     59  H   UNL A   1      41.675  28.752  31.505  1.00  0.00     0.167 HD
ATOM     60  C   UNL A   1      42.636  29.426  34.091  1.00  0.00     0.074 A 
ATOM     61  C   UNL A   1      42.706  29.983  35.424  1.00  0.00     0.031 C 
ATOM     62  C   UNL A   1      43.594  28.641  33.541  1.00  0.00     0.037 A 
BRANCH  49  63
ATOM     63  C   UNL A   1      42.301  26.679  27.829  1.00  0.00     0.064 A 
ATOM     64  C   UNL A   1      41.874  25.354  27.660  1.00  0.00     0.173 A 
ATOM     65  C   UNL A   1      43.103  27.242  26.825  1.00  0.00     0.173 A 
ATOM     66  F   UNL A   1      41.114  24.765  28.598  1.00  0.00    -0.203 F 
ATOM     67  C   UNL A   1      42.255  24.613  26.545  1.00  0.00     0.198 A 
ATOM     68  C   UNL A   1      43.459  26.508  25.696  1.00  0.00     0.198 A 
ATOM     69  F   UNL A   1      43.534  28.508  26.932  1.00  0.00    -0.203 F 
ATOM     70  F   UNL A   1      41.873  23.334  26.429  1.00  0.00    -0.200 F 
ATOM     71  C   UNL A   1      43.040  25.193  25.560  1.00  0.00     0.200 A 
ATOM     72  F   UNL A   1      44.207  27.074  24.739  1.00  0.00    -0.200 F 
ATOM     73  F   UNL A   1      43.400  24.482  24.482  1.00  0.00    -0.200 F 
ENDBRANCH  49  63
BRANCH  50  74
ATOM     74  C   UNL A   1      39.069  32.112  35.571  1.00  0.00     0.064 A 
ATOM     75  C   UNL A   1      39.388  33.471  35.704  1.00  0.00     0.173 A 
ATOM     76  C   UNL A   1      38.299  31.521  36.583  1.00  0.00     0.173 A 
ATOM     77  F   UNL A   1      40.140  34.075  34.773  1.00  0.00    -0.203 F 
ATOM     78  C   UNL A   1      38.977  34.202  36.816  1.00  0.00     0.198 A 
ATOM     79  C   UNL A   1      37.864  32.261  37.681  1.00  0.00     0.198 A 
ATOM     80  F   UNL A   1      37.962  30.227  36.502  1.00  0.00    -0.203 F 
ATOM     81  F   UNL A   1      39.339  35.487  36.942  1.00  0.00    -0.200 F 
ATOM     82  C   UNL A   1      38.211  33.598  37.802  1.00  0.00     0.200 A 
ATOM     83  F   UNL A   1      37.113  31.678  38.625  1.00  0.00    -0.200 F 
ATOM     84  F   UNL A   1      37.817  34.302  38.871  1.00  0.00    -0.200 F 
ENDBRANCH  50  74
BRANCH  62  85
ATOM     85  C   UNL A   1      44.827  28.386  34.354  1.00  0.00     0.064 A 
ATOM     86  C   UNL A   1      44.930  27.282  35.212  1.00  0.00     0.173 A 
ATOM     87  C   UNL A   1      45.941  29.232  34.232  1.00  0.00     0.173 A 
ATOM     88  F   UNL A   1      43.887  26.454  35.373  1.00  0.00    -0.203 F 
ATOM     89  C   UNL A   1      46.096  27.044  35.933  1.00  0.00     0.198 A 
ATOM     90  C   UNL A   1      47.115  28.975  34.933  1.00  0.00     0.198 A 
ATOM     91  F   UNL A   1      45.894  30.298  33.419  1.00  0.00    -0.203 F 
ATOM     92  F   UNL A   1      46.160  26.007  36.778  1.00  0.00    -0.200 F 
ATOM     93  C   UNL A   1      47.190  27.886  35.788  1.00  0.00     0.200 A 
ATOM     94  F   UNL A   1      48.174  29.781  34.780  1.00  0.00    -0.200 F 
ATOM     95  F   UNL A   1      48.315  27.648  36.474  1.00  0.00    -0.200 F 
ENDBRANCH  62  85
ENDBRANCH  36  37
ENDBRANCH  28  31
ENDBRANCH  26  27
ENDBRANCH  25  26
ENDBRANCH  24  25
ENDBRANCH   3  24
TORSDOF 16
ENDMDL
