MODEL 1
REMARK VINA RESULT:      -9.6      0.000      0.000
REMARK SMILES CC[C@H](C)c1ccc(N2C(=O)NC(=O)/C(=C/c3ccc(-c4ccc(C(=O)NCCCNC(=O)c5ccc(-c6c7nc(c(-c8c(F)c(F)c(F)c(F)c8F)c8ccc([nH]8)c(-c8c(F)c(F)c(F)c(F)c8F)c8nc(c(-c9c(F)c(F)c(F)c(F)c9F)c9ccc6[nH]9)C=C8)C=C7)cc5)cc4)o3)C2=O)cc1
REMARK SMILES IDX 25 1 26 2 27 3 24 5 21 6 22 7 98 8 23 9 97 10 20 11 17 12
REMARK SMILES IDX 18 13 99 14 19 15 16 16 9 17 10 18 100 19 11 20 12 21 15 22
REMARK SMILES IDX 101 23 13 24 14 26 8 27 5 28 6 29 103 30 7 31 102 32 3 33
REMARK SMILES IDX 4 34 2 35 1 36 28 37 29 38 30 39 31 40 32 41 33 43 34 44
REMARK SMILES IDX 35 45 96 46 36 47 95 48 37 49 38 50 39 51 89 52 40 53 94 54
REMARK SMILES IDX 88 55 90 56 41 57 93 58 87 59 86 60 42 62 74 63 54 64 73 65
REMARK SMILES IDX 55 66 58 67 72 68 91 69 56 70 57 71 71 73 92 74 59 75 43 76
REMARK SMILES IDX 44 77 52 78 45 79 46 80 50 81 53 82 47 83 48 84 51 85 49 86
REMARK SMILES IDX 75 87 76 88 84 89 77 90 78 91 82 92 85 93 79 94 80 95 83 96
REMARK SMILES IDX 81 97 60 98 61 99 69 100 62 101 63 102 67 103 70 104 64 105
REMARK SMILES IDX 65 106 68 107 66 108
REMARK H PARENT 27 4 12 25 31 42 90 61 58 72
REMARK Flexibility Score: inf
ROOT
ATOM      1  C   UNL A   1      37.376  34.033  32.541  1.00  0.00     0.251 C 
ATOM      2  O   UNL A   1      37.331  34.681  33.588  1.00  0.00    -0.269 OA
ATOM      3  N   UNL A   1      36.393  33.098  32.324  1.00  0.00    -0.352 N 
ATOM      4  H   UNL A   1      35.774  32.983  33.081  1.00  0.00     0.163 HD
ENDROOT
BRANCH   1   5
ATOM      5  C   UNL A   1      38.451  34.321  31.553  1.00  0.00     0.039 A 
ATOM      6  C   UNL A   1      40.538  34.992  29.790  1.00  0.00     0.017 A 
ATOM      7  C   UNL A   1      40.788  34.900  31.161  1.00  0.00     0.013 A 
ATOM      8  C   UNL A   1      39.267  34.688  29.303  1.00  0.00     0.013 A 
ATOM      9  C   UNL A   1      39.745  34.574  32.039  1.00  0.00     0.014 A 
ATOM     10  C   UNL A   1      38.245  34.323  30.174  1.00  0.00     0.014 A 
BRANCH   6  11
ATOM     11  C   UNL A   1      41.534  35.441  28.845  1.00  0.00     0.134 A 
ATOM     12  C   UNL A   1      43.590  35.986  28.259  1.00  0.00     0.128 A 
ATOM     13  C   UNL A   1      42.818  35.932  27.102  1.00  0.00     0.051 A 
ATOM     14  O   UNL A   1      42.789  35.648  29.323  1.00  0.00    -0.457 OA
ATOM     15  C   UNL A   1      41.500  35.613  27.482  1.00  0.00     0.051 A 
BRANCH  12  16
ATOM     16  C   UNL A   1      44.958  36.345  28.381  1.00  0.00     0.066 C 
ATOM     17  N   UNL A   1      46.804  33.147  28.121  1.00  0.00    -0.228 N 
ATOM     18  C   UNL A   1      48.023  33.548  28.658  1.00  0.00     0.335 C 
ATOM     19  C   UNL A   1      45.746  34.025  27.867  1.00  0.00     0.272 C 
ATOM     20  O   UNL A   1      48.966  32.811  28.945  1.00  0.00    -0.247 OA
ATOM     21  N   UNL A   1      48.202  34.895  28.836  1.00  0.00    -0.273 N 
ATOM     22  C   UNL A   1      45.953  35.440  28.280  1.00  0.00     0.109 C 
ATOM     23  O   UNL A   1      44.682  33.682  27.355  1.00  0.00    -0.268 OA
ATOM     24  C   UNL A   1      47.299  35.897  28.655  1.00  0.00     0.265 C 
ATOM     25  H   UNL A   1      49.099  35.173  29.134  1.00  0.00     0.175 HD
ATOM     26  O   UNL A   1      47.595  37.071  28.847  1.00  0.00    -0.269 OA
BRANCH  17  27
ATOM     27  C   UNL A   1      46.597  31.759  27.794  1.00  0.00     0.054 A 
ATOM     28  C   UNL A   1      46.012  29.062  27.041  1.00  0.00    -0.045 A 
ATOM     29  C   UNL A   1      46.510  29.987  26.117  1.00  0.00     0.006 A 
ATOM     30  C   UNL A   1      45.869  29.508  28.368  1.00  0.00     0.006 A 
ATOM     31  C   UNL A   1      46.785  31.307  26.482  1.00  0.00     0.027 A 
ATOM     32  C   UNL A   1      46.163  30.831  28.743  1.00  0.00     0.027 A 
BRANCH  28  33
ATOM     33  C   UNL A   1      45.756  27.609  26.631  1.00  0.00     0.016 C 
ATOM     34  C   UNL A   1      45.061  27.449  25.269  1.00  0.00     0.013 C 
BRANCH  33  35
ATOM     35  C   UNL A   1      46.991  26.668  26.689  1.00  0.00     0.004 C 
ATOM     36  C   UNL A   1      46.875  25.399  25.854  1.00  0.00     0.004 C 
ENDBRANCH  33  35
ENDBRANCH  28  33
ENDBRANCH  17  27
ENDBRANCH  12  16
ENDBRANCH   6  11
ENDBRANCH   1   5
BRANCH   3  37
ATOM     37  C   UNL A   1      36.097  32.249  31.183  1.00  0.00     0.118 C 
BRANCH  37  38
ATOM     38  C   UNL A   1      34.772  32.640  30.526  1.00  0.00     0.042 C 
BRANCH  38  39
ATOM     39  C   UNL A   1      34.851  32.727  29.007  1.00  0.00     0.118 C 
BRANCH  39  40
ATOM     40  N   UNL A   1      34.150  31.627  28.363  1.00  0.00    -0.352 N 
ATOM     41  C   UNL A   1      34.620  30.416  27.923  1.00  0.00     0.251 C 
ATOM     42  H   UNL A   1      33.188  31.773  28.222  1.00  0.00     0.163 HD
ATOM     43  O   UNL A   1      33.915  29.723  27.195  1.00  0.00    -0.269 OA
BRANCH  41  44
ATOM     44  C   UNL A   1      35.968  29.940  28.306  1.00  0.00     0.039 A 
ATOM     45  C   UNL A   1      37.020  30.113  27.401  1.00  0.00     0.014 A 
ATOM     46  C   UNL A   1      36.192  29.283  29.518  1.00  0.00     0.014 A 
ATOM     47  C   UNL A   1      38.303  29.675  27.734  1.00  0.00     0.010 A 
ATOM     48  C   UNL A   1      37.485  28.912  29.882  1.00  0.00     0.010 A 
ATOM     49  C   UNL A   1      38.552  29.100  28.991  1.00  0.00    -0.014 A 
BRANCH  49  50
ATOM     50  C   UNL A   1      39.925  28.703  29.392  1.00  0.00     0.031 A 
ATOM     51  C   UNL A   1      40.769  29.620  30.232  1.00  0.00     0.074 A 
ATOM     52  C   UNL A   1      40.436  27.543  28.936  1.00  0.00     0.049 A 
ATOM     53  N   UNL A   1      42.009  29.473  30.627  1.00  0.00    -0.248 NA
ATOM     54  C   UNL A   1      40.146  30.880  30.663  1.00  0.00     0.031 C 
ATOM     55  C   UNL A   1      39.733  26.597  28.068  1.00  0.00     0.029 A 
ATOM     56  N   UNL A   1      41.669  26.970  29.124  1.00  0.00    -0.354 N 
ATOM     57  C   UNL A   1      42.320  30.628  31.334  1.00  0.00     0.074 A 
ATOM     58  C   UNL A   1      41.155  31.485  31.273  1.00  0.00     0.031 C 
ATOM     59  C   UNL A   1      40.539  25.555  27.811  1.00  0.00     0.029 A 
ATOM     60  C   UNL A   1      41.827  25.779  28.460  1.00  0.00     0.049 A 
ATOM     61  H   UNL A   1      42.372  27.375  29.680  1.00  0.00     0.167 HD
ATOM     62  C   UNL A   1      43.466  30.935  31.987  1.00  0.00     0.037 A 
ATOM     63  C   UNL A   1      42.894  24.963  28.373  1.00  0.00     0.037 A 
ATOM     64  C   UNL A   1      44.612  30.066  32.060  1.00  0.00     0.049 A 
ATOM     65  C   UNL A   1      44.153  25.323  29.111  1.00  0.00     0.074 A 
ATOM     66  C   UNL A   1      45.789  30.246  32.765  1.00  0.00     0.029 A 
ATOM     67  N   UNL A   1      44.729  28.855  31.392  1.00  0.00    -0.354 N 
ATOM     68  N   UNL A   1      44.406  26.376  29.850  1.00  0.00    -0.248 NA
ATOM     69  C   UNL A   1      45.274  24.378  29.010  1.00  0.00     0.031 C 
ATOM     70  C   UNL A   1      46.641  29.175  32.477  1.00  0.00     0.029 A 
ATOM     71  C   UNL A   1      45.972  28.295  31.640  1.00  0.00     0.049 A 
ATOM     72  H   UNL A   1      44.031  28.453  30.825  1.00  0.00     0.167 HD
ATOM     73  C   UNL A   1      45.702  26.214  30.317  1.00  0.00     0.074 A 
ATOM     74  C   UNL A   1      46.177  24.948  29.794  1.00  0.00     0.031 C 
ATOM     75  C   UNL A   1      46.434  27.037  31.107  1.00  0.00     0.037 A 
BRANCH  62  76
ATOM     76  C   UNL A   1      43.542  32.272  32.669  1.00  0.00     0.064 A 
ATOM     77  C   UNL A   1      44.028  33.413  32.012  1.00  0.00     0.173 A 
ATOM     78  C   UNL A   1      43.095  32.421  33.991  1.00  0.00     0.173 A 
ATOM     79  F   UNL A   1      44.477  33.326  30.750  1.00  0.00    -0.203 F 
ATOM     80  C   UNL A   1      44.098  34.642  32.664  1.00  0.00     0.198 A 
ATOM     81  C   UNL A   1      43.135  33.659  34.629  1.00  0.00     0.198 A 
ATOM     82  F   UNL A   1      42.613  31.366  34.666  1.00  0.00    -0.203 F 
ATOM     83  F   UNL A   1      44.619  35.704  32.034  1.00  0.00    -0.200 F 
ATOM     84  C   UNL A   1      43.645  34.766  33.969  1.00  0.00     0.200 A 
ATOM     85  F   UNL A   1      42.682  33.779  35.885  1.00  0.00    -0.200 F 
ATOM     86  F   UNL A   1      43.708  35.950  34.592  1.00  0.00    -0.200 F 
ENDBRANCH  62  76
BRANCH  63  87
ATOM     87  C   UNL A   1      42.804  23.719  27.566  1.00  0.00     0.064 A 
ATOM     88  C   UNL A   1      42.365  22.517  28.138  1.00  0.00     0.173 A 
ATOM     89  C   UNL A   1      43.134  23.710  26.202  1.00  0.00     0.173 A 
ATOM     90  F   UNL A   1      42.055  22.470  29.441  1.00  0.00    -0.203 F 
ATOM     91  C   UNL A   1      42.274  21.351  27.380  1.00  0.00     0.198 A 
ATOM     92  C   UNL A   1      43.015  22.551  25.440  1.00  0.00     0.198 A 
ATOM     93  F   UNL A   1      43.552  24.837  25.606  1.00  0.00    -0.203 F 
ATOM     94  F   UNL A   1      41.888  20.207  27.960  1.00  0.00    -0.200 F 
ATOM     95  C   UNL A   1      42.591  21.370  26.030  1.00  0.00     0.200 A 
ATOM     96  F   UNL A   1      43.305  22.580  24.131  1.00  0.00    -0.200 F 
ATOM     97  F   UNL A   1      42.492  20.252  25.299  1.00  0.00    -0.200 F 
ENDBRANCH  63  87
BRANCH  75  98
ATOM     98  C   UNL A   1      47.820  26.589  31.470  1.00  0.00     0.064 A 
ATOM     99  C   UNL A   1      48.065  25.784  32.593  1.00  0.00     0.173 A 
ATOM    100  C   UNL A   1      48.915  26.938  30.663  1.00  0.00     0.173 A 
ATOM    101  F   UNL A   1      47.055  25.435  33.406  1.00  0.00    -0.203 F 
ATOM    102  C   UNL A   1      49.355  25.368  32.909  1.00  0.00     0.198 A 
ATOM    103  C   UNL A   1      50.199  26.493  30.964  1.00  0.00     0.198 A 
ATOM    104  F   UNL A   1      48.736  27.701  29.574  1.00  0.00    -0.203 F 
ATOM    105  F   UNL A   1      49.571  24.641  34.015  1.00  0.00    -0.200 F 
ATOM    106  C   UNL A   1      50.419  25.715  32.089  1.00  0.00     0.200 A 
ATOM    107  F   UNL A   1      51.223  26.817  30.163  1.00  0.00    -0.200 F 
ATOM    108  F   UNL A   1      51.660  25.306  32.391  1.00  0.00    -0.200 F 
ENDBRANCH  75  98
ENDBRANCH  49  50
ENDBRANCH  41  44
ENDBRANCH  39  40
ENDBRANCH  38  39
ENDBRANCH  37  38
ENDBRANCH   3  37
TORSDOF 15
ENDMDL
MODEL 2
REMARK VINA RESULT:      -9.6      3.962     10.351
REMARK SMILES CC[C@H](C)c1ccc(N2C(=O)NC(=O)/C(=C/c3ccc(-c4ccc(C(=O)NCCCNC(=O)c5ccc(-c6c7nc(c(-c8c(F)c(F)c(F)c(F)c8F)c8ccc([nH]8)c(-c8c(F)c(F)c(F)c(F)c8F)c8nc(c(-c9c(F)c(F)c(F)c(F)c9F)c9ccc6[nH]9)C=C8)C=C7)cc5)cc4)o3)C2=O)cc1
REMARK SMILES IDX 25 1 26 2 27 3 24 5 21 6 22 7 98 8 23 9 97 10 20 11 17 12
REMARK SMILES IDX 18 13 99 14 19 15 16 16 9 17 10 18 100 19 11 20 12 21 15 22
REMARK SMILES IDX 101 23 13 24 14 26 8 27 5 28 6 29 103 30 7 31 102 32 3 33
REMARK SMILES IDX 4 34 2 35 1 36 28 37 29 38 30 39 31 40 32 41 33 43 34 44
REMARK SMILES IDX 35 45 96 46 36 47 95 48 37 49 38 50 39 51 89 52 40 53 94 54
REMARK SMILES IDX 88 55 90 56 41 57 93 58 87 59 86 60 42 62 74 63 54 64 73 65
REMARK SMILES IDX 55 66 58 67 72 68 91 69 56 70 57 71 71 73 92 74 59 75 43 76
REMARK SMILES IDX 44 77 52 78 45 79 46 80 50 81 53 82 47 83 48 84 51 85 49 86
REMARK SMILES IDX 75 87 76 88 84 89 77 90 78 91 82 92 85 93 79 94 80 95 83 96
REMARK SMILES IDX 81 97 60 98 61 99 69 100 62 101 63 102 67 103 70 104 64 105
REMARK SMILES IDX 65 106 68 107 66 108
REMARK H PARENT 27 4 12 25 31 42 90 61 58 72
REMARK Flexibility Score: inf
ROOT
ATOM      1  C   UNL A   1      45.034  24.191  26.901  1.00  0.00     0.251 C 
ATOM      2  O   UNL A   1      45.745  25.074  26.421  1.00  0.00    -0.269 OA
ATOM      3  N   UNL A   1      44.490  23.269  26.041  1.00  0.00    -0.352 N 
ATOM      4  H   UNL A   1      44.667  23.453  25.090  1.00  0.00     0.163 HD
ENDROOT
BRANCH   1   5
ATOM      5  C   UNL A   1      44.835  24.137  28.375  1.00  0.00     0.039 A 
ATOM      6  C   UNL A   1      44.631  24.007  31.178  1.00  0.00     0.017 A 
ATOM      7  C   UNL A   1      45.663  24.740  30.589  1.00  0.00     0.013 A 
ATOM      8  C   UNL A   1      43.674  23.397  30.367  1.00  0.00     0.013 A 
ATOM      9  C   UNL A   1      45.768  24.797  29.193  1.00  0.00     0.014 A 
ATOM     10  C   UNL A   1      43.758  23.492  28.981  1.00  0.00     0.014 A 
BRANCH   6  11
ATOM     11  C   UNL A   1      44.534  23.806  32.605  1.00  0.00     0.134 A 
ATOM     12  C   UNL A   1      44.935  24.354  34.704  1.00  0.00     0.128 A 
ATOM     13  C   UNL A   1      44.004  23.320  34.705  1.00  0.00     0.051 A 
ATOM     14  O   UNL A   1      45.227  24.664  33.397  1.00  0.00    -0.457 OA
ATOM     15  C   UNL A   1      43.772  22.952  33.366  1.00  0.00     0.051 A 
BRANCH  12  16
ATOM     16  C   UNL A   1      45.531  24.995  35.822  1.00  0.00     0.066 C 
ATOM     17  N   UNL A   1      43.825  28.272  36.055  1.00  0.00    -0.228 N 
ATOM     18  C   UNL A   1      44.738  28.942  36.864  1.00  0.00     0.335 C 
ATOM     19  C   UNL A   1      43.925  26.913  35.742  1.00  0.00     0.272 C 
ATOM     20  O   UNL A   1      44.724  30.143  37.132  1.00  0.00    -0.247 OA
ATOM     21  N   UNL A   1      45.712  28.179  37.455  1.00  0.00    -0.273 N 
ATOM     22  C   UNL A   1      45.127  26.205  36.259  1.00  0.00     0.109 C 
ATOM     23  O   UNL A   1      43.099  26.308  35.060  1.00  0.00    -0.268 OA
ATOM     24  C   UNL A   1      45.973  26.855  37.271  1.00  0.00     0.265 C 
ATOM     25  H   UNL A   1      46.297  28.648  38.093  1.00  0.00     0.175 HD
ATOM     26  O   UNL A   1      46.879  26.290  37.872  1.00  0.00    -0.269 OA
BRANCH  17  27
ATOM     27  C   UNL A   1      42.706  28.993  35.504  1.00  0.00     0.054 A 
ATOM     28  C   UNL A   1      40.384  30.239  34.391  1.00  0.00    -0.045 A 
ATOM     29  C   UNL A   1      40.398  29.761  35.707  1.00  0.00     0.006 A 
ATOM     30  C   UNL A   1      41.584  30.128  33.665  1.00  0.00     0.006 A 
ATOM     31  C   UNL A   1      41.529  29.143  36.246  1.00  0.00     0.027 A 
ATOM     32  C   UNL A   1      42.730  29.523  34.213  1.00  0.00     0.027 A 
BRANCH  28  33
ATOM     33  C   UNL A   1      39.149  30.950  33.832  1.00  0.00     0.016 C 
ATOM     34  C   UNL A   1      38.147  30.020  33.129  1.00  0.00     0.013 C 
BRANCH  33  35
ATOM     35  C   UNL A   1      38.386  31.858  34.836  1.00  0.00     0.004 C 
ATOM     36  C   UNL A   1      38.880  33.297  34.910  1.00  0.00     0.004 C 
ENDBRANCH  33  35
ENDBRANCH  28  33
ENDBRANCH  17  27
ENDBRANCH  12  16
ENDBRANCH   6  11
ENDBRANCH   1   5
BRANCH   3  37
ATOM     37  C   UNL A   1      43.701  22.070  26.274  1.00  0.00     0.118 C 
BRANCH  37  38
ATOM     38  C   UNL A   1      42.303  22.197  25.668  1.00  0.00     0.042 C 
BRANCH  38  39
ATOM     39  C   UNL A   1      41.183  21.944  26.670  1.00  0.00     0.118 C 
BRANCH  39  40
ATOM     40  N   UNL A   1      39.868  22.096  26.065  1.00  0.00    -0.352 N 
ATOM     41  C   UNL A   1      38.951  23.108  26.186  1.00  0.00     0.251 C 
ATOM     42  H   UNL A   1      39.595  21.357  25.476  1.00  0.00     0.163 HD
ATOM     43  O   UNL A   1      37.805  22.936  25.780  1.00  0.00    -0.269 OA
BRANCH  41  44
ATOM     44  C   UNL A   1      39.322  24.399  26.807  1.00  0.00     0.039 A 
ATOM     45  C   UNL A   1      38.923  24.646  28.124  1.00  0.00     0.014 A 
ATOM     46  C   UNL A   1      40.008  25.382  26.090  1.00  0.00     0.014 A 
ATOM     47  C   UNL A   1      39.258  25.855  28.737  1.00  0.00     0.010 A 
ATOM     48  C   UNL A   1      40.406  26.557  26.724  1.00  0.00     0.010 A 
ATOM     49  C   UNL A   1      40.030  26.807  28.052  1.00  0.00    -0.014 A 
BRANCH  49  50
ATOM     50  C   UNL A   1      40.465  28.062  28.717  1.00  0.00     0.031 A 
ATOM     51  C   UNL A   1      41.865  28.201  29.242  1.00  0.00     0.074 A 
ATOM     52  C   UNL A   1      39.569  29.049  28.910  1.00  0.00     0.049 A 
ATOM     53  N   UNL A   1      42.406  29.193  29.906  1.00  0.00    -0.248 NA
ATOM     54  C   UNL A   1      42.771  27.065  29.017  1.00  0.00     0.031 C 
ATOM     55  C   UNL A   1      38.166  29.006  28.495  1.00  0.00     0.029 A 
ATOM     56  N   UNL A   1      39.699  30.272  29.519  1.00  0.00    -0.354 N 
ATOM     57  C   UNL A   1      43.705  28.793  30.192  1.00  0.00     0.074 A 
ATOM     58  C   UNL A   1      43.856  27.451  29.674  1.00  0.00     0.031 C 
ATOM     59  C   UNL A   1      37.569  30.155  28.846  1.00  0.00     0.029 A 
ATOM     60  C   UNL A   1      38.533  30.997  29.547  1.00  0.00     0.049 A 
ATOM     61  H   UNL A   1      40.547  30.597  29.899  1.00  0.00     0.167 HD
ATOM     62  C   UNL A   1      44.685  29.490  30.816  1.00  0.00     0.037 A 
ATOM     63  C   UNL A   1      38.268  32.201  30.088  1.00  0.00     0.037 A 
ATOM     64  C   UNL A   1      44.531  30.834  31.309  1.00  0.00     0.049 A 
ATOM     65  C   UNL A   1      39.373  32.958  30.771  1.00  0.00     0.074 A 
ATOM     66  C   UNL A   1      45.484  31.658  31.880  1.00  0.00     0.029 A 
ATOM     67  N   UNL A   1      43.340  31.547  31.302  1.00  0.00    -0.354 N 
ATOM     68  N   UNL A   1      40.622  32.606  30.959  1.00  0.00    -0.248 NA
ATOM     69  C   UNL A   1      39.034  34.282  31.311  1.00  0.00     0.031 C 
ATOM     70  C   UNL A   1      44.858  32.847  32.272  1.00  0.00     0.029 A 
ATOM     71  C   UNL A   1      43.527  32.788  31.891  1.00  0.00     0.049 A 
ATOM     72  H   UNL A   1      42.488  31.220  30.933  1.00  0.00     0.167 HD
ATOM     73  C   UNL A   1      41.223  33.668  31.618  1.00  0.00     0.074 A 
ATOM     74  C   UNL A   1      40.205  34.687  31.781  1.00  0.00     0.031 C 
ATOM     75  C   UNL A   1      42.502  33.790  32.051  1.00  0.00     0.037 A 
BRANCH  62  76
ATOM     76  C   UNL A   1      46.010  28.809  31.008  1.00  0.00     0.064 A 
ATOM     77  C   UNL A   1      47.068  28.975  30.100  1.00  0.00     0.173 A 
ATOM     78  C   UNL A   1      46.237  28.000  32.132  1.00  0.00     0.173 A 
ATOM     79  F   UNL A   1      46.904  29.730  29.003  1.00  0.00    -0.203 F 
ATOM     80  C   UNL A   1      48.287  28.329  30.292  1.00  0.00     0.198 A 
ATOM     81  C   UNL A   1      47.468  27.383  32.339  1.00  0.00     0.198 A 
ATOM     82  F   UNL A   1      45.264  27.813  33.038  1.00  0.00    -0.203 F 
ATOM     83  F   UNL A   1      49.262  28.458  29.382  1.00  0.00    -0.200 F 
ATOM     84  C   UNL A   1      48.489  27.540  31.414  1.00  0.00     0.200 A 
ATOM     85  F   UNL A   1      47.665  26.633  33.432  1.00  0.00    -0.200 F 
ATOM     86  F   UNL A   1      49.664  26.923  31.599  1.00  0.00    -0.200 F 
ENDBRANCH  62  76
BRANCH  63  87
ATOM     87  C   UNL A   1      36.897  32.765  29.988  1.00  0.00     0.064 A 
ATOM     88  C   UNL A   1      36.021  32.731  31.082  1.00  0.00     0.173 A 
ATOM     89  C   UNL A   1      36.442  33.370  28.806  1.00  0.00     0.173 A 
ATOM     90  F   UNL A   1      36.403  32.148  32.227  1.00  0.00    -0.203 F 
ATOM     91  C   UNL A   1      34.737  33.265  30.992  1.00  0.00     0.198 A 
ATOM     92  C   UNL A   1      35.169  33.930  28.728  1.00  0.00     0.198 A 
ATOM     93  F   UNL A   1      37.245  33.435  27.734  1.00  0.00    -0.203 F 
ATOM     94  F   UNL A   1      33.906  33.185  32.040  1.00  0.00    -0.200 F 
ATOM     95  C   UNL A   1      34.315  33.872  29.818  1.00  0.00     0.200 A 
ATOM     96  F   UNL A   1      34.773  34.531  27.597  1.00  0.00    -0.200 F 
ATOM     97  F   UNL A   1      33.085  34.397  29.737  1.00  0.00    -0.200 F 
ENDBRANCH  63  87
BRANCH  75  98
ATOM     98  C   UNL A   1      42.880  35.077  32.727  1.00  0.00     0.064 A 
ATOM     99  C   UNL A   1      42.737  35.252  34.111  1.00  0.00     0.173 A 
ATOM    100  C   UNL A   1      43.427  36.135  31.985  1.00  0.00     0.173 A 
ATOM    101  F   UNL A   1      42.204  34.277  34.864  1.00  0.00    -0.203 F 
ATOM    102  C   UNL A   1      43.103  36.448  34.723  1.00  0.00     0.198 A 
ATOM    103  C   UNL A   1      43.823  37.317  32.606  1.00  0.00     0.198 A 
ATOM    104  F   UNL A   1      43.592  36.018  30.658  1.00  0.00    -0.203 F 
ATOM    105  F   UNL A   1      42.910  36.611  36.040  1.00  0.00    -0.200 F 
ATOM    106  C   UNL A   1      43.653  37.475  33.972  1.00  0.00     0.200 A 
ATOM    107  F   UNL A   1      44.367  38.303  31.880  1.00  0.00    -0.200 F 
ATOM    108  F   UNL A   1      44.013  38.622  34.565  1.00  0.00    -0.200 F 
ENDBRANCH  75  98
ENDBRANCH  49  50
ENDBRANCH  41  44
ENDBRANCH  39  40
ENDBRANCH  38  39
ENDBRANCH  37  38
ENDBRANCH   3  37
TORSDOF 15
ENDMDL
MODEL 3
REMARK VINA RESULT:      -9.5      3.832     10.136
REMARK SMILES CC[C@H](C)c1ccc(N2C(=O)NC(=O)/C(=C/c3ccc(-c4ccc(C(=O)NCCCNC(=O)c5ccc(-c6c7nc(c(-c8c(F)c(F)c(F)c(F)c8F)c8ccc([nH]8)c(-c8c(F)c(F)c(F)c(F)c8F)c8nc(c(-c9c(F)c(F)c(F)c(F)c9F)c9ccc6[nH]9)C=C8)C=C7)cc5)cc4)o3)C2=O)cc1
REMARK SMILES IDX 25 1 26 2 27 3 24 5 21 6 22 7 98 8 23 9 97 10 20 11 17 12
REMARK SMILES IDX 18 13 99 14 19 15 16 16 9 17 10 18 100 19 11 20 12 21 15 22
REMARK SMILES IDX 101 23 13 24 14 26 8 27 5 28 6 29 103 30 7 31 102 32 3 33
REMARK SMILES IDX 4 34 2 35 1 36 28 37 29 38 30 39 31 40 32 41 33 43 34 44
REMARK SMILES IDX 35 45 96 46 36 47 95 48 37 49 38 50 39 51 89 52 40 53 94 54
REMARK SMILES IDX 88 55 90 56 41 57 93 58 87 59 86 60 42 62 74 63 54 64 73 65
REMARK SMILES IDX 55 66 58 67 72 68 91 69 56 70 57 71 71 73 92 74 59 75 43 76
REMARK SMILES IDX 44 77 52 78 45 79 46 80 50 81 53 82 47 83 48 84 51 85 49 86
REMARK SMILES IDX 75 87 76 88 84 89 77 90 78 91 82 92 85 93 79 94 80 95 83 96
REMARK SMILES IDX 81 97 60 98 61 99 69 100 62 101 63 102 67 103 70 104 64 105
REMARK SMILES IDX 65 106 68 107 66 108
REMARK H PARENT 27 4 12 25 31 42 90 61 58 72
REMARK Flexibility Score: inf
ROOT
ATOM      1  C   UNL A   1      42.445  23.290  25.810  1.00  0.00     0.251 C 
ATOM      2  O   UNL A   1      41.713  22.308  25.698  1.00  0.00    -0.269 OA
ATOM      3  N   UNL A   1      43.610  23.307  25.082  1.00  0.00    -0.352 N 
ATOM      4  H   UNL A   1      43.785  22.475  24.584  1.00  0.00     0.163 HD
ENDROOT
BRANCH   1   5
ATOM      5  C   UNL A   1      42.020  24.419  26.681  1.00  0.00     0.039 A 
ATOM      6  C   UNL A   1      41.250  26.661  28.197  1.00  0.00     0.017 A 
ATOM      7  C   UNL A   1      40.814  26.530  26.877  1.00  0.00     0.013 A 
ATOM      8  C   UNL A   1      42.015  25.645  28.770  1.00  0.00     0.013 A 
ATOM      9  C   UNL A   1      41.205  25.417  26.121  1.00  0.00     0.014 A 
ATOM     10  C   UNL A   1      42.366  24.520  28.028  1.00  0.00     0.014 A 
BRANCH   6  11
ATOM     11  C   UNL A   1      40.987  27.838  28.992  1.00  0.00     0.134 A 
ATOM     12  C   UNL A   1      40.526  28.876  30.884  1.00  0.00     0.128 A 
ATOM     13  C   UNL A   1      40.844  29.842  29.935  1.00  0.00     0.051 A 
ATOM     14  O   UNL A   1      40.651  27.641  30.293  1.00  0.00    -0.457 OA
ATOM     15  C   UNL A   1      41.108  29.180  28.720  1.00  0.00     0.051 A 
BRANCH  12  16
ATOM     16  C   UNL A   1      40.116  29.072  32.228  1.00  0.00     0.066 C 
ATOM     17  N   UNL A   1      37.405  31.585  32.036  1.00  0.00    -0.228 N 
ATOM     18  C   UNL A   1      37.384  31.993  33.366  1.00  0.00     0.335 C 
ATOM     19  C   UNL A   1      38.192  30.530  31.566  1.00  0.00     0.272 C 
ATOM     20  O   UNL A   1      36.748  32.942  33.823  1.00  0.00    -0.247 OA
ATOM     21  N   UNL A   1      38.100  31.232  34.254  1.00  0.00    -0.273 N 
ATOM     22  C   UNL A   1      39.096  29.889  32.560  1.00  0.00     0.109 C 
ATOM     23  O   UNL A   1      38.185  30.140  30.399  1.00  0.00    -0.268 OA
ATOM     24  C   UNL A   1      38.924  30.181  33.990  1.00  0.00     0.265 C 
ATOM     25  H   UNL A   1      38.007  31.477  35.203  1.00  0.00     0.175 HD
ATOM     26  O   UNL A   1      39.505  29.580  34.887  1.00  0.00    -0.269 OA
BRANCH  17  27
ATOM     27  C   UNL A   1      36.577  32.266  31.074  1.00  0.00     0.054 A 
ATOM     28  C   UNL A   1      34.950  33.792  29.283  1.00  0.00    -0.045 A 
ATOM     29  C   UNL A   1      36.338  33.964  29.337  1.00  0.00     0.006 A 
ATOM     30  C   UNL A   1      34.404  32.794  30.111  1.00  0.00     0.006 A 
ATOM     31  C   UNL A   1      37.131  33.226  30.219  1.00  0.00     0.027 A 
ATOM     32  C   UNL A   1      35.202  32.036  30.986  1.00  0.00     0.027 A 
BRANCH  28  33
ATOM     33  C   UNL A   1      34.104  34.581  28.280  1.00  0.00     0.016 C 
ATOM     34  C   UNL A   1      32.885  33.815  27.740  1.00  0.00     0.013 C 
BRANCH  33  35
ATOM     35  C   UNL A   1      33.653  35.993  28.746  1.00  0.00     0.004 C 
ATOM     36  C   UNL A   1      32.904  36.027  30.072  1.00  0.00     0.004 C 
ENDBRANCH  33  35
ENDBRANCH  28  33
ENDBRANCH  17  27
ENDBRANCH  12  16
ENDBRANCH   6  11
ENDBRANCH   1   5
BRANCH   3  37
ATOM     37  C   UNL A   1      44.632  24.326  24.908  1.00  0.00     0.118 C 
BRANCH  37  38
ATOM     38  C   UNL A   1      46.026  23.773  25.211  1.00  0.00     0.042 C 
BRANCH  38  39
ATOM     39  C   UNL A   1      47.025  24.845  25.632  1.00  0.00     0.118 C 
BRANCH  39  40
ATOM     40  N   UNL A   1      47.172  25.877  24.618  1.00  0.00    -0.352 N 
ATOM     41  C   UNL A   1      46.697  27.164  24.590  1.00  0.00     0.251 C 
ATOM     42  H   UNL A   1      47.693  25.612  23.827  1.00  0.00     0.163 HD
ATOM     43  O   UNL A   1      46.730  27.797  23.539  1.00  0.00    -0.269 OA
BRANCH  41  44
ATOM     44  C   UNL A   1      46.137  27.792  25.807  1.00  0.00     0.039 A 
ATOM     45  C   UNL A   1      47.019  28.359  26.732  1.00  0.00     0.014 A 
ATOM     46  C   UNL A   1      44.765  27.782  26.068  1.00  0.00     0.014 A 
ATOM     47  C   UNL A   1      46.522  28.960  27.890  1.00  0.00     0.010 A 
ATOM     48  C   UNL A   1      44.263  28.446  27.185  1.00  0.00     0.010 A 
ATOM     49  C   UNL A   1      45.136  29.036  28.110  1.00  0.00    -0.014 A 
BRANCH  49  50
ATOM     50  C   UNL A   1      44.588  29.744  29.294  1.00  0.00     0.031 A 
ATOM     51  C   UNL A   1      44.328  31.222  29.247  1.00  0.00     0.074 A 
ATOM     52  C   UNL A   1      44.391  29.059  30.438  1.00  0.00     0.049 A 
ATOM     53  N   UNL A   1      43.912  32.021  30.199  1.00  0.00    -0.248 NA
ATOM     54  C   UNL A   1      44.597  31.899  27.970  1.00  0.00     0.031 C 
ATOM     55  C   UNL A   1      44.661  27.632  30.622  1.00  0.00     0.029 A 
ATOM     56  N   UNL A   1      43.938  29.473  31.665  1.00  0.00    -0.354 N 
ATOM     57  C   UNL A   1      43.888  33.293  29.641  1.00  0.00     0.074 A 
ATOM     58  C   UNL A   1      44.377  33.168  28.285  1.00  0.00     0.031 C 
ATOM     59  C   UNL A   1      44.353  27.286  31.881  1.00  0.00     0.029 A 
ATOM     60  C   UNL A   1      43.905  28.472  32.604  1.00  0.00     0.049 A 
ATOM     61  H   UNL A   1      43.663  30.400  31.853  1.00  0.00     0.167 HD
ATOM     62  C   UNL A   1      43.480  34.454  30.206  1.00  0.00     0.037 A 
ATOM     63  C   UNL A   1      43.564  28.508  33.906  1.00  0.00     0.037 A 
ATOM     64  C   UNL A   1      42.974  34.565  31.551  1.00  0.00     0.049 A 
ATOM     65  C   UNL A   1      43.110  29.808  34.509  1.00  0.00     0.074 A 
ATOM     66  C   UNL A   1      42.457  35.678  32.189  1.00  0.00     0.029 A 
ATOM     67  N   UNL A   1      42.936  33.525  32.468  1.00  0.00    -0.354 N 
ATOM     68  N   UNL A   1      43.007  30.988  33.948  1.00  0.00    -0.248 NA
ATOM     69  C   UNL A   1      42.716  29.780  35.925  1.00  0.00     0.031 C 
ATOM     70  C   UNL A   1      42.160  35.327  33.511  1.00  0.00     0.029 A 
ATOM     71  C   UNL A   1      42.436  33.979  33.679  1.00  0.00     0.049 A 
ATOM     72  H   UNL A   1      43.221  32.600  32.286  1.00  0.00     0.167 HD
ATOM     73  C   UNL A   1      42.521  31.838  34.931  1.00  0.00     0.074 A 
ATOM     74  C   UNL A   1      42.329  31.033  36.120  1.00  0.00     0.031 C 
ATOM     75  C   UNL A   1      42.257  33.166  34.856  1.00  0.00     0.037 A 
BRANCH  62  76
ATOM     76  C   UNL A   1      43.570  35.703  29.375  1.00  0.00     0.064 A 
ATOM     77  C   UNL A   1      44.728  36.496  29.352  1.00  0.00     0.173 A 
ATOM     78  C   UNL A   1      42.493  36.097  28.566  1.00  0.00     0.173 A 
ATOM     79  F   UNL A   1      45.784  36.171  30.112  1.00  0.00    -0.203 F 
ATOM     80  C   UNL A   1      44.790  37.654  28.581  1.00  0.00     0.198 A 
ATOM     81  C   UNL A   1      42.571  37.237  27.770  1.00  0.00     0.198 A 
ATOM     82  F   UNL A   1      41.364  35.372  28.542  1.00  0.00    -0.203 F 
ATOM     83  F   UNL A   1      45.885  38.426  28.619  1.00  0.00    -0.200 F 
ATOM     84  C   UNL A   1      43.714  38.020  27.785  1.00  0.00     0.200 A 
ATOM     85  F   UNL A   1      41.536  37.580  26.990  1.00  0.00    -0.200 F 
ATOM     86  F   UNL A   1      43.777  39.132  27.039  1.00  0.00    -0.200 F 
ENDBRANCH  62  76
BRANCH  63  87
ATOM     87  C   UNL A   1      43.629  27.265  34.717  1.00  0.00     0.064 A 
ATOM     88  C   UNL A   1      42.509  26.435  34.857  1.00  0.00     0.173 A 
ATOM     89  C   UNL A   1      44.817  26.870  35.350  1.00  0.00     0.173 A 
ATOM     90  F   UNL A   1      41.345  26.779  34.285  1.00  0.00    -0.203 F 
ATOM     91  C   UNL A   1      42.569  25.265  35.612  1.00  0.00     0.198 A 
ATOM     92  C   UNL A   1      44.885  25.685  36.080  1.00  0.00     0.198 A 
ATOM     93  F   UNL A   1      45.920  27.625  35.240  1.00  0.00    -0.203 F 
ATOM     94  F   UNL A   1      41.473  24.509  35.761  1.00  0.00    -0.200 F 
ATOM     95  C   UNL A   1      43.759  24.887  36.216  1.00  0.00     0.200 A 
ATOM     96  F   UNL A   1      46.042  25.314  36.646  1.00  0.00    -0.200 F 
ATOM     97  F   UNL A   1      43.820  23.755  36.932  1.00  0.00    -0.200 F 
ENDBRANCH  63  87
BRANCH  75  98
ATOM     98  C   UNL A   1      41.714  33.829  36.090  1.00  0.00     0.064 A 
ATOM     99  C   UNL A   1      40.336  33.912  36.337  1.00  0.00     0.173 A 
ATOM    100  C   UNL A   1      42.587  34.357  37.055  1.00  0.00     0.173 A 
ATOM    101  F   UNL A   1      39.459  33.438  35.438  1.00  0.00    -0.203 F 
ATOM    102  C   UNL A   1      39.851  34.521  37.492  1.00  0.00     0.198 A 
ATOM    103  C   UNL A   1      42.099  34.935  38.223  1.00  0.00     0.198 A 
ATOM    104  F   UNL A   1      43.915  34.298  36.871  1.00  0.00    -0.203 F 
ATOM    105  F   UNL A   1      38.529  34.633  37.682  1.00  0.00    -0.200 F 
ATOM    106  C   UNL A   1      40.733  35.023  38.437  1.00  0.00     0.200 A 
ATOM    107  F   UNL A   1      42.952  35.407  39.143  1.00  0.00    -0.200 F 
ATOM    108  F   UNL A   1      40.263  35.601  39.552  1.00  0.00    -0.200 F 
ENDBRANCH  75  98
ENDBRANCH  49  50
ENDBRANCH  41  44
ENDBRANCH  39  40
ENDBRANCH  38  39
ENDBRANCH  37  38
ENDBRANCH   3  37
TORSDOF 15
ENDMDL
