MODEL 1
REMARK VINA RESULT:     -12.3      0.000      0.000
REMARK SMILES COC[C@H]1CCN(C(=O)N2CC[C@H](C(=O)NCCCNC(=O)c3ccc(-c4c5nc(c(-c6c(F)c(F)c(F)c(F)c6F)c6ccc([nH]6)c(-c6c(F)c(F)c(F)c(F)c6F)c6nc(c(-c7c(F)c(F)c(F)c(F)c7F)c7ccc4[nH]7)C=C6)C=C5)cc3)[C@@H]2C)C1
REMARK SMILES IDX 17 1 16 2 14 3 15 4 13 6 10 7 11 8 86 9 12 10 87 11 8 12
REMARK SMILES IDX 9 13 7 14 4 15 5 16 88 17 6 18 3 19 2 20 1 21 18 22 19 23
REMARK SMILES IDX 20 24 21 25 22 27 23 28 24 29 85 30 25 31 84 32 26 33 27 34
REMARK SMILES IDX 28 35 78 36 29 37 83 38 77 39 79 40 30 41 82 42 76 43 75 44
REMARK SMILES IDX 31 46 63 47 43 48 62 49 44 50 47 51 61 52 80 53 45 54 46 55
REMARK SMILES IDX 60 57 81 58 48 59 32 60 33 61 41 62 34 63 35 64 39 65 42 66
REMARK SMILES IDX 36 67 37 68 40 69 38 70 64 71 65 72 73 73 66 74 67 75 71 76
REMARK SMILES IDX 74 77 68 78 69 79 72 80 70 81 49 82 50 83 58 84 51 85 52 86
REMARK SMILES IDX 56 87 59 88 53 89 54 90 57 91 55 92
REMARK H PARENT 16 5 20 26 79 45 47 56
REMARK Flexibility Score: inf
ROOT
ATOM      1  C   UNL A   1      37.037  20.838  24.751  1.00  0.00     0.117 C 
ENDROOT
BRANCH   1   2
ATOM      2  N   UNL A   1      37.402  22.073  25.411  1.00  0.00    -0.356 N 
ATOM      3  C   UNL A   1      36.668  23.191  25.651  1.00  0.00     0.225 C 
ATOM      4  O   UNL A   1      37.203  24.069  26.336  1.00  0.00    -0.275 OA
ATOM      5  H   UNL A   1      38.330  22.107  25.738  1.00  0.00     0.163 HD
BRANCH   3   6
ATOM      6  C   UNL A   1      35.271  23.420  25.081  1.00  0.00     0.102 C 
ATOM      7  N   UNL A   1      33.630  21.779  24.669  1.00  0.00    -0.321 N 
ATOM      8  C   UNL A   1      33.865  22.418  23.389  1.00  0.00     0.122 C 
ATOM      9  C   UNL A   1      34.072  22.685  25.726  1.00  0.00     0.096 C 
ATOM     10  C   UNL A   1      35.203  23.104  23.572  1.00  0.00     0.037 C 
ATOM     11  C   UNL A   1      34.309  22.032  27.085  1.00  0.00     0.032 C 
BRANCH   7  12
ATOM     12  C   UNL A   1      32.658  20.820  24.823  1.00  0.00     0.320 C 
ATOM     13  O   UNL A   1      31.611  21.035  25.428  1.00  0.00    -0.248 OA
BRANCH  12  14
ATOM     14  N   UNL A   1      32.971  19.579  24.302  1.00  0.00    -0.324 N 
ATOM     15  C   UNL A   1      34.229  17.607  23.853  1.00  0.00     0.036 C 
ATOM     16  C   UNL A   1      32.930  17.606  23.038  1.00  0.00     0.029 C 
ATOM     17  C   UNL A   1      34.157  18.866  24.732  1.00  0.00     0.127 C 
ATOM     18  C   UNL A   1      32.504  19.056  23.034  1.00  0.00     0.122 C 
BRANCH  15  19
ATOM     19  C   UNL A   1      34.484  16.316  24.637  1.00  0.00     0.165 C 
BRANCH  19  20
ATOM     20  O   UNL A   1      33.410  15.378  24.591  1.00  0.00    -0.384 OA
ATOM     21  C   UNL A   1      32.571  15.390  25.737  1.00  0.00     0.194 C 
ENDBRANCH  19  20
ENDBRANCH  15  19
ENDBRANCH  12  14
ENDBRANCH   7  12
ENDBRANCH   3   6
ENDBRANCH   1   2
BRANCH   1  22
ATOM     22  C   UNL A   1      38.045  19.721  24.947  1.00  0.00     0.042 C 
BRANCH  22  23
ATOM     23  C   UNL A   1      39.132  20.060  25.951  1.00  0.00     0.118 C 
BRANCH  23  24
ATOM     24  N   UNL A   1      40.213  19.081  25.958  1.00  0.00    -0.352 N 
ATOM     25  C   UNL A   1      41.575  19.245  26.024  1.00  0.00     0.251 C 
ATOM     26  H   UNL A   1      39.916  18.144  25.908  1.00  0.00     0.163 HD
ATOM     27  O   UNL A   1      42.310  18.287  25.808  1.00  0.00    -0.269 OA
BRANCH  25  28
ATOM     28  C   UNL A   1      42.161  20.566  26.331  1.00  0.00     0.039 A 
ATOM     29  C   UNL A   1      42.563  21.391  25.277  1.00  0.00     0.014 A 
ATOM     30  C   UNL A   1      42.337  20.990  27.649  1.00  0.00     0.014 A 
ATOM     31  C   UNL A   1      43.070  22.663  25.546  1.00  0.00     0.010 A 
ATOM     32  C   UNL A   1      42.733  22.296  27.913  1.00  0.00     0.010 A 
ATOM     33  C   UNL A   1      43.117  23.142  26.865  1.00  0.00    -0.014 A 
BRANCH  33  34
ATOM     34  C   UNL A   1      43.577  24.521  27.169  1.00  0.00     0.031 A 
ATOM     35  C   UNL A   1      42.610  25.538  27.711  1.00  0.00     0.074 A 
ATOM     36  C   UNL A   1      44.850  24.869  26.898  1.00  0.00     0.049 A 
ATOM     37  N   UNL A   1      42.808  26.803  27.987  1.00  0.00    -0.248 NA
ATOM     38  C   UNL A   1      41.229  25.087  27.943  1.00  0.00     0.031 C 
ATOM     39  C   UNL A   1      45.862  23.988  26.314  1.00  0.00     0.029 A 
ATOM     40  N   UNL A   1      45.510  26.059  27.074  1.00  0.00    -0.354 N 
ATOM     41  C   UNL A   1      41.581  27.294  28.412  1.00  0.00     0.074 A 
ATOM     42  C   UNL A   1      40.627  26.214  28.291  1.00  0.00     0.031 C 
ATOM     43  C   UNL A   1      47.023  24.656  26.213  1.00  0.00     0.029 A 
ATOM     44  C   UNL A   1      46.826  26.022  26.685  1.00  0.00     0.049 A 
ATOM     45  H   UNL A   1      45.079  26.865  27.443  1.00  0.00     0.167 HD
ATOM     46  C   UNL A   1      41.281  28.525  28.889  1.00  0.00     0.037 A 
ATOM     47  C   UNL A   1      47.767  26.984  26.706  1.00  0.00     0.037 A 
ATOM     48  C   UNL A   1      42.241  29.588  29.032  1.00  0.00     0.049 A 
ATOM     49  C   UNL A   1      47.406  28.345  27.239  1.00  0.00     0.074 A 
ATOM     50  C   UNL A   1      42.055  30.854  29.557  1.00  0.00     0.029 A 
ATOM     51  N   UNL A   1      43.571  29.507  28.644  1.00  0.00    -0.354 N 
ATOM     52  N   UNL A   1      46.261  28.774  27.709  1.00  0.00    -0.248 NA
ATOM     53  C   UNL A   1      48.476  29.352  27.253  1.00  0.00     0.031 C 
ATOM     54  C   UNL A   1      43.258  31.557  29.441  1.00  0.00     0.029 A 
ATOM     55  C   UNL A   1      44.211  30.710  28.899  1.00  0.00     0.049 A 
ATOM     56  H   UNL A   1      43.997  28.713  28.248  1.00  0.00     0.167 HD
ATOM     57  C   UNL A   1      46.476  30.088  28.102  1.00  0.00     0.074 A 
ATOM     58  C   UNL A   1      47.871  30.378  27.835  1.00  0.00     0.031 C 
ATOM     59  C   UNL A   1      45.602  30.976  28.634  1.00  0.00     0.037 A 
BRANCH  46  60
ATOM     60  C   UNL A   1      39.861  28.787  29.303  1.00  0.00     0.064 A 
ATOM     61  C   UNL A   1      38.911  29.288  28.397  1.00  0.00     0.173 A 
ATOM     62  C   UNL A   1      39.431  28.497  30.606  1.00  0.00     0.173 A 
ATOM     63  F   UNL A   1      39.272  29.595  27.142  1.00  0.00    -0.203 F 
ATOM     64  C   UNL A   1      37.595  29.514  28.789  1.00  0.00     0.198 A 
ATOM     65  C   UNL A   1      38.106  28.693  30.985  1.00  0.00     0.198 A 
ATOM     66  F   UNL A   1      40.295  28.013  31.511  1.00  0.00    -0.203 F 
ATOM     67  F   UNL A   1      36.720  30.041  27.921  1.00  0.00    -0.200 F 
ATOM     68  C   UNL A   1      37.190  29.209  30.079  1.00  0.00     0.200 A 
ATOM     69  F   UNL A   1      37.713  28.383  32.229  1.00  0.00    -0.200 F 
ATOM     70  F   UNL A   1      35.921  29.417  30.452  1.00  0.00    -0.200 F 
ENDBRANCH  46  60
BRANCH  47  71
ATOM     71  C   UNL A   1      49.147  26.692  26.233  1.00  0.00     0.064 A 
ATOM     72  C   UNL A   1      50.107  26.155  27.102  1.00  0.00     0.173 A 
ATOM     73  C   UNL A   1      49.540  26.958  24.912  1.00  0.00     0.173 A 
ATOM     74  F   UNL A   1      49.787  25.899  28.379  1.00  0.00    -0.203 F 
ATOM     75  C   UNL A   1      51.415  25.925  26.678  1.00  0.00     0.198 A 
ATOM     76  C   UNL A   1      50.838  26.695  24.482  1.00  0.00     0.198 A 
ATOM     77  F   UNL A   1      48.658  27.464  24.038  1.00  0.00    -0.203 F 
ATOM     78  F   UNL A   1      52.327  25.465  27.547  1.00  0.00    -0.200 F 
ATOM     79  C   UNL A   1      51.779  26.190  25.367  1.00  0.00     0.200 A 
ATOM     80  F   UNL A   1      51.181  26.939  23.208  1.00  0.00    -0.200 F 
ATOM     81  F   UNL A   1      53.036  25.969  24.960  1.00  0.00    -0.200 F 
ENDBRANCH  47  71
BRANCH  59  82
ATOM     82  C   UNL A   1      46.137  32.332  28.999  1.00  0.00     0.064 A 
ATOM     83  C   UNL A   1      46.690  32.592  30.261  1.00  0.00     0.173 A 
ATOM     84  C   UNL A   1      46.120  33.375  28.061  1.00  0.00     0.173 A 
ATOM     85  F   UNL A   1      46.718  31.632  31.198  1.00  0.00    -0.203 F 
ATOM     86  C   UNL A   1      47.173  33.857  30.583  1.00  0.00     0.198 A 
ATOM     87  C   UNL A   1      46.636  34.629  28.374  1.00  0.00     0.198 A 
ATOM     88  F   UNL A   1      45.610  33.176  26.836  1.00  0.00    -0.203 F 
ATOM     89  F   UNL A   1      47.643  34.099  31.814  1.00  0.00    -0.200 F 
ATOM     90  C   UNL A   1      47.153  34.872  29.637  1.00  0.00     0.200 A 
ATOM     91  F   UNL A   1      46.631  35.603  27.454  1.00  0.00    -0.200 F 
ATOM     92  F   UNL A   1      47.623  36.088  29.947  1.00  0.00    -0.200 F 
ENDBRANCH  59  82
ENDBRANCH  33  34
ENDBRANCH  25  28
ENDBRANCH  23  24
ENDBRANCH  22  23
ENDBRANCH   1  22
TORSDOF 14
ENDMDL
MODEL 2
REMARK VINA RESULT:     -12.2      6.767     11.903
REMARK SMILES COC[C@H]1CCN(C(=O)N2CC[C@H](C(=O)NCCCNC(=O)c3ccc(-c4c5nc(c(-c6c(F)c(F)c(F)c(F)c6F)c6ccc([nH]6)c(-c6c(F)c(F)c(F)c(F)c6F)c6nc(c(-c7c(F)c(F)c(F)c(F)c7F)c7ccc4[nH]7)C=C6)C=C5)cc3)[C@@H]2C)C1
REMARK SMILES IDX 17 1 16 2 14 3 15 4 13 6 10 7 11 8 86 9 12 10 87 11 8 12
REMARK SMILES IDX 9 13 7 14 4 15 5 16 88 17 6 18 3 19 2 20 1 21 18 22 19 23
REMARK SMILES IDX 20 24 21 25 22 27 23 28 24 29 85 30 25 31 84 32 26 33 27 34
REMARK SMILES IDX 28 35 78 36 29 37 83 38 77 39 79 40 30 41 82 42 76 43 75 44
REMARK SMILES IDX 31 46 63 47 43 48 62 49 44 50 47 51 61 52 80 53 45 54 46 55
REMARK SMILES IDX 60 57 81 58 48 59 32 60 33 61 41 62 34 63 35 64 39 65 42 66
REMARK SMILES IDX 36 67 37 68 40 69 38 70 64 71 65 72 73 73 66 74 67 75 71 76
REMARK SMILES IDX 74 77 68 78 69 79 72 80 70 81 49 82 50 83 58 84 51 85 52 86
REMARK SMILES IDX 56 87 59 88 53 89 54 90 57 91 55 92
REMARK H PARENT 16 5 20 26 79 45 47 56
REMARK Flexibility Score: inf
ROOT
ATOM      1  C   UNL A   1      31.675  30.575  26.631  1.00  0.00     0.117 C 
ENDROOT
BRANCH   1   2
ATOM      2  N   UNL A   1      33.023  30.157  26.948  1.00  0.00    -0.356 N 
ATOM      3  C   UNL A   1      33.672  28.997  26.664  1.00  0.00     0.225 C 
ATOM      4  O   UNL A   1      34.869  28.943  26.964  1.00  0.00    -0.275 OA
ATOM      5  H   UNL A   1      33.555  30.818  27.447  1.00  0.00     0.163 HD
BRANCH   3   6
ATOM      6  C   UNL A   1      32.988  27.775  26.057  1.00  0.00     0.102 C 
ATOM      7  N   UNL A   1      31.328  27.776  24.383  1.00  0.00    -0.321 N 
ATOM      8  C   UNL A   1      30.731  27.098  25.517  1.00  0.00     0.122 C 
ATOM      9  C   UNL A   1      32.781  27.722  24.524  1.00  0.00     0.096 C 
ATOM     10  C   UNL A   1      31.601  27.517  26.683  1.00  0.00     0.037 C 
ATOM     11  C   UNL A   1      33.555  28.734  23.684  1.00  0.00     0.032 C 
BRANCH   7  12
ATOM     12  C   UNL A   1      30.666  27.884  23.184  1.00  0.00     0.320 C 
ATOM     13  O   UNL A   1      30.966  27.206  22.204  1.00  0.00    -0.248 OA
BRANCH  12  14
ATOM     14  N   UNL A   1      29.683  28.853  23.141  1.00  0.00    -0.324 N 
ATOM     15  C   UNL A   1      28.597  30.940  23.515  1.00  0.00     0.036 C 
ATOM     16  C   UNL A   1      27.638  29.956  22.834  1.00  0.00     0.029 C 
ATOM     17  C   UNL A   1      29.943  30.202  23.601  1.00  0.00     0.127 C 
ATOM     18  C   UNL A   1      28.256  28.604  23.103  1.00  0.00     0.122 C 
BRANCH  15  19
ATOM     19  C   UNL A   1      28.683  32.312  22.837  1.00  0.00     0.165 C 
BRANCH  19  20
ATOM     20  O   UNL A   1      27.621  32.583  21.925  1.00  0.00    -0.384 OA
ATOM     21  C   UNL A   1      27.991  32.514  20.555  1.00  0.00     0.194 C 
ENDBRANCH  19  20
ENDBRANCH  15  19
ENDBRANCH  12  14
ENDBRANCH   7  12
ENDBRANCH   3   6
ENDBRANCH   1   2
BRANCH   1  22
ATOM     22  C   UNL A   1      31.444  32.066  26.797  1.00  0.00     0.042 C 
BRANCH  22  23
ATOM     23  C   UNL A   1      32.720  32.847  27.057  1.00  0.00     0.118 C 
BRANCH  23  24
ATOM     24  N   UNL A   1      32.461  34.204  27.524  1.00  0.00    -0.352 N 
ATOM     25  C   UNL A   1      32.975  34.903  28.588  1.00  0.00     0.251 C 
ATOM     26  H   UNL A   1      31.807  34.704  26.984  1.00  0.00     0.163 HD
ATOM     27  O   UNL A   1      32.461  35.967  28.918  1.00  0.00    -0.269 OA
BRANCH  25  28
ATOM     28  C   UNL A   1      34.126  34.376  29.351  1.00  0.00     0.039 A 
ATOM     29  C   UNL A   1      33.888  33.654  30.523  1.00  0.00     0.014 A 
ATOM     30  C   UNL A   1      35.437  34.605  28.930  1.00  0.00     0.014 A 
ATOM     31  C   UNL A   1      34.961  33.105  31.228  1.00  0.00     0.010 A 
ATOM     32  C   UNL A   1      36.494  33.963  29.566  1.00  0.00     0.010 A 
ATOM     33  C   UNL A   1      36.269  33.217  30.729  1.00  0.00    -0.014 A 
BRANCH  33  34
ATOM     34  C   UNL A   1      37.415  32.572  31.419  1.00  0.00     0.031 A 
ATOM     35  C   UNL A   1      38.143  31.428  30.767  1.00  0.00     0.074 A 
ATOM     36  C   UNL A   1      37.758  32.980  32.656  1.00  0.00     0.049 A 
ATOM     37  N   UNL A   1      39.130  30.704  31.231  1.00  0.00    -0.248 NA
ATOM     38  C   UNL A   1      37.681  31.020  29.430  1.00  0.00     0.031 C 
ATOM     39  C   UNL A   1      37.088  34.037  33.415  1.00  0.00     0.029 A 
ATOM     40  N   UNL A   1      38.754  32.550  33.497  1.00  0.00    -0.354 N 
ATOM     41  C   UNL A   1      39.395  29.754  30.253  1.00  0.00     0.074 A 
ATOM     42  C   UNL A   1      38.423  29.947  29.201  1.00  0.00     0.031 C 
ATOM     43  C   UNL A   1      37.713  34.198  34.593  1.00  0.00     0.029 A 
ATOM     44  C   UNL A   1      38.799  33.229  34.689  1.00  0.00     0.049 A 
ATOM     45  H   UNL A   1      39.377  31.823  33.266  1.00  0.00     0.167 HD
ATOM     46  C   UNL A   1      40.380  28.826  30.219  1.00  0.00     0.037 A 
ATOM     47  C   UNL A   1      39.624  33.083  35.744  1.00  0.00     0.037 A 
ATOM     48  C   UNL A   1      41.362  28.657  31.258  1.00  0.00     0.049 A 
ATOM     49  C   UNL A   1      40.708  32.041  35.681  1.00  0.00     0.074 A 
ATOM     50  C   UNL A   1      42.435  27.786  31.297  1.00  0.00     0.029 A 
ATOM     51  N   UNL A   1      41.387  29.377  32.444  1.00  0.00    -0.354 N 
ATOM     52  N   UNL A   1      40.996  31.201  34.717  1.00  0.00    -0.248 NA
ATOM     53  C   UNL A   1      41.590  31.936  36.851  1.00  0.00     0.031 C 
ATOM     54  C   UNL A   1      43.080  27.942  32.528  1.00  0.00     0.029 A 
ATOM     55  C   UNL A   1      42.446  28.952  33.232  1.00  0.00     0.049 A 
ATOM     56  H   UNL A   1      40.747  30.084  32.690  1.00  0.00     0.167 HD
ATOM     57  C   UNL A   1      42.107  30.489  35.149  1.00  0.00     0.074 A 
ATOM     58  C   UNL A   1      42.454  31.013  36.455  1.00  0.00     0.031 C 
ATOM     59  C   UNL A   1      42.779  29.492  34.525  1.00  0.00     0.037 A 
BRANCH  46  60
ATOM     60  C   UNL A   1      40.453  27.929  29.017  1.00  0.00     0.064 A 
ATOM     61  C   UNL A   1      39.711  26.739  28.941  1.00  0.00     0.173 A 
ATOM     62  C   UNL A   1      41.239  28.280  27.910  1.00  0.00     0.173 A 
ATOM     63  F   UNL A   1      38.952  26.349  29.977  1.00  0.00    -0.203 F 
ATOM     64  C   UNL A   1      39.777  25.921  27.816  1.00  0.00     0.198 A 
ATOM     65  C   UNL A   1      41.277  27.477  26.772  1.00  0.00     0.198 A 
ATOM     66  F   UNL A   1      41.966  29.407  27.926  1.00  0.00    -0.203 F 
ATOM     67  F   UNL A   1      39.100  24.765  27.789  1.00  0.00    -0.200 F 
ATOM     68  C   UNL A   1      40.552  26.295  26.729  1.00  0.00     0.200 A 
ATOM     69  F   UNL A   1      42.016  27.847  25.717  1.00  0.00    -0.200 F 
ATOM     70  F   UNL A   1      40.607  25.513  25.643  1.00  0.00    -0.200 F 
ENDBRANCH  46  60
BRANCH  47  71
ATOM     71  C   UNL A   1      39.477  33.960  36.936  1.00  0.00     0.064 A 
ATOM     72  C   UNL A   1      40.082  35.223  36.980  1.00  0.00     0.173 A 
ATOM     73  C   UNL A   1      38.746  33.548  38.061  1.00  0.00     0.173 A 
ATOM     74  F   UNL A   1      40.806  35.656  35.937  1.00  0.00    -0.203 F 
ATOM     75  C   UNL A   1      39.988  36.029  38.113  1.00  0.00     0.198 A 
ATOM     76  C   UNL A   1      38.625  34.369  39.180  1.00  0.00     0.198 A 
ATOM     77  F   UNL A   1      38.139  32.352  38.068  1.00  0.00    -0.203 F 
ATOM     78  F   UNL A   1      40.625  37.208  38.148  1.00  0.00    -0.200 F 
ATOM     79  C   UNL A   1      39.256  35.604  39.211  1.00  0.00     0.200 A 
ATOM     80  F   UNL A   1      37.903  33.960  40.233  1.00  0.00    -0.200 F 
ATOM     81  F   UNL A   1      39.167  36.378  40.300  1.00  0.00    -0.200 F 
ENDBRANCH  47  71
BRANCH  59  82
ATOM     82  C   UNL A   1      43.981  28.928  35.229  1.00  0.00     0.064 A 
ATOM     83  C   UNL A   1      43.873  27.870  36.142  1.00  0.00     0.173 A 
ATOM     84  C   UNL A   1      45.261  29.440  34.964  1.00  0.00     0.173 A 
ATOM     85  F   UNL A   1      42.671  27.355  36.441  1.00  0.00    -0.203 F 
ATOM     86  C   UNL A   1      44.998  27.367  36.791  1.00  0.00     0.198 A 
ATOM     87  C   UNL A   1      46.387  28.911  35.587  1.00  0.00     0.198 A 
ATOM     88  F   UNL A   1      45.420  30.447  34.091  1.00  0.00    -0.203 F 
ATOM     89  F   UNL A   1      44.864  26.395  37.704  1.00  0.00    -0.200 F 
ATOM     90  C   UNL A   1      46.254  27.883  36.508  1.00  0.00     0.200 A 
ATOM     91  F   UNL A   1      47.601  29.399  35.300  1.00  0.00    -0.200 F 
ATOM     92  F   UNL A   1      47.336  27.395  37.130  1.00  0.00    -0.200 F 
ENDBRANCH  59  82
ENDBRANCH  33  34
ENDBRANCH  25  28
ENDBRANCH  23  24
ENDBRANCH  22  23
ENDBRANCH   1  22
TORSDOF 14
ENDMDL
MODEL 3
REMARK VINA RESULT:     -12.2      6.595     10.593
REMARK SMILES COC[C@H]1CCN(C(=O)N2CC[C@H](C(=O)NCCCNC(=O)c3ccc(-c4c5nc(c(-c6c(F)c(F)c(F)c(F)c6F)c6ccc([nH]6)c(-c6c(F)c(F)c(F)c(F)c6F)c6nc(c(-c7c(F)c(F)c(F)c(F)c7F)c7ccc4[nH]7)C=C6)C=C5)cc3)[C@@H]2C)C1
REMARK SMILES IDX 17 1 16 2 14 3 15 4 13 6 10 7 11 8 86 9 12 10 87 11 8 12
REMARK SMILES IDX 9 13 7 14 4 15 5 16 88 17 6 18 3 19 2 20 1 21 18 22 19 23
REMARK SMILES IDX 20 24 21 25 22 27 23 28 24 29 85 30 25 31 84 32 26 33 27 34
REMARK SMILES IDX 28 35 78 36 29 37 83 38 77 39 79 40 30 41 82 42 76 43 75 44
REMARK SMILES IDX 31 46 63 47 43 48 62 49 44 50 47 51 61 52 80 53 45 54 46 55
REMARK SMILES IDX 60 57 81 58 48 59 32 60 33 61 41 62 34 63 35 64 39 65 42 66
REMARK SMILES IDX 36 67 37 68 40 69 38 70 64 71 65 72 73 73 66 74 67 75 71 76
REMARK SMILES IDX 74 77 68 78 69 79 72 80 70 81 49 82 50 83 58 84 51 85 52 86
REMARK SMILES IDX 56 87 59 88 53 89 54 90 57 91 55 92
REMARK H PARENT 16 5 20 26 79 45 47 56
REMARK Flexibility Score: inf
ROOT
ATOM      1  C   UNL A   1      31.657  30.551  26.456  1.00  0.00     0.117 C 
ENDROOT
BRANCH   1   2
ATOM      2  N   UNL A   1      32.984  30.081  26.791  1.00  0.00    -0.356 N 
ATOM      3  C   UNL A   1      33.606  28.912  26.483  1.00  0.00     0.225 C 
ATOM      4  O   UNL A   1      34.793  28.813  26.811  1.00  0.00    -0.275 OA
ATOM      5  H   UNL A   1      33.522  30.708  27.327  1.00  0.00     0.163 HD
BRANCH   3   6
ATOM      6  C   UNL A   1      32.903  27.734  25.815  1.00  0.00     0.102 C 
ATOM      7  N   UNL A   1      31.199  27.846  24.190  1.00  0.00    -0.321 N 
ATOM      8  C   UNL A   1      30.630  27.096  25.292  1.00  0.00     0.122 C 
ATOM      9  C   UNL A   1      32.655  27.782  24.288  1.00  0.00     0.096 C 
ATOM     10  C   UNL A   1      31.533  27.437  26.460  1.00  0.00     0.037 C 
ATOM     11  C   UNL A   1      33.410  28.846  23.496  1.00  0.00     0.032 C 
BRANCH   7  12
ATOM     12  C   UNL A   1      30.507  28.034  23.018  1.00  0.00     0.320 C 
ATOM     13  O   UNL A   1      30.748  27.389  22.001  1.00  0.00    -0.248 OA
BRANCH  12  14
ATOM     14  N   UNL A   1      29.562  29.041  23.048  1.00  0.00    -0.324 N 
ATOM     15  C   UNL A   1      28.594  31.171  23.497  1.00  0.00     0.036 C 
ATOM     16  C   UNL A   1      27.544  30.224  22.901  1.00  0.00     0.029 C 
ATOM     17  C   UNL A   1      29.912  30.380  23.478  1.00  0.00     0.127 C 
ATOM     18  C   UNL A   1      28.128  28.849  23.127  1.00  0.00     0.122 C 
BRANCH  15  19
ATOM     19  C   UNL A   1      28.679  32.536  22.806  1.00  0.00     0.165 C 
BRANCH  19  20
ATOM     20  O   UNL A   1      27.653  32.772  21.844  1.00  0.00    -0.384 OA
ATOM     21  C   UNL A   1      28.029  32.490  20.504  1.00  0.00     0.194 C 
ENDBRANCH  19  20
ENDBRANCH  15  19
ENDBRANCH  12  14
ENDBRANCH   7  12
ENDBRANCH   3   6
ENDBRANCH   1   2
BRANCH   1  22
ATOM     22  C   UNL A   1      31.443  32.025  26.742  1.00  0.00     0.042 C 
BRANCH  22  23
ATOM     23  C   UNL A   1      32.734  32.786  26.985  1.00  0.00     0.118 C 
BRANCH  23  24
ATOM     24  N   UNL A   1      32.509  34.097  27.584  1.00  0.00    -0.352 N 
ATOM     25  C   UNL A   1      33.062  34.686  28.693  1.00  0.00     0.251 C 
ATOM     26  H   UNL A   1      31.848  34.653  27.112  1.00  0.00     0.163 HD
ATOM     27  O   UNL A   1      32.574  35.720  29.136  1.00  0.00    -0.269 OA
BRANCH  25  28
ATOM     28  C   UNL A   1      34.225  34.075  29.370  1.00  0.00     0.039 A 
ATOM     29  C   UNL A   1      34.005  33.151  30.395  1.00  0.00     0.014 A 
ATOM     30  C   UNL A   1      35.531  34.422  29.017  1.00  0.00     0.014 A 
ATOM     31  C   UNL A   1      35.091  32.526  31.009  1.00  0.00     0.010 A 
ATOM     32  C   UNL A   1      36.605  33.717  29.547  1.00  0.00     0.010 A 
ATOM     33  C   UNL A   1      36.398  32.771  30.558  1.00  0.00    -0.014 A 
BRANCH  33  34
ATOM     34  C   UNL A   1      37.562  32.057  31.142  1.00  0.00     0.031 A 
ATOM     35  C   UNL A   1      38.048  32.408  32.522  1.00  0.00     0.074 A 
ATOM     36  C   UNL A   1      38.214  31.138  30.405  1.00  0.00     0.049 A 
ATOM     37  N   UNL A   1      39.077  31.936  33.182  1.00  0.00    -0.248 NA
ATOM     38  C   UNL A   1      37.303  33.450  33.247  1.00  0.00     0.031 C 
ATOM     39  C   UNL A   1      37.874  30.758  29.033  1.00  0.00     0.029 A 
ATOM     40  N   UNL A   1      39.303  30.358  30.703  1.00  0.00    -0.354 N 
ATOM     41  C   UNL A   1      39.105  32.629  34.385  1.00  0.00     0.074 A 
ATOM     42  C   UNL A   1      38.037  33.602  34.338  1.00  0.00     0.031 C 
ATOM     43  C   UNL A   1      38.713  29.793  28.622  1.00  0.00     0.029 A 
ATOM     44  C   UNL A   1      39.675  29.517  29.684  1.00  0.00     0.049 A 
ATOM     45  H   UNL A   1      39.774  30.399  31.568  1.00  0.00     0.167 HD
ATOM     46  C   UNL A   1      39.927  32.450  35.446  1.00  0.00     0.037 A 
ATOM     47  C   UNL A   1      40.682  28.626  29.613  1.00  0.00     0.037 A 
ATOM     48  C   UNL A   1      40.972  31.462  35.496  1.00  0.00     0.049 A 
ATOM     49  C   UNL A   1      41.582  28.449  30.806  1.00  0.00     0.074 A 
ATOM     50  C   UNL A   1      41.824  31.159  36.543  1.00  0.00     0.029 A 
ATOM     51  N   UNL A   1      41.307  30.615  34.449  1.00  0.00    -0.354 N 
ATOM     52  N   UNL A   1      41.550  29.057  31.966  1.00  0.00    -0.248 NA
ATOM     53  C   UNL A   1      42.653  27.452  30.681  1.00  0.00     0.031 C 
ATOM     54  C   UNL A   1      42.708  30.164  36.113  1.00  0.00     0.029 A 
ATOM     55  C   UNL A   1      42.369  29.804  34.819  1.00  0.00     0.049 A 
ATOM     56  H   UNL A   1      40.857  30.592  33.574  1.00  0.00     0.167 HD
ATOM     57  C   UNL A   1      42.573  28.498  32.720  1.00  0.00     0.074 A 
ATOM     58  C   UNL A   1      43.194  27.485  31.891  1.00  0.00     0.031 C 
ATOM     59  C   UNL A   1      42.967  28.796  33.982  1.00  0.00     0.037 A 
BRANCH  46  60
ATOM     60  C   UNL A   1      39.723  33.334  36.644  1.00  0.00     0.064 A 
ATOM     61  C   UNL A   1      40.410  34.550  36.786  1.00  0.00     0.173 A 
ATOM     62  C   UNL A   1      38.802  32.983  37.641  1.00  0.00     0.173 A 
ATOM     63  F   UNL A   1      41.313  34.927  35.867  1.00  0.00    -0.203 F 
ATOM     64  C   UNL A   1      40.204  35.367  37.894  1.00  0.00     0.198 A 
ATOM     65  C   UNL A   1      38.573  33.818  38.732  1.00  0.00     0.198 A 
ATOM     66  F   UNL A   1      38.115  31.835  37.555  1.00  0.00    -0.203 F 
ATOM     67  F   UNL A   1      40.910  36.498  38.033  1.00  0.00    -0.200 F 
ATOM     68  C   UNL A   1      39.279  35.005  38.862  1.00  0.00     0.200 A 
ATOM     69  F   UNL A   1      37.668  33.474  39.660  1.00  0.00    -0.200 F 
ATOM     70  F   UNL A   1      39.073  35.796  39.923  1.00  0.00    -0.200 F 
ENDBRANCH  46  60
BRANCH  47  71
ATOM     71  C   UNL A   1      40.877  27.813  28.383  1.00  0.00     0.064 A 
ATOM     72  C   UNL A   1      40.267  26.559  28.244  1.00  0.00     0.173 A 
ATOM     73  C   UNL A   1      41.689  28.262  27.330  1.00  0.00     0.173 A 
ATOM     74  F   UNL A   1      39.495  26.077  29.230  1.00  0.00    -0.203 F 
ATOM     75  C   UNL A   1      40.485  25.771  27.116  1.00  0.00     0.198 A 
ATOM     76  C   UNL A   1      41.879  27.488  26.188  1.00  0.00     0.198 A 
ATOM     77  F   UNL A   1      42.289  29.459  27.408  1.00  0.00    -0.203 F 
ATOM     78  F   UNL A   1      39.934  24.551  27.036  1.00  0.00    -0.200 F 
ATOM     79  C   UNL A   1      41.287  26.238  26.086  1.00  0.00     0.200 A 
ATOM     80  F   UNL A   1      42.642  27.951  25.188  1.00  0.00    -0.200 F 
ATOM     81  F   UNL A   1      41.497  25.480  25.001  1.00  0.00    -0.200 F 
ENDBRANCH  47  71
BRANCH  59  82
ATOM     82  C   UNL A   1      44.097  27.989  34.557  1.00  0.00     0.064 A 
ATOM     83  C   UNL A   1      45.427  28.427  34.487  1.00  0.00     0.173 A 
ATOM     84  C   UNL A   1      43.838  26.774  35.211  1.00  0.00     0.173 A 
ATOM     85  F   UNL A   1      45.729  29.574  33.861  1.00  0.00    -0.203 F 
ATOM     86  C   UNL A   1      46.461  27.660  35.019  1.00  0.00     0.198 A 
ATOM     87  C   UNL A   1      44.869  26.028  35.773  1.00  0.00     0.198 A 
ATOM     88  F   UNL A   1      42.580  26.315  35.313  1.00  0.00    -0.203 F 
ATOM     89  F   UNL A   1      47.730  28.069  34.888  1.00  0.00    -0.200 F 
ATOM     90  C   UNL A   1      46.180  26.466  35.667  1.00  0.00     0.200 A 
ATOM     91  F   UNL A   1      44.595  24.884  36.413  1.00  0.00    -0.200 F 
ATOM     92  F   UNL A   1      47.176  25.732  36.182  1.00  0.00    -0.200 F 
ENDBRANCH  59  82
ENDBRANCH  33  34
ENDBRANCH  25  28
ENDBRANCH  23  24
ENDBRANCH  22  23
ENDBRANCH   1  22
TORSDOF 14
ENDMDL
