MODEL 1
REMARK VINA RESULT:     -12.7      0.000      0.000
REMARK SMILES COc1c(Cl)cc(C(=O)NCCCNC(=O)c2ccc(-c3c4nc(c(-c5c(F)c(F)c(F)c(F)c5F)c5ccc([nH]5)c(-c5c(F)c(F)c(F)c(F)c5F)c5nc(c(-c6c(F)c(F)c(F)c(F)c6F)c6ccc3[nH]6)C=C5)C=C4)cc2)cc1NC(=S)NC(=O)c1cccc(C)c1OC
REMARK SMILES IDX 8 1 9 2 10 3 7 5 3 6 4 7 81 8 5 9 6 10 80 11 2 12 1 13 82 14
REMARK SMILES IDX 83 16 84 17 85 18 86 19 87 21 88 22 89 23 94 24 90 25 92 26
REMARK SMILES IDX 91 27 93 28 95 29 96 30 11 31 12 32 13 33 14 34 15 35 16 37
REMARK SMILES IDX 17 38 18 39 79 40 19 41 78 42 20 43 21 44 22 45 72 46 23 47
REMARK SMILES IDX 77 48 71 49 73 50 24 51 76 52 70 53 69 54 25 56 57 57 37 58
REMARK SMILES IDX 56 59 38 60 41 61 55 62 74 63 39 64 40 65 54 67 75 68 42 69
REMARK SMILES IDX 26 70 27 71 35 72 28 73 29 74 33 75 36 76 30 77 31 78 34 79
REMARK SMILES IDX 32 80 58 81 59 82 67 83 60 84 61 85 65 86 68 87 62 88 63 89
REMARK SMILES IDX 66 90 64 91 43 92 44 93 52 94 45 95 46 96 50 97 53 98 47 99
REMARK SMILES IDX 48 100 51 101 49 102
REMARK H PARENT 10 4 82 15 85 20 14 36 73 55 41 66
REMARK Flexibility Score: inf
ROOT
ATOM      1  C   UNL A   1      39.483  22.187  26.351  1.00  0.00     0.251 C 
ATOM      2  O   UNL A   1      40.101  23.313  26.499  1.00  0.00    -0.269 OA
ATOM      3  N   UNL A   1      40.760  21.510  26.749  1.00  0.00    -0.352 N 
ATOM      4  H   UNL A   1      41.437  22.224  26.785  1.00  0.00     0.163 HD
ENDROOT
BRANCH   1   5
ATOM      5  C   UNL A   1      37.513  21.625  25.728  1.00  0.00     0.043 A 
ATOM      6  C   UNL A   1      34.528  20.874  25.231  1.00  0.00     0.160 A 
ATOM      7  C   UNL A   1      35.554  19.984  24.945  1.00  0.00     0.086 A 
ATOM      8  C   UNL A   1      34.927  22.057  25.788  1.00  0.00     0.085 A 
ATOM      9  Cl  UNL A   1      35.263  18.374  24.373  1.00  0.00    -0.080 Cl
ATOM     10  C   UNL A   1      36.926  20.325  25.217  1.00  0.00     0.038 A 
ATOM     11  C   UNL A   1      36.261  22.419  25.689  1.00  0.00     0.044 A 
BRANCH   6  12
ATOM     12  O   UNL A   1      33.190  20.686  25.054  1.00  0.00    -0.493 OA
ATOM     13  C   UNL A   1      32.720  21.018  23.745  1.00  0.00     0.278 C 
ENDBRANCH   6  12
BRANCH   8  14
ATOM     14  N   UNL A   1      34.086  22.997  26.410  1.00  0.00    -0.329 N 
ATOM     15  H   UNL A   1      33.930  22.853  27.372  1.00  0.00     0.169 HD
BRANCH  14  16
ATOM     16  C   UNL A   1      33.453  24.081  25.869  1.00  0.00     0.177 C 
ATOM     17  S   UNL A   1      34.392  25.325  25.249  1.00  0.00    -0.040 S 
BRANCH  16  18
ATOM     18  N   UNL A   1      32.076  24.211  25.710  1.00  0.00    -0.299 N 
ATOM     19  C   UNL A   1      31.013  24.936  26.275  1.00  0.00     0.261 C 
ATOM     20  H   UNL A   1      31.752  23.624  24.989  1.00  0.00     0.172 HD
ATOM     21  O   UNL A   1      30.261  24.359  27.060  1.00  0.00    -0.269 OA
BRANCH  19  22
ATOM     22  C   UNL A   1      30.742  26.392  25.974  1.00  0.00     0.082 A 
ATOM     23  C   UNL A   1      31.360  27.437  27.339  1.00  0.00     0.018 A 
ATOM     24  C   UNL A   1      30.451  27.164  24.317  1.00  0.00     0.134 A 
ATOM     25  C   UNL A   1      31.799  29.171  27.061  1.00  0.00     0.001 A 
ATOM     26  C   UNL A   1      31.038  28.863  24.015  1.00  0.00    -0.008 A 
ATOM     27  C   UNL A   1      31.713  29.871  25.366  1.00  0.00     0.007 A 
ATOM     28  C   UNL A   1      31.476  29.235  22.622  1.00  0.00     0.048 C 
BRANCH  24  29
ATOM     29  O   UNL A   1      30.163  26.525  23.131  1.00  0.00    -0.496 OA
ATOM     30  C   UNL A   1      31.101  25.624  22.578  1.00  0.00     0.278 C 
ENDBRANCH  24  29
ENDBRANCH  19  22
ENDBRANCH  16  18
ENDBRANCH  14  16
ENDBRANCH   8  14
ENDBRANCH   1   5
BRANCH   3  31
ATOM     31  C   UNL A   1      41.473  20.265  27.113  1.00  0.00     0.118 C 
BRANCH  31  32
ATOM     32  C   UNL A   1      41.846  19.352  25.949  1.00  0.00     0.042 C 
BRANCH  32  33
ATOM     33  C   UNL A   1      43.200  18.670  26.039  1.00  0.00     0.118 C 
BRANCH  33  34
ATOM     34  N   UNL A   1      43.941  18.718  24.790  1.00  0.00    -0.352 N 
ATOM     35  C   UNL A   1      44.534  19.753  24.115  1.00  0.00     0.251 C 
ATOM     36  H   UNL A   1      44.034  17.844  24.345  1.00  0.00     0.163 HD
ATOM     37  O   UNL A   1      44.910  19.549  22.961  1.00  0.00    -0.269 OA
BRANCH  35  38
ATOM     38  C   UNL A   1      44.738  21.095  24.717  1.00  0.00     0.039 A 
ATOM     39  C   UNL A   1      44.477  22.215  23.918  1.00  0.00     0.014 A 
ATOM     40  C   UNL A   1      45.258  21.287  25.998  1.00  0.00     0.014 A 
ATOM     41  C   UNL A   1      44.713  23.502  24.407  1.00  0.00     0.010 A 
ATOM     42  C   UNL A   1      45.385  22.572  26.528  1.00  0.00     0.010 A 
ATOM     43  C   UNL A   1      45.144  23.696  25.730  1.00  0.00    -0.014 A 
BRANCH  43  44
ATOM     44  C   UNL A   1      45.355  25.068  26.261  1.00  0.00     0.031 A 
ATOM     45  C   UNL A   1      46.712  25.720  26.197  1.00  0.00     0.074 A 
ATOM     46  C   UNL A   1      44.316  25.728  26.808  1.00  0.00     0.049 A 
ATOM     47  N   UNL A   1      47.070  26.925  26.567  1.00  0.00    -0.248 NA
ATOM     48  C   UNL A   1      47.820  24.907  25.671  1.00  0.00     0.031 C 
ATOM     49  C   UNL A   1      42.969  25.179  26.981  1.00  0.00     0.029 A 
ATOM     50  N   UNL A   1      44.222  27.002  27.308  1.00  0.00    -0.354 N 
ATOM     51  C   UNL A   1      48.435  27.009  26.324  1.00  0.00     0.074 A 
ATOM     52  C   UNL A   1      48.857  25.714  25.838  1.00  0.00     0.031 C 
ATOM     53  C   UNL A   1      42.173  26.126  27.499  1.00  0.00     0.029 A 
ATOM     54  C   UNL A   1      42.959  27.331  27.738  1.00  0.00     0.049 A 
ATOM     55  H   UNL A   1      44.986  27.621  27.355  1.00  0.00     0.167 HD
ATOM     56  C   UNL A   1      49.257  28.077  26.465  1.00  0.00     0.037 A 
ATOM     57  C   UNL A   1      42.488  28.477  28.264  1.00  0.00     0.037 A 
ATOM     58  C   UNL A   1      48.828  29.367  26.941  1.00  0.00     0.049 A 
ATOM     59  C   UNL A   1      43.425  29.644  28.418  1.00  0.00     0.074 A 
ATOM     60  C   UNL A   1      49.567  30.530  27.074  1.00  0.00     0.029 A 
ATOM     61  N   UNL A   1      47.543  29.661  27.376  1.00  0.00    -0.354 N 
ATOM     62  N   UNL A   1      44.695  29.737  28.106  1.00  0.00    -0.248 NA
ATOM     63  C   UNL A   1      42.857  30.872  28.990  1.00  0.00     0.031 C 
ATOM     64  C   UNL A   1      48.748  31.506  27.650  1.00  0.00     0.029 A 
ATOM     65  C   UNL A   1      47.477  30.977  27.808  1.00  0.00     0.049 A 
ATOM     66  H   UNL A   1      46.789  29.027  27.379  1.00  0.00     0.167 HD
ATOM     67  C   UNL A   1      45.072  31.036  28.419  1.00  0.00     0.074 A 
ATOM     68  C   UNL A   1      43.886  31.702  28.915  1.00  0.00     0.031 C 
ATOM     69  C   UNL A   1      46.290  31.624  28.309  1.00  0.00     0.037 A 
BRANCH  56  70
ATOM     70  C   UNL A   1      50.708  27.896  26.104  1.00  0.00     0.064 A 
ATOM     71  C   UNL A   1      51.679  27.592  27.072  1.00  0.00     0.173 A 
ATOM     72  C   UNL A   1      51.128  27.991  24.769  1.00  0.00     0.173 A 
ATOM     73  F   UNL A   1      51.337  27.497  28.367  1.00  0.00    -0.203 F 
ATOM     74  C   UNL A   1      53.017  27.424  26.722  1.00  0.00     0.198 A 
ATOM     75  C   UNL A   1      52.461  27.786  24.417  1.00  0.00     0.198 A 
ATOM     76  F   UNL A   1      50.244  28.272  23.799  1.00  0.00    -0.203 F 
ATOM     77  F   UNL A   1      53.932  27.190  27.672  1.00  0.00    -0.200 F 
ATOM     78  C   UNL A   1      53.405  27.512  25.394  1.00  0.00     0.200 A 
ATOM     79  F   UNL A   1      52.830  27.854  23.131  1.00  0.00    -0.200 F 
ATOM     80  F   UNL A   1      54.690  27.340  25.056  1.00  0.00    -0.200 F 
ENDBRANCH  56  70
BRANCH  57  81
ATOM     81  C   UNL A   1      41.058  28.583  28.659  1.00  0.00     0.064 A 
ATOM     82  C   UNL A   1      40.634  28.234  29.949  1.00  0.00     0.173 A 
ATOM     83  C   UNL A   1      40.084  29.027  27.753  1.00  0.00     0.173 A 
ATOM     84  F   UNL A   1      41.523  27.785  30.849  1.00  0.00    -0.203 F 
ATOM     85  C   UNL A   1      39.289  28.298  30.308  1.00  0.00     0.198 A 
ATOM     86  C   UNL A   1      38.744  29.125  28.124  1.00  0.00     0.198 A 
ATOM     87  F   UNL A   1      40.434  29.379  26.507  1.00  0.00    -0.203 F 
ATOM     88  F   UNL A   1      38.905  27.902  31.530  1.00  0.00    -0.200 F 
ATOM     89  C   UNL A   1      38.347  28.750  29.398  1.00  0.00     0.200 A 
ATOM     90  F   UNL A   1      37.840  29.581  27.246  1.00  0.00    -0.200 F 
ATOM     91  F   UNL A   1      37.054  28.815  29.745  1.00  0.00    -0.200 F 
ENDBRANCH  57  81
BRANCH  69  92
ATOM     92  C   UNL A   1      46.387  33.070  28.710  1.00  0.00     0.064 A 
ATOM     93  C   UNL A   1      46.718  33.455  30.018  1.00  0.00     0.173 A 
ATOM     94  C   UNL A   1      46.148  34.085  27.770  1.00  0.00     0.173 A 
ATOM     95  F   UNL A   1      46.945  32.526  30.959  1.00  0.00    -0.203 F 
ATOM     96  C   UNL A   1      46.755  34.798  30.383  1.00  0.00     0.198 A 
ATOM     97  C   UNL A   1      46.228  35.428  28.128  1.00  0.00     0.198 A 
ATOM     98  F   UNL A   1      45.839  33.776  26.502  1.00  0.00    -0.203 F 
ATOM     99  F   UNL A   1      46.997  35.138  31.657  1.00  0.00    -0.200 F 
ATOM    100  C   UNL A   1      46.516  35.783  29.437  1.00  0.00     0.200 A 
ATOM    101  F   UNL A   1      46.016  36.379  27.207  1.00  0.00    -0.200 F 
ATOM    102  F   UNL A   1      46.551  37.076  29.790  1.00  0.00    -0.200 F 
ENDBRANCH  69  92
ENDBRANCH  43  44
ENDBRANCH  35  38
ENDBRANCH  33  34
ENDBRANCH  32  33
ENDBRANCH  31  32
ENDBRANCH   3  31
TORSDOF 16
ENDMDL
MODEL 2
REMARK VINA RESULT:     -12.4      5.702     11.467
REMARK SMILES COc1c(Cl)cc(C(=O)NCCCNC(=O)c2ccc(-c3c4nc(c(-c5c(F)c(F)c(F)c(F)c5F)c5ccc([nH]5)c(-c5c(F)c(F)c(F)c(F)c5F)c5nc(c(-c6c(F)c(F)c(F)c(F)c6F)c6ccc3[nH]6)C=C5)C=C4)cc2)cc1NC(=S)NC(=O)c1cccc(C)c1OC
REMARK SMILES IDX 8 1 9 2 10 3 7 5 3 6 4 7 81 8 5 9 6 10 80 11 2 12 1 13 82 14
REMARK SMILES IDX 83 16 84 17 85 18 86 19 87 21 88 22 89 23 94 24 90 25 92 26
REMARK SMILES IDX 91 27 93 28 95 29 96 30 11 31 12 32 13 33 14 34 15 35 16 37
REMARK SMILES IDX 17 38 18 39 79 40 19 41 78 42 20 43 21 44 22 45 72 46 23 47
REMARK SMILES IDX 77 48 71 49 73 50 24 51 76 52 70 53 69 54 25 56 57 57 37 58
REMARK SMILES IDX 56 59 38 60 41 61 55 62 74 63 39 64 40 65 54 67 75 68 42 69
REMARK SMILES IDX 26 70 27 71 35 72 28 73 29 74 33 75 36 76 30 77 31 78 34 79
REMARK SMILES IDX 32 80 58 81 59 82 67 83 60 84 61 85 65 86 68 87 62 88 63 89
REMARK SMILES IDX 66 90 64 91 43 92 44 93 52 94 45 95 46 96 50 97 53 98 47 99
REMARK SMILES IDX 48 100 51 101 49 102
REMARK H PARENT 10 4 82 15 85 20 14 36 73 55 41 66
REMARK Flexibility Score: inf
ROOT
ATOM      1  C   UNL A   1      34.466  33.412  32.972  1.00  0.00     0.251 C 
ATOM      2  O   UNL A   1      33.196  33.418  33.210  1.00  0.00    -0.269 OA
ATOM      3  N   UNL A   1      34.134  33.724  31.543  1.00  0.00    -0.352 N 
ATOM      4  H   UNL A   1      33.154  33.642  31.476  1.00  0.00     0.163 HD
ENDROOT
BRANCH   1   5
ATOM      5  C   UNL A   1      36.213  33.033  34.150  1.00  0.00     0.043 A 
ATOM      6  C   UNL A   1      38.558  32.122  35.993  1.00  0.00     0.160 A 
ATOM      7  C   UNL A   1      37.935  33.350  36.170  1.00  0.00     0.086 A 
ATOM      8  C   UNL A   1      38.029  31.343  35.000  1.00  0.00     0.085 A 
ATOM      9  Cl  UNL A   1      38.346  34.428  37.463  1.00  0.00    -0.080 Cl
ATOM     10  C   UNL A   1      36.827  33.743  35.340  1.00  0.00     0.038 A 
ATOM     11  C   UNL A   1      37.211  31.940  34.055  1.00  0.00     0.044 A 
BRANCH   6  12
ATOM     12  O   UNL A   1      39.594  31.603  36.709  1.00  0.00    -0.493 OA
ATOM     13  C   UNL A   1      40.840  32.274  36.508  1.00  0.00     0.278 C 
ENDBRANCH   6  12
BRANCH   8  14
ATOM     14  N   UNL A   1      38.292  29.976  34.801  1.00  0.00    -0.329 N 
ATOM     15  H   UNL A   1      37.584  29.362  35.105  1.00  0.00     0.169 HD
BRANCH  14  16
ATOM     16  C   UNL A   1      39.388  29.378  34.246  1.00  0.00     0.177 C 
ATOM     17  S   UNL A   1      39.212  28.601  32.771  1.00  0.00    -0.040 S 
BRANCH  16  18
ATOM     18  N   UNL A   1      40.680  29.430  34.764  1.00  0.00    -0.299 N 
ATOM     19  C   UNL A   1      41.589  28.579  35.416  1.00  0.00     0.261 C 
ATOM     20  H   UNL A   1      41.071  30.324  34.637  1.00  0.00     0.172 HD
ATOM     21  O   UNL A   1      41.744  28.704  36.630  1.00  0.00    -0.269 OA
BRANCH  19  22
ATOM     22  C   UNL A   1      42.389  27.512  34.704  1.00  0.00     0.082 A 
ATOM     23  C   UNL A   1      43.926  28.231  34.027  1.00  0.00     0.018 A 
ATOM     24  C   UNL A   1      42.292  25.680  34.949  1.00  0.00     0.134 A 
ATOM     25  C   UNL A   1      45.378  27.200  33.708  1.00  0.00     0.001 A 
ATOM     26  C   UNL A   1      43.805  24.680  34.768  1.00  0.00    -0.008 A 
ATOM     27  C   UNL A   1      45.346  25.420  34.158  1.00  0.00     0.007 A 
ATOM     28  C   UNL A   1      43.950  23.437  35.609  1.00  0.00     0.048 C 
BRANCH  24  29
ATOM     29  O   UNL A   1      41.307  24.970  35.602  1.00  0.00    -0.496 OA
ATOM     30  C   UNL A   1      41.068  25.211  36.974  1.00  0.00     0.278 C 
ENDBRANCH  24  29
ENDBRANCH  19  22
ENDBRANCH  16  18
ENDBRANCH  14  16
ENDBRANCH   8  14
ENDBRANCH   1   5
BRANCH   3  31
ATOM     31  C   UNL A   1      34.596  34.099  30.188  1.00  0.00     0.118 C 
BRANCH  31  32
ATOM     32  C   UNL A   1      35.446  33.058  29.467  1.00  0.00     0.042 C 
BRANCH  32  33
ATOM     33  C   UNL A   1      35.041  32.730  28.042  1.00  0.00     0.118 C 
BRANCH  33  34
ATOM     34  N   UNL A   1      34.393  31.435  27.921  1.00  0.00    -0.352 N 
ATOM     35  C   UNL A   1      34.897  30.163  27.831  1.00  0.00     0.251 C 
ATOM     36  H   UNL A   1      33.410  31.479  27.900  1.00  0.00     0.163 HD
ATOM     37  O   UNL A   1      34.125  29.258  27.515  1.00  0.00    -0.269 OA
BRANCH  35  38
ATOM     38  C   UNL A   1      36.321  29.840  28.096  1.00  0.00     0.039 A 
ATOM     39  C   UNL A   1      36.653  29.343  29.363  1.00  0.00     0.014 A 
ATOM     40  C   UNL A   1      37.346  30.093  27.182  1.00  0.00     0.014 A 
ATOM     41  C   UNL A   1      37.985  29.083  29.693  1.00  0.00     0.010 A 
ATOM     42  C   UNL A   1      38.661  29.727  27.470  1.00  0.00     0.010 A 
ATOM     43  C   UNL A   1      39.003  29.246  28.739  1.00  0.00    -0.014 A 
BRANCH  43  44
ATOM     44  C   UNL A   1      40.415  28.930  29.081  1.00  0.00     0.031 A 
ATOM     45  C   UNL A   1      41.056  27.652  28.609  1.00  0.00     0.074 A 
ATOM     46  C   UNL A   1      41.121  29.802  29.826  1.00  0.00     0.049 A 
ATOM     47  N   UNL A   1      42.287  27.233  28.770  1.00  0.00    -0.248 NA
ATOM     48  C   UNL A   1      40.199  26.704  27.878  1.00  0.00     0.031 C 
ATOM     49  C   UNL A   1      40.592  31.045  30.392  1.00  0.00     0.029 A 
ATOM     50  N   UNL A   1      42.433  29.788  30.226  1.00  0.00    -0.354 N 
ATOM     51  C   UNL A   1      42.347  25.982  28.170  1.00  0.00     0.074 A 
ATOM     52  C   UNL A   1      41.014  25.677  27.699  1.00  0.00     0.031 C 
ATOM     53  C   UNL A   1      41.582  31.697  31.022  1.00  0.00     0.029 A 
ATOM     54  C   UNL A   1      42.800  30.900  30.945  1.00  0.00     0.049 A 
ATOM     55  H   UNL A   1      43.052  29.051  30.019  1.00  0.00     0.167 HD
ATOM     56  C   UNL A   1      43.421  25.173  28.001  1.00  0.00     0.037 A 
ATOM     57  C   UNL A   1      43.988  31.239  31.480  1.00  0.00     0.037 A 
ATOM     58  C   UNL A   1      44.748  25.488  28.465  1.00  0.00     0.049 A 
ATOM     59  C   UNL A   1      45.162  30.318  31.285  1.00  0.00     0.074 A 
ATOM     60  C   UNL A   1      45.916  24.764  28.302  1.00  0.00     0.029 A 
ATOM     61  N   UNL A   1      45.081  26.620  29.198  1.00  0.00    -0.354 N 
ATOM     62  N   UNL A   1      45.225  29.177  30.643  1.00  0.00    -0.248 NA
ATOM     63  C   UNL A   1      46.435  30.741  31.883  1.00  0.00     0.031 C 
ATOM     64  C   UNL A   1      46.940  25.423  28.991  1.00  0.00     0.029 A 
ATOM     65  C   UNL A   1      46.429  26.596  29.521  1.00  0.00     0.049 A 
ATOM     66  H   UNL A   1      44.452  27.334  29.451  1.00  0.00     0.167 HD
ATOM     67  C   UNL A   1      46.545  28.757  30.737  1.00  0.00     0.074 A 
ATOM     68  C   UNL A   1      47.254  29.784  31.471  1.00  0.00     0.031 C 
ATOM     69  C   UNL A   1      47.119  27.624  30.262  1.00  0.00     0.037 A 
BRANCH  56  70
ATOM     70  C   UNL A   1      43.207  23.865  27.287  1.00  0.00     0.064 A 
ATOM     71  C   UNL A   1      43.538  23.698  25.932  1.00  0.00     0.173 A 
ATOM     72  C   UNL A   1      42.700  22.752  27.975  1.00  0.00     0.173 A 
ATOM     73  F   UNL A   1      44.019  24.730  25.221  1.00  0.00    -0.203 F 
ATOM     74  C   UNL A   1      43.337  22.479  25.287  1.00  0.00     0.198 A 
ATOM     75  C   UNL A   1      42.536  21.524  27.336  1.00  0.00     0.198 A 
ATOM     76  F   UNL A   1      42.374  22.849  29.273  1.00  0.00    -0.203 F 
ATOM     77  F   UNL A   1      43.608  22.363  23.980  1.00  0.00    -0.200 F 
ATOM     78  C   UNL A   1      42.846  21.391  25.992  1.00  0.00     0.200 A 
ATOM     79  F   UNL A   1      42.076  20.470  28.024  1.00  0.00    -0.200 F 
ATOM     80  F   UNL A   1      42.662  20.217  25.373  1.00  0.00    -0.200 F 
ENDBRANCH  56  70
BRANCH  57  81
ATOM     81  C   UNL A   1      44.130  32.517  32.228  1.00  0.00     0.064 A 
ATOM     82  C   UNL A   1      43.918  32.575  33.612  1.00  0.00     0.173 A 
ATOM     83  C   UNL A   1      44.472  33.709  31.573  1.00  0.00     0.173 A 
ATOM     84  F   UNL A   1      43.571  31.467  34.284  1.00  0.00    -0.203 F 
ATOM     85  C   UNL A   1      44.015  33.779  34.307  1.00  0.00     0.198 A 
ATOM     86  C   UNL A   1      44.605  34.905  32.274  1.00  0.00     0.198 A 
ATOM     87  F   UNL A   1      44.692  33.710  30.249  1.00  0.00    -0.203 F 
ATOM     88  F   UNL A   1      43.750  33.815  35.621  1.00  0.00    -0.200 F 
ATOM     89  C   UNL A   1      44.366  34.941  33.639  1.00  0.00     0.200 A 
ATOM     90  F   UNL A   1      44.963  36.023  31.626  1.00  0.00    -0.200 F 
ATOM     91  F   UNL A   1      44.462  36.098  34.308  1.00  0.00    -0.200 F 
ENDBRANCH  57  81
BRANCH  69  92
ATOM     92  C   UNL A   1      48.594  27.454  30.502  1.00  0.00     0.064 A 
ATOM     93  C   UNL A   1      49.553  28.025  29.652  1.00  0.00     0.173 A 
ATOM     94  C   UNL A   1      49.053  26.710  31.600  1.00  0.00     0.173 A 
ATOM     95  F   UNL A   1      49.169  28.737  28.581  1.00  0.00    -0.203 F 
ATOM     96  C   UNL A   1      50.913  27.816  29.862  1.00  0.00     0.198 A 
ATOM     97  C   UNL A   1      50.415  26.538  31.831  1.00  0.00     0.198 A 
ATOM     98  F   UNL A   1      48.182  26.150  32.452  1.00  0.00    -0.203 F 
ATOM     99  F   UNL A   1      51.807  28.308  28.993  1.00  0.00    -0.200 F 
ATOM    100  C   UNL A   1      51.343  27.078  30.954  1.00  0.00     0.200 A 
ATOM    101  F   UNL A   1      50.829  25.841  32.899  1.00  0.00    -0.200 F 
ATOM    102  F   UNL A   1      52.653  26.877  31.155  1.00  0.00    -0.200 F 
ENDBRANCH  69  92
ENDBRANCH  43  44
ENDBRANCH  35  38
ENDBRANCH  33  34
ENDBRANCH  32  33
ENDBRANCH  31  32
ENDBRANCH   3  31
TORSDOF 16
ENDMDL
MODEL 3
REMARK VINA RESULT:     -12.4      1.309      7.335
REMARK SMILES COc1c(Cl)cc(C(=O)NCCCNC(=O)c2ccc(-c3c4nc(c(-c5c(F)c(F)c(F)c(F)c5F)c5ccc([nH]5)c(-c5c(F)c(F)c(F)c(F)c5F)c5nc(c(-c6c(F)c(F)c(F)c(F)c6F)c6ccc3[nH]6)C=C5)C=C4)cc2)cc1NC(=S)NC(=O)c1cccc(C)c1OC
REMARK SMILES IDX 8 1 9 2 10 3 7 5 3 6 4 7 81 8 5 9 6 10 80 11 2 12 1 13 82 14
REMARK SMILES IDX 83 16 84 17 85 18 86 19 87 21 88 22 89 23 94 24 90 25 92 26
REMARK SMILES IDX 91 27 93 28 95 29 96 30 11 31 12 32 13 33 14 34 15 35 16 37
REMARK SMILES IDX 17 38 18 39 79 40 19 41 78 42 20 43 21 44 22 45 72 46 23 47
REMARK SMILES IDX 77 48 71 49 73 50 24 51 76 52 70 53 69 54 25 56 57 57 37 58
REMARK SMILES IDX 56 59 38 60 41 61 55 62 74 63 39 64 40 65 54 67 75 68 42 69
REMARK SMILES IDX 26 70 27 71 35 72 28 73 29 74 33 75 36 76 30 77 31 78 34 79
REMARK SMILES IDX 32 80 58 81 59 82 67 83 60 84 61 85 65 86 68 87 62 88 63 89
REMARK SMILES IDX 66 90 64 91 43 92 44 93 52 94 45 95 46 96 50 97 53 98 47 99
REMARK SMILES IDX 48 100 51 101 49 102
REMARK H PARENT 10 4 82 15 85 20 14 36 73 55 41 66
REMARK Flexibility Score: inf
ROOT
ATOM      1  C   UNL A   1      37.632  22.799  25.752  1.00  0.00     0.251 C 
ATOM      2  O   UNL A   1      37.818  24.078  25.758  1.00  0.00    -0.269 OA
ATOM      3  N   UNL A   1      39.025  22.660  26.289  1.00  0.00    -0.352 N 
ATOM      4  H   UNL A   1      39.416  23.563  26.246  1.00  0.00     0.163 HD
ENDROOT
BRANCH   1   5
ATOM      5  C   UNL A   1      36.026  21.519  25.147  1.00  0.00     0.043 A 
ATOM      6  C   UNL A   1      33.488  19.784  24.624  1.00  0.00     0.160 A 
ATOM      7  C   UNL A   1      34.749  19.211  24.713  1.00  0.00     0.086 A 
ATOM      8  C   UNL A   1      33.451  21.135  24.835  1.00  0.00     0.085 A 
ATOM      9  Cl  UNL A   1      35.005  17.499  24.627  1.00  0.00    -0.080 Cl
ATOM     10  C   UNL A   1      35.908  20.015  24.997  1.00  0.00     0.038 A 
ATOM     11  C   UNL A   1      34.634  21.851  24.757  1.00  0.00     0.044 A 
BRANCH   6  12
ATOM     12  O   UNL A   1      32.303  19.156  24.389  1.00  0.00    -0.493 OA
ATOM     13  C   UNL A   1      32.153  18.667  23.053  1.00  0.00     0.278 C 
ENDBRANCH   6  12
BRANCH   8  14
ATOM     14  N   UNL A   1      32.293  21.899  25.066  1.00  0.00    -0.329 N 
ATOM     15  H   UNL A   1      31.818  21.702  25.907  1.00  0.00     0.169 HD
BRANCH  14  16
ATOM     16  C   UNL A   1      31.731  22.874  24.291  1.00  0.00     0.177 C 
ATOM     17  S   UNL A   1      32.225  23.004  22.693  1.00  0.00    -0.040 S 
BRANCH  16  18
ATOM     18  N   UNL A   1      30.709  23.730  24.690  1.00  0.00    -0.299 N 
ATOM     19  C   UNL A   1      30.562  24.956  25.361  1.00  0.00     0.261 C 
ATOM     20  H   UNL A   1      29.831  23.371  24.426  1.00  0.00     0.172 HD
ATOM     21  O   UNL A   1      30.193  24.943  26.536  1.00  0.00    -0.269 OA
BRANCH  19  22
ATOM     22  C   UNL A   1      30.835  26.296  24.718  1.00  0.00     0.082 A 
ATOM     23  C   UNL A   1      29.523  26.688  23.510  1.00  0.00     0.018 A 
ATOM     24  C   UNL A   1      31.879  27.673  25.383  1.00  0.00     0.134 A 
ATOM     25  C   UNL A   1      29.157  28.400  23.052  1.00  0.00     0.001 A 
ATOM     26  C   UNL A   1      31.403  29.396  25.031  1.00  0.00    -0.008 A 
ATOM     27  C   UNL A   1      30.051  29.774  23.879  1.00  0.00     0.007 A 
ATOM     28  C   UNL A   1      31.719  30.454  26.058  1.00  0.00     0.048 C 
BRANCH  24  29
ATOM     29  O   UNL A   1      32.788  27.615  26.418  1.00  0.00    -0.496 OA
ATOM     30  C   UNL A   1      34.168  27.530  26.129  1.00  0.00     0.278 C 
ENDBRANCH  24  29
ENDBRANCH  19  22
ENDBRANCH  16  18
ENDBRANCH  14  16
ENDBRANCH   8  14
ENDBRANCH   1   5
BRANCH   3  31
ATOM     31  C   UNL A   1      40.084  21.793  26.853  1.00  0.00     0.118 C 
BRANCH  31  32
ATOM     32  C   UNL A   1      40.225  20.417  26.211  1.00  0.00     0.042 C 
BRANCH  32  33
ATOM     33  C   UNL A   1      41.150  19.440  26.913  1.00  0.00     0.118 C 
BRANCH  33  34
ATOM     34  N   UNL A   1      42.225  18.964  26.058  1.00  0.00    -0.352 N 
ATOM     35  C   UNL A   1      43.218  19.623  25.381  1.00  0.00     0.251 C 
ATOM     36  H   UNL A   1      42.242  17.986  25.944  1.00  0.00     0.163 HD
ATOM     37  O   UNL A   1      43.867  18.990  24.549  1.00  0.00    -0.269 OA
BRANCH  35  38
ATOM     38  C   UNL A   1      43.536  21.055  25.611  1.00  0.00     0.039 A 
ATOM     39  C   UNL A   1      43.909  21.441  26.904  1.00  0.00     0.014 A 
ATOM     40  C   UNL A   1      43.393  22.037  24.629  1.00  0.00     0.014 A 
ATOM     41  C   UNL A   1      44.156  22.785  27.196  1.00  0.00     0.010 A 
ATOM     42  C   UNL A   1      43.750  23.360  24.891  1.00  0.00     0.010 A 
ATOM     43  C   UNL A   1      44.107  23.757  26.184  1.00  0.00    -0.014 A 
BRANCH  43  44
ATOM     44  C   UNL A   1      44.410  25.180  26.490  1.00  0.00     0.031 A 
ATOM     45  C   UNL A   1      43.349  26.092  27.047  1.00  0.00     0.074 A 
ATOM     46  C   UNL A   1      45.650  25.652  26.259  1.00  0.00     0.049 A 
ATOM     47  N   UNL A   1      43.445  27.346  27.417  1.00  0.00    -0.248 NA
ATOM     48  C   UNL A   1      41.995  25.535  27.188  1.00  0.00     0.031 C 
ATOM     49  C   UNL A   1      46.745  24.881  25.665  1.00  0.00     0.029 A 
ATOM     50  N   UNL A   1      46.205  26.882  26.503  1.00  0.00    -0.354 N 
ATOM     51  C   UNL A   1      42.172  27.723  27.825  1.00  0.00     0.074 A 
ATOM     52  C   UNL A   1      41.304  26.589  27.597  1.00  0.00     0.031 C 
ATOM     53  C   UNL A   1      47.852  25.640  25.638  1.00  0.00     0.029 A 
ATOM     54  C   UNL A   1      47.535  26.961  26.168  1.00  0.00     0.049 A 
ATOM     55  H   UNL A   1      45.698  27.637  26.880  1.00  0.00     0.167 HD
ATOM     56  C   UNL A   1      41.769  28.897  28.369  1.00  0.00     0.037 A 
ATOM     57  C   UNL A   1      48.403  27.984  26.278  1.00  0.00     0.037 A 
ATOM     58  C   UNL A   1      42.642  30.019  28.602  1.00  0.00     0.049 A 
ATOM     59  C   UNL A   1      47.927  29.280  26.876  1.00  0.00     0.074 A 
ATOM     60  C   UNL A   1      42.347  31.235  29.193  1.00  0.00     0.029 A 
ATOM     61  N   UNL A   1      43.982  30.066  28.242  1.00  0.00    -0.354 N 
ATOM     62  N   UNL A   1      46.740  29.595  27.336  1.00  0.00    -0.248 NA
ATOM     63  C   UNL A   1      48.916  30.360  26.980  1.00  0.00     0.031 C 
ATOM     64  C   UNL A   1      43.489  32.041  29.131  1.00  0.00     0.029 A 
ATOM     65  C   UNL A   1      44.518  31.301  28.569  1.00  0.00     0.049 A 
ATOM     66  H   UNL A   1      44.478  29.329  27.816  1.00  0.00     0.167 HD
ATOM     67  C   UNL A   1      46.845  30.897  27.806  1.00  0.00     0.074 A 
ATOM     68  C   UNL A   1      48.221  31.300  27.603  1.00  0.00     0.031 C 
ATOM     69  C   UNL A   1      45.890  31.691  28.352  1.00  0.00     0.037 A 
BRANCH  56  70
ATOM     70  C   UNL A   1      40.317  29.032  28.746  1.00  0.00     0.064 A 
ATOM     71  C   UNL A   1      39.330  29.328  27.792  1.00  0.00     0.173 A 
ATOM     72  C   UNL A   1      39.902  28.825  30.070  1.00  0.00     0.173 A 
ATOM     73  F   UNL A   1      39.668  29.544  26.512  1.00  0.00    -0.203 F 
ATOM     74  C   UNL A   1      37.990  29.446  28.157  1.00  0.00     0.198 A 
ATOM     75  C   UNL A   1      38.557  28.907  30.424  1.00  0.00     0.198 A 
ATOM     76  F   UNL A   1      40.800  28.531  31.023  1.00  0.00    -0.203 F 
ATOM     77  F   UNL A   1      37.075  29.786  27.239  1.00  0.00    -0.200 F 
ATOM     78  C   UNL A   1      37.604  29.226  29.470  1.00  0.00     0.200 A 
ATOM     79  F   UNL A   1      38.184  28.677  31.690  1.00  0.00    -0.200 F 
ATOM     80  F   UNL A   1      36.314  29.330  29.817  1.00  0.00    -0.200 F 
ENDBRANCH  56  70
BRANCH  57  81
ATOM     81  C   UNL A   1      49.813  27.816  25.835  1.00  0.00     0.064 A 
ATOM     82  C   UNL A   1      50.850  27.647  26.763  1.00  0.00     0.173 A 
ATOM     83  C   UNL A   1      50.155  27.829  24.474  1.00  0.00     0.173 A 
ATOM     84  F   UNL A   1      50.580  27.646  28.077  1.00  0.00    -0.203 F 
ATOM     85  C   UNL A   1      52.175  27.527  26.350  1.00  0.00     0.198 A 
ATOM     86  C   UNL A   1      51.476  27.672  24.061  1.00  0.00     0.198 A 
ATOM     87  F   UNL A   1      49.202  27.982  23.543  1.00  0.00    -0.203 F 
ATOM     88  F   UNL A   1      53.152  27.425  27.262  1.00  0.00    -0.200 F 
ATOM     89  C   UNL A   1      52.486  27.532  24.999  1.00  0.00     0.200 A 
ATOM     90  F   UNL A   1      51.769  27.658  22.753  1.00  0.00    -0.200 F 
ATOM     91  F   UNL A   1      53.760  27.412  24.602  1.00  0.00    -0.200 F 
ENDBRANCH  57  81
BRANCH  69  92
ATOM     92  C   UNL A   1      46.314  33.064  28.793  1.00  0.00     0.064 A 
ATOM     93  C   UNL A   1      46.234  34.174  27.937  1.00  0.00     0.173 A 
ATOM     94  C   UNL A   1      46.806  33.273  30.091  1.00  0.00     0.173 A 
ATOM     95  F   UNL A   1      45.782  34.029  26.682  1.00  0.00    -0.203 F 
ATOM     96  C   UNL A   1      46.678  35.429  28.346  1.00  0.00     0.198 A 
ATOM     97  C   UNL A   1      47.209  34.538  30.511  1.00  0.00     0.198 A 
ATOM     98  F   UNL A   1      46.895  32.252  30.955  1.00  0.00    -0.203 F 
ATOM     99  F   UNL A   1      46.663  36.456  27.486  1.00  0.00    -0.200 F 
ATOM    100  C   UNL A   1      47.159  35.611  29.634  1.00  0.00     0.200 A 
ATOM    101  F   UNL A   1      47.655  34.716  31.762  1.00  0.00    -0.200 F 
ATOM    102  F   UNL A   1      47.587  36.819  30.026  1.00  0.00    -0.200 F 
ENDBRANCH  69  92
ENDBRANCH  43  44
ENDBRANCH  35  38
ENDBRANCH  33  34
ENDBRANCH  32  33
ENDBRANCH  31  32
ENDBRANCH   3  31
TORSDOF 16
ENDMDL
