MODEL 1
REMARK VINA RESULT:     -12.0      0.000      0.000
REMARK SMILES CCC1CN(c2cccc(F)c2C(=O)NCCCNC(=O)c2ccc(-c3c4nc(c(-c5c(F)c(F)c(F)c(F)c5F)c5ccc([nH]5)c(-c5c(F)c(F)c(F)c(F)c5F)c5nc(c(-c6c(F)c(F)c(F)c(F)c6F)c6ccc3[nH]6)C=C5)C=C4)cc2)C1
REMARK SMILES IDX 17 1 16 2 15 3 13 4 14 5 12 7 6 8 7 9 8 10 10 11 9 12 11 13
REMARK SMILES IDX 5 14 3 15 4 16 85 17 2 18 1 19 18 20 19 21 20 22 21 24 22 25
REMARK SMILES IDX 23 26 84 27 24 28 83 29 25 30 26 31 27 32 77 33 28 34 82 35
REMARK SMILES IDX 76 36 78 37 29 38 81 39 75 40 74 41 30 43 62 44 42 45 61 46
REMARK SMILES IDX 43 47 46 48 60 49 79 50 44 51 45 52 59 54 80 55 47 56 31 57
REMARK SMILES IDX 32 58 40 59 33 60 34 61 38 62 41 63 35 64 36 65 39 66 37 67
REMARK SMILES IDX 63 68 64 69 72 70 65 71 66 72 70 73 73 74 67 75 68 76 71 77
REMARK SMILES IDX 69 78 48 79 49 80 57 81 50 82 51 83 55 84 58 85 52 86 53 87
REMARK SMILES IDX 56 88 54 89
REMARK H PARENT 15 6 19 23 78 42 46 53
REMARK Flexibility Score: inf
ROOT
ATOM      1  C   UNL A   1      31.352  31.969  26.519  1.00  0.00     0.042 C 
ENDROOT
BRANCH   1   2
ATOM      2  C   UNL A   1      31.427  30.456  26.295  1.00  0.00     0.118 C 
BRANCH   2   3
ATOM      3  N   UNL A   1      32.249  30.151  25.142  1.00  0.00    -0.352 N 
ATOM      4  C   UNL A   1      32.312  29.157  24.202  1.00  0.00     0.256 C 
ATOM      5  O   UNL A   1      33.282  29.295  23.453  1.00  0.00    -0.269 OA
ATOM      6  H   UNL A   1      32.942  30.835  24.998  1.00  0.00     0.163 HD
BRANCH   4   7
ATOM      7  C   UNL A   1      31.322  28.038  24.011  1.00  0.00     0.098 A 
ATOM      8  C   UNL A   1      30.006  28.328  23.544  1.00  0.00     0.053 A 
ATOM      9  C   UNL A   1      29.038  27.298  23.503  1.00  0.00     0.027 A 
ATOM     10  C   UNL A   1      29.344  25.994  23.876  1.00  0.00     0.005 A 
ATOM     11  C   UNL A   1      31.614  26.697  24.291  1.00  0.00     0.138 A 
ATOM     12  C   UNL A   1      30.641  25.693  24.253  1.00  0.00     0.040 A 
ATOM     13  F   UNL A   1      32.858  26.273  24.536  1.00  0.00    -0.206 F 
BRANCH   8  14
ATOM     14  N   UNL A   1      29.632  29.603  23.059  1.00  0.00    -0.370 N 
ATOM     15  C   UNL A   1      28.381  30.917  22.042  1.00  0.00     0.028 C 
ATOM     16  C   UNL A   1      29.520  29.959  21.670  1.00  0.00     0.122 C 
ATOM     17  C   UNL A   1      28.612  30.499  23.500  1.00  0.00     0.122 C 
BRANCH  15  18
ATOM     18  C   UNL A   1      28.449  32.398  21.677  1.00  0.00     0.004 C 
ATOM     19  C   UNL A   1      27.653  32.779  20.440  1.00  0.00     0.004 C 
ENDBRANCH  15  18
ENDBRANCH   8  14
ENDBRANCH   4   7
ENDBRANCH   2   3
ENDBRANCH   1   2
BRANCH   1  20
ATOM     20  C   UNL A   1      32.681  32.588  26.958  1.00  0.00     0.118 C 
BRANCH  20  21
ATOM     21  N   UNL A   1      32.516  33.950  27.450  1.00  0.00    -0.352 N 
ATOM     22  C   UNL A   1      33.081  34.581  28.529  1.00  0.00     0.251 C 
ATOM     23  H   UNL A   1      31.901  34.507  26.922  1.00  0.00     0.163 HD
ATOM     24  O   UNL A   1      32.614  35.645  28.923  1.00  0.00    -0.269 OA
BRANCH  22  25
ATOM     25  C   UNL A   1      34.249  33.995  29.222  1.00  0.00     0.039 A 
ATOM     26  C   UNL A   1      34.029  33.077  30.253  1.00  0.00     0.014 A 
ATOM     27  C   UNL A   1      35.549  34.397  28.907  1.00  0.00     0.014 A 
ATOM     28  C   UNL A   1      35.116  32.524  30.935  1.00  0.00     0.010 A 
ATOM     29  C   UNL A   1      36.634  33.792  29.537  1.00  0.00     0.010 A 
ATOM     30  C   UNL A   1      36.428  32.856  30.561  1.00  0.00    -0.014 A 
BRANCH  30  31
ATOM     31  C   UNL A   1      37.600  32.235  31.229  1.00  0.00     0.031 A 
ATOM     32  C   UNL A   1      38.345  31.113  30.563  1.00  0.00     0.074 A 
ATOM     33  C   UNL A   1      37.949  32.641  32.464  1.00  0.00     0.049 A 
ATOM     34  N   UNL A   1      39.336  30.390  31.022  1.00  0.00    -0.248 NA
ATOM     35  C   UNL A   1      37.901  30.731  29.213  1.00  0.00     0.031 C 
ATOM     36  C   UNL A   1      37.277  33.693  33.226  1.00  0.00     0.029 A 
ATOM     37  N   UNL A   1      38.950  32.212  33.300  1.00  0.00    -0.354 N 
ATOM     38  C   UNL A   1      39.618  29.463  30.028  1.00  0.00     0.074 A 
ATOM     39  C   UNL A   1      38.665  29.678  28.962  1.00  0.00     0.031 C 
ATOM     40  C   UNL A   1      37.900  33.848  34.404  1.00  0.00     0.029 A 
ATOM     41  C   UNL A   1      38.988  32.880  34.499  1.00  0.00     0.049 A 
ATOM     42  H   UNL A   1      39.581  31.494  33.062  1.00  0.00     0.167 HD
ATOM     43  C   UNL A   1      40.600  28.531  30.000  1.00  0.00     0.037 A 
ATOM     44  C   UNL A   1      39.805  32.726  35.558  1.00  0.00     0.037 A 
ATOM     45  C   UNL A   1      41.567  28.345  31.051  1.00  0.00     0.049 A 
ATOM     46  C   UNL A   1      40.886  31.683  35.505  1.00  0.00     0.074 A 
ATOM     47  C   UNL A   1      42.640  27.473  31.089  1.00  0.00     0.029 A 
ATOM     48  N   UNL A   1      41.576  29.045  32.249  1.00  0.00    -0.354 N 
ATOM     49  N   UNL A   1      41.178  30.846  34.540  1.00  0.00    -0.248 NA
ATOM     50  C   UNL A   1      41.753  31.563  36.686  1.00  0.00     0.031 C 
ATOM     51  C   UNL A   1      43.271  27.611  32.329  1.00  0.00     0.029 A 
ATOM     52  C   UNL A   1      42.624  28.608  33.042  1.00  0.00     0.049 A 
ATOM     53  H   UNL A   1      40.934  29.749  32.497  1.00  0.00     0.167 HD
ATOM     54  C   UNL A   1      42.270  30.114  34.984  1.00  0.00     0.074 A 
ATOM     55  C   UNL A   1      42.599  30.615  36.302  1.00  0.00     0.031 C 
ATOM     56  C   UNL A   1      42.940  29.119  34.353  1.00  0.00     0.037 A 
BRANCH  43  57
ATOM     57  C   UNL A   1      40.691  27.644  28.791  1.00  0.00     0.064 A 
ATOM     58  C   UNL A   1      41.517  27.992  27.712  1.00  0.00     0.173 A 
ATOM     59  C   UNL A   1      39.916  26.480  28.675  1.00  0.00     0.173 A 
ATOM     60  F   UNL A   1      42.272  29.099  27.766  1.00  0.00    -0.203 F 
ATOM     61  C   UNL A   1      41.559  27.210  26.560  1.00  0.00     0.198 A 
ATOM     62  C   UNL A   1      39.984  25.684  27.534  1.00  0.00     0.198 A 
ATOM     63  F   UNL A   1      39.117  26.097  29.682  1.00  0.00    -0.203 F 
ATOM     64  F   UNL A   1      42.334  27.578  25.530  1.00  0.00    -0.200 F 
ATOM     65  C   UNL A   1      40.797  26.055  26.474  1.00  0.00     0.200 A 
ATOM     66  F   UNL A   1      39.266  24.555  27.465  1.00  0.00    -0.200 F 
ATOM     67  F   UNL A   1      40.850  25.295  25.372  1.00  0.00    -0.200 F 
ENDBRANCH  43  57
BRANCH  44  68
ATOM     68  C   UNL A   1      39.649  33.619  36.734  1.00  0.00     0.064 A 
ATOM     69  C   UNL A   1      38.813  33.279  37.808  1.00  0.00     0.173 A 
ATOM     70  C   UNL A   1      40.296  34.861  36.779  1.00  0.00     0.173 A 
ATOM     71  F   UNL A   1      38.166  32.104  37.810  1.00  0.00    -0.203 F 
ATOM     72  C   UNL A   1      38.611  34.159  38.870  1.00  0.00     0.198 A 
ATOM     73  C   UNL A   1      40.113  35.730  37.852  1.00  0.00     0.198 A 
ATOM     74  F   UNL A   1      41.119  35.222  35.783  1.00  0.00    -0.203 F 
ATOM     75  F   UNL A   1      37.776  33.827  39.863  1.00  0.00    -0.200 F 
ATOM     76  C   UNL A   1      39.262  35.383  38.892  1.00  0.00     0.200 A 
ATOM     77  F   UNL A   1      40.759  36.904  37.879  1.00  0.00    -0.200 F 
ATOM     78  F   UNL A   1      39.070  36.228  39.913  1.00  0.00    -0.200 F 
ENDBRANCH  44  68
BRANCH  56  79
ATOM     79  C   UNL A   1      44.111  28.507  35.064  1.00  0.00     0.064 A 
ATOM     80  C   UNL A   1      45.404  29.016  34.867  1.00  0.00     0.173 A 
ATOM     81  C   UNL A   1      43.967  27.367  35.865  1.00  0.00     0.173 A 
ATOM     82  F   UNL A   1      45.595  30.101  34.103  1.00  0.00    -0.203 F 
ATOM     83  C   UNL A   1      46.512  28.391  35.431  1.00  0.00     0.198 A 
ATOM     84  C   UNL A   1      45.073  26.761  36.452  1.00  0.00     0.198 A 
ATOM     85  F   UNL A   1      42.749  26.852  36.094  1.00  0.00    -0.203 F 
ATOM     86  F   UNL A   1      47.741  28.871  35.198  1.00  0.00    -0.200 F 
ATOM     87  C   UNL A   1      46.346  27.266  36.225  1.00  0.00     0.200 A 
ATOM     88  F   UNL A   1      44.911  25.688  37.236  1.00  0.00    -0.200 F 
ATOM     89  F   UNL A   1      47.413  26.668  36.773  1.00  0.00    -0.200 F 
ENDBRANCH  56  79
ENDBRANCH  30  31
ENDBRANCH  22  25
ENDBRANCH  20  21
ENDBRANCH   1  20
TORSDOF 12
ENDMDL
MODEL 2
REMARK VINA RESULT:     -12.0      6.450     11.720
REMARK SMILES CCC1CN(c2cccc(F)c2C(=O)NCCCNC(=O)c2ccc(-c3c4nc(c(-c5c(F)c(F)c(F)c(F)c5F)c5ccc([nH]5)c(-c5c(F)c(F)c(F)c(F)c5F)c5nc(c(-c6c(F)c(F)c(F)c(F)c6F)c6ccc3[nH]6)C=C5)C=C4)cc2)C1
REMARK SMILES IDX 17 1 16 2 15 3 13 4 14 5 12 7 6 8 7 9 8 10 10 11 9 12 11 13
REMARK SMILES IDX 5 14 3 15 4 16 85 17 2 18 1 19 18 20 19 21 20 22 21 24 22 25
REMARK SMILES IDX 23 26 84 27 24 28 83 29 25 30 26 31 27 32 77 33 28 34 82 35
REMARK SMILES IDX 76 36 78 37 29 38 81 39 75 40 74 41 30 43 62 44 42 45 61 46
REMARK SMILES IDX 43 47 46 48 60 49 79 50 44 51 45 52 59 54 80 55 47 56 31 57
REMARK SMILES IDX 32 58 40 59 33 60 34 61 38 62 41 63 35 64 36 65 39 66 37 67
REMARK SMILES IDX 63 68 64 69 72 70 65 71 66 72 70 73 73 74 67 75 68 76 71 77
REMARK SMILES IDX 69 78 48 79 49 80 57 81 50 82 51 83 55 84 58 85 52 86 53 87
REMARK SMILES IDX 56 88 54 89
REMARK H PARENT 15 6 19 23 78 42 46 53
REMARK Flexibility Score: inf
ROOT
ATOM      1  C   UNL A   1      38.082  19.839  24.876  1.00  0.00     0.042 C 
ENDROOT
BRANCH   1   2
ATOM      2  C   UNL A   1      37.070  20.964  24.645  1.00  0.00     0.118 C 
BRANCH   2   3
ATOM      3  N   UNL A   1      36.172  21.083  25.774  1.00  0.00    -0.352 N 
ATOM      4  C   UNL A   1      34.849  21.384  25.964  1.00  0.00     0.256 C 
ATOM      5  O   UNL A   1      34.562  21.455  27.161  1.00  0.00    -0.269 OA
ATOM      6  H   UNL A   1      36.630  20.899  26.626  1.00  0.00     0.163 HD
BRANCH   4   7
ATOM      7  C   UNL A   1      33.806  21.563  24.893  1.00  0.00     0.098 A 
ATOM      8  C   UNL A   1      33.240  20.419  24.257  1.00  0.00     0.053 A 
ATOM      9  C   UNL A   1      32.370  20.592  23.155  1.00  0.00     0.027 A 
ATOM     10  C   UNL A   1      32.022  21.855  22.691  1.00  0.00     0.005 A 
ATOM     11  C   UNL A   1      33.361  22.816  24.453  1.00  0.00     0.138 A 
ATOM     12  C   UNL A   1      32.507  22.968  23.356  1.00  0.00     0.040 A 
ATOM     13  F   UNL A   1      33.659  23.947  25.102  1.00  0.00    -0.206 F 
BRANCH   8  14
ATOM     14  N   UNL A   1      33.465  19.100  24.717  1.00  0.00    -0.370 N 
ATOM     15  C   UNL A   1      33.367  17.028  24.559  1.00  0.00     0.028 C 
ATOM     16  C   UNL A   1      32.434  18.149  25.036  1.00  0.00     0.122 C 
ATOM     17  C   UNL A   1      34.412  18.120  24.294  1.00  0.00     0.122 C 
BRANCH  15  18
ATOM     18  C   UNL A   1      33.730  15.864  25.479  1.00  0.00     0.004 C 
ATOM     19  C   UNL A   1      32.695  14.752  25.524  1.00  0.00     0.004 C 
ENDBRANCH  15  18
ENDBRANCH   8  14
ENDBRANCH   4   7
ENDBRANCH   2   3
ENDBRANCH   1   2
BRANCH   1  20
ATOM     20  C   UNL A   1      39.050  20.114  26.029  1.00  0.00     0.118 C 
BRANCH  20  21
ATOM     21  N   UNL A   1      40.189  19.205  26.019  1.00  0.00    -0.352 N 
ATOM     22  C   UNL A   1      41.536  19.464  26.028  1.00  0.00     0.251 C 
ATOM     23  H   UNL A   1      39.953  18.249  26.005  1.00  0.00     0.163 HD
ATOM     24  O   UNL A   1      42.328  18.568  25.755  1.00  0.00    -0.269 OA
BRANCH  22  25
ATOM     25  C   UNL A   1      42.044  20.811  26.367  1.00  0.00     0.039 A 
ATOM     26  C   UNL A   1      42.266  21.727  25.335  1.00  0.00     0.014 A 
ATOM     27  C   UNL A   1      42.368  21.148  27.683  1.00  0.00     0.014 A 
ATOM     28  C   UNL A   1      42.763  22.998  25.628  1.00  0.00     0.010 A 
ATOM     29  C   UNL A   1      42.795  22.439  27.985  1.00  0.00     0.010 A 
ATOM     30  C   UNL A   1      43.003  23.374  26.960  1.00  0.00    -0.014 A 
BRANCH  30  31
ATOM     31  C   UNL A   1      43.474  24.740  27.303  1.00  0.00     0.031 A 
ATOM     32  C   UNL A   1      42.525  25.741  27.899  1.00  0.00     0.074 A 
ATOM     33  C   UNL A   1      44.740  25.095  27.013  1.00  0.00     0.049 A 
ATOM     34  N   UNL A   1      42.725  27.002  28.187  1.00  0.00    -0.248 NA
ATOM     35  C   UNL A   1      41.160  25.271  28.186  1.00  0.00     0.031 C 
ATOM     36  C   UNL A   1      45.739  24.223  26.397  1.00  0.00     0.029 A 
ATOM     37  N   UNL A   1      45.399  26.286  27.190  1.00  0.00    -0.354 N 
ATOM     38  C   UNL A   1      41.513  27.477  28.668  1.00  0.00     0.074 A 
ATOM     39  C   UNL A   1      40.567  26.385  28.589  1.00  0.00     0.031 C 
ATOM     40  C   UNL A   1      46.893  24.897  26.274  1.00  0.00     0.029 A 
ATOM     41  C   UNL A   1      46.704  26.260  26.762  1.00  0.00     0.049 A 
ATOM     42  H   UNL A   1      44.978  27.083  27.586  1.00  0.00     0.167 HD
ATOM     43  C   UNL A   1      41.222  28.707  29.154  1.00  0.00     0.037 A 
ATOM     44  C   UNL A   1      47.641  27.227  26.758  1.00  0.00     0.037 A 
ATOM     45  C   UNL A   1      42.178  29.779  29.260  1.00  0.00     0.049 A 
ATOM     46  C   UNL A   1      47.295  28.585  27.299  1.00  0.00     0.074 A 
ATOM     47  C   UNL A   1      42.000  31.041  29.797  1.00  0.00     0.029 A 
ATOM     48  N   UNL A   1      43.493  29.712  28.820  1.00  0.00    -0.354 N 
ATOM     49  N   UNL A   1      46.160  29.009  27.800  1.00  0.00    -0.248 NA
ATOM     50  C   UNL A   1      48.357  29.601  27.277  1.00  0.00     0.031 C 
ATOM     51  C   UNL A   1      43.192  31.754  29.640  1.00  0.00     0.029 A 
ATOM     52  C   UNL A   1      44.130  30.919  29.054  1.00  0.00     0.049 A 
ATOM     53  H   UNL A   1      43.910  28.923  28.404  1.00  0.00     0.167 HD
ATOM     54  C   UNL A   1      46.374  30.329  28.172  1.00  0.00     0.074 A 
ATOM     55  C   UNL A   1      47.753  30.634  27.850  1.00  0.00     0.031 C 
ATOM     56  C   UNL A   1      45.505  31.207  28.730  1.00  0.00     0.037 A 
BRANCH  43  57
ATOM     57  C   UNL A   1      39.818  28.964  29.618  1.00  0.00     0.064 A 
ATOM     58  C   UNL A   1      39.441  28.682  30.940  1.00  0.00     0.173 A 
ATOM     59  C   UNL A   1      38.828  29.434  28.741  1.00  0.00     0.173 A 
ATOM     60  F   UNL A   1      40.345  28.222  31.818  1.00  0.00    -0.203 F 
ATOM     61  C   UNL A   1      38.126  28.855  31.364  1.00  0.00     0.198 A 
ATOM     62  C   UNL A   1      37.521  29.636  29.177  1.00  0.00     0.198 A 
ATOM     63  F   UNL A   1      39.138  29.728  27.469  1.00  0.00    -0.203 F 
ATOM     64  F   UNL A   1      37.784  28.552  32.624  1.00  0.00    -0.200 F 
ATOM     65  C   UNL A   1      37.169  29.337  30.484  1.00  0.00     0.200 A 
ATOM     66  F   UNL A   1      36.604  30.125  28.331  1.00  0.00    -0.200 F 
ATOM     67  F   UNL A   1      35.907  29.518  30.897  1.00  0.00    -0.200 F 
ENDBRANCH  43  57
BRANCH  44  68
ATOM     68  C   UNL A   1      49.006  26.916  26.262  1.00  0.00     0.064 A 
ATOM     69  C   UNL A   1      49.364  27.122  24.922  1.00  0.00     0.173 A 
ATOM     70  C   UNL A   1      49.965  26.354  27.115  1.00  0.00     0.173 A 
ATOM     71  F   UNL A   1      48.480  27.652  24.064  1.00  0.00    -0.203 F 
ATOM     72  C   UNL A   1      50.622  26.753  24.448  1.00  0.00     0.198 A 
ATOM     73  C   UNL A   1      51.230  26.008  26.647  1.00  0.00     0.198 A 
ATOM     74  F   UNL A   1      49.674  26.155  28.409  1.00  0.00    -0.203 F 
ATOM     75  F   UNL A   1      50.925  26.923  23.155  1.00  0.00    -0.200 F 
ATOM     76  C   UNL A   1      51.554  26.198  25.311  1.00  0.00     0.200 A 
ATOM     77  F   UNL A   1      52.135  25.490  27.489  1.00  0.00    -0.200 F 
ATOM     78  F   UNL A   1      52.764  25.846  24.857  1.00  0.00    -0.200 F 
ENDBRANCH  44  68
BRANCH  56  79
ATOM     79  C   UNL A   1      46.013  32.582  29.051  1.00  0.00     0.064 A 
ATOM     80  C   UNL A   1      45.932  33.607  28.096  1.00  0.00     0.173 A 
ATOM     81  C   UNL A   1      46.658  32.859  30.263  1.00  0.00     0.173 A 
ATOM     82  F   UNL A   1      45.331  33.389  26.917  1.00  0.00    -0.203 F 
ATOM     83  C   UNL A   1      46.498  34.855  28.337  1.00  0.00     0.198 A 
ATOM     84  C   UNL A   1      47.199  34.117  30.513  1.00  0.00     0.198 A 
ATOM     85  F   UNL A   1      46.748  31.915  31.212  1.00  0.00    -0.203 F 
ATOM     86  F   UNL A   1      46.444  35.807  27.396  1.00  0.00    -0.200 F 
ATOM     87  C   UNL A   1      47.128  35.111  29.546  1.00  0.00     0.200 A 
ATOM     88  F   UNL A   1      47.787  34.370  31.689  1.00  0.00    -0.200 F 
ATOM     89  F   UNL A   1      47.669  36.314  29.780  1.00  0.00    -0.200 F 
ENDBRANCH  56  79
ENDBRANCH  30  31
ENDBRANCH  22  25
ENDBRANCH  20  21
ENDBRANCH   1  20
TORSDOF 12
ENDMDL
MODEL 3
REMARK VINA RESULT:     -12.0      0.190      1.168
REMARK SMILES CCC1CN(c2cccc(F)c2C(=O)NCCCNC(=O)c2ccc(-c3c4nc(c(-c5c(F)c(F)c(F)c(F)c5F)c5ccc([nH]5)c(-c5c(F)c(F)c(F)c(F)c5F)c5nc(c(-c6c(F)c(F)c(F)c(F)c6F)c6ccc3[nH]6)C=C5)C=C4)cc2)C1
REMARK SMILES IDX 17 1 16 2 15 3 13 4 14 5 12 7 6 8 7 9 8 10 10 11 9 12 11 13
REMARK SMILES IDX 5 14 3 15 4 16 85 17 2 18 1 19 18 20 19 21 20 22 21 24 22 25
REMARK SMILES IDX 23 26 84 27 24 28 83 29 25 30 26 31 27 32 77 33 28 34 82 35
REMARK SMILES IDX 76 36 78 37 29 38 81 39 75 40 74 41 30 43 62 44 42 45 61 46
REMARK SMILES IDX 43 47 46 48 60 49 79 50 44 51 45 52 59 54 80 55 47 56 31 57
REMARK SMILES IDX 32 58 40 59 33 60 34 61 38 62 41 63 35 64 36 65 39 66 37 67
REMARK SMILES IDX 63 68 64 69 72 70 65 71 66 72 70 73 73 74 67 75 68 76 71 77
REMARK SMILES IDX 69 78 48 79 49 80 57 81 50 82 51 83 55 84 58 85 52 86 53 87
REMARK SMILES IDX 56 88 54 89
REMARK H PARENT 15 6 19 23 78 42 46 53
REMARK Flexibility Score: inf
ROOT
ATOM      1  C   UNL A   1      31.349  31.947  26.494  1.00  0.00     0.042 C 
ENDROOT
BRANCH   1   2
ATOM      2  C   UNL A   1      31.440  30.435  26.276  1.00  0.00     0.118 C 
BRANCH   2   3
ATOM      3  N   UNL A   1      32.254  30.133  25.118  1.00  0.00    -0.352 N 
ATOM      4  C   UNL A   1      32.315  29.139  24.177  1.00  0.00     0.256 C 
ATOM      5  O   UNL A   1      33.278  29.281  23.421  1.00  0.00    -0.269 OA
ATOM      6  H   UNL A   1      32.942  30.820  24.967  1.00  0.00     0.163 HD
BRANCH   4   7
ATOM      7  C   UNL A   1      31.330  28.015  23.995  1.00  0.00     0.098 A 
ATOM      8  C   UNL A   1      30.006  28.297  23.546  1.00  0.00     0.053 A 
ATOM      9  C   UNL A   1      29.044  27.261  23.513  1.00  0.00     0.027 A 
ATOM     10  C   UNL A   1      29.362  25.959  23.877  1.00  0.00     0.005 A 
ATOM     11  C   UNL A   1      31.633  26.674  24.267  1.00  0.00     0.138 A 
ATOM     12  C   UNL A   1      30.666  25.664  24.237  1.00  0.00     0.040 A 
ATOM     13  F   UNL A   1      32.883  26.257  24.495  1.00  0.00    -0.206 F 
BRANCH   8  14
ATOM     14  N   UNL A   1      29.618  29.572  23.070  1.00  0.00    -0.370 N 
ATOM     15  C   UNL A   1      28.364  30.876  22.043  1.00  0.00     0.028 C 
ATOM     16  C   UNL A   1      29.530  29.945  21.683  1.00  0.00     0.122 C 
ATOM     17  C   UNL A   1      28.571  30.442  23.500  1.00  0.00     0.122 C 
BRANCH  15  18
ATOM     18  C   UNL A   1      28.412  32.363  21.699  1.00  0.00     0.004 C 
ATOM     19  C   UNL A   1      27.653  32.743  20.439  1.00  0.00     0.004 C 
ENDBRANCH  15  18
ENDBRANCH   8  14
ENDBRANCH   4   7
ENDBRANCH   2   3
ENDBRANCH   1   2
BRANCH   1  20
ATOM     20  C   UNL A   1      32.674  32.584  26.917  1.00  0.00     0.118 C 
BRANCH  20  21
ATOM     21  N   UNL A   1      32.497  33.941  27.420  1.00  0.00    -0.352 N 
ATOM     22  C   UNL A   1      33.059  34.570  28.500  1.00  0.00     0.251 C 
ATOM     23  H   UNL A   1      31.873  34.495  26.897  1.00  0.00     0.163 HD
ATOM     24  O   UNL A   1      32.582  35.626  28.903  1.00  0.00    -0.269 OA
BRANCH  22  25
ATOM     25  C   UNL A   1      34.236  33.993  29.184  1.00  0.00     0.039 A 
ATOM     26  C   UNL A   1      34.031  33.050  30.196  1.00  0.00     0.014 A 
ATOM     27  C   UNL A   1      35.528  34.426  28.883  1.00  0.00     0.014 A 
ATOM     28  C   UNL A   1      35.127  32.503  30.869  1.00  0.00     0.010 A 
ATOM     29  C   UNL A   1      36.624  33.830  29.503  1.00  0.00     0.010 A 
ATOM     30  C   UNL A   1      36.433  32.868  30.506  1.00  0.00    -0.014 A 
BRANCH  30  31
ATOM     31  C   UNL A   1      37.615  32.256  31.165  1.00  0.00     0.031 A 
ATOM     32  C   UNL A   1      38.390  31.171  30.473  1.00  0.00     0.074 A 
ATOM     33  C   UNL A   1      37.947  32.635  32.413  1.00  0.00     0.049 A 
ATOM     34  N   UNL A   1      39.395  30.459  30.918  1.00  0.00    -0.248 NA
ATOM     35  C   UNL A   1      37.963  30.817  29.110  1.00  0.00     0.031 C 
ATOM     36  C   UNL A   1      37.245  33.649  33.199  1.00  0.00     0.029 A 
ATOM     37  N   UNL A   1      38.951  32.206  33.243  1.00  0.00    -0.354 N 
ATOM     38  C   UNL A   1      39.705  29.566  29.901  1.00  0.00     0.074 A 
ATOM     39  C   UNL A   1      38.753  29.789  28.835  1.00  0.00     0.031 C 
ATOM     40  C   UNL A   1      37.857  33.786  34.386  1.00  0.00     0.029 A 
ATOM     41  C   UNL A   1      38.966  32.841  34.461  1.00  0.00     0.049 A 
ATOM     42  H   UNL A   1      39.600  31.510  32.991  1.00  0.00     0.167 HD
ATOM     43  C   UNL A   1      40.709  28.659  29.854  1.00  0.00     0.037 A 
ATOM     44  C   UNL A   1      39.780  32.676  35.521  1.00  0.00     0.037 A 
ATOM     45  C   UNL A   1      41.673  28.466  30.906  1.00  0.00     0.049 A 
ATOM     46  C   UNL A   1      40.886  31.661  35.447  1.00  0.00     0.074 A 
ATOM     47  C   UNL A   1      42.766  27.618  30.927  1.00  0.00     0.029 A 
ATOM     48  N   UNL A   1      41.658  29.132  32.123  1.00  0.00    -0.354 N 
ATOM     49  N   UNL A   1      41.203  30.858  34.461  1.00  0.00    -0.248 NA
ATOM     50  C   UNL A   1      41.747  31.527  36.630  1.00  0.00     0.031 C 
ATOM     51  C   UNL A   1      43.385  27.736  32.175  1.00  0.00     0.029 A 
ATOM     52  C   UNL A   1      42.711  28.698  32.911  1.00  0.00     0.049 A 
ATOM     53  H   UNL A   1      40.998  29.813  32.387  1.00  0.00     0.167 HD
ATOM     54  C   UNL A   1      42.310  30.140  34.891  1.00  0.00     0.074 A 
ATOM     55  C   UNL A   1      42.618  30.611  36.226  1.00  0.00     0.031 C 
ATOM     56  C   UNL A   1      43.006  29.178  34.237  1.00  0.00     0.037 A 
BRANCH  43  57
ATOM     57  C   UNL A   1      40.828  27.809  28.621  1.00  0.00     0.064 A 
ATOM     58  C   UNL A   1      41.611  28.231  27.537  1.00  0.00     0.173 A 
ATOM     59  C   UNL A   1      40.121  26.604  28.490  1.00  0.00     0.173 A 
ATOM     60  F   UNL A   1      42.301  29.379  27.606  1.00  0.00    -0.203 F 
ATOM     61  C   UNL A   1      41.676  27.481  26.364  1.00  0.00     0.198 A 
ATOM     62  C   UNL A   1      40.213  25.841  27.327  1.00  0.00     0.198 A 
ATOM     63  F   UNL A   1      39.364  26.150  29.501  1.00  0.00    -0.203 F 
ATOM     64  F   UNL A   1      42.408  27.919  25.331  1.00  0.00    -0.200 F 
ATOM     65  C   UNL A   1      40.982  26.285  26.263  1.00  0.00     0.200 A 
ATOM     66  F   UNL A   1      39.561  24.674  27.242  1.00  0.00    -0.200 F 
ATOM     67  F   UNL A   1      41.058  25.557  25.140  1.00  0.00    -0.200 F 
ENDBRANCH  43  57
BRANCH  44  68
ATOM     68  C   UNL A   1      39.596  33.532  36.721  1.00  0.00     0.064 A 
ATOM     69  C   UNL A   1      38.763  33.142  37.779  1.00  0.00     0.173 A 
ATOM     70  C   UNL A   1      40.212  34.788  36.804  1.00  0.00     0.173 A 
ATOM     71  F   UNL A   1      38.144  31.952  37.744  1.00  0.00    -0.203 F 
ATOM     72  C   UNL A   1      38.533  33.987  38.864  1.00  0.00     0.198 A 
ATOM     73  C   UNL A   1      40.002  35.622  37.899  1.00  0.00     0.198 A 
ATOM     74  F   UNL A   1      41.032  35.196  35.825  1.00  0.00    -0.203 F 
ATOM     75  F   UNL A   1      37.700  33.607  39.842  1.00  0.00    -0.200 F 
ATOM     76  C   UNL A   1      39.154  35.225  38.924  1.00  0.00     0.200 A 
ATOM     77  F   UNL A   1      40.620  36.809  37.963  1.00  0.00    -0.200 F 
ATOM     78  F   UNL A   1      38.936  36.036  39.968  1.00  0.00    -0.200 F 
ENDBRANCH  44  68
BRANCH  56  79
ATOM     79  C   UNL A   1      44.187  28.574  34.940  1.00  0.00     0.064 A 
ATOM     80  C   UNL A   1      44.021  27.453  35.768  1.00  0.00     0.173 A 
ATOM     81  C   UNL A   1      45.459  29.156  34.865  1.00  0.00     0.173 A 
ATOM     82  F   UNL A   1      42.821  26.866  35.879  1.00  0.00    -0.203 F 
ATOM     83  C   UNL A   1      45.083  26.951  36.512  1.00  0.00     0.198 A 
ATOM     84  C   UNL A   1      46.527  28.633  35.588  1.00  0.00     0.198 A 
ATOM     85  F   UNL A   1      45.670  30.220  34.076  1.00  0.00    -0.203 F 
ATOM     86  F   UNL A   1      44.894  25.904  37.327  1.00  0.00    -0.200 F 
ATOM     87  C   UNL A   1      46.336  27.538  36.420  1.00  0.00     0.200 A 
ATOM     88  F   UNL A   1      47.742  29.188  35.482  1.00  0.00    -0.200 F 
ATOM     89  F   UNL A   1      47.361  27.050  37.133  1.00  0.00    -0.200 F 
ENDBRANCH  56  79
ENDBRANCH  30  31
ENDBRANCH  22  25
ENDBRANCH  20  21
ENDBRANCH   1  20
TORSDOF 12
ENDMDL
