MODEL 1
REMARK VINA RESULT:     -13.5      0.000      0.000
REMARK SMILES Cc1cc(C(=O)NCCCNC(=O)c2ccc(-c3c4nc(c(-c5c(F)c(F)c(F)c(F)c5F)c5ccc([nH]5)c(-c5c(F)c(F)c(F)c(F)c5F)c5nc(c(-c6c(F)c(F)c(F)c(F)c6F)c6ccc3[nH]6)C=C5)C=C4)cc2)ccc1NS(=O)(=O)c1c(F)cccc1F
REMARK SMILES IDX 8 1 7 2 5 3 6 4 4 6 1 7 2 8 3 9 79 10 78 11 77 12 80 13
REMARK SMILES IDX 81 15 82 16 83 17 84 18 85 19 90 20 86 21 87 22 89 23 91 24
REMARK SMILES IDX 88 25 9 26 10 27 11 28 12 29 13 31 14 32 15 33 76 34 16 35
REMARK SMILES IDX 75 36 17 37 18 38 19 39 69 40 20 41 74 42 68 43 70 44 21 45
REMARK SMILES IDX 73 46 67 47 66 48 22 50 54 51 34 52 53 53 35 54 38 55 52 56
REMARK SMILES IDX 71 57 36 58 37 59 51 61 72 62 39 63 23 64 24 65 32 66 25 67
REMARK SMILES IDX 26 68 30 69 33 70 27 71 28 72 31 73 29 74 55 75 56 76 64 77
REMARK SMILES IDX 57 78 58 79 62 80 65 81 59 82 60 83 63 84 61 85 40 86 41 87
REMARK SMILES IDX 49 88 42 89 43 90 47 91 50 92 44 93 45 94 48 95 46 96
REMARK H PARENT 7 5 80 14 11 30 70 49 38 60
REMARK Flexibility Score: inf
ROOT
ATOM      1  C   UNL A   1      31.846  30.905  26.637  1.00  0.00     0.118 C 
ENDROOT
BRANCH   1   2
ATOM      2  N   UNL A   1      31.527  30.429  25.294  1.00  0.00    -0.352 N 
ATOM      3  C   UNL A   1      31.533  29.207  24.669  1.00  0.00     0.251 C 
ATOM      4  O   UNL A   1      31.215  29.199  23.477  1.00  0.00    -0.269 OA
ATOM      5  H   UNL A   1      31.239  31.157  24.697  1.00  0.00     0.163 HD
BRANCH   3   6
ATOM      6  C   UNL A   1      31.973  27.928  25.295  1.00  0.00     0.040 A 
ATOM      7  C   UNL A   1      30.279  24.594  26.027  1.00  0.00     0.046 C 
ATOM      8  C   UNL A   1      31.376  25.601  25.806  1.00  0.00    -0.026 A 
ATOM      9  C   UNL A   1      31.021  26.898  25.392  1.00  0.00     0.019 A 
ATOM     10  C   UNL A   1      32.728  25.322  26.044  1.00  0.00     0.052 A 
ATOM     11  C   UNL A   1      33.605  26.392  26.216  1.00  0.00     0.028 A 
ATOM     12  C   UNL A   1      33.235  27.686  25.828  1.00  0.00     0.016 A 
BRANCH  10  13
ATOM     13  N   UNL A   1      33.167  23.972  25.911  1.00  0.00    -0.279 N 
ATOM     14  H   UNL A   1      33.060  23.403  26.706  1.00  0.00     0.180 HD
BRANCH  13  15
ATOM     15  S   UNL A   1      33.839  23.238  24.569  1.00  0.00     0.267 S 
ATOM     16  O   UNL A   1      32.919  22.164  24.208  1.00  0.00    -0.201 OA
ATOM     17  O   UNL A   1      34.147  24.300  23.653  1.00  0.00    -0.201 OA
BRANCH  15  18
ATOM     18  C   UNL A   1      35.363  22.494  25.015  1.00  0.00     0.158 A 
ATOM     19  C   UNL A   1      36.400  23.334  25.409  1.00  0.00     0.146 A 
ATOM     20  C   UNL A   1      35.618  21.140  24.858  1.00  0.00     0.146 A 
ATOM     21  F   UNL A   1      36.183  24.630  25.667  1.00  0.00    -0.205 F 
ATOM     22  C   UNL A   1      37.701  22.851  25.548  1.00  0.00     0.041 A 
ATOM     23  C   UNL A   1      36.919  20.647  24.979  1.00  0.00     0.041 A 
ATOM     24  F   UNL A   1      34.647  20.272  24.543  1.00  0.00    -0.205 F 
ATOM     25  C   UNL A   1      37.970  21.508  25.299  1.00  0.00     0.006 A 
ENDBRANCH  15  18
ENDBRANCH  13  15
ENDBRANCH  10  13
ENDBRANCH   3   6
ENDBRANCH   1   2
BRANCH   1  26
ATOM     26  C   UNL A   1      33.321  31.267  26.818  1.00  0.00     0.042 C 
BRANCH  26  27
ATOM     27  C   UNL A   1      33.917  30.686  28.101  1.00  0.00     0.118 C 
BRANCH  27  28
ATOM     28  N   UNL A   1      34.837  31.573  28.819  1.00  0.00    -0.352 N 
ATOM     29  C   UNL A   1      36.077  31.270  29.369  1.00  0.00     0.251 C 
ATOM     30  H   UNL A   1      34.538  32.505  28.925  1.00  0.00     0.163 HD
ATOM     31  O   UNL A   1      36.711  32.105  29.999  1.00  0.00    -0.269 OA
BRANCH  29  32
ATOM     32  C   UNL A   1      36.676  29.954  29.052  1.00  0.00     0.039 A 
ATOM     33  C   UNL A   1      37.045  29.149  30.133  1.00  0.00     0.014 A 
ATOM     34  C   UNL A   1      37.203  29.737  27.783  1.00  0.00     0.014 A 
ATOM     35  C   UNL A   1      38.172  28.343  30.016  1.00  0.00     0.010 A 
ATOM     36  C   UNL A   1      38.377  29.017  27.692  1.00  0.00     0.010 A 
ATOM     37  C   UNL A   1      38.908  28.399  28.834  1.00  0.00    -0.014 A 
BRANCH  37  38
ATOM     38  C   UNL A   1      40.278  27.911  28.729  1.00  0.00     0.031 A 
ATOM     39  C   UNL A   1      40.520  26.491  28.417  1.00  0.00     0.074 A 
ATOM     40  C   UNL A   1      41.328  28.752  28.862  1.00  0.00     0.049 A 
ATOM     41  N   UNL A   1      41.603  25.859  28.717  1.00  0.00    -0.248 NA
ATOM     42  C   UNL A   1      39.520  25.653  27.773  1.00  0.00     0.031 C 
ATOM     43  C   UNL A   1      42.726  28.471  28.542  1.00  0.00     0.029 A 
ATOM     44  N   UNL A   1      41.368  29.998  29.510  1.00  0.00    -0.354 N 
ATOM     45  C   UNL A   1      41.564  24.638  28.088  1.00  0.00     0.074 A 
ATOM     46  C   UNL A   1      40.219  24.534  27.568  1.00  0.00     0.031 C 
ATOM     47  C   UNL A   1      43.509  29.307  29.239  1.00  0.00     0.029 A 
ATOM     48  C   UNL A   1      42.651  30.074  30.118  1.00  0.00     0.049 A 
ATOM     49  H   UNL A   1      40.656  30.677  29.537  1.00  0.00     0.167 HD
ATOM     50  C   UNL A   1      42.714  23.910  27.981  1.00  0.00     0.037 A 
ATOM     51  C   UNL A   1      42.782  30.171  31.474  1.00  0.00     0.037 A 
ATOM     52  C   UNL A   1      43.826  24.560  28.681  1.00  0.00     0.049 A 
ATOM     53  C   UNL A   1      43.470  28.988  32.120  1.00  0.00     0.074 A 
ATOM     54  C   UNL A   1      44.897  25.345  28.282  1.00  0.00     0.029 A 
ATOM     55  N   UNL A   1      43.763  24.686  30.058  1.00  0.00    -0.354 N 
ATOM     56  N   UNL A   1      43.946  27.962  31.470  1.00  0.00    -0.248 NA
ATOM     57  C   UNL A   1      43.563  28.819  33.571  1.00  0.00     0.031 C 
ATOM     58  C   UNL A   1      45.479  25.933  29.443  1.00  0.00     0.029 A 
ATOM     59  C   UNL A   1      44.767  25.502  30.547  1.00  0.00     0.049 A 
ATOM     60  H   UNL A   1      43.085  24.248  30.621  1.00  0.00     0.167 HD
ATOM     61  C   UNL A   1      44.337  27.000  32.363  1.00  0.00     0.074 A 
ATOM     62  C   UNL A   1      44.069  27.580  33.666  1.00  0.00     0.031 C 
ATOM     63  C   UNL A   1      44.810  25.779  31.974  1.00  0.00     0.037 A 
BRANCH  50  64
ATOM     64  C   UNL A   1      42.887  22.741  27.035  1.00  0.00     0.064 A 
ATOM     65  C   UNL A   1      42.184  21.535  27.246  1.00  0.00     0.173 A 
ATOM     66  C   UNL A   1      43.767  22.718  25.937  1.00  0.00     0.173 A 
ATOM     67  F   UNL A   1      41.218  21.439  28.167  1.00  0.00    -0.203 F 
ATOM     68  C   UNL A   1      42.448  20.374  26.514  1.00  0.00     0.198 A 
ATOM     69  C   UNL A   1      44.081  21.543  25.247  1.00  0.00     0.198 A 
ATOM     70  F   UNL A   1      44.299  23.842  25.445  1.00  0.00    -0.203 F 
ATOM     71  F   UNL A   1      41.752  19.256  26.766  1.00  0.00    -0.200 F 
ATOM     72  C   UNL A   1      43.430  20.364  25.546  1.00  0.00     0.200 A 
ATOM     73  F   UNL A   1      45.016  21.566  24.286  1.00  0.00    -0.200 F 
ATOM     74  F   UNL A   1      43.723  19.239  24.882  1.00  0.00    -0.200 F 
ENDBRANCH  50  64
BRANCH  51  75
ATOM     75  C   UNL A   1      41.681  30.971  32.073  1.00  0.00     0.064 A 
ATOM     76  C   UNL A   1      40.645  30.256  32.709  1.00  0.00     0.173 A 
ATOM     77  C   UNL A   1      41.883  32.303  32.449  1.00  0.00     0.173 A 
ATOM     78  F   UNL A   1      40.394  28.984  32.359  1.00  0.00    -0.203 F 
ATOM     79  C   UNL A   1      40.000  30.778  33.823  1.00  0.00     0.198 A 
ATOM     80  C   UNL A   1      41.198  32.838  33.538  1.00  0.00     0.198 A 
ATOM     81  F   UNL A   1      42.843  33.037  31.868  1.00  0.00    -0.203 F 
ATOM     82  F   UNL A   1      39.169  30.006  34.538  1.00  0.00    -0.200 F 
ATOM     83  C   UNL A   1      40.309  32.055  34.263  1.00  0.00     0.200 A 
ATOM     84  F   UNL A   1      41.487  34.077  33.957  1.00  0.00    -0.200 F 
ATOM     85  F   UNL A   1      39.797  32.506  35.416  1.00  0.00    -0.200 F 
ENDBRANCH  51  75
BRANCH  63  86
ATOM     86  C   UNL A   1      45.322  24.737  32.936  1.00  0.00     0.064 A 
ATOM     87  C   UNL A   1      44.546  23.635  33.339  1.00  0.00     0.173 A 
ATOM     88  C   UNL A   1      46.578  24.862  33.570  1.00  0.00     0.173 A 
ATOM     89  F   UNL A   1      43.288  23.480  32.902  1.00  0.00    -0.203 F 
ATOM     90  C   UNL A   1      45.034  22.672  34.227  1.00  0.00     0.198 A 
ATOM     91  C   UNL A   1      47.039  23.930  34.501  1.00  0.00     0.198 A 
ATOM     92  F   UNL A   1      47.409  25.875  33.298  1.00  0.00    -0.203 F 
ATOM     93  F   UNL A   1      44.287  21.599  34.517  1.00  0.00    -0.200 F 
ATOM     94  C   UNL A   1      46.279  22.822  34.809  1.00  0.00     0.200 A 
ATOM     95  F   UNL A   1      48.231  24.112  35.085  1.00  0.00    -0.200 F 
ATOM     96  F   UNL A   1      46.741  21.904  35.667  1.00  0.00    -0.200 F 
ENDBRANCH  63  86
ENDBRANCH  37  38
ENDBRANCH  29  32
ENDBRANCH  27  28
ENDBRANCH  26  27
ENDBRANCH   1  26
TORSDOF 13
ENDMDL
MODEL 2
REMARK VINA RESULT:     -13.5      0.889      1.695
REMARK SMILES Cc1cc(C(=O)NCCCNC(=O)c2ccc(-c3c4nc(c(-c5c(F)c(F)c(F)c(F)c5F)c5ccc([nH]5)c(-c5c(F)c(F)c(F)c(F)c5F)c5nc(c(-c6c(F)c(F)c(F)c(F)c6F)c6ccc3[nH]6)C=C5)C=C4)cc2)ccc1NS(=O)(=O)c1c(F)cccc1F
REMARK SMILES IDX 8 1 7 2 5 3 6 4 4 6 1 7 2 8 3 9 79 10 78 11 77 12 80 13
REMARK SMILES IDX 81 15 82 16 83 17 84 18 85 19 90 20 86 21 87 22 89 23 91 24
REMARK SMILES IDX 88 25 9 26 10 27 11 28 12 29 13 31 14 32 15 33 76 34 16 35
REMARK SMILES IDX 75 36 17 37 18 38 19 39 69 40 20 41 74 42 68 43 70 44 21 45
REMARK SMILES IDX 73 46 67 47 66 48 22 50 54 51 34 52 53 53 35 54 38 55 52 56
REMARK SMILES IDX 71 57 36 58 37 59 51 61 72 62 39 63 23 64 24 65 32 66 25 67
REMARK SMILES IDX 26 68 30 69 33 70 27 71 28 72 31 73 29 74 55 75 56 76 64 77
REMARK SMILES IDX 57 78 58 79 62 80 65 81 59 82 60 83 63 84 61 85 40 86 41 87
REMARK SMILES IDX 49 88 42 89 43 90 47 91 50 92 44 93 45 94 48 95 46 96
REMARK H PARENT 7 5 80 14 11 30 70 49 38 60
REMARK Flexibility Score: inf
ROOT
ATOM      1  C   UNL A   1      31.924  30.448  26.309  1.00  0.00     0.118 C 
ENDROOT
BRANCH   1   2
ATOM      2  N   UNL A   1      31.590  30.101  24.932  1.00  0.00    -0.352 N 
ATOM      3  C   UNL A   1      31.661  28.960  24.172  1.00  0.00     0.251 C 
ATOM      4  O   UNL A   1      31.299  29.060  22.997  1.00  0.00    -0.269 OA
ATOM      5  H   UNL A   1      31.228  30.867  24.429  1.00  0.00     0.163 HD
BRANCH   3   6
ATOM      6  C   UNL A   1      32.216  27.656  24.636  1.00  0.00     0.040 A 
ATOM      7  C   UNL A   1      30.689  24.434  25.982  1.00  0.00     0.046 C 
ATOM      8  C   UNL A   1      31.699  25.371  25.373  1.00  0.00    -0.026 A 
ATOM      9  C   UNL A   1      31.298  26.687  25.079  1.00  0.00     0.019 A 
ATOM     10  C   UNL A   1      33.031  25.009  25.136  1.00  0.00     0.052 A 
ATOM     11  C   UNL A   1      33.974  26.023  24.972  1.00  0.00     0.028 A 
ATOM     12  C   UNL A   1      33.567  27.337  24.706  1.00  0.00     0.016 A 
BRANCH  10  13
ATOM     13  N   UNL A   1      33.318  23.635  24.889  1.00  0.00    -0.279 N 
ATOM     14  H   UNL A   1      33.152  23.318  23.973  1.00  0.00     0.180 HD
BRANCH  13  15
ATOM     15  S   UNL A   1      33.904  22.498  25.964  1.00  0.00     0.267 S 
ATOM     16  O   UNL A   1      33.971  23.176  27.255  1.00  0.00    -0.201 OA
ATOM     17  O   UNL A   1      33.096  21.326  25.775  1.00  0.00    -0.201 OA
BRANCH  15  18
ATOM     18  C   UNL A   1      35.543  22.063  25.515  1.00  0.00     0.158 A 
ATOM     19  C   UNL A   1      35.769  20.760  25.083  1.00  0.00     0.146 A 
ATOM     20  C   UNL A   1      36.627  22.906  25.704  1.00  0.00     0.146 A 
ATOM     21  F   UNL A   1      34.751  19.938  24.794  1.00  0.00    -0.205 F 
ATOM     22  C   UNL A   1      37.065  20.267  24.938  1.00  0.00     0.041 A 
ATOM     23  C   UNL A   1      37.930  22.420  25.576  1.00  0.00     0.041 A 
ATOM     24  F   UNL A   1      36.469  24.189  26.056  1.00  0.00    -0.205 F 
ATOM     25  C   UNL A   1      38.153  21.089  25.219  1.00  0.00     0.006 A 
ENDBRANCH  15  18
ENDBRANCH  13  15
ENDBRANCH  10  13
ENDBRANCH   3   6
ENDBRANCH   1   2
BRANCH   1  26
ATOM     26  C   UNL A   1      33.428  30.447  26.587  1.00  0.00     0.042 C 
BRANCH  26  27
ATOM     27  C   UNL A   1      33.754  30.291  28.073  1.00  0.00     0.118 C 
BRANCH  27  28
ATOM     28  N   UNL A   1      34.663  31.301  28.623  1.00  0.00    -0.352 N 
ATOM     29  C   UNL A   1      35.913  31.113  29.201  1.00  0.00     0.251 C 
ATOM     30  H   UNL A   1      34.348  32.232  28.576  1.00  0.00     0.163 HD
ATOM     31  O   UNL A   1      36.538  32.053  29.676  1.00  0.00    -0.269 OA
BRANCH  29  32
ATOM     32  C   UNL A   1      36.534  29.773  29.101  1.00  0.00     0.039 A 
ATOM     33  C   UNL A   1      37.015  29.207  30.285  1.00  0.00     0.014 A 
ATOM     34  C   UNL A   1      36.968  29.319  27.860  1.00  0.00     0.014 A 
ATOM     35  C   UNL A   1      38.158  28.418  30.234  1.00  0.00     0.010 A 
ATOM     36  C   UNL A   1      38.156  28.619  27.814  1.00  0.00     0.010 A 
ATOM     37  C   UNL A   1      38.797  28.252  29.007  1.00  0.00    -0.014 A 
BRANCH  37  38
ATOM     38  C   UNL A   1      40.171  27.780  28.886  1.00  0.00     0.031 A 
ATOM     39  C   UNL A   1      40.427  26.370  28.541  1.00  0.00     0.074 A 
ATOM     40  C   UNL A   1      41.213  28.629  29.033  1.00  0.00     0.049 A 
ATOM     41  N   UNL A   1      41.518  25.744  28.823  1.00  0.00    -0.248 NA
ATOM     42  C   UNL A   1      39.433  25.537  27.883  1.00  0.00     0.031 C 
ATOM     43  C   UNL A   1      42.612  28.370  28.701  1.00  0.00     0.029 A 
ATOM     44  N   UNL A   1      41.243  29.861  29.708  1.00  0.00    -0.354 N 
ATOM     45  C   UNL A   1      41.489  24.536  28.167  1.00  0.00     0.074 A 
ATOM     46  C   UNL A   1      40.143  24.430  27.651  1.00  0.00     0.031 C 
ATOM     47  C   UNL A   1      43.390  29.199  29.413  1.00  0.00     0.029 A 
ATOM     48  C   UNL A   1      42.527  29.937  30.313  1.00  0.00     0.049 A 
ATOM     49  H   UNL A   1      40.525  30.532  29.753  1.00  0.00     0.167 HD
ATOM     50  C   UNL A   1      42.646  23.823  28.040  1.00  0.00     0.037 A 
ATOM     51  C   UNL A   1      42.664  30.006  31.669  1.00  0.00     0.037 A 
ATOM     52  C   UNL A   1      43.754  24.469  28.749  1.00  0.00     0.049 A 
ATOM     53  C   UNL A   1      43.366  28.815  32.287  1.00  0.00     0.074 A 
ATOM     54  C   UNL A   1      44.815  25.273  28.363  1.00  0.00     0.029 A 
ATOM     55  N   UNL A   1      43.695  24.564  30.129  1.00  0.00    -0.354 N 
ATOM     56  N   UNL A   1      43.851  27.810  31.612  1.00  0.00    -0.248 NA
ATOM     57  C   UNL A   1      43.467  28.616  33.733  1.00  0.00     0.031 C 
ATOM     58  C   UNL A   1      45.396  25.842  29.535  1.00  0.00     0.029 A 
ATOM     59  C   UNL A   1      44.693  25.379  30.631  1.00  0.00     0.049 A 
ATOM     60  H   UNL A   1      43.024  24.106  30.685  1.00  0.00     0.167 HD
ATOM     61  C   UNL A   1      44.255  26.832  32.482  1.00  0.00     0.074 A 
ATOM     62  C   UNL A   1      43.987  27.380  33.799  1.00  0.00     0.031 C 
ATOM     63  C   UNL A   1      44.739  25.625  32.064  1.00  0.00     0.037 A 
BRANCH  50  64
ATOM     64  C   UNL A   1      42.827  22.677  27.067  1.00  0.00     0.064 A 
ATOM     65  C   UNL A   1      42.151  21.453  27.264  1.00  0.00     0.173 A 
ATOM     66  C   UNL A   1      43.689  22.693  25.956  1.00  0.00     0.173 A 
ATOM     67  F   UNL A   1      41.201  21.319  28.197  1.00  0.00    -0.203 F 
ATOM     68  C   UNL A   1      42.427  20.312  26.504  1.00  0.00     0.198 A 
ATOM     69  C   UNL A   1      44.016  21.539  25.237  1.00  0.00     0.198 A 
ATOM     70  F   UNL A   1      44.192  23.838  25.479  1.00  0.00    -0.203 F 
ATOM     71  F   UNL A   1      41.756  19.176  26.744  1.00  0.00    -0.200 F 
ATOM     72  C   UNL A   1      43.393  20.342  25.522  1.00  0.00     0.200 A 
ATOM     73  F   UNL A   1      44.935  21.600  24.262  1.00  0.00    -0.200 F 
ATOM     74  F   UNL A   1      43.698  19.236  24.830  1.00  0.00    -0.200 F 
ENDBRANCH  50  64
BRANCH  51  75
ATOM     75  C   UNL A   1      41.557  30.781  32.290  1.00  0.00     0.064 A 
ATOM     76  C   UNL A   1      41.493  32.157  31.989  1.00  0.00     0.173 A 
ATOM     77  C   UNL A   1      40.381  30.147  32.706  1.00  0.00     0.173 A 
ATOM     78  F   UNL A   1      42.603  32.815  31.616  1.00  0.00    -0.203 F 
ATOM     79  C   UNL A   1      40.270  32.808  31.888  1.00  0.00     0.198 A 
ATOM     80  C   UNL A   1      39.162  30.820  32.648  1.00  0.00     0.198 A 
ATOM     81  F   UNL A   1      40.383  28.844  33.020  1.00  0.00    -0.203 F 
ATOM     82  F   UNL A   1      40.215  34.056  31.401  1.00  0.00    -0.200 F 
ATOM     83  C   UNL A   1      39.101  32.124  32.177  1.00  0.00     0.200 A 
ATOM     84  F   UNL A   1      38.030  30.163  32.938  1.00  0.00    -0.200 F 
ATOM     85  F   UNL A   1      37.914  32.702  31.943  1.00  0.00    -0.200 F 
ENDBRANCH  51  75
BRANCH  63  86
ATOM     86  C   UNL A   1      45.265  24.567  33.001  1.00  0.00     0.064 A 
ATOM     87  C   UNL A   1      44.491  23.467  33.410  1.00  0.00     0.173 A 
ATOM     88  C   UNL A   1      46.538  24.674  33.605  1.00  0.00     0.173 A 
ATOM     89  F   UNL A   1      43.221  23.327  33.003  1.00  0.00    -0.203 F 
ATOM     90  C   UNL A   1      44.993  22.490  34.274  1.00  0.00     0.198 A 
ATOM     91  C   UNL A   1      47.014  23.728  34.513  1.00  0.00     0.198 A 
ATOM     92  F   UNL A   1      47.370  25.685  33.325  1.00  0.00    -0.203 F 
ATOM     93  F   UNL A   1      44.244  21.419  34.570  1.00  0.00    -0.200 F 
ATOM     94  C   UNL A   1      46.253  22.622  34.827  1.00  0.00     0.200 A 
ATOM     95  F   UNL A   1      48.221  23.893  35.070  1.00  0.00    -0.200 F 
ATOM     96  F   UNL A   1      46.728  21.690  35.663  1.00  0.00    -0.200 F 
ENDBRANCH  63  86
ENDBRANCH  37  38
ENDBRANCH  29  32
ENDBRANCH  27  28
ENDBRANCH  26  27
ENDBRANCH   1  26
TORSDOF 13
ENDMDL
MODEL 3
REMARK VINA RESULT:     -13.3      1.511      2.172
REMARK SMILES Cc1cc(C(=O)NCCCNC(=O)c2ccc(-c3c4nc(c(-c5c(F)c(F)c(F)c(F)c5F)c5ccc([nH]5)c(-c5c(F)c(F)c(F)c(F)c5F)c5nc(c(-c6c(F)c(F)c(F)c(F)c6F)c6ccc3[nH]6)C=C5)C=C4)cc2)ccc1NS(=O)(=O)c1c(F)cccc1F
REMARK SMILES IDX 8 1 7 2 5 3 6 4 4 6 1 7 2 8 3 9 79 10 78 11 77 12 80 13
REMARK SMILES IDX 81 15 82 16 83 17 84 18 85 19 90 20 86 21 87 22 89 23 91 24
REMARK SMILES IDX 88 25 9 26 10 27 11 28 12 29 13 31 14 32 15 33 76 34 16 35
REMARK SMILES IDX 75 36 17 37 18 38 19 39 69 40 20 41 74 42 68 43 70 44 21 45
REMARK SMILES IDX 73 46 67 47 66 48 22 50 54 51 34 52 53 53 35 54 38 55 52 56
REMARK SMILES IDX 71 57 36 58 37 59 51 61 72 62 39 63 23 64 24 65 32 66 25 67
REMARK SMILES IDX 26 68 30 69 33 70 27 71 28 72 31 73 29 74 55 75 56 76 64 77
REMARK SMILES IDX 57 78 58 79 62 80 65 81 59 82 60 83 63 84 61 85 40 86 41 87
REMARK SMILES IDX 49 88 42 89 43 90 47 91 50 92 44 93 45 94 48 95 46 96
REMARK H PARENT 7 5 80 14 11 30 70 49 38 60
REMARK Flexibility Score: inf
ROOT
ATOM      1  C   UNL A   1      31.793  29.782  25.652  1.00  0.00     0.118 C 
ENDROOT
BRANCH   1   2
ATOM      2  N   UNL A   1      30.980  30.206  24.517  1.00  0.00    -0.352 N 
ATOM      3  C   UNL A   1      30.208  29.565  23.580  1.00  0.00     0.251 C 
ATOM      4  O   UNL A   1      29.673  30.279  22.728  1.00  0.00    -0.269 OA
ATOM      5  H   UNL A   1      30.988  31.183  24.394  1.00  0.00     0.163 HD
BRANCH   3   6
ATOM      6  C   UNL A   1      30.045  28.086  23.473  1.00  0.00     0.040 A 
ATOM      7  C   UNL A   1      32.242  25.247  22.195  1.00  0.00     0.046 C 
ATOM      8  C   UNL A   1      31.136  25.953  22.934  1.00  0.00    -0.026 A 
ATOM      9  C   UNL A   1      31.116  27.359  22.922  1.00  0.00     0.019 A 
ATOM     10  C   UNL A   1      30.099  25.275  23.587  1.00  0.00     0.052 A 
ATOM     11  C   UNL A   1      28.928  25.974  23.875  1.00  0.00     0.028 A 
ATOM     12  C   UNL A   1      28.907  27.375  23.834  1.00  0.00     0.016 A 
BRANCH  10  13
ATOM     13  N   UNL A   1      30.365  23.967  24.088  1.00  0.00    -0.279 N 
ATOM     14  H   UNL A   1      30.129  23.220  23.492  1.00  0.00     0.180 HD
BRANCH  13  15
ATOM     15  S   UNL A   1      31.028  23.546  25.563  1.00  0.00     0.267 S 
ATOM     16  O   UNL A   1      30.579  24.570  26.501  1.00  0.00    -0.201 OA
ATOM     17  O   UNL A   1      30.707  22.160  25.756  1.00  0.00    -0.201 OA
BRANCH  15  18
ATOM     18  C   UNL A   1      32.776  23.654  25.467  1.00  0.00     0.158 A 
ATOM     19  C   UNL A   1      33.357  24.902  25.668  1.00  0.00     0.146 A 
ATOM     20  C   UNL A   1      33.577  22.596  25.067  1.00  0.00     0.146 A 
ATOM     21  F   UNL A   1      32.645  25.930  26.147  1.00  0.00    -0.205 F 
ATOM     22  C   UNL A   1      34.703  25.121  25.376  1.00  0.00     0.041 A 
ATOM     23  C   UNL A   1      34.923  22.807  24.757  1.00  0.00     0.041 A 
ATOM     24  F   UNL A   1      33.088  21.357  24.919  1.00  0.00    -0.205 F 
ATOM     25  C   UNL A   1      35.483  24.078  24.885  1.00  0.00     0.006 A 
ENDBRANCH  15  18
ENDBRANCH  13  15
ENDBRANCH  10  13
ENDBRANCH   3   6
ENDBRANCH   1   2
BRANCH   1  26
ATOM     26  C   UNL A   1      32.256  30.942  26.534  1.00  0.00     0.042 C 
BRANCH  26  27
ATOM     27  C   UNL A   1      33.232  30.501  27.626  1.00  0.00     0.118 C 
BRANCH  27  28
ATOM     28  N   UNL A   1      34.025  31.577  28.228  1.00  0.00    -0.352 N 
ATOM     29  C   UNL A   1      35.249  31.487  28.878  1.00  0.00     0.251 C 
ATOM     30  H   UNL A   1      33.640  32.480  28.161  1.00  0.00     0.163 HD
ATOM     31  O   UNL A   1      35.769  32.471  29.389  1.00  0.00    -0.269 OA
BRANCH  29  32
ATOM     32  C   UNL A   1      35.979  30.200  28.816  1.00  0.00     0.039 A 
ATOM     33  C   UNL A   1      36.436  29.672  30.026  1.00  0.00     0.014 A 
ATOM     34  C   UNL A   1      36.517  29.785  27.603  1.00  0.00     0.014 A 
ATOM     35  C   UNL A   1      37.639  28.975  30.042  1.00  0.00     0.010 A 
ATOM     36  C   UNL A   1      37.758  29.182  27.626  1.00  0.00     0.010 A 
ATOM     37  C   UNL A   1      38.357  28.863  28.853  1.00  0.00    -0.014 A 
BRANCH  37  38
ATOM     38  C   UNL A   1      39.769  28.503  28.811  1.00  0.00     0.031 A 
ATOM     39  C   UNL A   1      40.157  27.132  28.433  1.00  0.00     0.074 A 
ATOM     40  C   UNL A   1      40.729  29.421  29.063  1.00  0.00     0.049 A 
ATOM     41  N   UNL A   1      41.272  26.578  28.766  1.00  0.00    -0.248 NA
ATOM     42  C   UNL A   1      39.278  26.255  27.676  1.00  0.00     0.031 C 
ATOM     43  C   UNL A   1      42.164  29.282  28.820  1.00  0.00     0.029 A 
ATOM     44  N   UNL A   1      40.617  30.622  29.784  1.00  0.00    -0.354 N 
ATOM     45  C   UNL A   1      41.382  25.401  28.066  1.00  0.00     0.074 A 
ATOM     46  C   UNL A   1      40.086  25.215  27.453  1.00  0.00     0.031 C 
ATOM     47  C   UNL A   1      42.824  30.137  29.615  1.00  0.00     0.029 A 
ATOM     48  C   UNL A   1      41.849  30.768  30.479  1.00  0.00     0.049 A 
ATOM     49  H   UNL A   1      39.847  31.234  29.803  1.00  0.00     0.167 HD
ATOM     50  C   UNL A   1      42.597  24.784  27.993  1.00  0.00     0.037 A 
ATOM     51  C   UNL A   1      41.888  30.789  31.843  1.00  0.00     0.037 A 
ATOM     52  C   UNL A   1      43.601  25.480  28.801  1.00  0.00     0.049 A 
ATOM     53  C   UNL A   1      42.639  29.630  32.464  1.00  0.00     0.074 A 
ATOM     54  C   UNL A   1      44.620  26.378  28.521  1.00  0.00     0.029 A 
ATOM     55  N   UNL A   1      43.443  25.511  30.176  1.00  0.00    -0.354 N 
ATOM     56  N   UNL A   1      43.245  28.694  31.787  1.00  0.00    -0.248 NA
ATOM     57  C   UNL A   1      42.658  29.377  33.905  1.00  0.00     0.031 C 
ATOM     58  C   UNL A   1      45.075  26.939  29.751  1.00  0.00     0.029 A 
ATOM     59  C   UNL A   1      44.338  26.378  30.777  1.00  0.00     0.049 A 
ATOM     60  H   UNL A   1      42.774  24.981  30.666  1.00  0.00     0.167 HD
ATOM     61  C   UNL A   1      43.666  27.713  32.646  1.00  0.00     0.074 A 
ATOM     62  C   UNL A   1      43.268  28.183  33.960  1.00  0.00     0.031 C 
ATOM     63  C   UNL A   1      44.269  26.565  32.218  1.00  0.00     0.037 A 
BRANCH  50  64
ATOM     64  C   UNL A   1      42.932  23.697  26.993  1.00  0.00     0.064 A 
ATOM     65  C   UNL A   1      42.574  22.354  27.243  1.00  0.00     0.173 A 
ATOM     66  C   UNL A   1      43.649  23.895  25.799  1.00  0.00     0.173 A 
ATOM     67  F   UNL A   1      41.780  22.019  28.267  1.00  0.00    -0.203 F 
ATOM     68  C   UNL A   1      43.021  21.297  26.445  1.00  0.00     0.198 A 
ATOM     69  C   UNL A   1      44.153  22.837  25.037  1.00  0.00     0.198 A 
ATOM     70  F   UNL A   1      43.828  25.119  25.287  1.00  0.00    -0.203 F 
ATOM     71  F   UNL A   1      42.653  20.041  26.739  1.00  0.00    -0.200 F 
ATOM     72  C   UNL A   1      43.850  21.533  25.369  1.00  0.00     0.200 A 
ATOM     73  F   UNL A   1      44.929  23.093  23.973  1.00  0.00    -0.200 F 
ATOM     74  F   UNL A   1      44.324  20.517  24.637  1.00  0.00    -0.200 F 
ENDBRANCH  50  64
BRANCH  51  75
ATOM     75  C   UNL A   1      40.685  31.451  32.414  1.00  0.00     0.064 A 
ATOM     76  C   UNL A   1      39.692  30.611  32.959  1.00  0.00     0.173 A 
ATOM     77  C   UNL A   1      40.737  32.776  32.859  1.00  0.00     0.173 A 
ATOM     78  F   UNL A   1      39.584  29.339  32.540  1.00  0.00    -0.203 F 
ATOM     79  C   UNL A   1      38.942  31.014  34.057  1.00  0.00     0.198 A 
ATOM     80  C   UNL A   1      39.948  33.189  33.930  1.00  0.00     0.198 A 
ATOM     81  F   UNL A   1      41.650  33.625  32.366  1.00  0.00    -0.203 F 
ATOM     82  F   UNL A   1      38.154  30.133  34.689  1.00  0.00    -0.200 F 
ATOM     83  C   UNL A   1      39.103  32.291  34.569  1.00  0.00     0.200 A 
ATOM     84  F   UNL A   1      40.093  34.429  34.419  1.00  0.00    -0.200 F 
ATOM     85  F   UNL A   1      38.490  32.635  35.710  1.00  0.00    -0.200 F 
ENDBRANCH  51  75
BRANCH  63  86
ATOM     86  C   UNL A   1      44.813  25.511  33.149  1.00  0.00     0.064 A 
ATOM     87  C   UNL A   1      46.179  25.181  33.202  1.00  0.00     0.173 A 
ATOM     88  C   UNL A   1      43.964  24.720  33.955  1.00  0.00     0.173 A 
ATOM     89  F   UNL A   1      47.065  25.776  32.390  1.00  0.00    -0.203 F 
ATOM     90  C   UNL A   1      46.672  24.207  34.074  1.00  0.00     0.198 A 
ATOM     91  C   UNL A   1      44.452  23.708  34.782  1.00  0.00     0.198 A 
ATOM     92  F   UNL A   1      42.639  24.911  33.984  1.00  0.00    -0.203 F 
ATOM     93  F   UNL A   1      47.991  23.985  34.144  1.00  0.00    -0.200 F 
ATOM     94  C   UNL A   1      45.808  23.469  34.862  1.00  0.00     0.200 A 
ATOM     95  F   UNL A   1      43.596  22.976  35.509  1.00  0.00    -0.200 F 
ATOM     96  F   UNL A   1      46.280  22.529  35.690  1.00  0.00    -0.200 F 
ENDBRANCH  63  86
ENDBRANCH  37  38
ENDBRANCH  29  32
ENDBRANCH  27  28
ENDBRANCH  26  27
ENDBRANCH   1  26
TORSDOF 13
ENDMDL
