MODEL 1
REMARK VINA RESULT:     -12.0      0.000      0.000
REMARK SMILES CC[NH2+][C@@]1(C(=O)NCCCNC(=O)c2ccc(-c3c4nc(c(-c5c(F)c(F)c(F)c(F)c5F)c5ccc([nH]5)c(-c5c(F)c(F)c(F)c(F)c5F)c5nc(c(-c6c(F)c(F)c(F)c(F)c6F)c6ccc3[nH]6)C=C5)C=C4)cc2)CCC[C@H]1CCN1C(=O)CCC1=O
REMARK SMILES IDX 8 1 7 2 5 3 6 4 4 6 77 7 80 8 78 9 79 10 3 11 2 14 1 15
REMARK SMILES IDX 81 16 82 17 83 18 84 19 88 20 85 21 86 22 87 23 89 24 9 25
REMARK SMILES IDX 10 26 11 27 12 28 13 30 14 31 15 32 76 33 16 34 75 35 17 36
REMARK SMILES IDX 18 37 19 38 69 39 20 40 74 41 68 42 70 43 21 44 73 45 67 46
REMARK SMILES IDX 66 47 22 49 54 50 34 51 53 52 35 53 38 54 52 55 71 56 36 57
REMARK SMILES IDX 37 58 51 60 72 61 39 62 23 63 24 64 32 65 25 66 26 67 30 68
REMARK SMILES IDX 33 69 27 70 28 71 31 72 29 73 55 74 56 75 64 76 57 77 58 78
REMARK SMILES IDX 62 79 65 80 59 81 60 82 63 83 61 84 40 85 41 86 49 87 42 88
REMARK SMILES IDX 43 89 47 90 50 91 44 92 45 93 48 94 46 95
REMARK H PARENT 7 5 3 12 3 13 11 29 70 48 38 59
REMARK Flexibility Score: inf
ROOT
ATOM      1  C   UNL A   1      31.627  30.883  26.046  1.00  0.00     0.118 C 
ENDROOT
BRANCH   1   2
ATOM      2  N   UNL A   1      32.148  29.926  26.989  1.00  0.00    -0.351 N 
ATOM      3  C   UNL A   1      33.122  29.011  26.775  1.00  0.00     0.281 C 
ATOM      4  O   UNL A   1      34.027  29.043  27.626  1.00  0.00    -0.268 OA
ATOM      5  H   UNL A   1      31.751  29.940  27.890  1.00  0.00     0.163 HD
BRANCH   3   6
ATOM      6  C   UNL A   1      33.178  27.961  25.574  1.00  0.00     0.178 C 
ATOM      7  C   UNL A   1      31.737  27.788  25.049  1.00  0.00     0.079 C 
ATOM      8  C   UNL A   1      33.649  26.491  25.829  1.00  0.00     0.062 C 
ATOM      9  C   UNL A   1      31.182  26.496  25.638  1.00  0.00     0.008 C 
ATOM     10  C   UNL A   1      32.358  25.732  26.236  1.00  0.00     0.011 C 
BRANCH   6  11
ATOM     11  N   UNL A   1      33.971  28.626  24.490  1.00  0.00    -0.334 N 
ATOM     12  H   UNL A   1      34.340  29.500  24.862  1.00  0.00     0.347 HD
ATOM     13  H   UNL A   1      34.692  27.959  24.219  1.00  0.00     0.347 HD
BRANCH  11  14
ATOM     14  C   UNL A   1      33.224  28.935  23.261  1.00  0.00     0.257 C 
ATOM     15  C   UNL A   1      33.924  28.292  22.071  1.00  0.00     0.071 C 
ENDBRANCH  11  14
ENDBRANCH   6  11
BRANCH   8  16
ATOM     16  C   UNL A   1      34.187  25.651  24.627  1.00  0.00     0.033 C 
BRANCH  16  17
ATOM     17  C   UNL A   1      33.888  24.162  24.476  1.00  0.00     0.129 C 
BRANCH  17  18
ATOM     18  N   UNL A   1      34.975  23.216  24.666  1.00  0.00    -0.283 N 
ATOM     19  C   UNL A   1      35.933  22.880  23.755  1.00  0.00     0.229 C 
ATOM     20  C   UNL A   1      35.267  22.727  25.910  1.00  0.00     0.229 C 
ATOM     21  O   UNL A   1      36.082  23.318  22.627  1.00  0.00    -0.274 OA
ATOM     22  C   UNL A   1      36.821  21.829  24.357  1.00  0.00     0.110 C 
ATOM     23  C   UNL A   1      36.427  21.788  25.816  1.00  0.00     0.110 C 
ATOM     24  O   UNL A   1      34.713  23.012  26.963  1.00  0.00    -0.274 OA
ENDBRANCH  17  18
ENDBRANCH  16  17
ENDBRANCH   8  16
ENDBRANCH   3   6
ENDBRANCH   1   2
BRANCH   1  25
ATOM     25  C   UNL A   1      31.372  32.235  26.681  1.00  0.00     0.042 C 
BRANCH  25  26
ATOM     26  C   UNL A   1      32.633  32.816  27.304  1.00  0.00     0.118 C 
BRANCH  26  27
ATOM     27  N   UNL A   1      32.479  34.234  27.631  1.00  0.00    -0.352 N 
ATOM     28  C   UNL A   1      33.022  34.971  28.650  1.00  0.00     0.251 C 
ATOM     29  H   UNL A   1      31.890  34.737  27.022  1.00  0.00     0.163 HD
ATOM     30  O   UNL A   1      32.563  36.076  28.925  1.00  0.00    -0.269 OA
BRANCH  28  31
ATOM     31  C   UNL A   1      34.161  34.432  29.412  1.00  0.00     0.039 A 
ATOM     32  C   UNL A   1      33.935  33.812  30.643  1.00  0.00     0.014 A 
ATOM     33  C   UNL A   1      35.456  34.547  28.906  1.00  0.00     0.014 A 
ATOM     34  C   UNL A   1      35.008  33.248  31.332  1.00  0.00     0.010 A 
ATOM     35  C   UNL A   1      36.500  33.883  29.530  1.00  0.00     0.010 A 
ATOM     36  C   UNL A   1      36.291  33.245  30.760  1.00  0.00    -0.014 A 
BRANCH  36  37
ATOM     37  C   UNL A   1      37.442  32.605  31.436  1.00  0.00     0.031 A 
ATOM     38  C   UNL A   1      38.158  31.463  30.771  1.00  0.00     0.074 A 
ATOM     39  C   UNL A   1      37.785  32.999  32.677  1.00  0.00     0.049 A 
ATOM     40  N   UNL A   1      39.134  30.719  31.225  1.00  0.00    -0.248 NA
ATOM     41  C   UNL A   1      37.687  31.078  29.430  1.00  0.00     0.031 C 
ATOM     42  C   UNL A   1      37.123  34.056  33.442  1.00  0.00     0.029 A 
ATOM     43  N   UNL A   1      38.773  32.550  33.515  1.00  0.00    -0.354 N 
ATOM     44  C   UNL A   1      39.373  29.771  30.239  1.00  0.00     0.074 A 
ATOM     45  C   UNL A   1      38.394  29.985  29.198  1.00  0.00     0.031 C 
ATOM     46  C   UNL A   1      37.748  34.203  34.620  1.00  0.00     0.029 A 
ATOM     47  C   UNL A   1      38.824  33.221  34.711  1.00  0.00     0.049 A 
ATOM     48  H   UNL A   1      39.388  31.817  33.280  1.00  0.00     0.167 HD
ATOM     49  C   UNL A   1      40.343  28.828  30.193  1.00  0.00     0.037 A 
ATOM     50  C   UNL A   1      39.647  33.056  35.763  1.00  0.00     0.037 A 
ATOM     51  C   UNL A   1      41.326  28.642  31.226  1.00  0.00     0.049 A 
ATOM     52  C   UNL A   1      40.711  31.995  35.694  1.00  0.00     0.074 A 
ATOM     53  C   UNL A   1      42.395  27.765  31.254  1.00  0.00     0.029 A 
ATOM     54  N   UNL A   1      41.353  29.347  32.423  1.00  0.00    -0.354 N 
ATOM     55  N   UNL A   1      40.983  31.156  34.724  1.00  0.00    -0.248 NA
ATOM     56  C   UNL A   1      41.587  31.865  36.865  1.00  0.00     0.031 C 
ATOM     57  C   UNL A   1      43.032  27.895  32.493  1.00  0.00     0.029 A 
ATOM     58  C   UNL A   1      42.402  28.901  33.211  1.00  0.00     0.049 A 
ATOM     59  H   UNL A   1      40.721  30.058  32.673  1.00  0.00     0.167 HD
ATOM     60  C   UNL A   1      42.077  30.417  35.152  1.00  0.00     0.074 A 
ATOM     61  C   UNL A   1      42.427  30.920  36.466  1.00  0.00     0.031 C 
ATOM     62  C   UNL A   1      42.734  29.416  34.516  1.00  0.00     0.037 A 
BRANCH  49  63
ATOM     63  C   UNL A   1      40.375  27.928  28.989  1.00  0.00     0.064 A 
ATOM     64  C   UNL A   1      39.661  26.718  28.947  1.00  0.00     0.173 A 
ATOM     65  C   UNL A   1      41.135  28.274  27.861  1.00  0.00     0.173 A 
ATOM     66  F   UNL A   1      38.928  26.330  30.001  1.00  0.00    -0.203 F 
ATOM     67  C   UNL A   1      39.745  25.871  27.845  1.00  0.00     0.198 A 
ATOM     68  C   UNL A   1      41.185  27.444  26.745  1.00  0.00     0.198 A 
ATOM     69  F   UNL A   1      41.834  29.419  27.843  1.00  0.00    -0.203 F 
ATOM     70  F   UNL A   1      39.114  24.688  27.861  1.00  0.00    -0.200 F 
ATOM     71  C   UNL A   1      40.502  26.237  26.743  1.00  0.00     0.200 A 
ATOM     72  F   UNL A   1      41.905  27.806  25.675  1.00  0.00    -0.200 F 
ATOM     73  F   UNL A   1      40.584  25.420  25.684  1.00  0.00    -0.200 F 
ENDBRANCH  49  63
BRANCH  50  74
ATOM     74  C   UNL A   1      39.520  33.947  36.945  1.00  0.00     0.064 A 
ATOM     75  C   UNL A   1      38.775  33.550  38.064  1.00  0.00     0.173 A 
ATOM     76  C   UNL A   1      40.152  35.198  36.994  1.00  0.00     0.173 A 
ATOM     77  F   UNL A   1      38.138  32.369  38.058  1.00  0.00    -0.203 F 
ATOM     78  C   UNL A   1      38.656  34.373  39.181  1.00  0.00     0.198 A 
ATOM     79  C   UNL A   1      40.057  36.009  38.123  1.00  0.00     0.198 A 
ATOM     80  F   UNL A   1      40.884  35.622  35.953  1.00  0.00    -0.203 F 
ATOM     81  F   UNL A   1      37.906  33.985  40.221  1.00  0.00    -0.200 F 
ATOM     82  C   UNL A   1      39.302  35.599  39.212  1.00  0.00     0.200 A 
ATOM     83  F   UNL A   1      40.698  37.185  38.157  1.00  0.00    -0.200 F 
ATOM     84  F   UNL A   1      39.196  36.387  40.291  1.00  0.00    -0.200 F 
ENDBRANCH  50  74
BRANCH  62  85
ATOM     85  C   UNL A   1      43.922  28.821  35.216  1.00  0.00     0.064 A 
ATOM     86  C   UNL A   1      45.219  29.324  35.031  1.00  0.00     0.173 A 
ATOM     87  C   UNL A   1      43.753  27.759  36.119  1.00  0.00     0.173 A 
ATOM     88  F   UNL A   1      45.436  30.329  34.168  1.00  0.00    -0.203 F 
ATOM     89  C   UNL A   1      46.305  28.767  35.700  1.00  0.00     0.198 A 
ATOM     90  C   UNL A   1      44.835  27.228  36.813  1.00  0.00     0.198 A 
ATOM     91  F   UNL A   1      42.533  27.246  36.338  1.00  0.00    -0.203 F 
ATOM     92  F   UNL A   1      47.541  29.228  35.466  1.00  0.00    -0.200 F 
ATOM     93  C   UNL A   1      46.112  27.726  36.597  1.00  0.00     0.200 A 
ATOM     94  F   UNL A   1      44.644  26.236  37.693  1.00  0.00    -0.200 F 
ATOM     95  F   UNL A   1      47.157  27.198  37.248  1.00  0.00    -0.200 F 
ENDBRANCH  62  85
ENDBRANCH  36  37
ENDBRANCH  28  31
ENDBRANCH  26  27
ENDBRANCH  25  26
ENDBRANCH   1  25
TORSDOF 15
ENDMDL
MODEL 2
REMARK VINA RESULT:     -11.9      0.170      1.786
REMARK SMILES CC[NH2+][C@@]1(C(=O)NCCCNC(=O)c2ccc(-c3c4nc(c(-c5c(F)c(F)c(F)c(F)c5F)c5ccc([nH]5)c(-c5c(F)c(F)c(F)c(F)c5F)c5nc(c(-c6c(F)c(F)c(F)c(F)c6F)c6ccc3[nH]6)C=C5)C=C4)cc2)CCC[C@H]1CCN1C(=O)CCC1=O
REMARK SMILES IDX 8 1 7 2 5 3 6 4 4 6 77 7 80 8 78 9 79 10 3 11 2 14 1 15
REMARK SMILES IDX 81 16 82 17 83 18 84 19 88 20 85 21 86 22 87 23 89 24 9 25
REMARK SMILES IDX 10 26 11 27 12 28 13 30 14 31 15 32 76 33 16 34 75 35 17 36
REMARK SMILES IDX 18 37 19 38 69 39 20 40 74 41 68 42 70 43 21 44 73 45 67 46
REMARK SMILES IDX 66 47 22 49 54 50 34 51 53 52 35 53 38 54 52 55 71 56 36 57
REMARK SMILES IDX 37 58 51 60 72 61 39 62 23 63 24 64 32 65 25 66 26 67 30 68
REMARK SMILES IDX 33 69 27 70 28 71 31 72 29 73 55 74 56 75 64 76 57 77 58 78
REMARK SMILES IDX 62 79 65 80 59 81 60 82 63 83 61 84 40 85 41 86 49 87 42 88
REMARK SMILES IDX 43 89 47 90 50 91 44 92 45 93 48 94 46 95
REMARK H PARENT 7 5 3 12 3 13 11 29 70 48 38 59
REMARK Flexibility Score: inf
ROOT
ATOM      1  C   UNL A   1      31.632  30.864  26.028  1.00  0.00     0.118 C 
ENDROOT
BRANCH   1   2
ATOM      2  N   UNL A   1      32.165  29.908  26.965  1.00  0.00    -0.351 N 
ATOM      3  C   UNL A   1      33.141  28.997  26.742  1.00  0.00     0.281 C 
ATOM      4  O   UNL A   1      34.053  29.032  27.585  1.00  0.00    -0.268 OA
ATOM      5  H   UNL A   1      31.777  29.919  27.870  1.00  0.00     0.163 HD
BRANCH   3   6
ATOM      6  C   UNL A   1      33.190  27.949  25.539  1.00  0.00     0.178 C 
ATOM      7  C   UNL A   1      31.757  27.821  24.982  1.00  0.00     0.079 C 
ATOM      8  C   UNL A   1      33.610  26.465  25.800  1.00  0.00     0.062 C 
ATOM      9  C   UNL A   1      31.150  26.545  25.555  1.00  0.00     0.008 C 
ATOM     10  C   UNL A   1      32.289  25.744  26.176  1.00  0.00     0.011 C 
BRANCH   6  11
ATOM     11  N   UNL A   1      34.028  28.592  24.474  1.00  0.00    -0.334 N 
ATOM     12  H   UNL A   1      34.402  29.461  24.852  1.00  0.00     0.347 HD
ATOM     13  H   UNL A   1      34.743  27.909  24.228  1.00  0.00     0.347 HD
BRANCH  11  14
ATOM     14  C   UNL A   1      33.322  28.908  23.223  1.00  0.00     0.257 C 
ATOM     15  C   UNL A   1      34.013  28.202  22.063  1.00  0.00     0.071 C 
ENDBRANCH  11  14
ENDBRANCH   6  11
BRANCH   8  16
ATOM     16  C   UNL A   1      34.148  25.611  24.607  1.00  0.00     0.033 C 
BRANCH  16  17
ATOM     17  C   UNL A   1      33.925  24.104  24.518  1.00  0.00     0.129 C 
BRANCH  17  18
ATOM     18  N   UNL A   1      35.050  23.222  24.776  1.00  0.00    -0.283 N 
ATOM     19  C   UNL A   1      35.248  22.454  25.886  1.00  0.00     0.229 C 
ATOM     20  C   UNL A   1      35.936  22.908  23.781  1.00  0.00     0.229 C 
ATOM     21  O   UNL A   1      34.519  22.336  26.857  1.00  0.00    -0.274 OA
ATOM     22  C   UNL A   1      36.564  21.744  25.752  1.00  0.00     0.110 C 
ATOM     23  C   UNL A   1      36.981  21.983  24.318  1.00  0.00     0.110 C 
ATOM     24  O   UNL A   1      35.896  23.279  22.616  1.00  0.00    -0.274 OA
ENDBRANCH  17  18
ENDBRANCH  16  17
ENDBRANCH   8  16
ENDBRANCH   3   6
ENDBRANCH   1   2
BRANCH   1  25
ATOM     25  C   UNL A   1      31.386  32.217  26.665  1.00  0.00     0.042 C 
BRANCH  25  26
ATOM     26  C   UNL A   1      32.657  32.803  27.263  1.00  0.00     0.118 C 
BRANCH  26  27
ATOM     27  N   UNL A   1      32.493  34.211  27.625  1.00  0.00    -0.352 N 
ATOM     28  C   UNL A   1      33.026  34.925  28.666  1.00  0.00     0.251 C 
ATOM     29  H   UNL A   1      31.905  34.726  27.026  1.00  0.00     0.163 HD
ATOM     30  O   UNL A   1      32.560  36.019  28.967  1.00  0.00    -0.269 OA
BRANCH  28  31
ATOM     31  C   UNL A   1      34.164  34.372  29.420  1.00  0.00     0.039 A 
ATOM     32  C   UNL A   1      33.935  33.713  30.630  1.00  0.00     0.014 A 
ATOM     33  C   UNL A   1      35.462  34.513  28.928  1.00  0.00     0.014 A 
ATOM     34  C   UNL A   1      35.007  33.138  31.310  1.00  0.00     0.010 A 
ATOM     35  C   UNL A   1      36.507  33.840  29.539  1.00  0.00     0.010 A 
ATOM     36  C   UNL A   1      36.294  33.163  30.747  1.00  0.00    -0.014 A 
BRANCH  36  37
ATOM     37  C   UNL A   1      37.446  32.513  31.413  1.00  0.00     0.031 A 
ATOM     38  C   UNL A   1      38.159  31.379  30.731  1.00  0.00     0.074 A 
ATOM     39  C   UNL A   1      37.792  32.889  32.659  1.00  0.00     0.049 A 
ATOM     40  N   UNL A   1      39.136  30.628  31.173  1.00  0.00    -0.248 NA
ATOM     41  C   UNL A   1      37.686  31.014  29.386  1.00  0.00     0.031 C 
ATOM     42  C   UNL A   1      37.131  33.936  33.440  1.00  0.00     0.029 A 
ATOM     43  N   UNL A   1      38.780  32.428  33.489  1.00  0.00    -0.354 N 
ATOM     44  C   UNL A   1      39.372  29.694  30.174  1.00  0.00     0.074 A 
ATOM     45  C   UNL A   1      38.392  29.923  29.137  1.00  0.00     0.031 C 
ATOM     46  C   UNL A   1      37.759  34.066  34.618  1.00  0.00     0.029 A 
ATOM     47  C   UNL A   1      38.834  33.082  34.694  1.00  0.00     0.049 A 
ATOM     48  H   UNL A   1      39.394  31.697  33.243  1.00  0.00     0.167 HD
ATOM     49  C   UNL A   1      40.341  28.750  30.113  1.00  0.00     0.037 A 
ATOM     50  C   UNL A   1      39.658  32.902  35.742  1.00  0.00     0.037 A 
ATOM     51  C   UNL A   1      41.326  28.550  31.142  1.00  0.00     0.049 A 
ATOM     52  C   UNL A   1      40.721  31.841  35.657  1.00  0.00     0.074 A 
ATOM     53  C   UNL A   1      42.394  27.671  31.156  1.00  0.00     0.029 A 
ATOM     54  N   UNL A   1      41.355  29.237  32.348  1.00  0.00    -0.354 N 
ATOM     55  N   UNL A   1      40.990  31.015  34.675  1.00  0.00    -0.248 NA
ATOM     56  C   UNL A   1      41.599  31.693  36.825  1.00  0.00     0.031 C 
ATOM     57  C   UNL A   1      43.033  27.784  32.396  1.00  0.00     0.029 A 
ATOM     58  C   UNL A   1      42.405  28.780  33.128  1.00  0.00     0.049 A 
ATOM     59  H   UNL A   1      40.724  29.946  32.610  1.00  0.00     0.167 HD
ATOM     60  C   UNL A   1      42.085  30.270  35.091  1.00  0.00     0.074 A 
ATOM     61  C   UNL A   1      42.437  30.753  36.411  1.00  0.00     0.031 C 
ATOM     62  C   UNL A   1      42.740  29.276  34.440  1.00  0.00     0.037 A 
BRANCH  49  63
ATOM     63  C   UNL A   1      40.370  27.867  28.897  1.00  0.00     0.064 A 
ATOM     64  C   UNL A   1      39.652  26.661  28.838  1.00  0.00     0.173 A 
ATOM     65  C   UNL A   1      41.132  28.227  27.774  1.00  0.00     0.173 A 
ATOM     66  F   UNL A   1      38.918  26.260  29.887  1.00  0.00    -0.203 F 
ATOM     67  C   UNL A   1      39.734  25.829  27.724  1.00  0.00     0.198 A 
ATOM     68  C   UNL A   1      41.179  27.412  26.647  1.00  0.00     0.198 A 
ATOM     69  F   UNL A   1      41.835  29.369  27.772  1.00  0.00    -0.203 F 
ATOM     70  F   UNL A   1      39.099  24.648  27.724  1.00  0.00    -0.200 F 
ATOM     71  C   UNL A   1      40.492  26.207  26.628  1.00  0.00     0.200 A 
ATOM     72  F   UNL A   1      41.901  27.786  25.581  1.00  0.00    -0.200 F 
ATOM     73  F   UNL A   1      40.572  25.405  25.557  1.00  0.00    -0.200 F 
ENDBRANCH  49  63
BRANCH  50  74
ATOM     74  C   UNL A   1      39.534  33.777  36.937  1.00  0.00     0.064 A 
ATOM     75  C   UNL A   1      40.166  35.027  36.976  1.00  0.00     0.173 A 
ATOM     76  C   UNL A   1      38.769  33.397  38.050  1.00  0.00     0.173 A 
ATOM     77  F   UNL A   1      40.922  35.427  35.943  1.00  0.00    -0.203 F 
ATOM     78  C   UNL A   1      40.049  35.860  38.087  1.00  0.00     0.198 A 
ATOM     79  C   UNL A   1      38.629  34.242  39.148  1.00  0.00     0.198 A 
ATOM     80  F   UNL A   1      38.137  32.214  38.059  1.00  0.00    -0.203 F 
ATOM     81  F   UNL A   1      40.695  37.033  38.114  1.00  0.00    -0.200 F 
ATOM     82  C   UNL A   1      39.275  35.470  39.169  1.00  0.00     0.200 A 
ATOM     83  F   UNL A   1      37.865  33.870  40.184  1.00  0.00    -0.200 F 
ATOM     84  F   UNL A   1      39.155  36.275  40.234  1.00  0.00    -0.200 F 
ENDBRANCH  50  74
BRANCH  62  85
ATOM     85  C   UNL A   1      43.929  28.670  35.130  1.00  0.00     0.064 A 
ATOM     86  C   UNL A   1      43.809  27.540  35.953  1.00  0.00     0.173 A 
ATOM     87  C   UNL A   1      45.211  29.204  34.930  1.00  0.00     0.173 A 
ATOM     88  F   UNL A   1      42.604  27.000  36.188  1.00  0.00    -0.203 F 
ATOM     89  C   UNL A   1      44.927  26.985  36.572  1.00  0.00     0.198 A 
ATOM     90  C   UNL A   1      46.330  28.626  35.521  1.00  0.00     0.198 A 
ATOM     91  F   UNL A   1      45.381  30.279  34.146  1.00  0.00    -0.203 F 
ATOM     92  F   UNL A   1      44.781  25.939  37.397  1.00  0.00    -0.200 F 
ATOM     93  C   UNL A   1      46.186  27.522  36.349  1.00  0.00     0.200 A 
ATOM     94  F   UNL A   1      47.547  29.134  35.289  1.00  0.00    -0.200 F 
ATOM     95  F   UNL A   1      47.261  26.981  36.938  1.00  0.00    -0.200 F 
ENDBRANCH  62  85
ENDBRANCH  36  37
ENDBRANCH  28  31
ENDBRANCH  26  27
ENDBRANCH  25  26
ENDBRANCH   1  25
TORSDOF 15
ENDMDL
MODEL 3
REMARK VINA RESULT:     -11.7      1.185      2.180
REMARK SMILES CC[NH2+][C@@]1(C(=O)NCCCNC(=O)c2ccc(-c3c4nc(c(-c5c(F)c(F)c(F)c(F)c5F)c5ccc([nH]5)c(-c5c(F)c(F)c(F)c(F)c5F)c5nc(c(-c6c(F)c(F)c(F)c(F)c6F)c6ccc3[nH]6)C=C5)C=C4)cc2)CCC[C@H]1CCN1C(=O)CCC1=O
REMARK SMILES IDX 8 1 7 2 5 3 6 4 4 6 77 7 80 8 78 9 79 10 3 11 2 14 1 15
REMARK SMILES IDX 81 16 82 17 83 18 84 19 88 20 85 21 86 22 87 23 89 24 9 25
REMARK SMILES IDX 10 26 11 27 12 28 13 30 14 31 15 32 76 33 16 34 75 35 17 36
REMARK SMILES IDX 18 37 19 38 69 39 20 40 74 41 68 42 70 43 21 44 73 45 67 46
REMARK SMILES IDX 66 47 22 49 54 50 34 51 53 52 35 53 38 54 52 55 71 56 36 57
REMARK SMILES IDX 37 58 51 60 72 61 39 62 23 63 24 64 32 65 25 66 26 67 30 68
REMARK SMILES IDX 33 69 27 70 28 71 31 72 29 73 55 74 56 75 64 76 57 77 58 78
REMARK SMILES IDX 62 79 65 80 59 81 60 82 63 83 61 84 40 85 41 86 49 87 42 88
REMARK SMILES IDX 43 89 47 90 50 91 44 92 45 93 48 94 46 95
REMARK H PARENT 7 5 3 12 3 13 11 29 70 48 38 59
REMARK Flexibility Score: inf
ROOT
ATOM      1  C   UNL A   1      31.604  31.014  26.110  1.00  0.00     0.118 C 
ENDROOT
BRANCH   1   2
ATOM      2  N   UNL A   1      32.494  30.152  26.844  1.00  0.00    -0.351 N 
ATOM      3  C   UNL A   1      33.292  29.178  26.344  1.00  0.00     0.281 C 
ATOM      4  O   UNL A   1      34.475  29.271  26.711  1.00  0.00    -0.268 OA
ATOM      5  H   UNL A   1      32.527  30.285  27.819  1.00  0.00     0.163 HD
BRANCH   3   6
ATOM      6  C   UNL A   1      32.836  27.996  25.373  1.00  0.00     0.178 C 
ATOM      7  C   UNL A   1      33.812  27.980  24.179  1.00  0.00     0.079 C 
ATOM      8  C   UNL A   1      31.429  28.032  24.690  1.00  0.00     0.062 C 
ATOM      9  C   UNL A   1      33.126  28.680  23.011  1.00  0.00     0.008 C 
ATOM     10  C   UNL A   1      31.653  28.825  23.375  1.00  0.00     0.011 C 
BRANCH   6  11
ATOM     11  N   UNL A   1      33.054  26.730  26.146  1.00  0.00    -0.334 N 
ATOM     12  H   UNL A   1      33.378  26.983  27.079  1.00  0.00     0.347 HD
ATOM     13  H   UNL A   1      32.161  26.239  26.141  1.00  0.00     0.347 HD
BRANCH  11  14
ATOM     14  C   UNL A   1      34.031  25.797  25.564  1.00  0.00     0.257 C 
ATOM     15  C   UNL A   1      33.770  24.395  26.098  1.00  0.00     0.071 C 
ENDBRANCH  11  14
ENDBRANCH   6  11
BRANCH   8  16
ATOM     16  C   UNL A   1      30.797  26.693  24.191  1.00  0.00     0.033 C 
BRANCH  16  17
ATOM     17  C   UNL A   1      31.111  26.107  22.817  1.00  0.00     0.129 C 
BRANCH  17  18
ATOM     18  N   UNL A   1      31.903  24.891  22.749  1.00  0.00    -0.283 N 
ATOM     19  C   UNL A   1      31.556  23.663  23.232  1.00  0.00     0.229 C 
ATOM     20  C   UNL A   1      33.022  24.827  21.963  1.00  0.00     0.229 C 
ATOM     21  O   UNL A   1      30.518  23.340  23.785  1.00  0.00    -0.274 OA
ATOM     22  C   UNL A   1      32.693  22.712  22.991  1.00  0.00     0.110 C 
ATOM     23  C   UNL A   1      33.632  23.466  22.075  1.00  0.00     0.110 C 
ATOM     24  O   UNL A   1      33.466  25.709  21.242  1.00  0.00    -0.274 OA
ENDBRANCH  17  18
ENDBRANCH  16  17
ENDBRANCH   8  16
ENDBRANCH   3   6
ENDBRANCH   1   2
BRANCH   1  25
ATOM     25  C   UNL A   1      31.374  32.336  26.815  1.00  0.00     0.042 C 
BRANCH  25  26
ATOM     26  C   UNL A   1      32.677  32.961  27.290  1.00  0.00     0.118 C 
BRANCH  26  27
ATOM     27  N   UNL A   1      32.508  34.367  27.657  1.00  0.00    -0.352 N 
ATOM     28  C   UNL A   1      33.039  35.080  28.699  1.00  0.00     0.251 C 
ATOM     29  H   UNL A   1      31.918  34.882  27.059  1.00  0.00     0.163 HD
ATOM     30  O   UNL A   1      32.568  36.172  29.003  1.00  0.00    -0.269 OA
BRANCH  28  31
ATOM     31  C   UNL A   1      34.179  34.529  29.451  1.00  0.00     0.039 A 
ATOM     32  C   UNL A   1      33.959  33.915  30.686  1.00  0.00     0.014 A 
ATOM     33  C   UNL A   1      35.471  34.628  28.933  1.00  0.00     0.014 A 
ATOM     34  C   UNL A   1      35.032  33.341  31.366  1.00  0.00     0.010 A 
ATOM     35  C   UNL A   1      36.513  33.954  29.548  1.00  0.00     0.010 A 
ATOM     36  C   UNL A   1      36.309  33.322  30.781  1.00  0.00    -0.014 A 
BRANCH  36  37
ATOM     37  C   UNL A   1      37.459  32.670  31.447  1.00  0.00     0.031 A 
ATOM     38  C   UNL A   1      38.172  31.536  30.766  1.00  0.00     0.074 A 
ATOM     39  C   UNL A   1      37.804  33.046  32.693  1.00  0.00     0.049 A 
ATOM     40  N   UNL A   1      39.147  30.783  31.209  1.00  0.00    -0.248 NA
ATOM     41  C   UNL A   1      37.700  31.171  29.421  1.00  0.00     0.031 C 
ATOM     42  C   UNL A   1      37.144  34.094  33.474  1.00  0.00     0.029 A 
ATOM     43  N   UNL A   1      38.792  32.584  33.524  1.00  0.00    -0.354 N 
ATOM     44  C   UNL A   1      39.384  29.849  30.210  1.00  0.00     0.074 A 
ATOM     45  C   UNL A   1      38.405  30.079  29.173  1.00  0.00     0.031 C 
ATOM     46  C   UNL A   1      37.771  34.223  34.653  1.00  0.00     0.029 A 
ATOM     47  C   UNL A   1      38.845  33.238  34.730  1.00  0.00     0.049 A 
ATOM     48  H   UNL A   1      39.405  31.853  33.279  1.00  0.00     0.167 HD
ATOM     49  C   UNL A   1      40.352  28.905  30.150  1.00  0.00     0.037 A 
ATOM     50  C   UNL A   1      39.668  33.057  35.779  1.00  0.00     0.037 A 
ATOM     51  C   UNL A   1      41.336  28.703  31.180  1.00  0.00     0.049 A 
ATOM     52  C   UNL A   1      40.730  31.995  35.695  1.00  0.00     0.074 A 
ATOM     53  C   UNL A   1      42.403  27.824  31.195  1.00  0.00     0.029 A 
ATOM     54  N   UNL A   1      41.365  29.391  32.387  1.00  0.00    -0.354 N 
ATOM     55  N   UNL A   1      40.999  31.169  34.712  1.00  0.00    -0.248 NA
ATOM     56  C   UNL A   1      41.607  31.847  36.863  1.00  0.00     0.031 C 
ATOM     57  C   UNL A   1      43.041  27.935  32.436  1.00  0.00     0.029 A 
ATOM     58  C   UNL A   1      42.413  28.932  33.167  1.00  0.00     0.049 A 
ATOM     59  H   UNL A   1      40.734  30.100  32.647  1.00  0.00     0.167 HD
ATOM     60  C   UNL A   1      42.093  30.422  35.130  1.00  0.00     0.074 A 
ATOM     61  C   UNL A   1      42.444  30.906  36.450  1.00  0.00     0.031 C 
ATOM     62  C   UNL A   1      42.748  29.428  34.480  1.00  0.00     0.037 A 
BRANCH  49  63
ATOM     63  C   UNL A   1      40.381  28.021  28.934  1.00  0.00     0.064 A 
ATOM     64  C   UNL A   1      39.680  26.805  28.883  1.00  0.00     0.173 A 
ATOM     65  C   UNL A   1      41.126  28.391  27.804  1.00  0.00     0.173 A 
ATOM     66  F   UNL A   1      38.963  26.394  29.939  1.00  0.00    -0.203 F 
ATOM     67  C   UNL A   1      39.762  25.973  27.769  1.00  0.00     0.198 A 
ATOM     68  C   UNL A   1      41.174  27.576  26.676  1.00  0.00     0.198 A 
ATOM     69  F   UNL A   1      41.812  29.544  27.794  1.00  0.00    -0.203 F 
ATOM     70  F   UNL A   1      39.145  24.784  27.776  1.00  0.00    -0.200 F 
ATOM     71  C   UNL A   1      40.504  26.362  26.664  1.00  0.00     0.200 A 
ATOM     72  F   UNL A   1      41.879  27.961  25.603  1.00  0.00    -0.200 F 
ATOM     73  F   UNL A   1      40.584  25.561  25.593  1.00  0.00    -0.200 F 
ENDBRANCH  49  63
BRANCH  50  74
ATOM     74  C   UNL A   1      39.543  33.932  36.973  1.00  0.00     0.064 A 
ATOM     75  C   UNL A   1      40.163  35.189  37.006  1.00  0.00     0.173 A 
ATOM     76  C   UNL A   1      38.791  33.546  38.092  1.00  0.00     0.173 A 
ATOM     77  F   UNL A   1      40.907  35.596  35.967  1.00  0.00    -0.203 F 
ATOM     78  C   UNL A   1      40.045  36.022  38.117  1.00  0.00     0.198 A 
ATOM     79  C   UNL A   1      38.650  34.391  39.191  1.00  0.00     0.198 A 
ATOM     80  F   UNL A   1      38.172  32.357  38.107  1.00  0.00    -0.203 F 
ATOM     81  F   UNL A   1      40.679  37.202  38.138  1.00  0.00    -0.200 F 
ATOM     82  C   UNL A   1      39.284  35.625  39.205  1.00  0.00     0.200 A 
ATOM     83  F   UNL A   1      37.898  34.012  40.233  1.00  0.00    -0.200 F 
ATOM     84  F   UNL A   1      39.163  36.431  40.270  1.00  0.00    -0.200 F 
ENDBRANCH  50  74
BRANCH  62  85
ATOM     85  C   UNL A   1      43.935  28.822  35.170  1.00  0.00     0.064 A 
ATOM     86  C   UNL A   1      45.231  29.330  34.997  1.00  0.00     0.173 A 
ATOM     87  C   UNL A   1      43.765  27.743  36.052  1.00  0.00     0.173 A 
ATOM     88  F   UNL A   1      45.449  30.350  34.154  1.00  0.00    -0.203 F 
ATOM     89  C   UNL A   1      46.317  28.761  35.658  1.00  0.00     0.198 A 
ATOM     90  C   UNL A   1      44.847  27.200  36.739  1.00  0.00     0.198 A 
ATOM     91  F   UNL A   1      42.546  27.225  36.260  1.00  0.00    -0.203 F 
ATOM     92  F   UNL A   1      47.553  29.228  35.434  1.00  0.00    -0.200 F 
ATOM     93  C   UNL A   1      46.123  27.704  36.534  1.00  0.00     0.200 A 
ATOM     94  F   UNL A   1      44.655  26.191  37.599  1.00  0.00    -0.200 F 
ATOM     95  F   UNL A   1      47.168  27.164  37.177  1.00  0.00    -0.200 F 
ENDBRANCH  62  85
ENDBRANCH  36  37
ENDBRANCH  28  31
ENDBRANCH  26  27
ENDBRANCH  25  26
ENDBRANCH   1  25
TORSDOF 15
ENDMDL
