MODEL 1
REMARK VINA RESULT:     -13.2      0.000      0.000
REMARK SMILES O=C(NCCCNC(=O)[C@H]1C[N@H+](Cc2ccc(Cl)c(Cl)c2)CC12CCCCC2)c1ccc(-c2c3nc(c(-c4c(F)c(F)c(F)c(F)c4F)c4ccc([nH]4)c(-c4c(F)c(F)c(F)c(F)c4F)c4nc(c(-c5c(F)c(F)c(F)c(F)c5F)c5ccc2[nH]5)C=C4)C=C3)cc1
REMARK SMILES IDX 5 1 4 2 3 3 1 4 2 5 29 7 30 8 91 9 31 10 90 11 32 12 33 13
REMARK SMILES IDX 34 14 84 15 35 16 89 17 83 18 85 19 36 20 88 21 82 22 81 23
REMARK SMILES IDX 37 25 69 26 49 27 68 28 50 29 53 30 67 31 86 32 51 33 52 34
REMARK SMILES IDX 66 36 87 37 54 38 38 39 39 40 47 41 40 42 41 43 45 44 48 45
REMARK SMILES IDX 42 46 43 47 46 48 44 49 70 50 71 51 79 52 72 53 73 54 77 55
REMARK SMILES IDX 80 56 74 57 75 58 78 59 76 60 55 61 56 62 64 63 57 64 58 65
REMARK SMILES IDX 62 66 65 67 59 68 60 69 63 70 61 71 6 72 7 73 8 74 9 76
REMARK SMILES IDX 10 77 11 78 23 79 12 80 22 81 24 82 28 83 25 85 27 86 26 87
REMARK SMILES IDX 13 88 14 89 15 90 21 91 16 92 19 93 17 94 20 95 18 96
REMARK H PARENT 3 6 85 24 53 35 7 75 12 84
REMARK Flexibility Score: inf
ROOT
ATOM      1  C   UNL A   1      31.878  28.937  26.803  1.00  0.00     0.042 C 
ENDROOT
BRANCH   1   2
ATOM      2  C   UNL A   1      32.994  29.768  26.202  1.00  0.00     0.118 C 
BRANCH   2   3
ATOM      3  N   UNL A   1      32.799  31.189  26.436  1.00  0.00    -0.352 N 
ATOM      4  O   UNL A   1      32.977  33.136  27.551  1.00  0.00    -0.269 OA
ATOM      5  C   UNL A   1      33.448  32.022  27.304  1.00  0.00     0.251 C 
ATOM      6  H   UNL A   1      32.098  31.613  25.890  1.00  0.00     0.163 HD
BRANCH   5   7
ATOM      7  C   UNL A   1      34.704  31.596  27.952  1.00  0.00     0.039 A 
ATOM      8  C   UNL A   1      35.807  32.454  28.010  1.00  0.00     0.014 A 
ATOM      9  C   UNL A   1      34.762  30.340  28.560  1.00  0.00     0.014 A 
ATOM     10  C   UNL A   1      37.002  32.017  28.566  1.00  0.00     0.010 A 
ATOM     11  C   UNL A   1      35.933  29.937  29.203  1.00  0.00     0.010 A 
ATOM     12  C   UNL A   1      37.065  30.766  29.198  1.00  0.00    -0.014 A 
BRANCH  12  13
ATOM     13  C   UNL A   1      38.290  30.371  29.931  1.00  0.00     0.031 A 
ATOM     14  C   UNL A   1      39.252  29.384  29.345  1.00  0.00     0.074 A 
ATOM     15  C   UNL A   1      38.498  30.882  31.159  1.00  0.00     0.049 A 
ATOM     16  N   UNL A   1      40.317  28.848  29.885  1.00  0.00    -0.248 NA
ATOM     17  C   UNL A   1      38.975  28.926  27.976  1.00  0.00     0.031 C 
ATOM     18  C   UNL A   1      37.621  31.842  31.831  1.00  0.00     0.029 A 
ATOM     19  N   UNL A   1      39.500  30.655  32.068  1.00  0.00    -0.354 N 
ATOM     20  C   UNL A   1      40.823  27.973  28.935  1.00  0.00     0.074 A 
ATOM     21  C   UNL A   1      39.933  28.030  27.793  1.00  0.00     0.031 C 
ATOM     22  C   UNL A   1      38.121  32.125  33.040  1.00  0.00     0.029 A 
ATOM     23  C   UNL A   1      39.315  31.316  33.256  1.00  0.00     0.049 A 
ATOM     24  H   UNL A   1      40.274  30.075  31.886  1.00  0.00     0.167 HD
ATOM     25  C   UNL A   1      41.930  27.195  29.014  1.00  0.00     0.037 A 
ATOM     26  C   UNL A   1      40.004  31.248  34.411  1.00  0.00     0.037 A 
ATOM     27  C   UNL A   1      42.804  27.155  30.158  1.00  0.00     0.049 A 
ATOM     28  C   UNL A   1      41.205  30.354  34.489  1.00  0.00     0.074 A 
ATOM     29  C   UNL A   1      43.980  26.443  30.321  1.00  0.00     0.029 A 
ATOM     30  N   UNL A   1      42.588  27.844  31.344  1.00  0.00    -0.354 N 
ATOM     31  N   UNL A   1      41.705  29.565  33.569  1.00  0.00    -0.248 NA
ATOM     32  C   UNL A   1      41.939  30.338  35.761  1.00  0.00     0.031 C 
ATOM     33  C   UNL A   1      44.440  26.652  31.625  1.00  0.00     0.029 A 
ATOM     34  C   UNL A   1      43.589  27.547  32.255  1.00  0.00     0.049 A 
ATOM     35  H   UNL A   1      41.834  28.454  31.514  1.00  0.00     0.167 HD
ATOM     36  C   UNL A   1      42.824  28.975  34.140  1.00  0.00     0.074 A 
ATOM     37  C   UNL A   1      42.931  29.502  35.485  1.00  0.00     0.031 C 
ATOM     38  C   UNL A   1      43.684  28.083  33.591  1.00  0.00     0.037 A 
BRANCH  25  39
ATOM     39  C   UNL A   1      42.232  26.298  27.848  1.00  0.00     0.064 A 
ATOM     40  C   UNL A   1      43.171  26.646  26.864  1.00  0.00     0.173 A 
ATOM     41  C   UNL A   1      41.577  25.062  27.718  1.00  0.00     0.173 A 
ATOM     42  F   UNL A   1      43.819  27.817  26.933  1.00  0.00    -0.203 F 
ATOM     43  C   UNL A   1      43.409  25.812  25.773  1.00  0.00     0.198 A 
ATOM     44  C   UNL A   1      41.843  24.216  26.644  1.00  0.00     0.198 A 
ATOM     45  F   UNL A   1      40.678  24.673  28.634  1.00  0.00    -0.203 F 
ATOM     46  F   UNL A   1      44.263  26.196  24.814  1.00  0.00    -0.200 F 
ATOM     47  C   UNL A   1      42.749  24.597  25.667  1.00  0.00     0.200 A 
ATOM     48  F   UNL A   1      41.217  23.036  26.552  1.00  0.00    -0.200 F 
ATOM     49  F   UNL A   1      42.979  23.798  24.615  1.00  0.00    -0.200 F 
ENDBRANCH  25  39
BRANCH  26  50
ATOM     50  C   UNL A   1      39.540  32.046  35.573  1.00  0.00     0.064 A 
ATOM     51  C   UNL A   1      39.957  33.370  35.755  1.00  0.00     0.173 A 
ATOM     52  C   UNL A   1      38.616  31.519  36.489  1.00  0.00     0.173 A 
ATOM     53  F   UNL A   1      40.848  33.913  34.913  1.00  0.00    -0.203 F 
ATOM     54  C   UNL A   1      39.468  34.138  36.810  1.00  0.00     0.198 A 
ATOM     55  C   UNL A   1      38.106  32.296  37.526  1.00  0.00     0.198 A 
ATOM     56  F   UNL A   1      38.177  30.259  36.350  1.00  0.00    -0.203 F 
ATOM     57  F   UNL A   1      39.898  35.396  36.975  1.00  0.00    -0.200 F 
ATOM     58  C   UNL A   1      38.535  33.604  37.687  1.00  0.00     0.200 A 
ATOM     59  F   UNL A   1      37.188  31.782  38.356  1.00  0.00    -0.200 F 
ATOM     60  F   UNL A   1      38.049  34.351  38.688  1.00  0.00    -0.200 F 
ENDBRANCH  26  50
BRANCH  38  61
ATOM     61  C   UNL A   1      44.848  27.641  34.430  1.00  0.00     0.064 A 
ATOM     62  C   UNL A   1      46.045  28.369  34.472  1.00  0.00     0.173 A 
ATOM     63  C   UNL A   1      44.731  26.516  35.260  1.00  0.00     0.173 A 
ATOM     64  F   UNL A   1      46.212  29.442  33.684  1.00  0.00    -0.203 F 
ATOM     65  C   UNL A   1      47.087  27.982  35.311  1.00  0.00     0.198 A 
ATOM     66  C   UNL A   1      45.764  26.149  36.119  1.00  0.00     0.198 A 
ATOM     67  F   UNL A   1      43.604  25.789  35.258  1.00  0.00    -0.203 F 
ATOM     68  F   UNL A   1      48.236  28.673  35.314  1.00  0.00    -0.200 F 
ATOM     69  C   UNL A   1      46.941  26.880  36.142  1.00  0.00     0.200 A 
ATOM     70  F   UNL A   1      45.613  25.094  36.931  1.00  0.00    -0.200 F 
ATOM     71  F   UNL A   1      47.936  26.521  36.963  1.00  0.00    -0.200 F 
ENDBRANCH  38  61
ENDBRANCH  12  13
ENDBRANCH   5   7
ENDBRANCH   2   3
ENDBRANCH   1   2
BRANCH   1  72
ATOM     72  C   UNL A   1      32.223  27.459  26.921  1.00  0.00     0.117 C 
BRANCH  72  73
ATOM     73  N   UNL A   1      31.028  26.639  27.004  1.00  0.00    -0.356 N 
ATOM     74  C   UNL A   1      30.575  25.657  26.172  1.00  0.00     0.229 C 
ATOM     75  H   UNL A   1      30.454  26.818  27.784  1.00  0.00     0.163 HD
ATOM     76  O   UNL A   1      29.499  25.127  26.443  1.00  0.00    -0.275 OA
BRANCH  74  77
ATOM     77  C   UNL A   1      31.408  25.263  24.963  1.00  0.00     0.145 C 
ATOM     78  C   UNL A   1      30.923  23.929  24.395  1.00  0.00     0.276 C 
ATOM     79  C   UNL A   1      31.453  26.234  23.745  1.00  0.00     0.037 C 
ATOM     80  N   UNL A   1      31.429  23.891  23.029  1.00  0.00    -0.330 N 
ATOM     81  C   UNL A   1      31.320  25.264  22.529  1.00  0.00     0.270 C 
ATOM     82  C   UNL A   1      30.326  27.297  23.771  1.00  0.00     0.014 C 
ATOM     83  C   UNL A   1      32.806  26.979  23.690  1.00  0.00     0.014 C 
ATOM     84  H   UNL A   1      30.857  23.277  22.450  1.00  0.00     0.348 HD
ATOM     85  C   UNL A   1      30.448  28.364  22.678  1.00  0.00     0.001 C 
ATOM     86  C   UNL A   1      32.925  27.991  22.559  1.00  0.00     0.001 C 
ATOM     87  C   UNL A   1      31.821  29.028  22.663  1.00  0.00     0.000 C 
BRANCH  80  88
ATOM     88  C   UNL A   1      32.672  23.145  22.787  1.00  0.00     0.299 C 
BRANCH  88  89
ATOM     89  C   UNL A   1      32.827  21.770  23.407  1.00  0.00     0.008 A 
ATOM     90  C   UNL A   1      33.556  21.583  24.591  1.00  0.00     0.011 A 
ATOM     91  C   UNL A   1      32.291  20.636  22.769  1.00  0.00     0.031 A 
ATOM     92  C   UNL A   1      33.888  20.298  25.031  1.00  0.00     0.022 A 
ATOM     93  C   UNL A   1      32.607  19.345  23.217  1.00  0.00     0.060 A 
ATOM     94  C   UNL A   1      33.443  19.177  24.325  1.00  0.00     0.059 A 
ATOM     95  Cl  UNL A   1      32.025  18.008  22.290  1.00  0.00    -0.083 Cl
ATOM     96  Cl  UNL A   1      34.020  17.630  24.831  1.00  0.00    -0.083 Cl
ENDBRANCH  88  89
ENDBRANCH  80  88
ENDBRANCH  74  77
ENDBRANCH  72  73
ENDBRANCH   1  72
TORSDOF 12
ENDMDL
MODEL 2
REMARK VINA RESULT:     -13.2      0.968      2.297
REMARK SMILES O=C(NCCCNC(=O)[C@H]1C[N@H+](Cc2ccc(Cl)c(Cl)c2)CC12CCCCC2)c1ccc(-c2c3nc(c(-c4c(F)c(F)c(F)c(F)c4F)c4ccc([nH]4)c(-c4c(F)c(F)c(F)c(F)c4F)c4nc(c(-c5c(F)c(F)c(F)c(F)c5F)c5ccc2[nH]5)C=C4)C=C3)cc1
REMARK SMILES IDX 5 1 4 2 3 3 1 4 2 5 29 7 30 8 91 9 31 10 90 11 32 12 33 13
REMARK SMILES IDX 34 14 84 15 35 16 89 17 83 18 85 19 36 20 88 21 82 22 81 23
REMARK SMILES IDX 37 25 69 26 49 27 68 28 50 29 53 30 67 31 86 32 51 33 52 34
REMARK SMILES IDX 66 36 87 37 54 38 38 39 39 40 47 41 40 42 41 43 45 44 48 45
REMARK SMILES IDX 42 46 43 47 46 48 44 49 70 50 71 51 79 52 72 53 73 54 77 55
REMARK SMILES IDX 80 56 74 57 75 58 78 59 76 60 55 61 56 62 64 63 57 64 58 65
REMARK SMILES IDX 62 66 65 67 59 68 60 69 63 70 61 71 6 72 7 73 8 74 9 76
REMARK SMILES IDX 10 77 11 78 23 79 12 80 22 81 24 82 28 83 25 85 27 86 26 87
REMARK SMILES IDX 13 88 14 89 15 90 21 91 16 92 19 93 17 94 20 95 18 96
REMARK H PARENT 3 6 85 24 53 35 7 75 12 84
REMARK Flexibility Score: inf
ROOT
ATOM      1  C   UNL A   1      31.911  28.867  26.596  1.00  0.00     0.042 C 
ENDROOT
BRANCH   1   2
ATOM      2  C   UNL A   1      32.961  29.785  25.998  1.00  0.00     0.118 C 
BRANCH   2   3
ATOM      3  N   UNL A   1      32.699  31.181  26.305  1.00  0.00    -0.352 N 
ATOM      4  O   UNL A   1      32.772  33.068  27.529  1.00  0.00    -0.269 OA
ATOM      5  C   UNL A   1      33.296  31.991  27.232  1.00  0.00     0.251 C 
ATOM      6  H   UNL A   1      31.991  31.604  25.769  1.00  0.00     0.163 HD
BRANCH   5   7
ATOM      7  C   UNL A   1      34.557  31.584  27.881  1.00  0.00     0.039 A 
ATOM      8  C   UNL A   1      35.626  32.478  27.994  1.00  0.00     0.014 A 
ATOM      9  C   UNL A   1      34.652  30.305  28.435  1.00  0.00     0.014 A 
ATOM     10  C   UNL A   1      36.828  32.060  28.550  1.00  0.00     0.010 A 
ATOM     11  C   UNL A   1      35.827  29.917  29.079  1.00  0.00     0.010 A 
ATOM     12  C   UNL A   1      36.928  30.787  29.129  1.00  0.00    -0.014 A 
BRANCH  12  13
ATOM     13  C   UNL A   1      38.156  30.405  29.864  1.00  0.00     0.031 A 
ATOM     14  C   UNL A   1      39.124  29.420  29.285  1.00  0.00     0.074 A 
ATOM     15  C   UNL A   1      38.361  30.926  31.089  1.00  0.00     0.049 A 
ATOM     16  N   UNL A   1      40.193  28.895  29.829  1.00  0.00    -0.248 NA
ATOM     17  C   UNL A   1      38.849  28.950  27.920  1.00  0.00     0.031 C 
ATOM     18  C   UNL A   1      37.478  31.885  31.753  1.00  0.00     0.029 A 
ATOM     19  N   UNL A   1      39.365  30.713  31.999  1.00  0.00    -0.354 N 
ATOM     20  C   UNL A   1      40.704  28.016  28.885  1.00  0.00     0.074 A 
ATOM     21  C   UNL A   1      39.813  28.058  27.744  1.00  0.00     0.031 C 
ATOM     22  C   UNL A   1      37.976  32.181  32.961  1.00  0.00     0.029 A 
ATOM     23  C   UNL A   1      39.176  31.381  33.182  1.00  0.00     0.049 A 
ATOM     24  H   UNL A   1      40.143  30.136  31.821  1.00  0.00     0.167 HD
ATOM     25  C   UNL A   1      41.816  27.246  28.969  1.00  0.00     0.037 A 
ATOM     26  C   UNL A   1      39.866  31.326  34.337  1.00  0.00     0.037 A 
ATOM     27  C   UNL A   1      42.691  27.219  30.114  1.00  0.00     0.049 A 
ATOM     28  C   UNL A   1      41.072  30.440  34.421  1.00  0.00     0.074 A 
ATOM     29  C   UNL A   1      43.871  26.516  30.281  1.00  0.00     0.029 A 
ATOM     30  N   UNL A   1      42.471  27.916  31.295  1.00  0.00    -0.354 N 
ATOM     31  N   UNL A   1      41.578  29.648  33.507  1.00  0.00    -0.248 NA
ATOM     32  C   UNL A   1      41.807  30.438  35.693  1.00  0.00     0.031 C 
ATOM     33  C   UNL A   1      44.330  26.738  31.584  1.00  0.00     0.029 A 
ATOM     34  C   UNL A   1      43.474  27.632  32.208  1.00  0.00     0.049 A 
ATOM     35  H   UNL A   1      41.713  28.522  31.460  1.00  0.00     0.167 HD
ATOM     36  C   UNL A   1      42.700  29.070  34.081  1.00  0.00     0.074 A 
ATOM     37  C   UNL A   1      42.805  29.607  35.422  1.00  0.00     0.031 C 
ATOM     38  C   UNL A   1      43.566  28.178  33.540  1.00  0.00     0.037 A 
BRANCH  25  39
ATOM     39  C   UNL A   1      42.123  26.342  27.810  1.00  0.00     0.064 A 
ATOM     40  C   UNL A   1      41.483  25.104  27.640  1.00  0.00     0.173 A 
ATOM     41  C   UNL A   1      43.068  26.726  26.844  1.00  0.00     0.173 A 
ATOM     42  F   UNL A   1      40.578  24.684  28.536  1.00  0.00    -0.203 F 
ATOM     43  C   UNL A   1      41.808  24.268  26.575  1.00  0.00     0.198 A 
ATOM     44  C   UNL A   1      43.366  25.902  25.762  1.00  0.00     0.198 A 
ATOM     45  F   UNL A   1      43.703  27.902  26.950  1.00  0.00    -0.203 F 
ATOM     46  F   UNL A   1      41.229  23.063  26.471  1.00  0.00    -0.200 F 
ATOM     47  C   UNL A   1      42.746  24.669  25.635  1.00  0.00     0.200 A 
ATOM     48  F   UNL A   1      44.260  26.298  24.846  1.00  0.00    -0.200 F 
ATOM     49  F   UNL A   1      43.059  23.861  24.612  1.00  0.00    -0.200 F 
ENDBRANCH  25  39
BRANCH  26  50
ATOM     50  C   UNL A   1      39.397  32.129  35.493  1.00  0.00     0.064 A 
ATOM     51  C   UNL A   1      38.499  31.599  36.427  1.00  0.00     0.173 A 
ATOM     52  C   UNL A   1      39.894  33.422  35.724  1.00  0.00     0.173 A 
ATOM     53  F   UNL A   1      37.988  30.373  36.242  1.00  0.00    -0.203 F 
ATOM     54  C   UNL A   1      38.113  32.331  37.548  1.00  0.00     0.198 A 
ATOM     55  C   UNL A   1      39.530  34.142  36.859  1.00  0.00     0.198 A 
ATOM     56  F   UNL A   1      40.767  33.970  34.865  1.00  0.00    -0.203 F 
ATOM     57  F   UNL A   1      37.236  31.810  38.416  1.00  0.00    -0.200 F 
ATOM     58  C   UNL A   1      38.638  33.597  37.769  1.00  0.00     0.200 A 
ATOM     59  F   UNL A   1      40.057  35.354  37.079  1.00  0.00    -0.200 F 
ATOM     60  F   UNL A   1      38.282  34.290  38.859  1.00  0.00    -0.200 F 
ENDBRANCH  26  50
BRANCH  38  61
ATOM     61  C   UNL A   1      44.733  27.751  34.381  1.00  0.00     0.064 A 
ATOM     62  C   UNL A   1      44.683  26.603  35.183  1.00  0.00     0.173 A 
ATOM     63  C   UNL A   1      45.942  28.461  34.320  1.00  0.00     0.173 A 
ATOM     64  F   UNL A   1      43.545  25.900  35.288  1.00  0.00    -0.203 F 
ATOM     65  C   UNL A   1      45.801  26.184  35.901  1.00  0.00     0.198 A 
ATOM     66  C   UNL A   1      47.065  28.024  35.017  1.00  0.00     0.198 A 
ATOM     67  F   UNL A   1      46.041  29.565  33.565  1.00  0.00    -0.203 F 
ATOM     68  F   UNL A   1      45.724  25.101  36.687  1.00  0.00    -0.200 F 
ATOM     69  C   UNL A   1      46.993  26.888  35.807  1.00  0.00     0.200 A 
ATOM     70  F   UNL A   1      48.219  28.697  34.912  1.00  0.00    -0.200 F 
ATOM     71  F   UNL A   1      48.073  26.472  36.482  1.00  0.00    -0.200 F 
ENDBRANCH  38  61
ENDBRANCH  12  13
ENDBRANCH   5   7
ENDBRANCH   2   3
ENDBRANCH   1   2
BRANCH   1  72
ATOM     72  C   UNL A   1      32.432  27.468  26.890  1.00  0.00     0.117 C 
BRANCH  72  73
ATOM     73  N   UNL A   1      31.345  26.517  27.040  1.00  0.00    -0.356 N 
ATOM     74  C   UNL A   1      30.881  25.567  26.178  1.00  0.00     0.229 C 
ATOM     75  H   UNL A   1      30.867  26.565  27.900  1.00  0.00     0.163 HD
ATOM     76  O   UNL A   1      29.908  24.900  26.528  1.00  0.00    -0.275 OA
BRANCH  74  77
ATOM     77  C   UNL A   1      31.576  25.372  24.840  1.00  0.00     0.145 C 
ATOM     78  C   UNL A   1      31.300  23.970  24.297  1.00  0.00     0.276 C 
ATOM     79  C   UNL A   1      31.223  26.342  23.673  1.00  0.00     0.037 C 
ATOM     80  N   UNL A   1      31.580  24.054  22.870  1.00  0.00    -0.330 N 
ATOM     81  C   UNL A   1      31.108  25.377  22.451  1.00  0.00     0.270 C 
ATOM     82  C   UNL A   1      29.916  27.137  23.915  1.00  0.00     0.014 C 
ATOM     83  C   UNL A   1      32.363  27.360  23.445  1.00  0.00     0.014 C 
ATOM     84  H   UNL A   1      31.066  23.337  22.358  1.00  0.00     0.348 HD
ATOM     85  C   UNL A   1      29.637  28.215  22.863  1.00  0.00     0.001 C 
ATOM     86  C   UNL A   1      32.086  28.384  22.352  1.00  0.00     0.001 C 
ATOM     87  C   UNL A   1      30.819  29.159  22.668  1.00  0.00     0.000 C 
BRANCH  80  88
ATOM     88  C   UNL A   1      32.899  23.596  22.409  1.00  0.00     0.299 C 
BRANCH  88  89
ATOM     89  C   UNL A   1      33.969  23.304  23.444  1.00  0.00     0.008 A 
ATOM     90  C   UNL A   1      34.786  24.325  23.954  1.00  0.00     0.011 A 
ATOM     91  C   UNL A   1      34.206  21.985  23.871  1.00  0.00     0.031 A 
ATOM     92  C   UNL A   1      35.911  24.021  24.726  1.00  0.00     0.022 A 
ATOM     93  C   UNL A   1      35.325  21.677  24.661  1.00  0.00     0.060 A 
ATOM     94  C   UNL A   1      36.202  22.694  25.052  1.00  0.00     0.059 A 
ATOM     95  Cl  UNL A   1      35.621  20.014  25.020  1.00  0.00    -0.083 Cl
ATOM     96  Cl  UNL A   1      37.689  22.376  25.872  1.00  0.00    -0.083 Cl
ENDBRANCH  88  89
ENDBRANCH  80  88
ENDBRANCH  74  77
ENDBRANCH  72  73
ENDBRANCH   1  72
TORSDOF 12
ENDMDL
MODEL 3
REMARK VINA RESULT:     -13.2      0.949      1.996
REMARK SMILES O=C(NCCCNC(=O)[C@H]1C[N@H+](Cc2ccc(Cl)c(Cl)c2)CC12CCCCC2)c1ccc(-c2c3nc(c(-c4c(F)c(F)c(F)c(F)c4F)c4ccc([nH]4)c(-c4c(F)c(F)c(F)c(F)c4F)c4nc(c(-c5c(F)c(F)c(F)c(F)c5F)c5ccc2[nH]5)C=C4)C=C3)cc1
REMARK SMILES IDX 5 1 4 2 3 3 1 4 2 5 29 7 30 8 91 9 31 10 90 11 32 12 33 13
REMARK SMILES IDX 34 14 84 15 35 16 89 17 83 18 85 19 36 20 88 21 82 22 81 23
REMARK SMILES IDX 37 25 69 26 49 27 68 28 50 29 53 30 67 31 86 32 51 33 52 34
REMARK SMILES IDX 66 36 87 37 54 38 38 39 39 40 47 41 40 42 41 43 45 44 48 45
REMARK SMILES IDX 42 46 43 47 46 48 44 49 70 50 71 51 79 52 72 53 73 54 77 55
REMARK SMILES IDX 80 56 74 57 75 58 78 59 76 60 55 61 56 62 64 63 57 64 58 65
REMARK SMILES IDX 62 66 65 67 59 68 60 69 63 70 61 71 6 72 7 73 8 74 9 76
REMARK SMILES IDX 10 77 11 78 23 79 12 80 22 81 24 82 28 83 25 85 27 86 26 87
REMARK SMILES IDX 13 88 14 89 15 90 21 91 16 92 19 93 17 94 20 95 18 96
REMARK H PARENT 3 6 85 24 53 35 7 75 12 84
REMARK Flexibility Score: inf
ROOT
ATOM      1  C   UNL A   1      31.896  28.886  26.691  1.00  0.00     0.042 C 
ENDROOT
BRANCH   1   2
ATOM      2  C   UNL A   1      32.922  29.787  26.031  1.00  0.00     0.118 C 
BRANCH   2   3
ATOM      3  N   UNL A   1      32.673  31.191  26.314  1.00  0.00    -0.352 N 
ATOM      4  O   UNL A   1      32.764  33.100  27.502  1.00  0.00    -0.269 OA
ATOM      5  C   UNL A   1      33.278  32.013  27.223  1.00  0.00     0.251 C 
ATOM      6  H   UNL A   1      31.966  31.610  25.772  1.00  0.00     0.163 HD
BRANCH   5   7
ATOM      7  C   UNL A   1      34.539  31.608  27.876  1.00  0.00     0.039 A 
ATOM      8  C   UNL A   1      35.601  32.507  28.003  1.00  0.00     0.014 A 
ATOM      9  C   UNL A   1      34.639  30.325  28.421  1.00  0.00     0.014 A 
ATOM     10  C   UNL A   1      36.803  32.092  28.562  1.00  0.00     0.010 A 
ATOM     11  C   UNL A   1      35.812  29.939  29.067  1.00  0.00     0.010 A 
ATOM     12  C   UNL A   1      36.908  30.814  29.130  1.00  0.00    -0.014 A 
BRANCH  12  13
ATOM     13  C   UNL A   1      38.134  30.433  29.869  1.00  0.00     0.031 A 
ATOM     14  C   UNL A   1      39.106  29.451  29.292  1.00  0.00     0.074 A 
ATOM     15  C   UNL A   1      38.334  30.953  31.095  1.00  0.00     0.049 A 
ATOM     16  N   UNL A   1      40.174  28.928  29.838  1.00  0.00    -0.248 NA
ATOM     17  C   UNL A   1      38.837  28.984  27.924  1.00  0.00     0.031 C 
ATOM     18  C   UNL A   1      37.446  31.908  31.759  1.00  0.00     0.029 A 
ATOM     19  N   UNL A   1      39.335  30.739  32.009  1.00  0.00    -0.354 N 
ATOM     20  C   UNL A   1      40.690  28.051  28.894  1.00  0.00     0.074 A 
ATOM     21  C   UNL A   1      39.803  28.094  27.750  1.00  0.00     0.031 C 
ATOM     22  C   UNL A   1      37.940  32.202  32.969  1.00  0.00     0.029 A 
ATOM     23  C   UNL A   1      39.140  31.405  33.193  1.00  0.00     0.049 A 
ATOM     24  H   UNL A   1      40.114  30.165  31.832  1.00  0.00     0.167 HD
ATOM     25  C   UNL A   1      41.803  27.283  28.981  1.00  0.00     0.037 A 
ATOM     26  C   UNL A   1      39.826  31.349  34.350  1.00  0.00     0.037 A 
ATOM     27  C   UNL A   1      42.674  27.257  30.128  1.00  0.00     0.049 A 
ATOM     28  C   UNL A   1      41.034  30.465  34.437  1.00  0.00     0.074 A 
ATOM     29  C   UNL A   1      43.856  26.556  30.298  1.00  0.00     0.029 A 
ATOM     30  N   UNL A   1      42.449  27.950  31.310  1.00  0.00    -0.354 N 
ATOM     31  N   UNL A   1      41.544  29.676  33.523  1.00  0.00    -0.248 NA
ATOM     32  C   UNL A   1      41.764  30.462  35.711  1.00  0.00     0.031 C 
ATOM     33  C   UNL A   1      44.310  26.776  31.603  1.00  0.00     0.029 A 
ATOM     34  C   UNL A   1      43.449  27.666  32.226  1.00  0.00     0.049 A 
ATOM     35  H   UNL A   1      41.689  28.555  31.474  1.00  0.00     0.167 HD
ATOM     36  C   UNL A   1      42.666  29.099  34.100  1.00  0.00     0.074 A 
ATOM     37  C   UNL A   1      42.765  29.634  35.442  1.00  0.00     0.031 C 
ATOM     38  C   UNL A   1      43.536  28.210  33.559  1.00  0.00     0.037 A 
BRANCH  25  39
ATOM     39  C   UNL A   1      42.116  26.383  27.821  1.00  0.00     0.064 A 
ATOM     40  C   UNL A   1      41.479  25.144  27.647  1.00  0.00     0.173 A 
ATOM     41  C   UNL A   1      43.063  26.771  26.859  1.00  0.00     0.173 A 
ATOM     42  F   UNL A   1      40.573  24.719  28.539  1.00  0.00    -0.203 F 
ATOM     43  C   UNL A   1      41.810  24.310  26.581  1.00  0.00     0.198 A 
ATOM     44  C   UNL A   1      43.367  25.950  25.776  1.00  0.00     0.198 A 
ATOM     45  F   UNL A   1      43.696  27.949  26.969  1.00  0.00    -0.203 F 
ATOM     46  F   UNL A   1      41.235  23.104  26.472  1.00  0.00    -0.200 F 
ATOM     47  C   UNL A   1      42.750  24.715  25.645  1.00  0.00     0.200 A 
ATOM     48  F   UNL A   1      44.263  26.350  24.864  1.00  0.00    -0.200 F 
ATOM     49  F   UNL A   1      43.069  23.910  24.621  1.00  0.00    -0.200 F 
ENDBRANCH  25  39
BRANCH  26  50
ATOM     50  C   UNL A   1      39.352  32.149  35.506  1.00  0.00     0.064 A 
ATOM     51  C   UNL A   1      38.507  31.592  36.474  1.00  0.00     0.173 A 
ATOM     52  C   UNL A   1      39.792  33.468  35.702  1.00  0.00     0.173 A 
ATOM     53  F   UNL A   1      38.051  30.340  36.324  1.00  0.00    -0.203 F 
ATOM     54  C   UNL A   1      38.117  32.324  37.594  1.00  0.00     0.198 A 
ATOM     55  C   UNL A   1      39.425  34.189  36.836  1.00  0.00     0.198 A 
ATOM     56  F   UNL A   1      40.613  34.042  34.809  1.00  0.00    -0.203 F 
ATOM     57  F   UNL A   1      37.291  31.777  38.495  1.00  0.00    -0.200 F 
ATOM     58  C   UNL A   1      38.586  33.617  37.779  1.00  0.00     0.200 A 
ATOM     59  F   UNL A   1      39.899  35.428  37.020  1.00  0.00    -0.200 F 
ATOM     60  F   UNL A   1      38.228  34.312  38.867  1.00  0.00    -0.200 F 
ENDBRANCH  26  50
BRANCH  38  61
ATOM     61  C   UNL A   1      44.701  27.784  34.404  1.00  0.00     0.064 A 
ATOM     62  C   UNL A   1      45.892  28.521  34.443  1.00  0.00     0.173 A 
ATOM     63  C   UNL A   1      44.589  26.663  35.242  1.00  0.00     0.173 A 
ATOM     64  F   UNL A   1      46.053  29.589  33.648  1.00  0.00    -0.203 F 
ATOM     65  C   UNL A   1      46.935  28.146  35.288  1.00  0.00     0.198 A 
ATOM     66  C   UNL A   1      45.622  26.310  36.105  1.00  0.00     0.198 A 
ATOM     67  F   UNL A   1      43.468  25.928  35.242  1.00  0.00    -0.203 F 
ATOM     68  F   UNL A   1      48.078  28.846  35.289  1.00  0.00    -0.200 F 
ATOM     69  C   UNL A   1      46.794  27.050  36.126  1.00  0.00     0.200 A 
ATOM     70  F   UNL A   1      45.478  25.259  36.924  1.00  0.00    -0.200 F 
ATOM     71  F   UNL A   1      47.790  26.704  36.952  1.00  0.00    -0.200 F 
ENDBRANCH  38  61
ENDBRANCH  12  13
ENDBRANCH   5   7
ENDBRANCH   2   3
ENDBRANCH   1   2
BRANCH   1  72
ATOM     72  C   UNL A   1      32.400  27.469  26.924  1.00  0.00     0.117 C 
BRANCH  72  73
ATOM     73  N   UNL A   1      31.302  26.529  27.053  1.00  0.00    -0.356 N 
ATOM     74  C   UNL A   1      30.832  25.597  26.173  1.00  0.00     0.229 C 
ATOM     75  H   UNL A   1      30.819  26.569  27.911  1.00  0.00     0.163 HD
ATOM     76  O   UNL A   1      29.850  24.936  26.508  1.00  0.00    -0.275 OA
BRANCH  74  77
ATOM     77  C   UNL A   1      31.534  25.415  24.837  1.00  0.00     0.145 C 
ATOM     78  C   UNL A   1      31.261  24.018  24.280  1.00  0.00     0.276 C 
ATOM     79  C   UNL A   1      31.185  26.395  23.677  1.00  0.00     0.037 C 
ATOM     80  N   UNL A   1      31.548  24.115  22.855  1.00  0.00    -0.330 N 
ATOM     81  C   UNL A   1      31.076  25.441  22.446  1.00  0.00     0.270 C 
ATOM     82  C   UNL A   1      29.876  27.187  23.921  1.00  0.00     0.014 C 
ATOM     83  C   UNL A   1      32.325  27.416  23.463  1.00  0.00     0.014 C 
ATOM     84  H   UNL A   1      31.037  23.403  22.335  1.00  0.00     0.348 HD
ATOM     85  C   UNL A   1      29.600  28.275  22.877  1.00  0.00     0.001 C 
ATOM     86  C   UNL A   1      32.052  28.450  22.379  1.00  0.00     0.001 C 
ATOM     87  C   UNL A   1      30.782  29.221  22.696  1.00  0.00     0.000 C 
BRANCH  80  88
ATOM     88  C   UNL A   1      32.869  23.662  22.396  1.00  0.00     0.299 C 
BRANCH  88  89
ATOM     89  C   UNL A   1      33.924  23.331  23.434  1.00  0.00     0.008 A 
ATOM     90  C   UNL A   1      34.757  24.326  23.968  1.00  0.00     0.011 A 
ATOM     91  C   UNL A   1      34.132  22.000  23.839  1.00  0.00     0.031 A 
ATOM     92  C   UNL A   1      35.869  23.986  24.744  1.00  0.00     0.022 A 
ATOM     93  C   UNL A   1      35.238  21.656  24.632  1.00  0.00     0.060 A 
ATOM     94  C   UNL A   1      36.131  22.648  25.048  1.00  0.00     0.059 A 
ATOM     95  Cl  UNL A   1      35.498  19.981  24.963  1.00  0.00    -0.083 Cl
ATOM     96  Cl  UNL A   1      37.605  22.287  25.874  1.00  0.00    -0.083 Cl
ENDBRANCH  88  89
ENDBRANCH  80  88
ENDBRANCH  74  77
ENDBRANCH  72  73
ENDBRANCH   1  72
TORSDOF 12
ENDMDL
