MODEL 1
REMARK VINA RESULT:     -13.0      0.000      0.000
REMARK SMILES CC(C)(Oc1ccc(Cl)cc1)C(=O)N1CCC[C@H](C(=O)NCCCNC(=O)c2ccc(-c3c4nc(c(-c5c(F)c(F)c(F)c(F)c5F)c5ccc([nH]5)c(-c5c(F)c(F)c(F)c(F)c5F)c5nc(c(-c6c(F)c(F)c(F)c(F)c6F)c6ccc3[nH]6)C=C5)C=C4)cc2)C1
REMARK SMILES IDX 22 1 21 2 19 3 20 4 18 6 14 7 15 8 91 9 16 10 17 11 12 12
REMARK SMILES IDX 13 13 2 14 1 15 3 16 4 17 5 18 6 19 11 20 7 21 10 22 8 23
REMARK SMILES IDX 9 24 23 25 24 26 25 27 26 28 27 30 28 31 29 32 90 33 30 34
REMARK SMILES IDX 89 35 31 36 32 37 33 38 83 39 34 40 88 41 82 42 84 43 35 44
REMARK SMILES IDX 87 45 81 46 80 47 36 49 68 50 48 51 67 52 49 53 52 54 66 55
REMARK SMILES IDX 85 56 50 57 51 58 65 60 86 61 53 62 37 63 38 64 46 65 39 66
REMARK SMILES IDX 40 67 44 68 47 69 41 70 42 71 45 72 43 73 69 74 70 75 78 76
REMARK SMILES IDX 71 77 72 78 76 79 79 80 73 81 74 82 77 83 75 84 54 85 55 86
REMARK SMILES IDX 63 87 56 88 57 89 61 90 64 91 58 92 59 93 62 94 60 95
REMARK H PARENT 21 5 25 29 84 48 52 59
REMARK Flexibility Score: inf
ROOT
ATOM      1  C   UNL A   1      31.643  30.628  26.503  1.00  0.00     0.117 C 
ENDROOT
BRANCH   1   2
ATOM      2  N   UNL A   1      32.559  30.207  25.471  1.00  0.00    -0.356 N 
ATOM      3  C   UNL A   1      32.530  29.120  24.657  1.00  0.00     0.224 C 
ATOM      4  O   UNL A   1      33.365  29.100  23.746  1.00  0.00    -0.275 OA
ATOM      5  H   UNL A   1      33.330  30.803  25.335  1.00  0.00     0.163 HD
BRANCH   3   6
ATOM      6  C   UNL A   1      31.573  27.928  24.828  1.00  0.00     0.098 C 
ATOM      7  N   UNL A   1      32.361  25.703  23.935  1.00  0.00    -0.338 N 
ATOM      8  C   UNL A   1      31.170  25.593  23.090  1.00  0.00     0.119 C 
ATOM      9  C   UNL A   1      32.235  26.568  25.108  1.00  0.00     0.133 C 
ATOM     10  C   UNL A   1      30.619  26.943  22.649  1.00  0.00     0.022 C 
ATOM     11  C   UNL A   1      30.427  27.905  23.813  1.00  0.00     0.017 C 
BRANCH   7  12
ATOM     12  C   UNL A   1      33.550  25.120  23.491  1.00  0.00     0.266 C 
ATOM     13  O   UNL A   1      34.023  25.487  22.407  1.00  0.00    -0.270 OA
BRANCH  12  14
ATOM     14  C   UNL A   1      34.174  23.883  24.246  1.00  0.00     0.181 C 
ATOM     15  C   UNL A   1      35.106  24.439  25.346  1.00  0.00     0.067 C 
ATOM     16  C   UNL A   1      35.002  23.180  23.152  1.00  0.00     0.067 C 
BRANCH  14  17
ATOM     17  O   UNL A   1      33.196  23.034  24.870  1.00  0.00    -0.478 OA
BRANCH  17  18
ATOM     18  C   UNL A   1      33.209  21.705  24.539  1.00  0.00     0.121 A 
ATOM     19  C   UNL A   1      34.040  20.788  25.181  1.00  0.00     0.048 A 
ATOM     20  C   UNL A   1      32.298  21.264  23.578  1.00  0.00     0.048 A 
ATOM     21  C   UNL A   1      34.036  19.447  24.790  1.00  0.00     0.024 A 
ATOM     22  C   UNL A   1      32.280  19.918  23.198  1.00  0.00     0.024 A 
ATOM     23  C   UNL A   1      33.161  19.019  23.794  1.00  0.00     0.041 A 
ATOM     24  Cl  UNL A   1      33.165  17.369  23.305  1.00  0.00    -0.084 Cl
ENDBRANCH  17  18
ENDBRANCH  14  17
ENDBRANCH  12  14
ENDBRANCH   7  12
ENDBRANCH   3   6
ENDBRANCH   1   2
BRANCH   1  25
ATOM     25  C   UNL A   1      31.487  32.134  26.618  1.00  0.00     0.042 C 
BRANCH  25  26
ATOM     26  C   UNL A   1      32.694  32.810  27.236  1.00  0.00     0.118 C 
BRANCH  26  27
ATOM     27  N   UNL A   1      32.429  34.188  27.644  1.00  0.00    -0.352 N 
ATOM     28  C   UNL A   1      33.006  34.967  28.619  1.00  0.00     0.251 C 
ATOM     29  H   UNL A   1      31.715  34.635  27.134  1.00  0.00     0.163 HD
ATOM     30  O   UNL A   1      32.546  36.073  28.869  1.00  0.00    -0.269 OA
BRANCH  28  31
ATOM     31  C   UNL A   1      34.162  34.461  29.391  1.00  0.00     0.039 A 
ATOM     32  C   UNL A   1      33.937  33.852  30.630  1.00  0.00     0.014 A 
ATOM     33  C   UNL A   1      35.462  34.579  28.902  1.00  0.00     0.014 A 
ATOM     34  C   UNL A   1      35.007  33.296  31.335  1.00  0.00     0.010 A 
ATOM     35  C   UNL A   1      36.502  33.917  29.538  1.00  0.00     0.010 A 
ATOM     36  C   UNL A   1      36.292  33.287  30.772  1.00  0.00    -0.014 A 
BRANCH  36  37
ATOM     37  C   UNL A   1      37.451  32.671  31.464  1.00  0.00     0.031 A 
ATOM     38  C   UNL A   1      38.190  31.538  30.805  1.00  0.00     0.074 A 
ATOM     39  C   UNL A   1      37.780  33.064  32.709  1.00  0.00     0.049 A 
ATOM     40  N   UNL A   1      39.141  30.777  31.281  1.00  0.00    -0.248 NA
ATOM     41  C   UNL A   1      37.765  31.181  29.442  1.00  0.00     0.031 C 
ATOM     42  C   UNL A   1      37.106  34.113  33.474  1.00  0.00     0.029 A 
ATOM     43  N   UNL A   1      38.762  32.614  33.555  1.00  0.00    -0.354 N 
ATOM     44  C   UNL A   1      39.398  29.835  30.293  1.00  0.00     0.074 A 
ATOM     45  C   UNL A   1      38.457  30.075  29.222  1.00  0.00     0.031 C 
ATOM     46  C   UNL A   1      37.717  34.253  34.660  1.00  0.00     0.029 A 
ATOM     47  C   UNL A   1      38.797  33.276  34.757  1.00  0.00     0.049 A 
ATOM     48  H   UNL A   1      39.382  31.886  33.322  1.00  0.00     0.167 HD
ATOM     49  C   UNL A   1      40.354  28.876  30.265  1.00  0.00     0.037 A 
ATOM     50  C   UNL A   1      39.611  33.109  35.816  1.00  0.00     0.037 A 
ATOM     51  C   UNL A   1      41.319  28.678  31.313  1.00  0.00     0.049 A 
ATOM     52  C   UNL A   1      40.679  32.051  35.758  1.00  0.00     0.074 A 
ATOM     53  C   UNL A   1      42.377  27.788  31.356  1.00  0.00     0.029 A 
ATOM     54  N   UNL A   1      41.341  29.388  32.505  1.00  0.00    -0.354 N 
ATOM     55  N   UNL A   1      40.955  31.208  34.794  1.00  0.00    -0.248 NA
ATOM     56  C   UNL A   1      41.548  31.925  36.934  1.00  0.00     0.031 C 
ATOM     57  C   UNL A   1      43.016  27.933  32.593  1.00  0.00     0.029 A 
ATOM     58  C   UNL A   1      42.384  28.945  33.300  1.00  0.00     0.049 A 
ATOM     59  H   UNL A   1      40.708  30.102  32.749  1.00  0.00     0.167 HD
ATOM     60  C   UNL A   1      42.048  30.471  35.232  1.00  0.00     0.074 A 
ATOM     61  C   UNL A   1      42.388  30.975  36.547  1.00  0.00     0.031 C 
ATOM     62  C   UNL A   1      42.710  29.469  34.602  1.00  0.00     0.037 A 
BRANCH  49  63
ATOM     63  C   UNL A   1      40.396  27.981  29.059  1.00  0.00     0.064 A 
ATOM     64  C   UNL A   1      41.158  28.304  27.924  1.00  0.00     0.173 A 
ATOM     65  C   UNL A   1      39.652  26.793  29.029  1.00  0.00     0.173 A 
ATOM     66  F   UNL A   1      41.877  29.437  27.893  1.00  0.00    -0.203 F 
ATOM     67  C   UNL A   1      41.134  27.497  26.790  1.00  0.00     0.198 A 
ATOM     68  C   UNL A   1      39.660  25.969  27.905  1.00  0.00     0.198 A 
ATOM     69  F   UNL A   1      38.910  26.431  30.086  1.00  0.00    -0.203 F 
ATOM     70  F   UNL A   1      41.810  27.867  25.693  1.00  0.00    -0.200 F 
ATOM     71  C   UNL A   1      40.389  26.329  26.782  1.00  0.00     0.200 A 
ATOM     72  F   UNL A   1      38.949  24.833  27.904  1.00  0.00    -0.200 F 
ATOM     73  F   UNL A   1      40.363  25.556  25.688  1.00  0.00    -0.200 F 
ENDBRANCH  49  63
BRANCH  50  74
ATOM     74  C   UNL A   1      39.480  34.005  36.994  1.00  0.00     0.064 A 
ATOM     75  C   UNL A   1      38.747  33.600  38.118  1.00  0.00     0.173 A 
ATOM     76  C   UNL A   1      40.097  35.263  37.036  1.00  0.00     0.173 A 
ATOM     77  F   UNL A   1      38.123  32.412  38.117  1.00  0.00    -0.203 F 
ATOM     78  C   UNL A   1      38.627  34.422  39.236  1.00  0.00     0.198 A 
ATOM     79  C   UNL A   1      39.997  36.075  38.164  1.00  0.00     0.198 A 
ATOM     80  F   UNL A   1      40.814  35.695  35.989  1.00  0.00    -0.203 F 
ATOM     81  F   UNL A   1      37.893  34.023  40.284  1.00  0.00    -0.200 F 
ATOM     82  C   UNL A   1      39.258  35.657  39.261  1.00  0.00     0.200 A 
ATOM     83  F   UNL A   1      40.619  37.262  38.191  1.00  0.00    -0.200 F 
ATOM     84  F   UNL A   1      39.151  36.444  40.340  1.00  0.00    -0.200 F 
ENDBRANCH  50  74
BRANCH  62  85
ATOM     85  C   UNL A   1      43.892  28.876  35.312  1.00  0.00     0.064 A 
ATOM     86  C   UNL A   1      43.759  27.782  36.178  1.00  0.00     0.173 A 
ATOM     87  C   UNL A   1      45.181  29.384  35.083  1.00  0.00     0.173 A 
ATOM     88  F   UNL A   1      42.546  27.272  36.440  1.00  0.00    -0.203 F 
ATOM     89  C   UNL A   1      44.870  27.230  36.807  1.00  0.00     0.198 A 
ATOM     90  C   UNL A   1      46.293  28.810  35.690  1.00  0.00     0.198 A 
ATOM     91  F   UNL A   1      45.361  30.425  34.258  1.00  0.00    -0.203 F 
ATOM     92  F   UNL A   1      44.716  26.212  37.665  1.00  0.00    -0.200 F 
ATOM     93  C   UNL A   1      46.137  27.739  36.557  1.00  0.00     0.200 A 
ATOM     94  F   UNL A   1      47.517  29.294  35.437  1.00  0.00    -0.200 F 
ATOM     95  F   UNL A   1      47.208  27.199  37.156  1.00  0.00    -0.200 F 
ENDBRANCH  62  85
ENDBRANCH  36  37
ENDBRANCH  28  31
ENDBRANCH  26  27
ENDBRANCH  25  26
ENDBRANCH   1  25
TORSDOF 14
ENDMDL
MODEL 2
REMARK VINA RESULT:     -12.8      5.819     11.367
REMARK SMILES CC(C)(Oc1ccc(Cl)cc1)C(=O)N1CCC[C@H](C(=O)NCCCNC(=O)c2ccc(-c3c4nc(c(-c5c(F)c(F)c(F)c(F)c5F)c5ccc([nH]5)c(-c5c(F)c(F)c(F)c(F)c5F)c5nc(c(-c6c(F)c(F)c(F)c(F)c6F)c6ccc3[nH]6)C=C5)C=C4)cc2)C1
REMARK SMILES IDX 22 1 21 2 19 3 20 4 18 6 14 7 15 8 91 9 16 10 17 11 12 12
REMARK SMILES IDX 13 13 2 14 1 15 3 16 4 17 5 18 6 19 11 20 7 21 10 22 8 23
REMARK SMILES IDX 9 24 23 25 24 26 25 27 26 28 27 30 28 31 29 32 90 33 30 34
REMARK SMILES IDX 89 35 31 36 32 37 33 38 83 39 34 40 88 41 82 42 84 43 35 44
REMARK SMILES IDX 87 45 81 46 80 47 36 49 68 50 48 51 67 52 49 53 52 54 66 55
REMARK SMILES IDX 85 56 50 57 51 58 65 60 86 61 53 62 37 63 38 64 46 65 39 66
REMARK SMILES IDX 40 67 44 68 47 69 41 70 42 71 45 72 43 73 69 74 70 75 78 76
REMARK SMILES IDX 71 77 72 78 76 79 79 80 73 81 74 82 77 83 75 84 54 85 55 86
REMARK SMILES IDX 63 87 56 88 57 89 61 90 64 91 58 92 59 93 62 94 60 95
REMARK H PARENT 21 5 25 29 84 48 52 59
REMARK Flexibility Score: inf
ROOT
ATOM      1  C   UNL A   1      37.281  21.152  24.824  1.00  0.00     0.117 C 
ENDROOT
BRANCH   1   2
ATOM      2  N   UNL A   1      36.440  21.448  25.959  1.00  0.00    -0.356 N 
ATOM      3  C   UNL A   1      35.120  21.758  26.020  1.00  0.00     0.224 C 
ATOM      4  O   UNL A   1      34.622  21.800  27.151  1.00  0.00    -0.275 OA
ATOM      5  H   UNL A   1      36.899  21.422  26.830  1.00  0.00     0.163 HD
BRANCH   3   6
ATOM      6  C   UNL A   1      34.244  22.092  24.801  1.00  0.00     0.098 C 
ATOM      7  N   UNL A   1      32.462  23.848  25.129  1.00  0.00    -0.338 N 
ATOM      8  C   UNL A   1      31.424  22.910  24.693  1.00  0.00     0.119 C 
ATOM      9  C   UNL A   1      33.818  23.563  24.661  1.00  0.00     0.133 C 
ATOM     10  C   UNL A   1      31.758  21.457  25.004  1.00  0.00     0.022 C 
ATOM     11  C   UNL A   1      33.147  21.060  24.525  1.00  0.00     0.017 C 
BRANCH   7  12
ATOM     12  C   UNL A   1      32.124  24.828  26.065  1.00  0.00     0.266 C 
ATOM     13  O   UNL A   1      31.663  24.473  27.157  1.00  0.00    -0.270 OA
BRANCH  12  14
ATOM     14  C   UNL A   1      32.138  26.357  25.674  1.00  0.00     0.181 C 
ATOM     15  C   UNL A   1      33.515  26.924  26.087  1.00  0.00     0.067 C 
ATOM     16  C   UNL A   1      31.027  26.959  26.557  1.00  0.00     0.067 C 
BRANCH  14  17
ATOM     17  O   UNL A   1      31.955  26.595  24.267  1.00  0.00    -0.478 OA
BRANCH  17  18
ATOM     18  C   UNL A   1      30.980  27.482  23.898  1.00  0.00     0.121 A 
ATOM     19  C   UNL A   1      31.212  28.856  23.835  1.00  0.00     0.048 A 
ATOM     20  C   UNL A   1      29.745  26.967  23.502  1.00  0.00     0.048 A 
ATOM     21  C   UNL A   1      30.177  29.724  23.477  1.00  0.00     0.024 A 
ATOM     22  C   UNL A   1      28.714  27.833  23.126  1.00  0.00     0.024 A 
ATOM     23  C   UNL A   1      28.929  29.210  23.133  1.00  0.00     0.041 A 
ATOM     24  Cl  UNL A   1      27.653  30.281  22.703  1.00  0.00    -0.084 Cl
ENDBRANCH  17  18
ENDBRANCH  14  17
ENDBRANCH  12  14
ENDBRANCH   7  12
ENDBRANCH   3   6
ENDBRANCH   1   2
BRANCH   1  25
ATOM     25  C   UNL A   1      38.195  19.957  25.024  1.00  0.00     0.042 C 
BRANCH  25  26
ATOM     26  C   UNL A   1      39.262  20.195  26.073  1.00  0.00     0.118 C 
BRANCH  26  27
ATOM     27  N   UNL A   1      40.323  19.191  26.043  1.00  0.00    -0.352 N 
ATOM     28  C   UNL A   1      41.690  19.322  26.126  1.00  0.00     0.251 C 
ATOM     29  H   UNL A   1      40.007  18.264  25.948  1.00  0.00     0.163 HD
ATOM     30  O   UNL A   1      42.408  18.343  25.965  1.00  0.00    -0.269 OA
BRANCH  28  31
ATOM     31  C   UNL A   1      42.301  20.646  26.378  1.00  0.00     0.039 A 
ATOM     32  C   UNL A   1      42.651  21.450  25.288  1.00  0.00     0.014 A 
ATOM     33  C   UNL A   1      42.525  21.100  27.676  1.00  0.00     0.014 A 
ATOM     34  C   UNL A   1      43.151  22.736  25.506  1.00  0.00     0.010 A 
ATOM     35  C   UNL A   1      42.899  22.418  27.892  1.00  0.00     0.010 A 
ATOM     36  C   UNL A   1      43.239  23.244  26.812  1.00  0.00    -0.014 A 
BRANCH  36  37
ATOM     37  C   UNL A   1      43.724  24.618  27.090  1.00  0.00     0.031 A 
ATOM     38  C   UNL A   1      42.766  25.648  27.624  1.00  0.00     0.074 A 
ATOM     39  C   UNL A   1      44.989  24.962  26.783  1.00  0.00     0.049 A 
ATOM     40  N   UNL A   1      42.944  26.929  27.816  1.00  0.00    -0.248 NA
ATOM     41  C   UNL A   1      41.406  25.180  27.938  1.00  0.00     0.031 C 
ATOM     42  C   UNL A   1      45.996  24.069  26.210  1.00  0.00     0.029 A 
ATOM     43  N   UNL A   1      45.639  26.164  26.899  1.00  0.00    -0.354 N 
ATOM     44  C   UNL A   1      41.714  27.420  28.235  1.00  0.00     0.074 A 
ATOM     45  C   UNL A   1      40.781  26.316  28.202  1.00  0.00     0.031 C 
ATOM     46  C   UNL A   1      47.147  24.743  26.061  1.00  0.00     0.029 A 
ATOM     47  C   UNL A   1      46.948  26.124  26.486  1.00  0.00     0.049 A 
ATOM     48  H   UNL A   1      45.208  26.979  27.246  1.00  0.00     0.167 HD
ATOM     49  C   UNL A   1      41.396  28.673  28.643  1.00  0.00     0.037 A 
ATOM     50  C   UNL A   1      47.878  27.096  26.455  1.00  0.00     0.037 A 
ATOM     51  C   UNL A   1      42.342  29.752  28.721  1.00  0.00     0.049 A 
ATOM     52  C   UNL A   1      47.510  28.476  26.930  1.00  0.00     0.074 A 
ATOM     53  C   UNL A   1      42.149  31.039  29.189  1.00  0.00     0.029 A 
ATOM     54  N   UNL A   1      43.668  29.666  28.320  1.00  0.00    -0.354 N 
ATOM     55  N   UNL A   1      46.362  28.915  27.383  1.00  0.00    -0.248 NA
ATOM     56  C   UNL A   1      48.570  29.492  26.889  1.00  0.00     0.031 C 
ATOM     57  C   UNL A   1      43.348  31.743  29.035  1.00  0.00     0.029 A 
ATOM     58  C   UNL A   1      44.301  30.882  28.514  1.00  0.00     0.049 A 
ATOM     59  H   UNL A   1      44.095  28.859  27.952  1.00  0.00     0.167 HD
ATOM     60  C   UNL A   1      46.566  30.249  27.712  1.00  0.00     0.074 A 
ATOM     61  C   UNL A   1      47.953  30.543  27.412  1.00  0.00     0.031 C 
ATOM     62  C   UNL A   1      45.686  31.149  28.217  1.00  0.00     0.037 A 
BRANCH  49  63
ATOM     63  C   UNL A   1      39.968  28.926  29.036  1.00  0.00     0.064 A 
ATOM     64  C   UNL A   1      39.522  28.748  30.355  1.00  0.00     0.173 A 
ATOM     65  C   UNL A   1      39.029  29.337  28.079  1.00  0.00     0.173 A 
ATOM     66  F   UNL A   1      40.375  28.342  31.308  1.00  0.00    -0.203 F 
ATOM     67  C   UNL A   1      38.182  28.924  30.690  1.00  0.00     0.198 A 
ATOM     68  C   UNL A   1      37.696  29.548  28.425  1.00  0.00     0.198 A 
ATOM     69  F   UNL A   1      39.400  29.529  26.804  1.00  0.00    -0.203 F 
ATOM     70  F   UNL A   1      37.768  28.674  31.940  1.00  0.00    -0.200 F 
ATOM     71  C   UNL A   1      37.271  29.328  29.726  1.00  0.00     0.200 A 
ATOM     72  F   UNL A   1      36.819  29.951  27.495  1.00  0.00    -0.200 F 
ATOM     73  F   UNL A   1      35.981  29.492  30.049  1.00  0.00    -0.200 F 
ENDBRANCH  49  63
BRANCH  50  74
ATOM     74  C   UNL A   1      49.260  26.779  26.010  1.00  0.00     0.064 A 
ATOM     75  C   UNL A   1      49.646  26.995  24.680  1.00  0.00     0.173 A 
ATOM     76  C   UNL A   1      50.224  26.282  26.898  1.00  0.00     0.173 A 
ATOM     77  F   UNL A   1      48.752  27.452  23.789  1.00  0.00    -0.203 F 
ATOM     78  C   UNL A   1      50.942  26.716  24.251  1.00  0.00     0.198 A 
ATOM     79  C   UNL A   1      51.527  26.027  26.473  1.00  0.00     0.198 A 
ATOM     80  F   UNL A   1      49.907  26.064  28.182  1.00  0.00    -0.203 F 
ATOM     81  F   UNL A   1      51.275  26.901  22.966  1.00  0.00    -0.200 F 
ATOM     82  C   UNL A   1      51.884  26.239  25.150  1.00  0.00     0.200 A 
ATOM     83  F   UNL A   1      52.439  25.579  27.347  1.00  0.00    -0.200 F 
ATOM     84  F   UNL A   1      53.132  25.980  24.740  1.00  0.00    -0.200 F 
ENDBRANCH  50  74
BRANCH  62  85
ATOM     85  C   UNL A   1      46.205  32.525  28.511  1.00  0.00     0.064 A 
ATOM     86  C   UNL A   1      46.758  32.853  29.756  1.00  0.00     0.173 A 
ATOM     87  C   UNL A   1      46.191  33.513  27.514  1.00  0.00     0.173 A 
ATOM     88  F   UNL A   1      46.780  31.947  30.745  1.00  0.00    -0.203 F 
ATOM     89  C   UNL A   1      47.259  34.128  30.002  1.00  0.00     0.198 A 
ATOM     90  C   UNL A   1      46.719  34.778  27.754  1.00  0.00     0.198 A 
ATOM     91  F   UNL A   1      45.679  33.247  26.303  1.00  0.00    -0.203 F 
ATOM     92  F   UNL A   1      47.743  34.434  31.214  1.00  0.00    -0.200 F 
ATOM     93  C   UNL A   1      47.246  35.087  28.999  1.00  0.00     0.200 A 
ATOM     94  F   UNL A   1      46.720  35.698  26.779  1.00  0.00    -0.200 F 
ATOM     95  F   UNL A   1      47.738  36.311  29.234  1.00  0.00    -0.200 F 
ENDBRANCH  62  85
ENDBRANCH  36  37
ENDBRANCH  28  31
ENDBRANCH  26  27
ENDBRANCH  25  26
ENDBRANCH   1  25
TORSDOF 14
ENDMDL
MODEL 3
REMARK VINA RESULT:     -12.8      5.705     11.201
REMARK SMILES CC(C)(Oc1ccc(Cl)cc1)C(=O)N1CCC[C@H](C(=O)NCCCNC(=O)c2ccc(-c3c4nc(c(-c5c(F)c(F)c(F)c(F)c5F)c5ccc([nH]5)c(-c5c(F)c(F)c(F)c(F)c5F)c5nc(c(-c6c(F)c(F)c(F)c(F)c6F)c6ccc3[nH]6)C=C5)C=C4)cc2)C1
REMARK SMILES IDX 22 1 21 2 19 3 20 4 18 6 14 7 15 8 91 9 16 10 17 11 12 12
REMARK SMILES IDX 13 13 2 14 1 15 3 16 4 17 5 18 6 19 11 20 7 21 10 22 8 23
REMARK SMILES IDX 9 24 23 25 24 26 25 27 26 28 27 30 28 31 29 32 90 33 30 34
REMARK SMILES IDX 89 35 31 36 32 37 33 38 83 39 34 40 88 41 82 42 84 43 35 44
REMARK SMILES IDX 87 45 81 46 80 47 36 49 68 50 48 51 67 52 49 53 52 54 66 55
REMARK SMILES IDX 85 56 50 57 51 58 65 60 86 61 53 62 37 63 38 64 46 65 39 66
REMARK SMILES IDX 40 67 44 68 47 69 41 70 42 71 45 72 43 73 69 74 70 75 78 76
REMARK SMILES IDX 71 77 72 78 76 79 79 80 73 81 74 82 77 83 75 84 54 85 55 86
REMARK SMILES IDX 63 87 56 88 57 89 61 90 64 91 58 92 59 93 62 94 60 95
REMARK H PARENT 21 5 25 29 84 48 52 59
REMARK Flexibility Score: inf
ROOT
ATOM      1  C   UNL A   1      37.283  21.188  24.746  1.00  0.00     0.117 C 
ENDROOT
BRANCH   1   2
ATOM      2  N   UNL A   1      36.499  21.533  25.907  1.00  0.00    -0.356 N 
ATOM      3  C   UNL A   1      35.178  21.827  26.021  1.00  0.00     0.224 C 
ATOM      4  O   UNL A   1      34.740  21.923  27.173  1.00  0.00    -0.275 OA
ATOM      5  H   UNL A   1      37.002  21.558  26.752  1.00  0.00     0.163 HD
BRANCH   3   6
ATOM      6  C   UNL A   1      34.235  22.085  24.834  1.00  0.00     0.098 C 
ATOM      7  N   UNL A   1      32.419  23.803  25.177  1.00  0.00    -0.338 N 
ATOM      8  C   UNL A   1      31.390  22.819  24.832  1.00  0.00     0.119 C 
ATOM      9  C   UNL A   1      33.759  23.537  24.655  1.00  0.00     0.133 C 
ATOM     10  C   UNL A   1      31.781  21.390  25.185  1.00  0.00     0.022 C 
ATOM     11  C   UNL A   1      33.157  21.013  24.655  1.00  0.00     0.017 C 
BRANCH   7  12
ATOM     12  C   UNL A   1      32.098  24.812  26.087  1.00  0.00     0.266 C 
ATOM     13  O   UNL A   1      31.592  24.496  27.173  1.00  0.00    -0.270 OA
BRANCH  12  14
ATOM     14  C   UNL A   1      32.186  26.332  25.672  1.00  0.00     0.181 C 
ATOM     15  C   UNL A   1      33.608  26.823  26.026  1.00  0.00     0.067 C 
ATOM     16  C   UNL A   1      31.146  27.011  26.586  1.00  0.00     0.067 C 
BRANCH  14  17
ATOM     17  O   UNL A   1      31.965  26.562  24.270  1.00  0.00    -0.478 OA
BRANCH  17  18
ATOM     18  C   UNL A   1      30.949  27.410  23.921  1.00  0.00     0.121 A 
ATOM     19  C   UNL A   1      31.147  28.781  23.763  1.00  0.00     0.048 A 
ATOM     20  C   UNL A   1      29.699  26.852  23.645  1.00  0.00     0.048 A 
ATOM     21  C   UNL A   1      30.073  29.610  23.430  1.00  0.00     0.024 A 
ATOM     22  C   UNL A   1      28.626  27.678  23.295  1.00  0.00     0.024 A 
ATOM     23  C   UNL A   1      28.814  29.056  23.206  1.00  0.00     0.041 A 
ATOM     24  Cl  UNL A   1      27.489  30.079  22.809  1.00  0.00    -0.084 Cl
ENDBRANCH  17  18
ENDBRANCH  14  17
ENDBRANCH  12  14
ENDBRANCH   7  12
ENDBRANCH   3   6
ENDBRANCH   1   2
BRANCH   1  25
ATOM     25  C   UNL A   1      38.159  19.962  24.930  1.00  0.00     0.042 C 
BRANCH  25  26
ATOM     26  C   UNL A   1      39.185  20.125  26.033  1.00  0.00     0.118 C 
BRANCH  26  27
ATOM     27  N   UNL A   1      40.255  19.132  25.967  1.00  0.00    -0.352 N 
ATOM     28  C   UNL A   1      41.620  19.270  26.058  1.00  0.00     0.251 C 
ATOM     29  H   UNL A   1      39.946  18.206  25.835  1.00  0.00     0.163 HD
ATOM     30  O   UNL A   1      42.346  18.305  25.861  1.00  0.00    -0.269 OA
BRANCH  28  31
ATOM     31  C   UNL A   1      42.219  20.588  26.363  1.00  0.00     0.039 A 
ATOM     32  C   UNL A   1      42.589  21.427  25.306  1.00  0.00     0.014 A 
ATOM     33  C   UNL A   1      42.414  21.004  27.679  1.00  0.00     0.014 A 
ATOM     34  C   UNL A   1      43.079  22.707  25.574  1.00  0.00     0.010 A 
ATOM     35  C   UNL A   1      42.778  22.316  27.943  1.00  0.00     0.010 A 
ATOM     36  C   UNL A   1      43.136  23.175  26.895  1.00  0.00    -0.014 A 
BRANCH  36  37
ATOM     37  C   UNL A   1      43.609  24.542  27.226  1.00  0.00     0.031 A 
ATOM     38  C   UNL A   1      42.641  25.544  27.795  1.00  0.00     0.074 A 
ATOM     39  C   UNL A   1      44.872  24.908  26.934  1.00  0.00     0.049 A 
ATOM     40  N   UNL A   1      42.808  26.819  28.034  1.00  0.00    -0.248 NA
ATOM     41  C   UNL A   1      41.284  25.054  28.087  1.00  0.00     0.031 C 
ATOM     42  C   UNL A   1      45.888  24.045  26.332  1.00  0.00     0.029 A 
ATOM     43  N   UNL A   1      45.511  26.111  27.097  1.00  0.00    -0.354 N 
ATOM     44  C   UNL A   1      41.573  27.284  28.467  1.00  0.00     0.074 A 
ATOM     45  C   UNL A   1      40.649  26.174  28.391  1.00  0.00     0.031 C 
ATOM     46  C   UNL A   1      47.033  24.733  26.210  1.00  0.00     0.029 A 
ATOM     47  C   UNL A   1      46.821  26.097  26.686  1.00  0.00     0.049 A 
ATOM     48  H   UNL A   1      45.073  26.908  27.473  1.00  0.00     0.167 HD
ATOM     49  C   UNL A   1      41.243  28.518  28.920  1.00  0.00     0.037 A 
ATOM     50  C   UNL A   1      47.744  27.077  26.693  1.00  0.00     0.037 A 
ATOM     51  C   UNL A   1      42.181  29.602  29.040  1.00  0.00     0.049 A 
ATOM     52  C   UNL A   1      47.364  28.435  27.217  1.00  0.00     0.074 A 
ATOM     53  C   UNL A   1      41.975  30.869  29.555  1.00  0.00     0.029 A 
ATOM     54  N   UNL A   1      43.509  29.541  28.640  1.00  0.00    -0.354 N 
ATOM     55  N   UNL A   1      46.211  28.848  27.684  1.00  0.00    -0.248 NA
ATOM     56  C   UNL A   1      48.414  29.460  27.217  1.00  0.00     0.031 C 
ATOM     57  C   UNL A   1      43.169  31.588  29.430  1.00  0.00     0.029 A 
ATOM     58  C   UNL A   1      44.131  30.754  28.880  1.00  0.00     0.049 A 
ATOM     59  H   UNL A   1      43.943  28.751  28.244  1.00  0.00     0.167 HD
ATOM     60  C   UNL A   1      46.403  30.170  28.062  1.00  0.00     0.074 A 
ATOM     61  C   UNL A   1      47.788  30.486  27.776  1.00  0.00     0.031 C 
ATOM     62  C   UNL A   1      45.514  31.043  28.597  1.00  0.00     0.037 A 
BRANCH  49  63
ATOM     63  C   UNL A   1      39.813  28.745  29.318  1.00  0.00     0.064 A 
ATOM     64  C   UNL A   1      38.864  29.247  28.412  1.00  0.00     0.173 A 
ATOM     65  C   UNL A   1      39.387  28.472  30.626  1.00  0.00     0.173 A 
ATOM     66  F   UNL A   1      39.221  29.540  27.153  1.00  0.00    -0.203 F 
ATOM     67  C   UNL A   1      37.558  29.514  28.815  1.00  0.00     0.198 A 
ATOM     68  C   UNL A   1      38.070  28.705  31.015  1.00  0.00     0.198 A 
ATOM     69  F   UNL A   1      40.248  27.985  31.532  1.00  0.00    -0.203 F 
ATOM     70  F   UNL A   1      36.693  30.064  27.952  1.00  0.00    -0.200 F 
ATOM     71  C   UNL A   1      37.161  29.239  30.114  1.00  0.00     0.200 A 
ATOM     72  F   UNL A   1      37.683  28.427  32.268  1.00  0.00    -0.200 F 
ATOM     73  F   UNL A   1      35.905  29.501  30.501  1.00  0.00    -0.200 F 
ENDBRANCH  49  63
BRANCH  50  74
ATOM     74  C   UNL A   1      49.129  26.788  26.240  1.00  0.00     0.064 A 
ATOM     75  C   UNL A   1      50.076  26.265  27.132  1.00  0.00     0.173 A 
ATOM     76  C   UNL A   1      49.531  27.003  24.914  1.00  0.00     0.173 A 
ATOM     77  F   UNL A   1      49.744  26.060  28.416  1.00  0.00    -0.203 F 
ATOM     78  C   UNL A   1      51.374  25.976  26.718  1.00  0.00     0.198 A 
ATOM     79  C   UNL A   1      50.823  26.690  24.495  1.00  0.00     0.198 A 
ATOM     80  F   UNL A   1      48.661  27.496  24.020  1.00  0.00    -0.203 F 
ATOM     81  F   UNL A   1      52.268  25.506  27.600  1.00  0.00    -0.200 F 
ATOM     82  C   UNL A   1      51.745  26.182  25.398  1.00  0.00     0.200 A 
ATOM     83  F   UNL A   1      51.173  26.877  23.215  1.00  0.00    -0.200 F 
ATOM     84  F   UNL A   1      52.990  25.895  24.997  1.00  0.00    -0.200 F 
ENDBRANCH  50  74
BRANCH  62  85
ATOM     85  C   UNL A   1      46.021  32.412  28.943  1.00  0.00     0.064 A 
ATOM     86  C   UNL A   1      45.953  33.475  28.032  1.00  0.00     0.173 A 
ATOM     87  C   UNL A   1      46.538  32.671  30.222  1.00  0.00     0.173 A 
ATOM     88  F   UNL A   1      45.481  33.273  26.793  1.00  0.00    -0.203 F 
ATOM     89  C   UNL A   1      46.405  34.744  28.381  1.00  0.00     0.198 A 
ATOM     90  C   UNL A   1      46.961  33.948  30.577  1.00  0.00     0.198 A 
ATOM     91  F   UNL A   1      46.618  31.689  31.132  1.00  0.00    -0.203 F 
ATOM     92  F   UNL A   1      46.372  35.736  27.480  1.00  0.00    -0.200 F 
ATOM     93  C   UNL A   1      46.901  34.982  29.655  1.00  0.00     0.200 A 
ATOM     94  F   UNL A   1      47.427  34.179  31.813  1.00  0.00    -0.200 F 
ATOM     95  F   UNL A   1      47.327  36.207  29.992  1.00  0.00    -0.200 F 
ENDBRANCH  62  85
ENDBRANCH  36  37
ENDBRANCH  28  31
ENDBRANCH  26  27
ENDBRANCH  25  26
ENDBRANCH   1  25
TORSDOF 14
ENDMDL
