MODEL 1
REMARK VINA RESULT:     -12.5      0.000      0.000
REMARK SMILES N#C/C(=C/c1cc2c(cc1Br)OCO2)C(=O)NCCCNC(=O)c1ccc(-c2c3nc(c(-c4c(F)c(F)c(F)c(F)c4F)c4ccc([nH]4)c(-c4c(F)c(F)c(F)c(F)c4F)c4nc(c(-c5c(F)c(F)c(F)c(F)c5F)c5ccc2[nH]5)C=C4)C=C3)cc1
REMARK SMILES IDX 19 1 18 2 17 3 15 4 16 5 3 7 4 8 2 9 1 10 5 11 6 12 10 13
REMARK SMILES IDX 7 14 9 15 11 16 8 17 14 18 12 19 13 20 20 21 21 22 22 23
REMARK SMILES IDX 23 25 24 26 25 27 86 28 26 29 85 30 27 31 28 32 29 33 79 34
REMARK SMILES IDX 30 35 84 36 78 37 80 38 31 39 83 40 77 41 76 42 32 44 64 45
REMARK SMILES IDX 44 46 63 47 45 48 48 49 62 50 81 51 46 52 47 53 61 55 82 56
REMARK SMILES IDX 49 57 33 58 34 59 42 60 35 61 36 62 40 63 43 64 37 65 38 66
REMARK SMILES IDX 41 67 39 68 65 69 66 70 74 71 67 72 68 73 72 74 75 75 69 76
REMARK SMILES IDX 70 77 73 78 71 79 50 80 51 81 59 82 52 83 53 84 57 85 60 86
REMARK SMILES IDX 54 87 55 88 58 89 56 90
REMARK H PARENT 17 6 21 24 80 43 48 54
REMARK Flexibility Score: inf
ROOT
ATOM      1  C   UNL A   1      31.936  27.456  25.775  1.00  0.00     0.042 C 
ENDROOT
BRANCH   1   2
ATOM      2  C   UNL A   1      32.511  26.063  25.639  1.00  0.00     0.118 C 
BRANCH   2   3
ATOM      3  N   UNL A   1      31.942  25.245  24.600  1.00  0.00    -0.351 N 
ATOM      4  C   UNL A   1      31.514  23.954  24.641  1.00  0.00     0.261 C 
ATOM      5  O   UNL A   1      31.016  23.507  23.606  1.00  0.00    -0.268 OA
ATOM      6  H   UNL A   1      31.847  25.688  23.726  1.00  0.00     0.163 HD
BRANCH   4   7
ATOM      7  C   UNL A   1      31.677  23.059  25.826  1.00  0.00     0.117 C 
ATOM      8  C   UNL A   1      32.741  22.391  26.339  1.00  0.00     0.034 C 
BRANCH   7   9
ATOM      9  C   UNL A   1      30.481  23.060  26.765  1.00  0.00     0.105 C 
ATOM     10  N   UNL A   1      29.490  23.062  27.544  1.00  0.00    -0.192 NA
ENDBRANCH   7   9
BRANCH   8  11
ATOM     11  C   UNL A   1      34.126  22.251  25.870  1.00  0.00    -0.006 A 
ATOM     12  C   UNL A   1      34.996  23.318  26.170  1.00  0.00     0.060 A 
ATOM     13  C   UNL A   1      34.637  21.097  25.225  1.00  0.00     0.029 A 
ATOM     14  C   UNL A   1      36.347  23.124  25.979  1.00  0.00     0.166 A 
ATOM     15  C   UNL A   1      36.012  20.956  24.990  1.00  0.00     0.067 A 
ATOM     16  Br  UNL A   1      33.507  19.657  24.719  1.00  0.00    -0.050 Br
ATOM     17  C   UNL A   1      36.841  21.971  25.418  1.00  0.00     0.166 A 
ATOM     18  O   UNL A   1      37.331  23.962  26.398  1.00  0.00    -0.454 OA
ATOM     19  O   UNL A   1      38.201  21.952  25.404  1.00  0.00    -0.454 OA
ATOM     20  C   UNL A   1      38.495  23.137  26.169  1.00  0.00     0.468 C 
ENDBRANCH   8  11
ENDBRANCH   4   7
ENDBRANCH   2   3
ENDBRANCH   1   2
BRANCH   1  21
ATOM     21  C   UNL A   1      32.995  28.546  25.688  1.00  0.00     0.118 C 
BRANCH  21  22
ATOM     22  N   UNL A   1      32.545  29.865  26.132  1.00  0.00    -0.352 N 
ATOM     23  C   UNL A   1      33.114  30.839  26.921  1.00  0.00     0.251 C 
ATOM     24  H   UNL A   1      31.651  30.106  25.798  1.00  0.00     0.163 HD
ATOM     25  O   UNL A   1      32.464  31.845  27.195  1.00  0.00    -0.269 OA
BRANCH  23  26
ATOM     26  C   UNL A   1      34.468  30.679  27.498  1.00  0.00     0.039 A 
ATOM     27  C   UNL A   1      35.295  31.802  27.638  1.00  0.00     0.014 A 
ATOM     28  C   UNL A   1      34.944  29.438  27.897  1.00  0.00     0.014 A 
ATOM     29  C   UNL A   1      36.532  31.688  28.285  1.00  0.00     0.010 A 
ATOM     30  C   UNL A   1      36.092  29.350  28.669  1.00  0.00     0.010 A 
ATOM     31  C   UNL A   1      36.911  30.471  28.867  1.00  0.00    -0.014 A 
BRANCH  31  32
ATOM     32  C   UNL A   1      38.163  30.286  29.650  1.00  0.00     0.031 A 
ATOM     33  C   UNL A   1      39.243  29.388  29.102  1.00  0.00     0.074 A 
ATOM     34  C   UNL A   1      38.268  30.778  30.899  1.00  0.00     0.049 A 
ATOM     35  N   UNL A   1      40.252  28.825  29.716  1.00  0.00    -0.248 NA
ATOM     36  C   UNL A   1      39.123  29.015  27.682  1.00  0.00     0.031 C 
ATOM     37  C   UNL A   1      37.281  31.622  31.572  1.00  0.00     0.029 A 
ATOM     38  N   UNL A   1      39.253  30.606  31.842  1.00  0.00    -0.354 N 
ATOM     39  C   UNL A   1      40.833  27.978  28.781  1.00  0.00     0.074 A 
ATOM     40  C   UNL A   1      40.037  28.063  27.577  1.00  0.00     0.031 C 
ATOM     41  C   UNL A   1      37.716  31.911  32.809  1.00  0.00     0.029 A 
ATOM     42  C   UNL A   1      38.984  31.227  33.038  1.00  0.00     0.049 A 
ATOM     43  H   UNL A   1      40.074  30.089  31.675  1.00  0.00     0.167 HD
ATOM     44  C   UNL A   1      41.943  27.213  28.909  1.00  0.00     0.037 A 
ATOM     45  C   UNL A   1      39.673  31.224  34.195  1.00  0.00     0.037 A 
ATOM     46  C   UNL A   1      42.783  27.208  30.076  1.00  0.00     0.049 A 
ATOM     47  C   UNL A   1      40.949  30.431  34.288  1.00  0.00     0.074 A 
ATOM     48  C   UNL A   1      43.980  26.545  30.278  1.00  0.00     0.029 A 
ATOM     49  N   UNL A   1      42.522  27.929  31.232  1.00  0.00    -0.354 N 
ATOM     50  N   UNL A   1      41.506  29.654  33.391  1.00  0.00    -0.248 NA
ATOM     51  C   UNL A   1      41.692  30.517  35.553  1.00  0.00     0.031 C 
ATOM     52  C   UNL A   1      44.434  26.848  31.566  1.00  0.00     0.029 A 
ATOM     53  C   UNL A   1      43.539  27.730  32.150  1.00  0.00     0.049 A 
ATOM     54  H   UNL A   1      41.732  28.498  31.379  1.00  0.00     0.167 HD
ATOM     55  C   UNL A   1      42.678  29.186  33.968  1.00  0.00     0.074 A 
ATOM     56  C   UNL A   1      42.756  29.770  35.292  1.00  0.00     0.031 C 
ATOM     57  C   UNL A   1      43.608  28.347  33.450  1.00  0.00     0.037 A 
BRANCH  44  58
ATOM     58  C   UNL A   1      42.317  26.331  27.751  1.00  0.00     0.064 A 
ATOM     59  C   UNL A   1      41.763  25.052  27.586  1.00  0.00     0.173 A 
ATOM     60  C   UNL A   1      43.236  26.774  26.788  1.00  0.00     0.173 A 
ATOM     61  F   UNL A   1      40.889  24.574  28.485  1.00  0.00    -0.203 F 
ATOM     62  C   UNL A   1      42.150  24.233  26.529  1.00  0.00     0.198 A 
ATOM     63  C   UNL A   1      43.593  25.966  25.710  1.00  0.00     0.198 A 
ATOM     64  F   UNL A   1      43.791  27.992  26.890  1.00  0.00    -0.203 F 
ATOM     65  F   UNL A   1      41.660  22.989  26.434  1.00  0.00    -0.200 F 
ATOM     66  C   UNL A   1      43.060  24.692  25.589  1.00  0.00     0.200 A 
ATOM     67  F   UNL A   1      44.463  26.417  24.795  1.00  0.00    -0.200 F 
ATOM     68  F   UNL A   1      43.430  23.902  24.572  1.00  0.00    -0.200 F 
ENDBRANCH  44  58
BRANCH  45  69
ATOM     69  C   UNL A   1      39.190  32.028  35.347  1.00  0.00     0.064 A 
ATOM     70  C   UNL A   1      39.511  33.389  35.448  1.00  0.00     0.173 A 
ATOM     71  C   UNL A   1      38.397  31.467  36.357  1.00  0.00     0.173 A 
ATOM     72  F   UNL A   1      40.283  33.964  34.514  1.00  0.00    -0.203 F 
ATOM     73  C   UNL A   1      39.072  34.155  36.525  1.00  0.00     0.198 A 
ATOM     74  C   UNL A   1      37.937  32.241  37.422  1.00  0.00     0.198 A 
ATOM     75  F   UNL A   1      38.053  30.172  36.301  1.00  0.00    -0.203 F 
ATOM     76  F   UNL A   1      39.426  35.444  36.616  1.00  0.00    -0.200 F 
ATOM     77  C   UNL A   1      38.279  33.582  37.509  1.00  0.00     0.200 A 
ATOM     78  F   UNL A   1      37.158  31.688  38.362  1.00  0.00    -0.200 F 
ATOM     79  F   UNL A   1      37.851  34.320  38.541  1.00  0.00    -0.200 F 
ENDBRANCH  45  69
BRANCH  57  80
ATOM     80  C   UNL A   1      44.817  28.055  34.286  1.00  0.00     0.064 A 
ATOM     81  C   UNL A   1      44.868  26.953  35.151  1.00  0.00     0.173 A 
ATOM     82  C   UNL A   1      45.963  28.859  34.171  1.00  0.00     0.173 A 
ATOM     83  F   UNL A   1      43.792  26.166  35.304  1.00  0.00    -0.203 F 
ATOM     84  C   UNL A   1      46.018  26.673  35.882  1.00  0.00     0.198 A 
ATOM     85  C   UNL A   1      47.119  28.561  34.885  1.00  0.00     0.198 A 
ATOM     86  F   UNL A   1      45.964  29.921  33.352  1.00  0.00    -0.203 F 
ATOM     87  F   UNL A   1      46.035  25.635  36.729  1.00  0.00    -0.200 F 
ATOM     88  C   UNL A   1      47.145  27.472  35.742  1.00  0.00     0.200 A 
ATOM     89  F   UNL A   1      48.210  29.325  34.739  1.00  0.00    -0.200 F 
ATOM     90  F   UNL A   1      48.256  27.193  36.439  1.00  0.00    -0.200 F 
ENDBRANCH  57  80
ENDBRANCH  31  32
ENDBRANCH  23  26
ENDBRANCH  21  22
ENDBRANCH   1  21
TORSDOF 12
ENDMDL
MODEL 2
REMARK VINA RESULT:     -12.4      1.424      2.468
REMARK SMILES N#C/C(=C/c1cc2c(cc1Br)OCO2)C(=O)NCCCNC(=O)c1ccc(-c2c3nc(c(-c4c(F)c(F)c(F)c(F)c4F)c4ccc([nH]4)c(-c4c(F)c(F)c(F)c(F)c4F)c4nc(c(-c5c(F)c(F)c(F)c(F)c5F)c5ccc2[nH]5)C=C4)C=C3)cc1
REMARK SMILES IDX 19 1 18 2 17 3 15 4 16 5 3 7 4 8 2 9 1 10 5 11 6 12 10 13
REMARK SMILES IDX 7 14 9 15 11 16 8 17 14 18 12 19 13 20 20 21 21 22 22 23
REMARK SMILES IDX 23 25 24 26 25 27 86 28 26 29 85 30 27 31 28 32 29 33 79 34
REMARK SMILES IDX 30 35 84 36 78 37 80 38 31 39 83 40 77 41 76 42 32 44 64 45
REMARK SMILES IDX 44 46 63 47 45 48 48 49 62 50 81 51 46 52 47 53 61 55 82 56
REMARK SMILES IDX 49 57 33 58 34 59 42 60 35 61 36 62 40 63 43 64 37 65 38 66
REMARK SMILES IDX 41 67 39 68 65 69 66 70 74 71 67 72 68 73 72 74 75 75 69 76
REMARK SMILES IDX 70 77 73 78 71 79 50 80 51 81 59 82 52 83 53 84 57 85 60 86
REMARK SMILES IDX 54 87 55 88 58 89 56 90
REMARK H PARENT 17 6 21 24 80 43 48 54
REMARK Flexibility Score: inf
ROOT
ATOM      1  C   UNL A   1      33.222  27.577  25.696  1.00  0.00     0.042 C 
ENDROOT
BRANCH   1   2
ATOM      2  C   UNL A   1      31.806  27.438  26.211  1.00  0.00     0.118 C 
BRANCH   2   3
ATOM      3  N   UNL A   1      31.513  26.223  26.926  1.00  0.00    -0.351 N 
ATOM      4  C   UNL A   1      31.246  24.975  26.455  1.00  0.00     0.261 C 
ATOM      5  O   UNL A   1      31.076  24.094  27.299  1.00  0.00    -0.268 OA
ATOM      6  H   UNL A   1      31.504  26.308  27.907  1.00  0.00     0.163 HD
BRANCH   4   7
ATOM      7  C   UNL A   1      31.088  24.647  25.006  1.00  0.00     0.117 C 
ATOM      8  C   UNL A   1      31.549  23.630  24.234  1.00  0.00     0.034 C 
BRANCH   7   9
ATOM      9  C   UNL A   1      30.035  25.485  24.299  1.00  0.00     0.105 C 
ATOM     10  N   UNL A   1      29.162  26.180  23.713  1.00  0.00    -0.192 NA
ENDBRANCH   7   9
BRANCH   8  11
ATOM     11  C   UNL A   1      32.441  22.502  24.533  1.00  0.00    -0.006 A 
ATOM     12  C   UNL A   1      31.816  21.276  24.830  1.00  0.00     0.060 A 
ATOM     13  C   UNL A   1      33.855  22.562  24.459  1.00  0.00     0.029 A 
ATOM     14  C   UNL A   1      32.599  20.142  24.865  1.00  0.00     0.166 A 
ATOM     15  C   UNL A   1      34.629  21.397  24.560  1.00  0.00     0.067 A 
ATOM     16  Br  UNL A   1      34.767  24.198  24.144  1.00  0.00    -0.050 Br
ATOM     17  C   UNL A   1      33.964  20.200  24.721  1.00  0.00     0.166 A 
ATOM     18  O   UNL A   1      32.138  18.865  24.938  1.00  0.00    -0.454 OA
ATOM     19  O   UNL A   1      34.529  18.963  24.699  1.00  0.00    -0.454 OA
ATOM     20  C   UNL A   1      33.353  18.131  24.674  1.00  0.00     0.468 C 
ENDBRANCH   8  11
ENDBRANCH   4   7
ENDBRANCH   2   3
ENDBRANCH   1   2
BRANCH   1  21
ATOM     21  C   UNL A   1      33.515  28.961  25.134  1.00  0.00     0.118 C 
BRANCH  21  22
ATOM     22  N   UNL A   1      32.901  30.061  25.879  1.00  0.00    -0.352 N 
ATOM     23  C   UNL A   1      33.330  30.845  26.925  1.00  0.00     0.251 C 
ATOM     24  H   UNL A   1      31.994  30.285  25.569  1.00  0.00     0.163 HD
ATOM     25  O   UNL A   1      32.559  31.667  27.414  1.00  0.00    -0.269 OA
BRANCH  23  26
ATOM     26  C   UNL A   1      34.677  30.683  27.518  1.00  0.00     0.039 A 
ATOM     27  C   UNL A   1      35.519  31.798  27.631  1.00  0.00     0.014 A 
ATOM     28  C   UNL A   1      35.132  29.447  27.957  1.00  0.00     0.014 A 
ATOM     29  C   UNL A   1      36.750  31.684  28.291  1.00  0.00     0.010 A 
ATOM     30  C   UNL A   1      36.273  29.365  28.740  1.00  0.00     0.010 A 
ATOM     31  C   UNL A   1      37.107  30.479  28.911  1.00  0.00    -0.014 A 
BRANCH  31  32
ATOM     32  C   UNL A   1      38.349  30.299  29.710  1.00  0.00     0.031 A 
ATOM     33  C   UNL A   1      39.445  29.416  29.168  1.00  0.00     0.074 A 
ATOM     34  C   UNL A   1      38.434  30.782  30.964  1.00  0.00     0.049 A 
ATOM     35  N   UNL A   1      40.451  28.858  29.792  1.00  0.00    -0.248 NA
ATOM     36  C   UNL A   1      39.347  29.054  27.744  1.00  0.00     0.031 C 
ATOM     37  C   UNL A   1      37.430  31.611  31.631  1.00  0.00     0.029 A 
ATOM     38  N   UNL A   1      39.407  30.612  31.918  1.00  0.00    -0.354 N 
ATOM     39  C   UNL A   1      41.053  28.024  28.858  1.00  0.00     0.074 A 
ATOM     40  C   UNL A   1      40.272  28.112  27.643  1.00  0.00     0.031 C 
ATOM     41  C   UNL A   1      37.845  31.894  32.876  1.00  0.00     0.029 A 
ATOM     42  C   UNL A   1      39.117  31.219  33.116  1.00  0.00     0.049 A 
ATOM     43  H   UNL A   1      40.235  30.103  31.759  1.00  0.00     0.167 HD
ATOM     44  C   UNL A   1      42.168  27.269  28.993  1.00  0.00     0.037 A 
ATOM     45  C   UNL A   1      39.791  31.213  34.281  1.00  0.00     0.037 A 
ATOM     46  C   UNL A   1      42.992  27.262  30.171  1.00  0.00     0.049 A 
ATOM     47  C   UNL A   1      41.072  30.432  34.385  1.00  0.00     0.074 A 
ATOM     48  C   UNL A   1      44.192  26.607  30.384  1.00  0.00     0.029 A 
ATOM     49  N   UNL A   1      42.709  27.970  31.330  1.00  0.00    -0.354 N 
ATOM     50  N   UNL A   1      41.649  29.668  33.490  1.00  0.00    -0.248 NA
ATOM     51  C   UNL A   1      41.798  30.514  35.661  1.00  0.00     0.031 C 
ATOM     52  C   UNL A   1      44.627  26.905  31.680  1.00  0.00     0.029 A 
ATOM     53  C   UNL A   1      43.716  27.773  32.260  1.00  0.00     0.049 A 
ATOM     54  H   UNL A   1      41.912  28.530  31.471  1.00  0.00     0.167 HD
ATOM     55  C   UNL A   1      42.817  29.205  34.078  1.00  0.00     0.074 A 
ATOM     56  C   UNL A   1      42.872  29.779  35.407  1.00  0.00     0.031 C 
ATOM     57  C   UNL A   1      43.762  28.379  33.565  1.00  0.00     0.037 A 
BRANCH  44  58
ATOM     58  C   UNL A   1      42.565  26.400  27.833  1.00  0.00     0.064 A 
ATOM     59  C   UNL A   1      43.483  26.835  26.864  1.00  0.00     0.173 A 
ATOM     60  C   UNL A   1      42.028  25.111  27.693  1.00  0.00     0.173 A 
ATOM     61  F   UNL A   1      44.017  28.062  26.943  1.00  0.00    -0.203 F 
ATOM     62  C   UNL A   1      43.810  26.032  25.774  1.00  0.00     0.198 A 
ATOM     63  C   UNL A   1      42.386  24.296  26.621  1.00  0.00     0.198 A 
ATOM     64  F   UNL A   1      41.152  24.641  28.595  1.00  0.00    -0.203 F 
ATOM     65  F   UNL A   1      44.633  26.498  24.825  1.00  0.00    -0.200 F 
ATOM     66  C   UNL A   1      43.266  24.762  25.657  1.00  0.00     0.200 A 
ATOM     67  F   UNL A   1      41.870  23.064  26.517  1.00  0.00    -0.200 F 
ATOM     68  F   UNL A   1      43.584  23.991  24.608  1.00  0.00    -0.200 F 
ENDBRANCH  44  58
BRANCH  45  69
ATOM     69  C   UNL A   1      39.284  32.003  35.434  1.00  0.00     0.064 A 
ATOM     70  C   UNL A   1      39.604  33.363  35.559  1.00  0.00     0.173 A 
ATOM     71  C   UNL A   1      38.471  31.430  36.421  1.00  0.00     0.173 A 
ATOM     72  F   UNL A   1      40.395  33.949  34.648  1.00  0.00    -0.203 F 
ATOM     73  C   UNL A   1      39.143  34.116  36.636  1.00  0.00     0.198 A 
ATOM     74  C   UNL A   1      37.990  32.191  37.486  1.00  0.00     0.198 A 
ATOM     75  F   UNL A   1      38.128  30.136  36.342  1.00  0.00    -0.203 F 
ATOM     76  F   UNL A   1      39.496  35.403  36.751  1.00  0.00    -0.200 F 
ATOM     77  C   UNL A   1      38.331  33.531  37.596  1.00  0.00     0.200 A 
ATOM     78  F   UNL A   1      37.192  31.626  38.403  1.00  0.00    -0.200 F 
ATOM     79  F   UNL A   1      37.882  34.256  38.629  1.00  0.00    -0.200 F 
ENDBRANCH  45  69
BRANCH  57  80
ATOM     80  C   UNL A   1      44.963  28.092  34.415  1.00  0.00     0.064 A 
ATOM     81  C   UNL A   1      46.103  28.906  34.380  1.00  0.00     0.173 A 
ATOM     82  C   UNL A   1      44.943  27.020  35.322  1.00  0.00     0.173 A 
ATOM     83  F   UNL A   1      46.172  29.933  33.519  1.00  0.00    -0.203 F 
ATOM     84  C   UNL A   1      47.188  28.650  35.213  1.00  0.00     0.198 A 
ATOM     85  C   UNL A   1      46.020  26.782  36.170  1.00  0.00     0.198 A 
ATOM     86  F   UNL A   1      43.871  26.218  35.396  1.00  0.00    -0.203 F 
ATOM     87  F   UNL A   1      48.282  29.419  35.139  1.00  0.00    -0.200 F 
ATOM     88  C   UNL A   1      47.142  27.593  36.112  1.00  0.00     0.200 A 
ATOM     89  F   UNL A   1      45.969  25.770  37.047  1.00  0.00    -0.200 F 
ATOM     90  F   UNL A   1      48.184  27.356  36.921  1.00  0.00    -0.200 F 
ENDBRANCH  57  80
ENDBRANCH  31  32
ENDBRANCH  23  26
ENDBRANCH  21  22
ENDBRANCH   1  21
TORSDOF 12
ENDMDL
MODEL 3
REMARK VINA RESULT:     -12.3      2.359      4.092
REMARK SMILES N#C/C(=C/c1cc2c(cc1Br)OCO2)C(=O)NCCCNC(=O)c1ccc(-c2c3nc(c(-c4c(F)c(F)c(F)c(F)c4F)c4ccc([nH]4)c(-c4c(F)c(F)c(F)c(F)c4F)c4nc(c(-c5c(F)c(F)c(F)c(F)c5F)c5ccc2[nH]5)C=C4)C=C3)cc1
REMARK SMILES IDX 19 1 18 2 17 3 15 4 16 5 3 7 4 8 2 9 1 10 5 11 6 12 10 13
REMARK SMILES IDX 7 14 9 15 11 16 8 17 14 18 12 19 13 20 20 21 21 22 22 23
REMARK SMILES IDX 23 25 24 26 25 27 86 28 26 29 85 30 27 31 28 32 29 33 79 34
REMARK SMILES IDX 30 35 84 36 78 37 80 38 31 39 83 40 77 41 76 42 32 44 64 45
REMARK SMILES IDX 44 46 63 47 45 48 48 49 62 50 81 51 46 52 47 53 61 55 82 56
REMARK SMILES IDX 49 57 33 58 34 59 42 60 35 61 36 62 40 63 43 64 37 65 38 66
REMARK SMILES IDX 41 67 39 68 65 69 66 70 74 71 67 72 68 73 72 74 75 75 69 76
REMARK SMILES IDX 70 77 73 78 71 79 50 80 51 81 59 82 52 83 53 84 57 85 60 86
REMARK SMILES IDX 54 87 55 88 58 89 56 90
REMARK H PARENT 17 6 21 24 80 43 48 54
REMARK Flexibility Score: inf
ROOT
ATOM      1  C   UNL A   1      32.325  28.536  27.096  1.00  0.00     0.042 C 
ENDROOT
BRANCH   1   2
ATOM      2  C   UNL A   1      32.066  27.215  26.404  1.00  0.00     0.118 C 
BRANCH   2   3
ATOM      3  N   UNL A   1      30.847  26.542  26.768  1.00  0.00    -0.351 N 
ATOM      4  C   UNL A   1      30.123  25.616  26.084  1.00  0.00     0.261 C 
ATOM      5  O   UNL A   1      29.131  25.161  26.657  1.00  0.00    -0.268 OA
ATOM      6  H   UNL A   1      30.481  26.791  27.648  1.00  0.00     0.163 HD
BRANCH   4   7
ATOM      7  C   UNL A   1      30.426  25.187  24.686  1.00  0.00     0.117 C 
ATOM      8  C   UNL A   1      30.453  25.850  23.502  1.00  0.00     0.034 C 
BRANCH   7   9
ATOM      9  C   UNL A   1      31.029  23.795  24.588  1.00  0.00     0.105 C 
ATOM     10  N   UNL A   1      31.530  22.640  24.507  1.00  0.00    -0.192 NA
ENDBRANCH   7   9
BRANCH   8  11
ATOM     11  C   UNL A   1      30.124  27.238  23.151  1.00  0.00    -0.006 A 
ATOM     12  C   UNL A   1      28.760  27.584  23.190  1.00  0.00     0.060 A 
ATOM     13  C   UNL A   1      31.088  28.238  22.866  1.00  0.00     0.029 A 
ATOM     14  C   UNL A   1      28.430  28.921  23.120  1.00  0.00     0.166 A 
ATOM     15  C   UNL A   1      30.711  29.582  22.739  1.00  0.00     0.067 A 
ATOM     16  Br  UNL A   1      32.936  27.826  22.718  1.00  0.00    -0.050 Br
ATOM     17  C   UNL A   1      29.379  29.892  22.915  1.00  0.00     0.166 A 
ATOM     18  O   UNL A   1      27.193  29.440  23.340  1.00  0.00    -0.454 OA
ATOM     19  O   UNL A   1      28.850  31.143  22.967  1.00  0.00    -0.454 OA
ATOM     20  C   UNL A   1      27.506  30.850  23.396  1.00  0.00     0.468 C 
ENDBRANCH   8  11
ENDBRANCH   4   7
ENDBRANCH   2   3
ENDBRANCH   1   2
BRANCH   1  21
ATOM     21  C   UNL A   1      32.943  29.578  26.174  1.00  0.00     0.118 C 
BRANCH  21  22
ATOM     22  N   UNL A   1      32.698  30.963  26.573  1.00  0.00    -0.352 N 
ATOM     23  C   UNL A   1      33.413  31.869  27.323  1.00  0.00     0.251 C 
ATOM     24  H   UNL A   1      31.844  31.321  26.238  1.00  0.00     0.163 HD
ATOM     25  O   UNL A   1      32.921  32.968  27.566  1.00  0.00    -0.269 OA
BRANCH  23  26
ATOM     26  C   UNL A   1      34.737  31.532  27.895  1.00  0.00     0.039 A 
ATOM     27  C   UNL A   1      35.730  32.519  27.963  1.00  0.00     0.014 A 
ATOM     28  C   UNL A   1      35.022  30.255  28.358  1.00  0.00     0.014 A 
ATOM     29  C   UNL A   1      36.946  32.248  28.603  1.00  0.00     0.010 A 
ATOM     30  C   UNL A   1      36.157  30.032  29.123  1.00  0.00     0.010 A 
ATOM     31  C   UNL A   1      37.143  31.020  29.249  1.00  0.00    -0.014 A 
BRANCH  31  32
ATOM     32  C   UNL A   1      38.365  30.685  30.029  1.00  0.00     0.031 A 
ATOM     33  C   UNL A   1      39.367  29.725  29.441  1.00  0.00     0.074 A 
ATOM     34  C   UNL A   1      38.500  31.101  31.303  1.00  0.00     0.049 A 
ATOM     35  N   UNL A   1      40.317  29.045  30.032  1.00  0.00    -0.248 NA
ATOM     36  C   UNL A   1      39.231  29.438  28.003  1.00  0.00     0.031 C 
ATOM     37  C   UNL A   1      37.584  31.994  32.013  1.00  0.00     0.029 A 
ATOM     38  N   UNL A   1      39.456  30.795  32.241  1.00  0.00    -0.354 N 
ATOM     39  C   UNL A   1      40.831  28.198  29.057  1.00  0.00     0.074 A 
ATOM     40  C   UNL A   1      40.059  28.415  27.854  1.00  0.00     0.031 C 
ATOM     41  C   UNL A   1      38.029  32.179  33.266  1.00  0.00     0.029 A 
ATOM     42  C   UNL A   1      39.229  31.374  33.466  1.00  0.00     0.049 A 
ATOM     43  H   UNL A   1      40.229  30.216  32.053  1.00  0.00     0.167 HD
ATOM     44  C   UNL A   1      41.868  27.333  29.151  1.00  0.00     0.037 A 
ATOM     45  C   UNL A   1      39.903  31.251  34.625  1.00  0.00     0.037 A 
ATOM     46  C   UNL A   1      42.692  27.194  30.322  1.00  0.00     0.049 A 
ATOM     47  C   UNL A   1      41.103  30.345  34.685  1.00  0.00     0.074 A 
ATOM     48  C   UNL A   1      43.824  26.418  30.496  1.00  0.00     0.029 A 
ATOM     49  N   UNL A   1      42.483  27.874  31.512  1.00  0.00    -0.354 N 
ATOM     50  N   UNL A   1      41.600  29.570  33.752  1.00  0.00    -0.248 NA
ATOM     51  C   UNL A   1      41.837  30.300  35.957  1.00  0.00     0.031 C 
ATOM     52  C   UNL A   1      44.289  26.614  31.801  1.00  0.00     0.029 A 
ATOM     53  C   UNL A   1      43.469  27.539  32.425  1.00  0.00     0.049 A 
ATOM     54  H   UNL A   1      41.745  28.502  31.684  1.00  0.00     0.167 HD
ATOM     55  C   UNL A   1      42.720  28.970  34.311  1.00  0.00     0.074 A 
ATOM     56  C   UNL A   1      42.834  29.476  35.664  1.00  0.00     0.031 C 
ATOM     57  C   UNL A   1      43.578  28.080  33.756  1.00  0.00     0.037 A 
BRANCH  44  58
ATOM     58  C   UNL A   1      42.176  26.482  27.951  1.00  0.00     0.064 A 
ATOM     59  C   UNL A   1      43.128  26.869  26.995  1.00  0.00     0.173 A 
ATOM     60  C   UNL A   1      41.515  25.260  27.759  1.00  0.00     0.173 A 
ATOM     61  F   UNL A   1      43.779  28.034  27.124  1.00  0.00    -0.203 F 
ATOM     62  C   UNL A   1      43.372  26.088  25.869  1.00  0.00     0.198 A 
ATOM     63  C   UNL A   1      41.789  24.462  26.650  1.00  0.00     0.198 A 
ATOM     64  F   UNL A   1      40.600  24.837  28.646  1.00  0.00    -0.203 F 
ATOM     65  F   UNL A   1      44.234  26.513  24.935  1.00  0.00    -0.200 F 
ATOM     66  C   UNL A   1      42.707  24.882  25.700  1.00  0.00     0.200 A 
ATOM     67  F   UNL A   1      41.155  23.291  26.495  1.00  0.00    -0.200 F 
ATOM     68  F   UNL A   1      42.944  24.131  24.616  1.00  0.00    -0.200 F 
ENDBRANCH  44  58
BRANCH  45  69
ATOM     69  C   UNL A   1      39.480  32.035  35.815  1.00  0.00     0.064 A 
ATOM     70  C   UNL A   1      40.064  33.279  36.091  1.00  0.00     0.173 A 
ATOM     71  C   UNL A   1      38.487  31.571  36.688  1.00  0.00     0.173 A 
ATOM     72  F   UNL A   1      41.032  33.754  35.293  1.00  0.00    -0.203 F 
ATOM     73  C   UNL A   1      39.684  34.023  37.206  1.00  0.00     0.198 A 
ATOM     74  C   UNL A   1      38.089  32.328  37.790  1.00  0.00     0.198 A 
ATOM     75  F   UNL A   1      37.890  30.392  36.463  1.00  0.00    -0.203 F 
ATOM     76  F   UNL A   1      40.286  35.190  37.467  1.00  0.00    -0.200 F 
ATOM     77  C   UNL A   1      38.692  33.549  38.052  1.00  0.00     0.200 A 
ATOM     78  F   UNL A   1      37.119  31.874  38.597  1.00  0.00    -0.200 F 
ATOM     79  F   UNL A   1      38.321  34.267  39.120  1.00  0.00    -0.200 F 
ENDBRANCH  45  69
BRANCH  57  80
ATOM     80  C   UNL A   1      44.748  27.640  34.583  1.00  0.00     0.064 A 
ATOM     81  C   UNL A   1      45.952  28.357  34.596  1.00  0.00     0.173 A 
ATOM     82  C   UNL A   1      44.635  26.519  35.420  1.00  0.00     0.173 A 
ATOM     83  F   UNL A   1      46.110  29.426  33.801  1.00  0.00    -0.203 F 
ATOM     84  C   UNL A   1      47.010  27.958  35.408  1.00  0.00     0.198 A 
ATOM     85  C   UNL A   1      45.687  26.139  36.250  1.00  0.00     0.198 A 
ATOM     86  F   UNL A   1      43.500  25.806  35.446  1.00  0.00    -0.203 F 
ATOM     87  F   UNL A   1      48.165  28.636  35.381  1.00  0.00    -0.200 F 
ATOM     88  C   UNL A   1      46.873  26.855  36.240  1.00  0.00     0.200 A 
ATOM     89  F   UNL A   1      45.548  25.082  37.061  1.00  0.00    -0.200 F 
ATOM     90  F   UNL A   1      47.889  26.481  37.030  1.00  0.00    -0.200 F 
ENDBRANCH  57  80
ENDBRANCH  31  32
ENDBRANCH  23  26
ENDBRANCH  21  22
ENDBRANCH   1  21
TORSDOF 12
ENDMDL
