MODEL 1
REMARK VINA RESULT:     -11.5      0.000      0.000
REMARK SMILES Cc1cc(Br)cc([N+](=O)[O-])c1OCCC[C@@](C)([NH3+])C(=O)NCCCNC(=O)c1ccc(-c2c3nc(c(-c4c(F)c(F)c(F)c(F)c4F)c4ccc([nH]4)c(-c4c(F)c(F)c(F)c(F)c4F)c4nc(c(-c5c(F)c(F)c(F)c(F)c5F)c5ccc2[nH]5)C=C4)C=C3)cc1
REMARK SMILES IDX 19 1 20 2 21 3 16 5 17 6 15 7 14 8 13 9 12 10 11 11 1 12
REMARK SMILES IDX 2 13 3 14 4 15 7 16 5 17 6 18 8 19 9 20 10 21 18 22 22 26
REMARK SMILES IDX 23 27 24 28 25 29 26 30 27 32 28 33 29 34 90 35 30 36 89 37
REMARK SMILES IDX 31 38 32 39 33 40 83 41 34 42 88 43 82 44 84 45 35 46 87 47
REMARK SMILES IDX 81 48 80 49 36 51 68 52 48 53 67 54 49 55 52 56 66 57 85 58
REMARK SMILES IDX 50 59 51 60 65 62 86 63 53 64 37 65 38 66 46 67 39 68 40 69
REMARK SMILES IDX 44 70 47 71 41 72 42 73 45 74 43 75 69 76 70 77 78 78 71 79
REMARK SMILES IDX 72 80 76 81 79 82 73 83 74 84 77 85 75 86 54 87 55 88 63 89
REMARK SMILES IDX 56 90 57 91 61 92 64 93 58 94 59 95 62 96 60 97
REMARK H PARENT 21 4 18 23 18 24 18 25 25 31 84 50 52 61
REMARK Flexibility Score: inf
ROOT
ATOM      1  C   UNL A   1      33.302  29.348  25.973  1.00  0.00     0.280 C 
ATOM      2  O   UNL A   1      34.333  29.192  26.638  1.00  0.00    -0.268 OA
ATOM      3  N   UNL A   1      32.454  30.279  26.484  1.00  0.00    -0.351 N 
ATOM      4  H   UNL A   1      32.633  30.489  27.429  1.00  0.00     0.163 HD
ENDROOT
BRANCH   1   5
ATOM      5  C   UNL A   1      33.075  28.568  24.641  1.00  0.00     0.171 C 
ATOM      6  C   UNL A   1      34.085  27.412  24.657  1.00  0.00     0.090 C 
BRANCH   5   7
ATOM      7  C   UNL A   1      31.611  28.028  24.433  1.00  0.00     0.082 C 
BRANCH   7   8
ATOM      8  C   UNL A   1      31.336  26.782  23.563  1.00  0.00     0.049 C 
BRANCH   8   9
ATOM      9  C   UNL A   1      30.518  25.619  24.190  1.00  0.00     0.230 C 
BRANCH   9  10
ATOM     10  O   UNL A   1      30.902  24.359  23.613  1.00  0.00    -0.487 OA
BRANCH  10  11
ATOM     11  C   UNL A   1      32.083  23.785  24.042  1.00  0.00     0.200 A 
ATOM     12  C   UNL A   1      33.078  23.803  21.693  1.00  0.00     0.049 C 
ATOM     13  C   UNL A   1      33.191  23.782  23.175  1.00  0.00    -0.001 A 
ATOM     14  C   UNL A   1      34.499  23.792  23.686  1.00  0.00     0.023 A 
ATOM     15  C   UNL A   1      34.725  23.707  25.048  1.00  0.00     0.025 A 
ATOM     16  C   UNL A   1      32.335  23.581  25.411  1.00  0.00     0.312 A 
ATOM     17  Br  UNL A   1      36.494  23.802  25.699  1.00  0.00    -0.051 Br
ATOM     18  C   UNL A   1      33.654  23.543  25.914  1.00  0.00     0.105 A 
BRANCH  16  19
ATOM     19  N   UNL A   1      31.252  23.308  26.356  1.00  0.00     0.066 N 
ATOM     20  O   UNL A   1      30.505  22.350  26.107  1.00  0.00    -0.258 OA
ATOM     21  O   UNL A   1      31.083  24.095  27.297  1.00  0.00    -0.258 OA
ENDBRANCH  16  19
ENDBRANCH  10  11
ENDBRANCH   9  10
ENDBRANCH   8   9
ENDBRANCH   7   8
ENDBRANCH   5   7
BRANCH   5  22
ATOM     22  N   UNL A   1      33.428  29.365  23.437  1.00  0.00    -0.345 N 
ATOM     23  H   UNL A   1      33.332  28.784  22.605  1.00  0.00     0.345 HD
ATOM     24  H   UNL A   1      34.391  29.691  23.516  1.00  0.00     0.345 HD
ATOM     25  H   UNL A   1      32.802  30.167  23.365  1.00  0.00     0.345 HD
ENDBRANCH   5  22
ENDBRANCH   1   5
BRANCH   3  26
ATOM     26  C   UNL A   1      31.340  31.030  25.930  1.00  0.00     0.118 C 
BRANCH  26  27
ATOM     27  C   UNL A   1      31.214  32.420  26.554  1.00  0.00     0.042 C 
BRANCH  27  28
ATOM     28  C   UNL A   1      32.463  32.909  27.288  1.00  0.00     0.118 C 
BRANCH  28  29
ATOM     29  N   UNL A   1      32.381  34.313  27.673  1.00  0.00    -0.352 N 
ATOM     30  C   UNL A   1      33.029  35.015  28.652  1.00  0.00     0.251 C 
ATOM     31  H   UNL A   1      31.751  34.846  27.137  1.00  0.00     0.163 HD
ATOM     32  O   UNL A   1      32.632  36.146  28.949  1.00  0.00    -0.269 OA
BRANCH  30  33
ATOM     33  C   UNL A   1      34.187  34.444  29.367  1.00  0.00     0.039 A 
ATOM     34  C   UNL A   1      33.984  33.857  30.619  1.00  0.00     0.014 A 
ATOM     35  C   UNL A   1      35.477  34.533  28.840  1.00  0.00     0.014 A 
ATOM     36  C   UNL A   1      35.062  33.301  31.311  1.00  0.00     0.010 A 
ATOM     37  C   UNL A   1      36.538  33.909  29.492  1.00  0.00     0.010 A 
ATOM     38  C   UNL A   1      36.343  33.290  30.736  1.00  0.00    -0.014 A 
BRANCH  38  39
ATOM     39  C   UNL A   1      37.488  32.631  31.416  1.00  0.00     0.031 A 
ATOM     40  C   UNL A   1      38.193  31.472  30.772  1.00  0.00     0.074 A 
ATOM     41  C   UNL A   1      37.847  33.036  32.650  1.00  0.00     0.049 A 
ATOM     42  N   UNL A   1      39.172  30.734  31.233  1.00  0.00    -0.248 NA
ATOM     43  C   UNL A   1      37.715  31.068  29.441  1.00  0.00     0.031 C 
ATOM     44  C   UNL A   1      37.216  34.124  33.398  1.00  0.00     0.029 A 
ATOM     45  N   UNL A   1      38.826  32.576  33.493  1.00  0.00    -0.354 N 
ATOM     46  C   UNL A   1      39.414  29.774  30.261  1.00  0.00     0.074 A 
ATOM     47  C   UNL A   1      38.439  29.984  29.212  1.00  0.00     0.031 C 
ATOM     48  C   UNL A   1      37.848  34.273  34.571  1.00  0.00     0.029 A 
ATOM     49  C   UNL A   1      38.897  33.265  34.680  1.00  0.00     0.049 A 
ATOM     50  H   UNL A   1      39.421  31.825  33.269  1.00  0.00     0.167 HD
ATOM     51  C   UNL A   1      40.373  28.816  30.235  1.00  0.00     0.037 A 
ATOM     52  C   UNL A   1      39.716  33.099  35.735  1.00  0.00     0.037 A 
ATOM     53  C   UNL A   1      41.348  28.621  31.277  1.00  0.00     0.049 A 
ATOM     54  C   UNL A   1      40.751  32.009  35.699  1.00  0.00     0.074 A 
ATOM     55  C   UNL A   1      42.401  27.725  31.319  1.00  0.00     0.029 A 
ATOM     56  N   UNL A   1      41.379  29.328  32.472  1.00  0.00    -0.354 N 
ATOM     57  N   UNL A   1      41.021  31.154  34.743  1.00  0.00    -0.248 NA
ATOM     58  C   UNL A   1      41.597  31.865  36.891  1.00  0.00     0.031 C 
ATOM     59  C   UNL A   1      43.031  27.847  32.564  1.00  0.00     0.029 A 
ATOM     60  C   UNL A   1      42.410  28.863  33.272  1.00  0.00     0.049 A 
ATOM     61  H   UNL A   1      40.758  30.054  32.715  1.00  0.00     0.167 HD
ATOM     62  C   UNL A   1      42.086  30.392  35.201  1.00  0.00     0.074 A 
ATOM     63  C   UNL A   1      42.420  30.894  36.518  1.00  0.00     0.031 C 
ATOM     64  C   UNL A   1      42.734  29.372  34.583  1.00  0.00     0.037 A 
BRANCH  51  65
ATOM     65  C   UNL A   1      40.397  27.898  29.043  1.00  0.00     0.064 A 
ATOM     66  C   UNL A   1      41.156  28.187  27.898  1.00  0.00     0.173 A 
ATOM     67  C   UNL A   1      39.645  26.712  29.044  1.00  0.00     0.173 A 
ATOM     68  F   UNL A   1      41.888  29.309  27.839  1.00  0.00    -0.203 F 
ATOM     69  C   UNL A   1      41.117  27.356  26.781  1.00  0.00     0.198 A 
ATOM     70  C   UNL A   1      39.639  25.864  27.939  1.00  0.00     0.198 A 
ATOM     71  F   UNL A   1      38.908  26.378  30.114  1.00  0.00    -0.203 F 
ATOM     72  F   UNL A   1      41.790  27.695  25.672  1.00  0.00    -0.200 F 
ATOM     73  C   UNL A   1      40.363  26.194  26.804  1.00  0.00     0.200 A 
ATOM     74  F   UNL A   1      38.922  24.733  27.970  1.00  0.00    -0.200 F 
ATOM     75  F   UNL A   1      40.322  25.397  25.727  1.00  0.00    -0.200 F 
ENDBRANCH  51  65
BRANCH  52  76
ATOM     76  C   UNL A   1      39.618  34.023  36.894  1.00  0.00     0.064 A 
ATOM     77  C   UNL A   1      38.848  33.679  38.015  1.00  0.00     0.173 A 
ATOM     78  C   UNL A   1      40.298  35.249  36.921  1.00  0.00     0.173 A 
ATOM     79  F   UNL A   1      38.163  32.526  38.028  1.00  0.00    -0.203 F 
ATOM     80  C   UNL A   1      38.754  34.530  39.113  1.00  0.00     0.198 A 
ATOM     81  C   UNL A   1      40.228  36.086  38.033  1.00  0.00     0.198 A 
ATOM     82  F   UNL A   1      41.053  35.620  35.878  1.00  0.00    -0.203 F 
ATOM     83  F   UNL A   1      37.985  34.193  40.156  1.00  0.00    -0.200 F 
ATOM     84  C   UNL A   1      39.451  35.730  39.125  1.00  0.00     0.200 A 
ATOM     85  F   UNL A   1      40.915  37.236  38.047  1.00  0.00    -0.200 F 
ATOM     86  F   UNL A   1      39.372  36.543  40.187  1.00  0.00    -0.200 F 
ENDBRANCH  52  76
BRANCH  64  87
ATOM     87  C   UNL A   1      43.894  28.753  35.309  1.00  0.00     0.064 A 
ATOM     88  C   UNL A   1      45.210  29.203  35.124  1.00  0.00     0.173 A 
ATOM     89  C   UNL A   1      43.681  27.714  36.230  1.00  0.00     0.173 A 
ATOM     90  F   UNL A   1      45.472  30.181  34.244  1.00  0.00    -0.203 F 
ATOM     91  C   UNL A   1      46.270  28.619  35.812  1.00  0.00     0.198 A 
ATOM     92  C   UNL A   1      44.739  27.157  36.943  1.00  0.00     0.198 A 
ATOM     93  F   UNL A   1      42.442  27.249  36.449  1.00  0.00    -0.203 F 
ATOM     94  F   UNL A   1      47.526  29.029  35.580  1.00  0.00    -0.200 F 
ATOM     95  C   UNL A   1      46.034  27.603  36.727  1.00  0.00     0.200 A 
ATOM     96  F   UNL A   1      44.506  26.186  37.836  1.00  0.00    -0.200 F 
ATOM     97  F   UNL A   1      47.055  27.048  37.394  1.00  0.00    -0.200 F 
ENDBRANCH  64  87
ENDBRANCH  38  39
ENDBRANCH  30  33
ENDBRANCH  28  29
ENDBRANCH  27  28
ENDBRANCH  26  27
ENDBRANCH   3  26
TORSDOF 17
ENDMDL
MODEL 2
REMARK VINA RESULT:     -11.4      1.265      2.023
REMARK SMILES Cc1cc(Br)cc([N+](=O)[O-])c1OCCC[C@@](C)([NH3+])C(=O)NCCCNC(=O)c1ccc(-c2c3nc(c(-c4c(F)c(F)c(F)c(F)c4F)c4ccc([nH]4)c(-c4c(F)c(F)c(F)c(F)c4F)c4nc(c(-c5c(F)c(F)c(F)c(F)c5F)c5ccc2[nH]5)C=C4)C=C3)cc1
REMARK SMILES IDX 19 1 20 2 21 3 16 5 17 6 15 7 14 8 13 9 12 10 11 11 1 12
REMARK SMILES IDX 2 13 3 14 4 15 7 16 5 17 6 18 8 19 9 20 10 21 18 22 22 26
REMARK SMILES IDX 23 27 24 28 25 29 26 30 27 32 28 33 29 34 90 35 30 36 89 37
REMARK SMILES IDX 31 38 32 39 33 40 83 41 34 42 88 43 82 44 84 45 35 46 87 47
REMARK SMILES IDX 81 48 80 49 36 51 68 52 48 53 67 54 49 55 52 56 66 57 85 58
REMARK SMILES IDX 50 59 51 60 65 62 86 63 53 64 37 65 38 66 46 67 39 68 40 69
REMARK SMILES IDX 44 70 47 71 41 72 42 73 45 74 43 75 69 76 70 77 78 78 71 79
REMARK SMILES IDX 72 80 76 81 79 82 73 83 74 84 77 85 75 86 54 87 55 88 63 89
REMARK SMILES IDX 56 90 57 91 61 92 64 93 58 94 59 95 62 96 60 97
REMARK H PARENT 21 4 18 23 18 24 18 25 25 31 84 50 52 61
REMARK Flexibility Score: inf
ROOT
ATOM      1  C   UNL A   1      31.059  29.436  24.108  1.00  0.00     0.280 C 
ATOM      2  O   UNL A   1      30.223  29.388  23.198  1.00  0.00    -0.268 OA
ATOM      3  N   UNL A   1      30.937  30.527  24.908  1.00  0.00    -0.351 N 
ATOM      4  H   UNL A   1      30.405  31.249  24.501  1.00  0.00     0.163 HD
ENDROOT
BRANCH   1   5
ATOM      5  C   UNL A   1      32.095  28.288  24.313  1.00  0.00     0.171 C 
ATOM      6  C   UNL A   1      33.477  28.949  24.214  1.00  0.00     0.090 C 
BRANCH   5   7
ATOM      7  C   UNL A   1      31.948  27.500  25.669  1.00  0.00     0.082 C 
BRANCH   7   8
ATOM      8  C   UNL A   1      32.376  26.020  25.782  1.00  0.00     0.049 C 
BRANCH   8   9
ATOM      9  C   UNL A   1      33.894  25.704  25.878  1.00  0.00     0.230 C 
BRANCH   9  10
ATOM     10  O   UNL A   1      34.431  25.388  24.582  1.00  0.00    -0.487 OA
BRANCH  10  11
ATOM     11  C   UNL A   1      34.524  24.057  24.228  1.00  0.00     0.200 A 
ATOM     12  C   UNL A   1      36.686  23.738  25.542  1.00  0.00     0.049 C 
ATOM     13  C   UNL A   1      35.441  23.234  24.908  1.00  0.00    -0.001 A 
ATOM     14  C   UNL A   1      35.198  21.859  25.053  1.00  0.00     0.023 A 
ATOM     15  C   UNL A   1      34.102  21.269  24.447  1.00  0.00     0.025 A 
ATOM     16  C   UNL A   1      33.485  23.421  23.524  1.00  0.00     0.312 A 
ATOM     17  Br  UNL A   1      33.767  19.433  24.729  1.00  0.00    -0.051 Br
ATOM     18  C   UNL A   1      33.273  22.028  23.634  1.00  0.00     0.105 A 
BRANCH  16  19
ATOM     19  N   UNL A   1      32.639  24.151  22.581  1.00  0.00     0.066 N 
ATOM     20  O   UNL A   1      33.196  24.676  21.604  1.00  0.00    -0.258 OA
ATOM     21  O   UNL A   1      31.438  24.285  22.851  1.00  0.00    -0.258 OA
ENDBRANCH  16  19
ENDBRANCH  10  11
ENDBRANCH   9  10
ENDBRANCH   8   9
ENDBRANCH   7   8
ENDBRANCH   5   7
BRANCH   5  22
ATOM     22  N   UNL A   1      32.073  27.286  23.215  1.00  0.00    -0.345 N 
ATOM     23  H   UNL A   1      33.000  27.220  22.796  1.00  0.00     0.345 HD
ATOM     24  H   UNL A   1      31.398  27.574  22.506  1.00  0.00     0.345 HD
ATOM     25  H   UNL A   1      31.804  26.376  23.590  1.00  0.00     0.345 HD
ENDBRANCH   5  22
ENDBRANCH   1   5
BRANCH   3  26
ATOM     26  C   UNL A   1      31.426  30.853  26.237  1.00  0.00     0.118 C 
BRANCH  26  27
ATOM     27  C   UNL A   1      31.380  32.355  26.517  1.00  0.00     0.042 C 
BRANCH  27  28
ATOM     28  C   UNL A   1      32.646  32.927  27.157  1.00  0.00     0.118 C 
BRANCH  28  29
ATOM     29  N   UNL A   1      32.468  34.288  27.648  1.00  0.00    -0.352 N 
ATOM     30  C   UNL A   1      33.037  34.943  28.706  1.00  0.00     0.251 C 
ATOM     31  H   UNL A   1      31.827  34.828  27.131  1.00  0.00     0.163 HD
ATOM     32  O   UNL A   1      32.563  36.023  29.075  1.00  0.00    -0.269 OA
BRANCH  30  33
ATOM     33  C   UNL A   1      34.199  34.382  29.420  1.00  0.00     0.039 A 
ATOM     34  C   UNL A   1      33.992  33.733  30.641  1.00  0.00     0.014 A 
ATOM     35  C   UNL A   1      35.496  34.537  28.925  1.00  0.00     0.014 A 
ATOM     36  C   UNL A   1      35.075  33.185  31.332  1.00  0.00     0.010 A 
ATOM     37  C   UNL A   1      36.565  33.922  29.573  1.00  0.00     0.010 A 
ATOM     38  C   UNL A   1      36.367  33.243  30.784  1.00  0.00    -0.014 A 
BRANCH  38  39
ATOM     39  C   UNL A   1      37.520  32.593  31.459  1.00  0.00     0.031 A 
ATOM     40  C   UNL A   1      38.239  31.446  30.808  1.00  0.00     0.074 A 
ATOM     41  C   UNL A   1      37.876  32.996  32.695  1.00  0.00     0.049 A 
ATOM     42  N   UNL A   1      39.227  30.718  31.265  1.00  0.00    -0.248 NA
ATOM     43  C   UNL A   1      37.765  31.045  29.476  1.00  0.00     0.031 C 
ATOM     44  C   UNL A   1      37.232  34.072  33.450  1.00  0.00     0.029 A 
ATOM     45  N   UNL A   1      38.861  32.543  33.534  1.00  0.00    -0.354 N 
ATOM     46  C   UNL A   1      39.480  29.766  30.287  1.00  0.00     0.074 A 
ATOM     47  C   UNL A   1      38.501  29.970  29.240  1.00  0.00     0.031 C 
ATOM     48  C   UNL A   1      37.863  34.223  34.623  1.00  0.00     0.029 A 
ATOM     49  C   UNL A   1      38.925  33.226  34.725  1.00  0.00     0.049 A 
ATOM     50  H   UNL A   1      39.465  31.800  33.306  1.00  0.00     0.167 HD
ATOM     51  C   UNL A   1      40.451  28.821  30.255  1.00  0.00     0.037 A 
ATOM     52  C   UNL A   1      39.747  33.064  35.779  1.00  0.00     0.037 A 
ATOM     53  C   UNL A   1      41.428  28.631  31.294  1.00  0.00     0.049 A 
ATOM     54  C   UNL A   1      40.795  31.987  35.736  1.00  0.00     0.074 A 
ATOM     55  C   UNL A   1      42.493  27.748  31.331  1.00  0.00     0.029 A 
ATOM     56  N   UNL A   1      41.452  29.332  32.494  1.00  0.00    -0.354 N 
ATOM     57  N   UNL A   1      41.074  31.141  34.775  1.00  0.00    -0.248 NA
ATOM     58  C   UNL A   1      41.644  31.847  36.926  1.00  0.00     0.031 C 
ATOM     59  C   UNL A   1      43.122  27.870  32.575  1.00  0.00     0.029 A 
ATOM     60  C   UNL A   1      42.490  28.875  33.290  1.00  0.00     0.049 A 
ATOM     61  H   UNL A   1      40.823  30.049  32.741  1.00  0.00     0.167 HD
ATOM     62  C   UNL A   1      42.150  30.389  35.228  1.00  0.00     0.074 A 
ATOM     63  C   UNL A   1      42.478  30.888  36.547  1.00  0.00     0.031 C 
ATOM     64  C   UNL A   1      42.808  29.381  34.604  1.00  0.00     0.037 A 
BRANCH  51  65
ATOM     65  C   UNL A   1      40.485  27.909  29.058  1.00  0.00     0.064 A 
ATOM     66  C   UNL A   1      41.272  28.192  27.931  1.00  0.00     0.173 A 
ATOM     67  C   UNL A   1      39.713  26.737  29.035  1.00  0.00     0.173 A 
ATOM     68  F   UNL A   1      42.024  29.302  27.894  1.00  0.00    -0.203 F 
ATOM     69  C   UNL A   1      41.244  27.369  26.808  1.00  0.00     0.198 A 
ATOM     70  C   UNL A   1      39.716  25.895  27.925  1.00  0.00     0.198 A 
ATOM     71  F   UNL A   1      38.947  26.408  30.087  1.00  0.00    -0.203 F 
ATOM     72  F   UNL A   1      41.945  27.703  25.716  1.00  0.00    -0.200 F 
ATOM     73  C   UNL A   1      40.469  26.219  26.807  1.00  0.00     0.200 A 
ATOM     74  F   UNL A   1      38.979  24.776  27.933  1.00  0.00    -0.200 F 
ATOM     75  F   UNL A   1      40.438  25.430  25.724  1.00  0.00    -0.200 F 
ENDBRANCH  51  65
BRANCH  52  76
ATOM     76  C   UNL A   1      39.639  33.981  36.943  1.00  0.00     0.064 A 
ATOM     77  C   UNL A   1      38.884  33.617  38.067  1.00  0.00     0.173 A 
ATOM     78  C   UNL A   1      40.295  35.220  36.971  1.00  0.00     0.173 A 
ATOM     79  F   UNL A   1      38.222  32.450  38.080  1.00  0.00    -0.203 F 
ATOM     80  C   UNL A   1      38.781  34.461  39.171  1.00  0.00     0.198 A 
ATOM     81  C   UNL A   1      40.216  36.051  38.088  1.00  0.00     0.198 A 
ATOM     82  F   UNL A   1      41.035  35.611  35.925  1.00  0.00    -0.203 F 
ATOM     83  F   UNL A   1      38.026  34.103  40.217  1.00  0.00    -0.200 F 
ATOM     84  C   UNL A   1      39.455  35.674  39.184  1.00  0.00     0.200 A 
ATOM     85  F   UNL A   1      40.880  37.214  38.102  1.00  0.00    -0.200 F 
ATOM     86  F   UNL A   1      39.366  36.480  40.250  1.00  0.00    -0.200 F 
ENDBRANCH  52  76
BRANCH  64  87
ATOM     87  C   UNL A   1      43.977  28.772  35.325  1.00  0.00     0.064 A 
ATOM     88  C   UNL A   1      43.825  27.680  36.193  1.00  0.00     0.173 A 
ATOM     89  C   UNL A   1      45.274  29.268  35.119  1.00  0.00     0.173 A 
ATOM     90  F   UNL A   1      42.606  27.177  36.439  1.00  0.00    -0.203 F 
ATOM     91  C   UNL A   1      44.923  27.125  36.846  1.00  0.00     0.198 A 
ATOM     92  C   UNL A   1      46.374  28.689  35.746  1.00  0.00     0.198 A 
ATOM     93  F   UNL A   1      45.477  30.307  34.295  1.00  0.00    -0.203 F 
ATOM     94  F   UNL A   1      44.747  26.116  37.712  1.00  0.00    -0.200 F 
ATOM     95  C   UNL A   1      46.197  27.624  36.617  1.00  0.00     0.200 A 
ATOM     96  F   UNL A   1      47.605  29.163  35.511  1.00  0.00    -0.200 F 
ATOM     97  F   UNL A   1      47.253  27.084  37.240  1.00  0.00    -0.200 F 
ENDBRANCH  64  87
ENDBRANCH  38  39
ENDBRANCH  30  33
ENDBRANCH  28  29
ENDBRANCH  27  28
ENDBRANCH  26  27
ENDBRANCH   3  26
TORSDOF 17
ENDMDL
MODEL 3
REMARK VINA RESULT:     -11.3      5.638     10.708
REMARK SMILES Cc1cc(Br)cc([N+](=O)[O-])c1OCCC[C@@](C)([NH3+])C(=O)NCCCNC(=O)c1ccc(-c2c3nc(c(-c4c(F)c(F)c(F)c(F)c4F)c4ccc([nH]4)c(-c4c(F)c(F)c(F)c(F)c4F)c4nc(c(-c5c(F)c(F)c(F)c(F)c5F)c5ccc2[nH]5)C=C4)C=C3)cc1
REMARK SMILES IDX 19 1 20 2 21 3 16 5 17 6 15 7 14 8 13 9 12 10 11 11 1 12
REMARK SMILES IDX 2 13 3 14 4 15 7 16 5 17 6 18 8 19 9 20 10 21 18 22 22 26
REMARK SMILES IDX 23 27 24 28 25 29 26 30 27 32 28 33 29 34 90 35 30 36 89 37
REMARK SMILES IDX 31 38 32 39 33 40 83 41 34 42 88 43 82 44 84 45 35 46 87 47
REMARK SMILES IDX 81 48 80 49 36 51 68 52 48 53 67 54 49 55 52 56 66 57 85 58
REMARK SMILES IDX 50 59 51 60 65 62 86 63 53 64 37 65 38 66 46 67 39 68 40 69
REMARK SMILES IDX 44 70 47 71 41 72 42 73 45 74 43 75 69 76 70 77 78 78 71 79
REMARK SMILES IDX 72 80 76 81 79 82 73 83 74 84 77 85 75 86 54 87 55 88 63 89
REMARK SMILES IDX 56 90 57 91 61 92 64 93 58 94 59 95 62 96 60 97
REMARK H PARENT 21 4 18 23 18 24 18 25 25 31 84 50 52 61
REMARK Flexibility Score: inf
ROOT
ATOM      1  C   UNL A   1      35.795  22.527  25.715  1.00  0.00     0.280 C 
ATOM      2  O   UNL A   1      36.297  23.651  25.830  1.00  0.00    -0.268 OA
ATOM      3  N   UNL A   1      36.580  21.639  25.051  1.00  0.00    -0.351 N 
ATOM      4  H   UNL A   1      37.290  22.070  24.522  1.00  0.00     0.163 HD
ENDROOT
BRANCH   1   5
ATOM      5  C   UNL A   1      34.409  22.193  26.351  1.00  0.00     0.171 C 
ATOM      6  C   UNL A   1      33.797  23.543  26.751  1.00  0.00     0.090 C 
BRANCH   5   7
ATOM      7  C   UNL A   1      33.430  21.390  25.416  1.00  0.00     0.082 C 
BRANCH   7   8
ATOM      8  C   UNL A   1      32.192  22.067  24.787  1.00  0.00     0.049 C 
BRANCH   8   9
ATOM      9  C   UNL A   1      32.427  23.133  23.681  1.00  0.00     0.230 C 
BRANCH   9  10
ATOM     10  O   UNL A   1      31.311  24.037  23.600  1.00  0.00    -0.487 OA
BRANCH  10  11
ATOM     11  C   UNL A   1      31.482  25.320  24.081  1.00  0.00     0.200 A 
ATOM     12  C   UNL A   1      30.141  24.832  26.195  1.00  0.00     0.049 C 
ATOM     13  C   UNL A   1      31.157  25.593  25.422  1.00  0.00    -0.001 A 
ATOM     14  C   UNL A   1      31.821  26.611  26.127  1.00  0.00     0.023 A 
ATOM     15  C   UNL A   1      32.739  27.426  25.489  1.00  0.00     0.025 A 
ATOM     16  C   UNL A   1      32.328  26.233  23.423  1.00  0.00     0.312 A 
ATOM     17  Br  UNL A   1      33.667  28.730  26.489  1.00  0.00    -0.051 Br
ATOM     18  C   UNL A   1      32.957  27.284  24.126  1.00  0.00     0.105 A 
BRANCH  16  19
ATOM     19  N   UNL A   1      32.521  26.191  21.974  1.00  0.00     0.066 N 
ATOM     20  O   UNL A   1      31.515  26.327  21.260  1.00  0.00    -0.258 OA
ATOM     21  O   UNL A   1      33.651  25.932  21.540  1.00  0.00    -0.258 OA
ENDBRANCH  16  19
ENDBRANCH  10  11
ENDBRANCH   9  10
ENDBRANCH   8   9
ENDBRANCH   7   8
ENDBRANCH   5   7
BRANCH   5  22
ATOM     22  N   UNL A   1      34.526  21.435  27.625  1.00  0.00    -0.345 N 
ATOM     23  H   UNL A   1      33.603  21.340  28.049  1.00  0.00     0.345 HD
ATOM     24  H   UNL A   1      35.144  21.937  28.263  1.00  0.00     0.345 HD
ATOM     25  H   UNL A   1      34.910  20.510  27.436  1.00  0.00     0.345 HD
ENDBRANCH   5  22
ENDBRANCH   1   5
BRANCH   3  26
ATOM     26  C   UNL A   1      36.594  20.189  24.958  1.00  0.00     0.118 C 
BRANCH  26  27
ATOM     27  C   UNL A   1      38.000  19.640  24.714  1.00  0.00     0.042 C 
BRANCH  27  28
ATOM     28  C   UNL A   1      39.040  20.051  25.759  1.00  0.00     0.118 C 
BRANCH  28  29
ATOM     29  N   UNL A   1      40.149  19.110  25.855  1.00  0.00    -0.352 N 
ATOM     30  C   UNL A   1      41.491  19.318  26.020  1.00  0.00     0.251 C 
ATOM     31  H   UNL A   1      39.887  18.163  25.790  1.00  0.00     0.163 HD
ATOM     32  O   UNL A   1      42.275  18.379  25.842  1.00  0.00    -0.269 OA
BRANCH  30  33
ATOM     33  C   UNL A   1      42.022  20.642  26.396  1.00  0.00     0.039 A 
ATOM     34  C   UNL A   1      42.410  21.525  25.384  1.00  0.00     0.014 A 
ATOM     35  C   UNL A   1      42.192  20.999  27.735  1.00  0.00     0.014 A 
ATOM     36  C   UNL A   1      42.907  22.788  25.714  1.00  0.00     0.010 A 
ATOM     37  C   UNL A   1      42.611  22.286  28.063  1.00  0.00     0.010 A 
ATOM     38  C   UNL A   1      42.977  23.193  27.057  1.00  0.00    -0.014 A 
BRANCH  38  39
ATOM     39  C   UNL A   1      43.422  24.561  27.428  1.00  0.00     0.031 A 
ATOM     40  C   UNL A   1      42.420  25.610  27.818  1.00  0.00     0.074 A 
ATOM     41  C   UNL A   1      44.729  24.877  27.344  1.00  0.00     0.049 A 
ATOM     42  N   UNL A   1      42.611  26.870  28.119  1.00  0.00    -0.248 NA
ATOM     43  C   UNL A   1      41.011  25.194  27.848  1.00  0.00     0.031 C 
ATOM     44  C   UNL A   1      45.795  23.959  26.941  1.00  0.00     0.029 A 
ATOM     45  N   UNL A   1      45.382  26.058  27.589  1.00  0.00    -0.354 N 
ATOM     46  C   UNL A   1      41.350  27.399  28.355  1.00  0.00     0.074 A 
ATOM     47  C   UNL A   1      40.397  26.339  28.103  1.00  0.00     0.031 C 
ATOM     48  C   UNL A   1      46.972  24.598  27.002  1.00  0.00     0.029 A 
ATOM     49  C   UNL A   1      46.741  25.982  27.405  1.00  0.00     0.049 A 
ATOM     50  H   UNL A   1      44.921  26.881  27.870  1.00  0.00     0.167 HD
ATOM     51  C   UNL A   1      41.017  28.648  28.763  1.00  0.00     0.037 A 
ATOM     52  C   UNL A   1      47.693  26.925  27.545  1.00  0.00     0.037 A 
ATOM     53  C   UNL A   1      41.971  29.694  29.023  1.00  0.00     0.049 A 
ATOM     54  C   UNL A   1      47.297  28.313  27.966  1.00  0.00     0.074 A 
ATOM     55  C   UNL A   1      41.745  30.972  29.503  1.00  0.00     0.029 A 
ATOM     56  N   UNL A   1      43.339  29.585  28.810  1.00  0.00    -0.354 N 
ATOM     57  N   UNL A   1      46.109  28.782  28.260  1.00  0.00    -0.248 NA
ATOM     58  C   UNL A   1      48.378  29.300  28.078  1.00  0.00     0.031 C 
ATOM     59  C   UNL A   1      42.966  31.656  29.521  1.00  0.00     0.029 A 
ATOM     60  C   UNL A   1      43.964  30.785  29.114  1.00  0.00     0.049 A 
ATOM     61  H   UNL A   1      43.798  28.775  28.490  1.00  0.00     0.167 HD
ATOM     62  C   UNL A   1      46.301  30.108  28.622  1.00  0.00     0.074 A 
ATOM     63  C   UNL A   1      47.723  30.365  28.521  1.00  0.00     0.031 C 
ATOM     64  C   UNL A   1      45.383  31.028  29.010  1.00  0.00     0.037 A 
BRANCH  51  65
ATOM     65  C   UNL A   1      39.552  28.948  28.935  1.00  0.00     0.064 A 
ATOM     66  C   UNL A   1      38.751  29.374  27.864  1.00  0.00     0.173 A 
ATOM     67  C   UNL A   1      38.942  28.814  30.193  1.00  0.00     0.173 A 
ATOM     68  F   UNL A   1      39.282  29.527  26.642  1.00  0.00    -0.203 F 
ATOM     69  C   UNL A   1      37.411  29.706  28.056  1.00  0.00     0.198 A 
ATOM     70  C   UNL A   1      37.593  29.110  30.372  1.00  0.00     0.198 A 
ATOM     71  F   UNL A   1      39.655  28.401  31.252  1.00  0.00    -0.203 F 
ATOM     72  F   UNL A   1      36.689  30.184  27.033  1.00  0.00    -0.200 F 
ATOM     73  C   UNL A   1      36.833  29.570  29.308  1.00  0.00     0.200 A 
ATOM     74  F   UNL A   1      37.032  28.962  31.580  1.00  0.00    -0.200 F 
ATOM     75  F   UNL A   1      35.545  29.895  29.493  1.00  0.00    -0.200 F 
ENDBRANCH  51  65
BRANCH  52  76
ATOM     76  C   UNL A   1      49.119  26.567  27.329  1.00  0.00     0.064 A 
ATOM     77  C   UNL A   1      49.956  26.297  28.421  1.00  0.00     0.173 A 
ATOM     78  C   UNL A   1      49.669  26.468  26.043  1.00  0.00     0.173 A 
ATOM     79  F   UNL A   1      49.481  26.398  29.671  1.00  0.00    -0.203 F 
ATOM     80  C   UNL A   1      51.292  25.950  28.235  1.00  0.00     0.198 A 
ATOM     81  C   UNL A   1      50.998  26.092  25.857  1.00  0.00     0.198 A 
ATOM     82  F   UNL A   1      48.908  26.710  24.967  1.00  0.00    -0.203 F 
ATOM     83  F   UNL A   1      52.079  25.729  29.296  1.00  0.00    -0.200 F 
ATOM     84  C   UNL A   1      51.810  25.840  26.953  1.00  0.00     0.200 A 
ATOM     85  F   UNL A   1      51.490  25.972  24.617  1.00  0.00    -0.200 F 
ATOM     86  F   UNL A   1      53.092  25.494  26.773  1.00  0.00    -0.200 F 
ENDBRANCH  52  76
BRANCH  64  87
ATOM     87  C   UNL A   1      45.890  32.391  29.389  1.00  0.00     0.064 A 
ATOM     88  C   UNL A   1      45.943  33.446  28.465  1.00  0.00     0.173 A 
ATOM     89  C   UNL A   1      46.298  32.653  30.707  1.00  0.00     0.173 A 
ATOM     90  F   UNL A   1      45.582  33.245  27.189  1.00  0.00    -0.203 F 
ATOM     91  C   UNL A   1      46.410  34.703  28.839  1.00  0.00     0.198 A 
ATOM     92  C   UNL A   1      46.731  33.921  31.086  1.00  0.00     0.198 A 
ATOM     93  F   UNL A   1      46.262  31.682  31.631  1.00  0.00    -0.203 F 
ATOM     94  F   UNL A   1      46.503  35.681  27.927  1.00  0.00    -0.200 F 
ATOM     95  C   UNL A   1      46.796  34.942  30.150  1.00  0.00     0.200 A 
ATOM     96  F   UNL A   1      47.088  34.153  32.356  1.00  0.00    -0.200 F 
ATOM     97  F   UNL A   1      47.237  36.155  30.510  1.00  0.00    -0.200 F 
ENDBRANCH  64  87
ENDBRANCH  38  39
ENDBRANCH  30  33
ENDBRANCH  28  29
ENDBRANCH  27  28
ENDBRANCH  26  27
ENDBRANCH   3  26
TORSDOF 17
ENDMDL
