MODEL 1
REMARK VINA RESULT:     -10.0      0.000      0.000
REMARK SMILES CC[C@@](C)(NS(=O)(=O)c1ccc(F)c(F)c1)C(=O)NCCCNC(=O)c1ccc(-c2c3nc(c(-c4c(F)c(F)c(F)c(F)c4F)c4ccc([nH]4)c(-c4c(F)c(F)c(F)c(F)c4F)c4nc(c(-c5c(F)c(F)c(F)c(F)c5F)c5ccc2[nH]5)C=C4)C=C3)cc1
REMARK SMILES IDX 20 1 19 2 17 3 18 4 3 6 4 7 2 8 1 9 5 10 6 12 7 13 8 14 9 15
REMARK SMILES IDX 10 16 16 17 11 18 14 19 12 20 15 21 13 22 21 23 22 24 23 25
REMARK SMILES IDX 24 26 25 28 26 29 27 30 88 31 28 32 87 33 29 34 30 35 31 36
REMARK SMILES IDX 81 37 32 38 86 39 80 40 82 41 33 42 85 43 79 44 78 45 34 47
REMARK SMILES IDX 66 48 46 49 65 50 47 51 50 52 64 53 83 54 48 55 49 56 63 58
REMARK SMILES IDX 84 59 51 60 35 61 36 62 44 63 37 64 38 65 42 66 45 67 39 68
REMARK SMILES IDX 40 69 43 70 41 71 67 72 68 73 76 74 69 75 70 76 74 77 77 78
REMARK SMILES IDX 71 79 72 80 75 81 73 82 52 83 53 84 61 85 54 86 55 87 59 88
REMARK SMILES IDX 62 89 56 90 57 91 60 92 58 93
REMARK H PARENT 19 5 5 11 23 27 82 46 50 57
REMARK Flexibility Score: inf
ROOT
ATOM      1  C   UNL A   1      43.124  21.191  26.354  1.00  0.00     0.117 C 
ENDROOT
BRANCH   1   2
ATOM      2  N   UNL A   1      44.414  21.662  25.852  1.00  0.00    -0.354 N 
ATOM      3  C   UNL A   1      45.401  22.536  26.217  1.00  0.00     0.241 C 
ATOM      4  O   UNL A   1      46.418  22.446  25.511  1.00  0.00    -0.273 OA
ATOM      5  H   UNL A   1      44.638  21.221  25.002  1.00  0.00     0.163 HD
BRANCH   3   6
ATOM      6  C   UNL A   1      45.334  23.653  27.293  1.00  0.00     0.108 C 
ATOM      7  C   UNL A   1      44.881  23.129  28.658  1.00  0.00     0.040 C 
BRANCH   6   8
ATOM      8  C   UNL A   1      46.760  24.318  27.492  1.00  0.00     0.030 C 
ATOM      9  C   UNL A   1      46.911  25.477  28.466  1.00  0.00     0.006 C 
ENDBRANCH   6   8
BRANCH   6  10
ATOM     10  N   UNL A   1      44.536  24.850  26.923  1.00  0.00    -0.196 NA
ATOM     11  H   UNL A   1      44.775  25.534  27.641  1.00  0.00     0.142 HD
BRANCH  10  12
ATOM     12  S   UNL A   1      44.492  25.736  25.533  1.00  0.00     0.241 S 
ATOM     13  O   UNL A   1      45.778  25.606  24.877  1.00  0.00    -0.207 OA
ATOM     14  O   UNL A   1      43.300  25.290  24.862  1.00  0.00    -0.207 OA
BRANCH  12  15
ATOM     15  C   UNL A   1      44.247  27.459  25.923  1.00  0.00     0.085 A 
ATOM     16  C   UNL A   1      45.280  28.219  26.479  1.00  0.00     0.025 A 
ATOM     17  C   UNL A   1      42.958  27.987  25.938  1.00  0.00     0.064 A 
ATOM     18  C   UNL A   1      45.002  29.490  27.013  1.00  0.00     0.044 A 
ATOM     19  C   UNL A   1      42.686  29.249  26.438  1.00  0.00     0.160 A 
ATOM     20  C   UNL A   1      43.705  29.999  26.986  1.00  0.00     0.158 A 
ATOM     21  F   UNL A   1      41.419  29.685  26.451  1.00  0.00    -0.204 F 
ATOM     22  F   UNL A   1      43.439  31.188  27.539  1.00  0.00    -0.204 F 
ENDBRANCH  12  15
ENDBRANCH  10  12
ENDBRANCH   6  10
ENDBRANCH   3   6
ENDBRANCH   1   2
BRANCH   1  23
ATOM     23  C   UNL A   1      41.786  21.912  26.018  1.00  0.00     0.042 C 
BRANCH  23  24
ATOM     24  C   UNL A   1      40.406  21.586  26.626  1.00  0.00     0.118 C 
BRANCH  24  25
ATOM     25  N   UNL A   1      39.258  22.084  25.899  1.00  0.00    -0.352 N 
ATOM     26  C   UNL A   1      38.654  23.323  25.986  1.00  0.00     0.251 C 
ATOM     27  H   UNL A   1      38.853  21.457  25.257  1.00  0.00     0.163 HD
ATOM     28  O   UNL A   1      37.586  23.514  25.408  1.00  0.00    -0.269 OA
BRANCH  26  29
ATOM     29  C   UNL A   1      39.233  24.439  26.784  1.00  0.00     0.039 A 
ATOM     30  C   UNL A   1      38.871  24.551  28.132  1.00  0.00     0.014 A 
ATOM     31  C   UNL A   1      39.980  25.465  26.196  1.00  0.00     0.014 A 
ATOM     32  C   UNL A   1      39.276  25.662  28.890  1.00  0.00     0.010 A 
ATOM     33  C   UNL A   1      40.402  26.571  26.963  1.00  0.00     0.010 A 
ATOM     34  C   UNL A   1      40.053  26.687  28.319  1.00  0.00    -0.014 A 
BRANCH  34  35
ATOM     35  C   UNL A   1      40.498  27.835  29.173  1.00  0.00     0.031 A 
ATOM     36  C   UNL A   1      41.920  27.966  29.658  1.00  0.00     0.074 A 
ATOM     37  C   UNL A   1      39.619  28.812  29.482  1.00  0.00     0.049 A 
ATOM     38  N   UNL A   1      42.495  28.972  30.275  1.00  0.00    -0.248 NA
ATOM     39  C   UNL A   1      42.812  26.820  29.431  1.00  0.00     0.031 C 
ATOM     40  C   UNL A   1      38.203  28.803  29.117  1.00  0.00     0.029 A 
ATOM     41  N   UNL A   1      39.783  30.006  30.146  1.00  0.00    -0.354 N 
ATOM     42  C   UNL A   1      43.814  28.588  30.495  1.00  0.00     0.074 A 
ATOM     43  C   UNL A   1      43.941  27.236  29.993  1.00  0.00     0.031 C 
ATOM     44  C   UNL A   1      37.638  29.953  29.518  1.00  0.00     0.029 A 
ATOM     45  C   UNL A   1      38.644  30.777  30.186  1.00  0.00     0.049 A 
ATOM     46  H   UNL A   1      40.635  30.284  30.553  1.00  0.00     0.167 HD
ATOM     47  C   UNL A   1      44.829  29.305  31.039  1.00  0.00     0.037 A 
ATOM     48  C   UNL A   1      38.429  32.013  30.685  1.00  0.00     0.037 A 
ATOM     49  C   UNL A   1      44.711  30.655  31.531  1.00  0.00     0.049 A 
ATOM     50  C   UNL A   1      39.566  32.783  31.299  1.00  0.00     0.074 A 
ATOM     51  C   UNL A   1      45.704  31.474  32.045  1.00  0.00     0.029 A 
ATOM     52  N   UNL A   1      43.532  31.383  31.582  1.00  0.00    -0.354 N 
ATOM     53  N   UNL A   1      40.826  32.441  31.412  1.00  0.00    -0.248 NA
ATOM     54  C   UNL A   1      39.258  34.114  31.848  1.00  0.00     0.031 C 
ATOM     55  C   UNL A   1      45.118  32.675  32.456  1.00  0.00     0.029 A 
ATOM     56  C   UNL A   1      43.768  32.626  32.148  1.00  0.00     0.049 A 
ATOM     57  H   UNL A   1      42.657  31.063  31.263  1.00  0.00     0.167 HD
ATOM     58  C   UNL A   1      41.462  33.515  32.021  1.00  0.00     0.074 A 
ATOM     59  C   UNL A   1      40.455  34.529  32.245  1.00  0.00     0.031 C 
ATOM     60  C   UNL A   1      42.767  33.641  32.361  1.00  0.00     0.037 A 
BRANCH  47  61
ATOM     61  C   UNL A   1      46.187  28.663  31.119  1.00  0.00     0.064 A 
ATOM     62  C   UNL A   1      47.178  28.960  30.168  1.00  0.00     0.173 A 
ATOM     63  C   UNL A   1      46.468  27.669  32.067  1.00  0.00     0.173 A 
ATOM     64  F   UNL A   1      46.955  29.887  29.224  1.00  0.00    -0.203 F 
ATOM     65  C   UNL A   1      48.394  28.280  30.162  1.00  0.00     0.198 A 
ATOM     66  C   UNL A   1      47.695  27.010  32.075  1.00  0.00     0.198 A 
ATOM     67  F   UNL A   1      45.552  27.342  32.992  1.00  0.00    -0.203 F 
ATOM     68  F   UNL A   1      49.309  28.553  29.222  1.00  0.00    -0.200 F 
ATOM     69  C   UNL A   1      48.652  27.308  31.118  1.00  0.00     0.200 A 
ATOM     70  F   UNL A   1      47.949  26.081  33.007  1.00  0.00    -0.200 F 
ATOM     71  F   UNL A   1      49.824  26.656  31.113  1.00  0.00    -0.200 F 
ENDBRANCH  47  61
BRANCH  48  72
ATOM     72  C   UNL A   1      37.074  32.619  30.567  1.00  0.00     0.064 A 
ATOM     73  C   UNL A   1      36.720  33.408  29.462  1.00  0.00     0.173 A 
ATOM     74  C   UNL A   1      36.120  32.450  31.580  1.00  0.00     0.173 A 
ATOM     75  F   UNL A   1      37.597  33.600  28.466  1.00  0.00    -0.203 F 
ATOM     76  C   UNL A   1      35.474  34.028  29.390  1.00  0.00     0.198 A 
ATOM     77  C   UNL A   1      34.864  33.048  31.493  1.00  0.00     0.198 A 
ATOM     78  F   UNL A   1      36.401  31.685  32.645  1.00  0.00    -0.203 F 
ATOM     79  F   UNL A   1      35.177  34.810  28.343  1.00  0.00    -0.200 F 
ATOM     80  C   UNL A   1      34.546  33.846  30.404  1.00  0.00     0.200 A 
ATOM     81  F   UNL A   1      33.961  32.851  32.463  1.00  0.00    -0.200 F 
ATOM     82  F   UNL A   1      33.347  34.438  30.331  1.00  0.00    -0.200 F 
ENDBRANCH  48  72
BRANCH  60  83
ATOM     83  C   UNL A   1      43.215  34.920  33.008  1.00  0.00     0.064 A 
ATOM     84  C   UNL A   1      43.175  35.062  34.404  1.00  0.00     0.173 A 
ATOM     85  C   UNL A   1      43.557  36.043  32.244  1.00  0.00     0.173 A 
ATOM     86  F   UNL A   1      42.845  34.019  35.181  1.00  0.00    -0.203 F 
ATOM     87  C   UNL A   1      43.433  36.291  35.007  1.00  0.00     0.198 A 
ATOM     88  C   UNL A   1      43.838  37.265  32.852  1.00  0.00     0.198 A 
ATOM     89  F   UNL A   1      43.621  35.955  30.906  1.00  0.00    -0.203 F 
ATOM     90  F   UNL A   1      43.341  36.415  36.339  1.00  0.00    -0.200 F 
ATOM     91  C   UNL A   1      43.761  37.391  34.231  1.00  0.00     0.200 A 
ATOM     92  F   UNL A   1      44.173  38.324  32.101  1.00  0.00    -0.200 F 
ATOM     93  F   UNL A   1      43.999  38.575  34.811  1.00  0.00    -0.200 F 
ENDBRANCH  60  83
ENDBRANCH  34  35
ENDBRANCH  26  29
ENDBRANCH  24  25
ENDBRANCH  23  24
ENDBRANCH   1  23
TORSDOF 14
ENDMDL
MODEL 2
REMARK VINA RESULT:      -9.9      5.497     10.867
REMARK SMILES CC[C@@](C)(NS(=O)(=O)c1ccc(F)c(F)c1)C(=O)NCCCNC(=O)c1ccc(-c2c3nc(c(-c4c(F)c(F)c(F)c(F)c4F)c4ccc([nH]4)c(-c4c(F)c(F)c(F)c(F)c4F)c4nc(c(-c5c(F)c(F)c(F)c(F)c5F)c5ccc2[nH]5)C=C4)C=C3)cc1
REMARK SMILES IDX 20 1 19 2 17 3 18 4 3 6 4 7 2 8 1 9 5 10 6 12 7 13 8 14 9 15
REMARK SMILES IDX 10 16 16 17 11 18 14 19 12 20 15 21 13 22 21 23 22 24 23 25
REMARK SMILES IDX 24 26 25 28 26 29 27 30 88 31 28 32 87 33 29 34 30 35 31 36
REMARK SMILES IDX 81 37 32 38 86 39 80 40 82 41 33 42 85 43 79 44 78 45 34 47
REMARK SMILES IDX 66 48 46 49 65 50 47 51 50 52 64 53 83 54 48 55 49 56 63 58
REMARK SMILES IDX 84 59 51 60 35 61 36 62 44 63 37 64 38 65 42 66 45 67 39 68
REMARK SMILES IDX 40 69 43 70 41 71 67 72 68 73 76 74 69 75 70 76 74 77 77 78
REMARK SMILES IDX 71 79 72 80 75 81 73 82 52 83 53 84 61 85 54 86 55 87 59 88
REMARK SMILES IDX 62 89 56 90 57 91 60 92 58 93
REMARK H PARENT 19 5 5 11 23 27 82 46 50 57
REMARK Flexibility Score: inf
ROOT
ATOM      1  C   UNL A   1      31.358  30.533  25.403  1.00  0.00     0.117 C 
ENDROOT
BRANCH   1   2
ATOM      2  N   UNL A   1      32.590  29.965  24.857  1.00  0.00    -0.354 N 
ATOM      3  C   UNL A   1      33.214  28.750  24.781  1.00  0.00     0.241 C 
ATOM      4  O   UNL A   1      34.204  28.757  24.032  1.00  0.00    -0.273 OA
ATOM      5  H   UNL A   1      33.128  30.661  24.417  1.00  0.00     0.163 HD
BRANCH   3   6
ATOM      6  C   UNL A   1      32.895  27.463  25.587  1.00  0.00     0.108 C 
ATOM      7  C   UNL A   1      34.029  26.436  25.529  1.00  0.00     0.040 C 
BRANCH   6   8
ATOM      8  C   UNL A   1      32.651  27.810  27.114  1.00  0.00     0.030 C 
ATOM      9  C   UNL A   1      31.225  27.937  27.630  1.00  0.00     0.006 C 
ENDBRANCH   6   8
BRANCH   6  10
ATOM     10  N   UNL A   1      31.604  26.806  25.258  1.00  0.00    -0.196 NA
ATOM     11  H   UNL A   1      30.902  27.478  25.570  1.00  0.00     0.142 HD
BRANCH  10  12
ATOM     12  S   UNL A   1      31.006  26.248  23.826  1.00  0.00     0.241 S 
ATOM     13  O   UNL A   1      32.120  26.051  22.920  1.00  0.00    -0.207 OA
ATOM     14  O   UNL A   1      30.180  25.130  24.195  1.00  0.00    -0.207 OA
BRANCH  12  15
ATOM     15  C   UNL A   1      29.923  27.469  23.107  1.00  0.00     0.085 A 
ATOM     16  C   UNL A   1      30.443  28.543  22.378  1.00  0.00     0.025 A 
ATOM     17  C   UNL A   1      28.586  27.521  23.494  1.00  0.00     0.064 A 
ATOM     18  C   UNL A   1      29.611  29.625  22.039  1.00  0.00     0.044 A 
ATOM     19  C   UNL A   1      27.757  28.571  23.138  1.00  0.00     0.160 A 
ATOM     20  C   UNL A   1      28.270  29.629  22.418  1.00  0.00     0.158 A 
ATOM     21  F   UNL A   1      26.489  28.574  23.569  1.00  0.00    -0.204 F 
ATOM     22  F   UNL A   1      27.495  30.684  22.134  1.00  0.00    -0.204 F 
ENDBRANCH  12  15
ENDBRANCH  10  12
ENDBRANCH   6  10
ENDBRANCH   3   6
ENDBRANCH   1   2
BRANCH   1  23
ATOM     23  C   UNL A   1      31.363  31.688  26.446  1.00  0.00     0.042 C 
BRANCH  23  24
ATOM     24  C   UNL A   1      32.606  32.464  26.930  1.00  0.00     0.118 C 
BRANCH  24  25
ATOM     25  N   UNL A   1      32.373  33.821  27.377  1.00  0.00    -0.352 N 
ATOM     26  C   UNL A   1      32.989  34.507  28.405  1.00  0.00     0.251 C 
ATOM     27  H   UNL A   1      31.684  34.322  26.883  1.00  0.00     0.163 HD
ATOM     28  O   UNL A   1      32.547  35.602  28.748  1.00  0.00    -0.269 OA
BRANCH  26  29
ATOM     29  C   UNL A   1      34.158  33.955  29.146  1.00  0.00     0.039 A 
ATOM     30  C   UNL A   1      35.441  34.370  28.770  1.00  0.00     0.014 A 
ATOM     31  C   UNL A   1      34.026  32.920  30.077  1.00  0.00     0.014 A 
ATOM     32  C   UNL A   1      36.579  33.776  29.339  1.00  0.00     0.010 A 
ATOM     33  C   UNL A   1      35.170  32.337  30.662  1.00  0.00     0.010 A 
ATOM     34  C   UNL A   1      36.462  32.754  30.299  1.00  0.00    -0.014 A 
BRANCH  34  35
ATOM     35  C   UNL A   1      37.701  32.175  30.912  1.00  0.00     0.031 A 
ATOM     36  C   UNL A   1      38.151  32.545  32.303  1.00  0.00     0.074 A 
ATOM     37  C   UNL A   1      38.414  31.257  30.226  1.00  0.00     0.049 A 
ATOM     38  N   UNL A   1      39.112  32.021  33.029  1.00  0.00    -0.248 NA
ATOM     39  C   UNL A   1      37.443  33.649  32.964  1.00  0.00     0.031 C 
ATOM     40  C   UNL A   1      38.122  30.831  28.858  1.00  0.00     0.029 A 
ATOM     41  N   UNL A   1      39.508  30.503  30.583  1.00  0.00    -0.354 N 
ATOM     42  C   UNL A   1      39.112  32.718  34.233  1.00  0.00     0.074 A 
ATOM     43  C   UNL A   1      38.091  33.738  34.120  1.00  0.00     0.031 C 
ATOM     44  C   UNL A   1      38.981  29.860  28.508  1.00  0.00     0.029 A 
ATOM     45  C   UNL A   1      39.900  29.605  29.616  1.00  0.00     0.049 A 
ATOM     46  H   UNL A   1      39.967  30.596  31.449  1.00  0.00     0.167 HD
ATOM     47  C   UNL A   1      39.872  32.509  35.336  1.00  0.00     0.037 A 
ATOM     48  C   UNL A   1      40.872  28.669  29.620  1.00  0.00     0.037 A 
ATOM     49  C   UNL A   1      40.883  31.488  35.458  1.00  0.00     0.049 A 
ATOM     50  C   UNL A   1      41.714  28.467  30.850  1.00  0.00     0.074 A 
ATOM     51  C   UNL A   1      41.659  31.171  36.562  1.00  0.00     0.029 A 
ATOM     52  N   UNL A   1      41.268  30.625  34.443  1.00  0.00    -0.354 N 
ATOM     53  N   UNL A   1      41.637  29.071  32.010  1.00  0.00    -0.248 NA
ATOM     54  C   UNL A   1      42.775  27.448  30.779  1.00  0.00     0.031 C 
ATOM     55  C   UNL A   1      42.548  30.156  36.200  1.00  0.00     0.029 A 
ATOM     56  C   UNL A   1      42.290  29.801  34.886  1.00  0.00     0.049 A 
ATOM     57  H   UNL A   1      40.872  30.602  33.542  1.00  0.00     0.167 HD
ATOM     58  C   UNL A   1      42.616  28.495  32.809  1.00  0.00     0.074 A 
ATOM     59  C   UNL A   1      43.271  27.484  32.010  1.00  0.00     0.031 C 
ATOM     60  C   UNL A   1      42.936  28.786  34.093  1.00  0.00     0.037 A 
BRANCH  47  61
ATOM     61  C   UNL A   1      39.636  33.385  36.536  1.00  0.00     0.064 A 
ATOM     62  C   UNL A   1      40.409  34.540  36.744  1.00  0.00     0.173 A 
ATOM     63  C   UNL A   1      38.724  33.020  37.537  1.00  0.00     0.173 A 
ATOM     64  F   UNL A   1      41.312  34.924  35.829  1.00  0.00    -0.203 F 
ATOM     65  C   UNL A   1      40.281  35.288  37.912  1.00  0.00     0.198 A 
ATOM     66  C   UNL A   1      38.580  33.785  38.692  1.00  0.00     0.198 A 
ATOM     67  F   UNL A   1      37.968  31.921  37.391  1.00  0.00    -0.203 F 
ATOM     68  F   UNL A   1      41.057  36.364  38.106  1.00  0.00    -0.200 F 
ATOM     69  C   UNL A   1      39.364  34.913  38.883  1.00  0.00     0.200 A 
ATOM     70  F   UNL A   1      37.685  33.429  39.623  1.00  0.00    -0.200 F 
ATOM     71  F   UNL A   1      39.240  35.636  40.005  1.00  0.00    -0.200 F 
ENDBRANCH  47  61
BRANCH  48  72
ATOM     72  C   UNL A   1      41.059  27.810  28.419  1.00  0.00     0.064 A 
ATOM     73  C   UNL A   1      41.908  28.193  27.371  1.00  0.00     0.173 A 
ATOM     74  C   UNL A   1      40.359  26.602  28.283  1.00  0.00     0.173 A 
ATOM     75  F   UNL A   1      42.600  29.339  27.453  1.00  0.00    -0.203 F 
ATOM     76  C   UNL A   1      42.027  27.418  26.219  1.00  0.00     0.198 A 
ATOM     77  C   UNL A   1      40.500  25.813  27.142  1.00  0.00     0.198 A 
ATOM     78  F   UNL A   1      39.554  26.179  29.268  1.00  0.00    -0.203 F 
ATOM     79  F   UNL A   1      42.813  27.829  25.215  1.00  0.00    -0.200 F 
ATOM     80  C   UNL A   1      41.325  26.227  26.107  1.00  0.00     0.200 A 
ATOM     81  F   UNL A   1      39.840  24.651  27.048  1.00  0.00    -0.200 F 
ATOM     82  F   UNL A   1      41.444  25.479  25.002  1.00  0.00    -0.200 F 
ENDBRANCH  48  72
BRANCH  60  83
ATOM     83  C   UNL A   1      44.041  28.006  34.746  1.00  0.00     0.064 A 
ATOM     84  C   UNL A   1      45.375  28.429  34.628  1.00  0.00     0.173 A 
ATOM     85  C   UNL A   1      43.795  26.777  35.372  1.00  0.00     0.173 A 
ATOM     86  F   UNL A   1      45.665  29.594  34.031  1.00  0.00    -0.203 F 
ATOM     87  C   UNL A   1      46.422  27.634  35.089  1.00  0.00     0.198 A 
ATOM     88  C   UNL A   1      44.843  25.996  35.853  1.00  0.00     0.198 A 
ATOM     89  F   UNL A   1      42.536  26.334  35.519  1.00  0.00    -0.203 F 
ATOM     90  F   UNL A   1      47.690  28.036  34.923  1.00  0.00    -0.200 F 
ATOM     91  C   UNL A   1      46.155  26.418  35.698  1.00  0.00     0.200 A 
ATOM     92  F   UNL A   1      44.584  24.828  36.458  1.00  0.00    -0.200 F 
ATOM     93  F   UNL A   1      47.163  25.649  36.132  1.00  0.00    -0.200 F 
ENDBRANCH  60  83
ENDBRANCH  34  35
ENDBRANCH  26  29
ENDBRANCH  24  25
ENDBRANCH  23  24
ENDBRANCH   1  23
TORSDOF 14
ENDMDL
MODEL 3
REMARK VINA RESULT:      -9.9      5.177     10.404
REMARK SMILES CC[C@@](C)(NS(=O)(=O)c1ccc(F)c(F)c1)C(=O)NCCCNC(=O)c1ccc(-c2c3nc(c(-c4c(F)c(F)c(F)c(F)c4F)c4ccc([nH]4)c(-c4c(F)c(F)c(F)c(F)c4F)c4nc(c(-c5c(F)c(F)c(F)c(F)c5F)c5ccc2[nH]5)C=C4)C=C3)cc1
REMARK SMILES IDX 20 1 19 2 17 3 18 4 3 6 4 7 2 8 1 9 5 10 6 12 7 13 8 14 9 15
REMARK SMILES IDX 10 16 16 17 11 18 14 19 12 20 15 21 13 22 21 23 22 24 23 25
REMARK SMILES IDX 24 26 25 28 26 29 27 30 88 31 28 32 87 33 29 34 30 35 31 36
REMARK SMILES IDX 81 37 32 38 86 39 80 40 82 41 33 42 85 43 79 44 78 45 34 47
REMARK SMILES IDX 66 48 46 49 65 50 47 51 50 52 64 53 83 54 48 55 49 56 63 58
REMARK SMILES IDX 84 59 51 60 35 61 36 62 44 63 37 64 38 65 42 66 45 67 39 68
REMARK SMILES IDX 40 69 43 70 41 71 67 72 68 73 76 74 69 75 70 76 74 77 77 78
REMARK SMILES IDX 71 79 72 80 75 81 73 82 52 83 53 84 61 85 54 86 55 87 59 88
REMARK SMILES IDX 62 89 56 90 57 91 60 92 58 93
REMARK H PARENT 19 5 5 11 23 27 82 46 50 57
REMARK Flexibility Score: inf
ROOT
ATOM      1  C   UNL A   1      33.173  26.470  25.434  1.00  0.00     0.117 C 
ENDROOT
BRANCH   1   2
ATOM      2  N   UNL A   1      33.552  26.030  24.092  1.00  0.00    -0.354 N 
ATOM      3  C   UNL A   1      34.020  24.902  23.476  1.00  0.00     0.241 C 
ATOM      4  O   UNL A   1      34.020  24.987  22.237  1.00  0.00    -0.273 OA
ATOM      5  H   UNL A   1      33.437  26.759  23.442  1.00  0.00     0.163 HD
BRANCH   3   6
ATOM      6  C   UNL A   1      34.631  23.638  24.138  1.00  0.00     0.108 C 
ATOM      7  C   UNL A   1      35.335  22.727  23.130  1.00  0.00     0.040 C 
BRANCH   6   8
ATOM      8  C   UNL A   1      35.700  24.047  25.234  1.00  0.00     0.030 C 
ATOM      9  C   UNL A   1      37.117  23.502  25.132  1.00  0.00     0.006 C 
ENDBRANCH   6   8
BRANCH   6  10
ATOM     10  N   UNL A   1      33.695  22.838  24.971  1.00  0.00    -0.196 NA
ATOM     11  H   UNL A   1      33.455  23.465  25.739  1.00  0.00     0.142 HD
BRANCH  10  12
ATOM     12  S   UNL A   1      32.266  22.106  24.596  1.00  0.00     0.241 S 
ATOM     13  O   UNL A   1      31.387  22.223  25.743  1.00  0.00    -0.207 OA
ATOM     14  O   UNL A   1      31.882  22.694  23.340  1.00  0.00    -0.207 OA
BRANCH  12  15
ATOM     15  C   UNL A   1      32.538  20.371  24.288  1.00  0.00     0.085 A 
ATOM     16  C   UNL A   1      33.371  19.620  25.123  1.00  0.00     0.025 A 
ATOM     17  C   UNL A   1      32.155  19.817  23.069  1.00  0.00     0.064 A 
ATOM     18  C   UNL A   1      33.777  18.333  24.730  1.00  0.00     0.044 A 
ATOM     19  C   UNL A   1      32.531  18.539  22.691  1.00  0.00     0.160 A 
ATOM     20  C   UNL A   1      33.351  17.799  23.515  1.00  0.00     0.158 A 
ATOM     21  F   UNL A   1      32.153  18.078  21.491  1.00  0.00    -0.204 F 
ATOM     22  F   UNL A   1      33.781  16.593  23.124  1.00  0.00    -0.204 F 
ENDBRANCH  12  15
ENDBRANCH  10  12
ENDBRANCH   6  10
ENDBRANCH   3   6
ENDBRANCH   1   2
BRANCH   1  23
ATOM     23  C   UNL A   1      32.608  27.893  25.716  1.00  0.00     0.042 C 
BRANCH  23  24
ATOM     24  C   UNL A   1      33.197  29.219  25.193  1.00  0.00     0.118 C 
BRANCH  24  25
ATOM     25  N   UNL A   1      32.633  30.429  25.754  1.00  0.00    -0.352 N 
ATOM     26  C   UNL A   1      33.103  31.192  26.804  1.00  0.00     0.251 C 
ATOM     27  H   UNL A   1      31.805  30.751  25.330  1.00  0.00     0.163 HD
ATOM     28  O   UNL A   1      32.403  32.100  27.249  1.00  0.00    -0.269 OA
BRANCH  26  29
ATOM     29  C   UNL A   1      34.422  30.938  27.448  1.00  0.00     0.039 A 
ATOM     30  C   UNL A   1      34.653  29.681  28.020  1.00  0.00     0.014 A 
ATOM     31  C   UNL A   1      35.359  31.957  27.650  1.00  0.00     0.014 A 
ATOM     32  C   UNL A   1      35.821  29.438  28.761  1.00  0.00     0.010 A 
ATOM     33  C   UNL A   1      36.541  31.706  28.377  1.00  0.00     0.010 A 
ATOM     34  C   UNL A   1      36.787  30.444  28.947  1.00  0.00    -0.014 A 
BRANCH  34  35
ATOM     35  C   UNL A   1      38.038  30.131  29.709  1.00  0.00     0.031 A 
ATOM     36  C   UNL A   1      38.266  30.634  31.112  1.00  0.00     0.074 A 
ATOM     37  C   UNL A   1      38.974  29.335  29.149  1.00  0.00     0.049 A 
ATOM     38  N   UNL A   1      39.224  30.327  31.956  1.00  0.00    -0.248 NA
ATOM     39  C   UNL A   1      37.304  31.612  31.637  1.00  0.00     0.031 C 
ATOM     40  C   UNL A   1      38.910  28.808  27.786  1.00  0.00     0.029 A 
ATOM     41  N   UNL A   1      40.143  28.812  29.653  1.00  0.00    -0.354 N 
ATOM     42  C   UNL A   1      38.971  31.059  33.111  1.00  0.00     0.074 A 
ATOM     43  C   UNL A   1      37.800  31.866  32.842  1.00  0.00     0.031 C 
ATOM     44  C   UNL A   1      39.963  28.001  27.578  1.00  0.00     0.029 A 
ATOM     45  C   UNL A   1      40.791  27.966  28.782  1.00  0.00     0.049 A 
ATOM     46  H   UNL A   1      40.484  29.024  30.552  1.00  0.00     0.167 HD
ATOM     47  C   UNL A   1      39.637  31.040  34.294  1.00  0.00     0.037 A 
ATOM     48  C   UNL A   1      41.910  27.228  28.934  1.00  0.00     0.037 A 
ATOM     49  C   UNL A   1      40.798  30.231  34.571  1.00  0.00     0.049 A 
ATOM     50  C   UNL A   1      42.641  27.236  30.249  1.00  0.00     0.074 A 
ATOM     51  C   UNL A   1      41.497  30.108  35.761  1.00  0.00     0.029 A 
ATOM     52  N   UNL A   1      41.436  29.415  33.650  1.00  0.00    -0.354 N 
ATOM     53  N   UNL A   1      42.334  27.860  31.359  1.00  0.00    -0.248 NA
ATOM     54  C   UNL A   1      43.871  26.430  30.340  1.00  0.00     0.031 C 
ATOM     55  C   UNL A   1      42.589  29.263  35.546  1.00  0.00     0.029 A 
ATOM     56  C   UNL A   1      42.539  28.813  34.237  1.00  0.00     0.049 A 
ATOM     57  H   UNL A   1      41.149  29.282  32.718  1.00  0.00     0.167 HD
ATOM     58  C   UNL A   1      43.312  27.509  32.281  1.00  0.00     0.074 A 
ATOM     59  C   UNL A   1      44.220  26.606  31.608  1.00  0.00     0.031 C 
ATOM     60  C   UNL A   1      43.438  27.906  33.570  1.00  0.00     0.037 A 
BRANCH  47  61
ATOM     61  C   UNL A   1      39.121  31.904  35.411  1.00  0.00     0.064 A 
ATOM     62  C   UNL A   1      39.492  33.256  35.502  1.00  0.00     0.173 A 
ATOM     63  C   UNL A   1      38.354  31.365  36.455  1.00  0.00     0.173 A 
ATOM     64  F   UNL A   1      40.244  33.818  34.544  1.00  0.00    -0.203 F 
ATOM     65  C   UNL A   1      39.120  34.030  36.599  1.00  0.00     0.198 A 
ATOM     66  C   UNL A   1      37.961  32.149  37.537  1.00  0.00     0.198 A 
ATOM     67  F   UNL A   1      37.980  30.077  36.420  1.00  0.00    -0.203 F 
ATOM     68  F   UNL A   1      39.519  35.307  36.683  1.00  0.00    -0.200 F 
ATOM     69  C   UNL A   1      38.352  33.477  37.613  1.00  0.00     0.200 A 
ATOM     70  F   UNL A   1      37.208  31.618  38.509  1.00  0.00    -0.200 F 
ATOM     71  F   UNL A   1      37.992  34.224  38.666  1.00  0.00    -0.200 F 
ENDBRANCH  47  61
BRANCH  48  72
ATOM     72  C   UNL A   1      42.375  26.371  27.809  1.00  0.00     0.064 A 
ATOM     73  C   UNL A   1      41.895  25.064  27.640  1.00  0.00     0.173 A 
ATOM     74  C   UNL A   1      43.338  26.834  26.902  1.00  0.00     0.173 A 
ATOM     75  F   UNL A   1      40.972  24.573  28.481  1.00  0.00    -0.203 F 
ATOM     76  C   UNL A   1      42.383  24.242  26.626  1.00  0.00     0.198 A 
ATOM     77  C   UNL A   1      43.806  26.021  25.870  1.00  0.00     0.198 A 
ATOM     78  F   UNL A   1      43.810  28.085  27.005  1.00  0.00    -0.203 F 
ATOM     79  F   UNL A   1      41.938  22.983  26.513  1.00  0.00    -0.200 F 
ATOM     80  C   UNL A   1      43.336  24.722  25.740  1.00  0.00     0.200 A 
ATOM     81  F   UNL A   1      44.708  26.496  25.002  1.00  0.00    -0.200 F 
ATOM     82  F   UNL A   1      43.801  23.935  24.762  1.00  0.00    -0.200 F 
ENDBRANCH  48  72
BRANCH  60  83
ATOM     83  C   UNL A   1      44.591  27.372  34.370  1.00  0.00     0.064 A 
ATOM     84  C   UNL A   1      44.452  26.192  35.118  1.00  0.00     0.173 A 
ATOM     85  C   UNL A   1      45.785  28.094  34.500  1.00  0.00     0.173 A 
ATOM     86  F   UNL A   1      43.326  25.468  35.035  1.00  0.00    -0.203 F 
ATOM     87  C   UNL A   1      45.455  25.773  35.988  1.00  0.00     0.198 A 
ATOM     88  C   UNL A   1      46.796  27.659  35.354  1.00  0.00     0.198 A 
ATOM     89  F   UNL A   1      45.971  29.223  33.798  1.00  0.00    -0.203 F 
ATOM     90  F   UNL A   1      45.279  24.669  36.729  1.00  0.00    -0.200 F 
ATOM     91  C   UNL A   1      46.624  26.508  36.108  1.00  0.00     0.200 A 
ATOM     92  F   UNL A   1      47.934  28.360  35.455  1.00  0.00    -0.200 F 
ATOM     93  F   UNL A   1      47.585  26.109  36.953  1.00  0.00    -0.200 F 
ENDBRANCH  60  83
ENDBRANCH  34  35
ENDBRANCH  26  29
ENDBRANCH  24  25
ENDBRANCH  23  24
ENDBRANCH   1  23
TORSDOF 14
ENDMDL
