MODEL 1
REMARK VINA RESULT:     -13.4      0.000      0.000
REMARK SMILES C/C(=N\Nc1ccccc1C(=O)NCCCNC(=O)c1ccc(-c2c3nc(c(-c4c(F)c(F)c(F)c(F)c4F)c4ccc([nH]4)c(-c4c(F)c(F)c(F)c(F)c4F)c4nc(c(-c5c(F)c(F)c(F)c(F)c5F)c5ccc2[nH]5)C=C4)C=C3)cc1)c1ccc(S(C)(=O)=O)cc1
REMARK SMILES IDX 14 1 13 2 11 3 12 4 10 6 5 7 6 8 7 9 9 10 8 11 4 12 3 14
REMARK SMILES IDX 1 15 2 16 83 17 84 18 92 19 85 20 91 21 86 22 87 23 88 24
REMARK SMILES IDX 89 25 90 26 15 27 16 28 17 29 18 30 19 32 20 33 21 34 82 35
REMARK SMILES IDX 22 36 81 37 23 38 24 39 25 40 75 41 26 42 80 43 74 44 76 45
REMARK SMILES IDX 27 46 79 47 73 48 72 49 28 51 60 52 40 53 59 54 41 55 44 56
REMARK SMILES IDX 58 57 77 58 42 59 43 60 57 62 78 63 45 64 29 65 30 66 38 67
REMARK SMILES IDX 31 68 32 69 36 70 39 71 33 72 34 73 37 74 35 75 61 76 62 77
REMARK SMILES IDX 70 78 63 79 64 80 68 81 71 82 65 83 66 84 69 85 67 86 46 87
REMARK SMILES IDX 47 88 55 89 48 90 49 91 53 92 56 93 50 94 51 95 54 96 52 97
REMARK H PARENT 13 5 4 13 17 31 76 50 44 61
REMARK Flexibility Score: inf
ROOT
ATOM      1  C   UNL A   1      32.271  26.822  26.256  1.00  0.00     0.118 C 
ENDROOT
BRANCH   1   2
ATOM      2  N   UNL A   1      31.441  25.779  26.829  1.00  0.00    -0.352 N 
ATOM      3  C   UNL A   1      31.506  24.425  26.616  1.00  0.00     0.253 C 
ATOM      4  O   UNL A   1      30.759  23.689  27.262  1.00  0.00    -0.269 OA
ATOM      5  H   UNL A   1      30.742  26.083  27.453  1.00  0.00     0.163 HD
BRANCH   3   6
ATOM      6  C   UNL A   1      32.351  23.846  25.544  1.00  0.00     0.064 A 
ATOM      7  C   UNL A   1      31.961  23.648  24.209  1.00  0.00     0.069 A 
ATOM      8  C   UNL A   1      32.856  22.955  23.364  1.00  0.00     0.028 A 
ATOM      9  C   UNL A   1      34.122  22.553  23.793  1.00  0.00     0.002 A 
ATOM     10  C   UNL A   1      33.646  23.473  25.960  1.00  0.00     0.016 A 
ATOM     11  C   UNL A   1      34.531  22.843  25.087  1.00  0.00     0.001 A 
BRANCH   7  12
ATOM     12  N   UNL A   1      30.841  24.208  23.555  1.00  0.00    -0.277 N 
ATOM     13  H   UNL A   1      30.324  23.602  22.978  1.00  0.00     0.190 HD
BRANCH  12  14
ATOM     14  N   UNL A   1      30.404  25.480  23.637  1.00  0.00    -0.180 NA
ATOM     15  C   UNL A   1      32.025  26.235  21.875  1.00  0.00     0.069 C 
ATOM     16  C   UNL A   1      30.884  26.402  22.853  1.00  0.00     0.065 C 
BRANCH  16  17
ATOM     17  C   UNL A   1      30.239  27.745  22.926  1.00  0.00    -0.002 A 
ATOM     18  C   UNL A   1      28.863  27.838  23.169  1.00  0.00     0.011 A 
ATOM     19  C   UNL A   1      30.981  28.897  22.650  1.00  0.00     0.011 A 
ATOM     20  C   UNL A   1      28.223  29.080  23.131  1.00  0.00     0.021 A 
ATOM     21  C   UNL A   1      30.351  30.142  22.622  1.00  0.00     0.021 A 
ATOM     22  C   UNL A   1      28.973  30.225  22.847  1.00  0.00     0.067 A 
BRANCH  22  23
ATOM     23  S   UNL A   1      28.169  31.810  22.814  1.00  0.00     0.175 S 
ATOM     24  C   UNL A   1      27.865  32.096  21.091  1.00  0.00     0.163 C 
ATOM     25  O   UNL A   1      26.898  31.664  23.490  1.00  0.00    -0.224 OA
ATOM     26  O   UNL A   1      29.139  32.798  23.261  1.00  0.00    -0.224 OA
ENDBRANCH  22  23
ENDBRANCH  16  17
ENDBRANCH  12  14
ENDBRANCH   7  12
ENDBRANCH   3   6
ENDBRANCH   1   2
BRANCH   1  27
ATOM     27  C   UNL A   1      31.676  28.210  26.378  1.00  0.00     0.042 C 
BRANCH  27  28
ATOM     28  C   UNL A   1      32.609  29.343  25.973  1.00  0.00     0.118 C 
BRANCH  28  29
ATOM     29  N   UNL A   1      32.329  30.642  26.579  1.00  0.00    -0.352 N 
ATOM     30  C   UNL A   1      33.168  31.526  27.224  1.00  0.00     0.251 C 
ATOM     31  H   UNL A   1      31.391  30.934  26.517  1.00  0.00     0.163 HD
ATOM     32  O   UNL A   1      32.757  32.624  27.587  1.00  0.00    -0.269 OA
BRANCH  30  33
ATOM     33  C   UNL A   1      34.540  31.101  27.571  1.00  0.00     0.039 A 
ATOM     34  C   UNL A   1      35.520  32.084  27.729  1.00  0.00     0.014 A 
ATOM     35  C   UNL A   1      34.822  29.773  27.878  1.00  0.00     0.014 A 
ATOM     36  C   UNL A   1      36.733  31.755  28.338  1.00  0.00     0.010 A 
ATOM     37  C   UNL A   1      35.968  29.476  28.605  1.00  0.00     0.010 A 
ATOM     38  C   UNL A   1      36.932  30.465  28.857  1.00  0.00    -0.014 A 
BRANCH  38  39
ATOM     39  C   UNL A   1      38.123  30.131  29.679  1.00  0.00     0.031 A 
ATOM     40  C   UNL A   1      39.156  29.176  29.148  1.00  0.00     0.074 A 
ATOM     41  C   UNL A   1      38.227  30.605  30.938  1.00  0.00     0.049 A 
ATOM     42  N   UNL A   1      40.204  28.669  29.746  1.00  0.00    -0.248 NA
ATOM     43  C   UNL A   1      38.954  28.684  27.776  1.00  0.00     0.031 C 
ATOM     44  C   UNL A   1      37.253  31.474  31.603  1.00  0.00     0.029 A 
ATOM     45  N   UNL A   1      39.198  30.413  31.891  1.00  0.00    -0.354 N 
ATOM     46  C   UNL A   1      40.759  27.779  28.837  1.00  0.00     0.074 A 
ATOM     47  C   UNL A   1      39.895  27.759  27.679  1.00  0.00     0.031 C 
ATOM     48  C   UNL A   1      37.694  31.770  32.836  1.00  0.00     0.029 A 
ATOM     49  C   UNL A   1      38.958  31.081  33.068  1.00  0.00     0.049 A 
ATOM     50  H   UNL A   1      39.992  29.848  31.744  1.00  0.00     0.167 HD
ATOM     51  C   UNL A   1      41.907  27.067  28.942  1.00  0.00     0.037 A 
ATOM     52  C   UNL A   1      39.679  31.133  34.204  1.00  0.00     0.037 A 
ATOM     53  C   UNL A   1      42.790  27.131  30.075  1.00  0.00     0.049 A 
ATOM     54  C   UNL A   1      40.973  30.369  34.283  1.00  0.00     0.074 A 
ATOM     55  C   UNL A   1      44.017  26.517  30.249  1.00  0.00     0.029 A 
ATOM     56  N   UNL A   1      42.538  27.860  31.228  1.00  0.00    -0.354 N 
ATOM     57  N   UNL A   1      41.530  29.593  33.386  1.00  0.00    -0.248 NA
ATOM     58  C   UNL A   1      41.741  30.494  35.529  1.00  0.00     0.031 C 
ATOM     59  C   UNL A   1      44.491  26.845  31.524  1.00  0.00     0.029 A 
ATOM     60  C   UNL A   1      43.580  27.700  32.125  1.00  0.00     0.049 A 
ATOM     61  H   UNL A   1      41.737  28.410  31.385  1.00  0.00     0.167 HD
ATOM     62  C   UNL A   1      42.723  29.157  33.945  1.00  0.00     0.074 A 
ATOM     63  C   UNL A   1      42.816  29.768  35.255  1.00  0.00     0.031 C 
ATOM     64  C   UNL A   1      43.657  28.324  33.422  1.00  0.00     0.037 A 
BRANCH  51  65
ATOM     65  C   UNL A   1      42.268  26.174  27.791  1.00  0.00     0.064 A 
ATOM     66  C   UNL A   1      41.708  24.894  27.648  1.00  0.00     0.173 A 
ATOM     67  C   UNL A   1      43.190  26.597  26.823  1.00  0.00     0.173 A 
ATOM     68  F   UNL A   1      40.832  24.435  28.555  1.00  0.00    -0.203 F 
ATOM     69  C   UNL A   1      42.092  24.055  26.606  1.00  0.00     0.198 A 
ATOM     70  C   UNL A   1      43.544  25.769  25.761  1.00  0.00     0.198 A 
ATOM     71  F   UNL A   1      43.752  27.813  26.907  1.00  0.00    -0.203 F 
ATOM     72  F   UNL A   1      41.597  22.812  26.531  1.00  0.00    -0.200 F 
ATOM     73  C   UNL A   1      43.006  24.495  25.660  1.00  0.00     0.200 A 
ATOM     74  F   UNL A   1      44.419  26.199  24.841  1.00  0.00    -0.200 F 
ATOM     75  F   UNL A   1      43.377  23.685  24.658  1.00  0.00    -0.200 F 
ENDBRANCH  51  65
BRANCH  52  76
ATOM     76  C   UNL A   1      39.216  31.973  35.340  1.00  0.00     0.064 A 
ATOM     77  C   UNL A   1      38.418  31.428  36.356  1.00  0.00     0.173 A 
ATOM     78  C   UNL A   1      39.567  33.327  35.443  1.00  0.00     0.173 A 
ATOM     79  F   UNL A   1      38.039  30.142  36.292  1.00  0.00    -0.203 F 
ATOM     80  C   UNL A   1      37.976  32.208  37.423  1.00  0.00     0.198 A 
ATOM     81  C   UNL A   1      39.144  34.100  36.524  1.00  0.00     0.198 A 
ATOM     82  F   UNL A   1      40.333  33.896  34.501  1.00  0.00    -0.203 F 
ATOM     83  F   UNL A   1      37.184  31.670  38.360  1.00  0.00    -0.200 F 
ATOM     84  C   UNL A   1      38.345  33.542  37.509  1.00  0.00     0.200 A 
ATOM     85  F   UNL A   1      39.516  35.384  36.611  1.00  0.00    -0.200 F 
ATOM     86  F   UNL A   1      37.927  34.289  38.540  1.00  0.00    -0.200 F 
ENDBRANCH  52  76
BRANCH  64  87
ATOM     87  C   UNL A   1      44.874  28.048  34.253  1.00  0.00     0.064 A 
ATOM     88  C   UNL A   1      46.007  28.874  34.195  1.00  0.00     0.173 A 
ATOM     89  C   UNL A   1      44.887  26.973  35.154  1.00  0.00     0.173 A 
ATOM     90  F   UNL A   1      46.047  29.905  33.338  1.00  0.00    -0.203 F 
ATOM     91  C   UNL A   1      47.116  28.621  34.997  1.00  0.00     0.198 A 
ATOM     92  C   UNL A   1      45.987  26.740  35.975  1.00  0.00     0.198 A 
ATOM     93  F   UNL A   1      43.827  26.157  35.250  1.00  0.00    -0.203 F 
ATOM     94  F   UNL A   1      48.203  29.399  34.897  1.00  0.00    -0.200 F 
ATOM     95  C   UNL A   1      47.102  27.561  35.891  1.00  0.00     0.200 A 
ATOM     96  F   UNL A   1      45.968  25.724  36.847  1.00  0.00    -0.200 F 
ATOM     97  F   UNL A   1      48.168  27.325  36.669  1.00  0.00    -0.200 F 
ENDBRANCH  64  87
ENDBRANCH  38  39
ENDBRANCH  30  33
ENDBRANCH  28  29
ENDBRANCH  27  28
ENDBRANCH   1  27
TORSDOF 14
ENDMDL
MODEL 2
REMARK VINA RESULT:     -13.4      0.467      7.392
REMARK SMILES C/C(=N\Nc1ccccc1C(=O)NCCCNC(=O)c1ccc(-c2c3nc(c(-c4c(F)c(F)c(F)c(F)c4F)c4ccc([nH]4)c(-c4c(F)c(F)c(F)c(F)c4F)c4nc(c(-c5c(F)c(F)c(F)c(F)c5F)c5ccc2[nH]5)C=C4)C=C3)cc1)c1ccc(S(C)(=O)=O)cc1
REMARK SMILES IDX 14 1 13 2 11 3 12 4 10 6 5 7 6 8 7 9 9 10 8 11 4 12 3 14
REMARK SMILES IDX 1 15 2 16 83 17 84 18 92 19 85 20 91 21 86 22 87 23 88 24
REMARK SMILES IDX 89 25 90 26 15 27 16 28 17 29 18 30 19 32 20 33 21 34 82 35
REMARK SMILES IDX 22 36 81 37 23 38 24 39 25 40 75 41 26 42 80 43 74 44 76 45
REMARK SMILES IDX 27 46 79 47 73 48 72 49 28 51 60 52 40 53 59 54 41 55 44 56
REMARK SMILES IDX 58 57 77 58 42 59 43 60 57 62 78 63 45 64 29 65 30 66 38 67
REMARK SMILES IDX 31 68 32 69 36 70 39 71 33 72 34 73 37 74 35 75 61 76 62 77
REMARK SMILES IDX 70 78 63 79 64 80 68 81 71 82 65 83 66 84 69 85 67 86 46 87
REMARK SMILES IDX 47 88 55 89 48 90 49 91 53 92 56 93 50 94 51 95 54 96 52 97
REMARK H PARENT 13 5 4 13 17 31 76 50 44 61
REMARK Flexibility Score: inf
ROOT
ATOM      1  C   UNL A   1      32.327  26.987  26.173  1.00  0.00     0.118 C 
ENDROOT
BRANCH   1   2
ATOM      2  N   UNL A   1      31.468  25.968  26.747  1.00  0.00    -0.352 N 
ATOM      3  C   UNL A   1      31.549  24.605  26.601  1.00  0.00     0.253 C 
ATOM      4  O   UNL A   1      30.768  23.897  27.238  1.00  0.00    -0.269 OA
ATOM      5  H   UNL A   1      30.734  26.297  27.315  1.00  0.00     0.163 HD
BRANCH   3   6
ATOM      6  C   UNL A   1      32.454  23.981  25.607  1.00  0.00     0.064 A 
ATOM      7  C   UNL A   1      32.124  23.675  24.277  1.00  0.00     0.069 A 
ATOM      8  C   UNL A   1      33.075  22.954  23.518  1.00  0.00     0.028 A 
ATOM      9  C   UNL A   1      34.334  22.629  24.023  1.00  0.00     0.002 A 
ATOM     10  C   UNL A   1      33.743  23.685  26.098  1.00  0.00     0.016 A 
ATOM     11  C   UNL A   1      34.682  23.025  25.307  1.00  0.00     0.001 A 
BRANCH   7  12
ATOM     12  N   UNL A   1      31.014  24.146  23.542  1.00  0.00    -0.277 N 
ATOM     13  H   UNL A   1      30.563  23.491  22.962  1.00  0.00     0.190 HD
BRANCH  12  14
ATOM     14  N   UNL A   1      30.505  25.394  23.550  1.00  0.00    -0.180 NA
ATOM     15  C   UNL A   1      32.265  26.208  21.954  1.00  0.00     0.069 C 
ATOM     16  C   UNL A   1      31.018  26.329  22.801  1.00  0.00     0.065 C 
BRANCH  16  17
ATOM     17  C   UNL A   1      30.301  27.635  22.776  1.00  0.00    -0.002 A 
ATOM     18  C   UNL A   1      30.984  28.791  22.378  1.00  0.00     0.011 A 
ATOM     19  C   UNL A   1      28.987  27.726  23.246  1.00  0.00     0.011 A 
ATOM     20  C   UNL A   1      30.361  30.040  22.454  1.00  0.00     0.021 A 
ATOM     21  C   UNL A   1      28.354  28.968  23.313  1.00  0.00     0.021 A 
ATOM     22  C   UNL A   1      29.050  30.120  22.933  1.00  0.00     0.067 A 
BRANCH  22  23
ATOM     23  S   UNL A   1      28.245  31.702  23.015  1.00  0.00     0.175 S 
ATOM     24  C   UNL A   1      28.038  32.162  21.316  1.00  0.00     0.163 C 
ATOM     25  O   UNL A   1      26.937  31.491  23.600  1.00  0.00    -0.224 OA
ATOM     26  O   UNL A   1      29.183  32.637  23.615  1.00  0.00    -0.224 OA
ENDBRANCH  22  23
ENDBRANCH  16  17
ENDBRANCH  12  14
ENDBRANCH   7  12
ENDBRANCH   3   6
ENDBRANCH   1   2
BRANCH   1  27
ATOM     27  C   UNL A   1      31.720  28.375  26.190  1.00  0.00     0.042 C 
BRANCH  27  28
ATOM     28  C   UNL A   1      32.698  29.503  25.895  1.00  0.00     0.118 C 
BRANCH  28  29
ATOM     29  N   UNL A   1      32.445  30.760  26.595  1.00  0.00    -0.352 N 
ATOM     30  C   UNL A   1      33.303  31.582  27.294  1.00  0.00     0.251 C 
ATOM     31  H   UNL A   1      31.511  31.072  26.562  1.00  0.00     0.163 HD
ATOM     32  O   UNL A   1      32.914  32.658  27.738  1.00  0.00    -0.269 OA
BRANCH  30  33
ATOM     33  C   UNL A   1      34.671  31.111  27.598  1.00  0.00     0.039 A 
ATOM     34  C   UNL A   1      35.646  32.060  27.915  1.00  0.00     0.014 A 
ATOM     35  C   UNL A   1      34.951  29.751  27.713  1.00  0.00     0.014 A 
ATOM     36  C   UNL A   1      36.849  31.644  28.489  1.00  0.00     0.010 A 
ATOM     37  C   UNL A   1      36.085  29.351  28.407  1.00  0.00     0.010 A 
ATOM     38  C   UNL A   1      37.042  30.293  28.817  1.00  0.00    -0.014 A 
BRANCH  38  39
ATOM     39  C   UNL A   1      38.220  29.842  29.601  1.00  0.00     0.031 A 
ATOM     40  C   UNL A   1      38.429  30.351  31.000  1.00  0.00     0.074 A 
ATOM     41  C   UNL A   1      39.154  29.056  29.024  1.00  0.00     0.049 A 
ATOM     42  N   UNL A   1      39.443  30.170  31.808  1.00  0.00    -0.248 NA
ATOM     43  C   UNL A   1      37.378  31.225  31.547  1.00  0.00     0.031 C 
ATOM     44  C   UNL A   1      39.112  28.560  27.646  1.00  0.00     0.029 A 
ATOM     45  N   UNL A   1      40.327  28.545  29.521  1.00  0.00    -0.354 N 
ATOM     46  C   UNL A   1      39.164  30.932  32.935  1.00  0.00     0.074 A 
ATOM     47  C   UNL A   1      37.926  31.633  32.678  1.00  0.00     0.031 C 
ATOM     48  C   UNL A   1      40.188  27.787  27.423  1.00  0.00     0.029 A 
ATOM     49  C   UNL A   1      41.015  27.764  28.624  1.00  0.00     0.049 A 
ATOM     50  H   UNL A   1      40.646  28.721  30.437  1.00  0.00     0.167 HD
ATOM     51  C   UNL A   1      39.859  31.014  34.094  1.00  0.00     0.037 A 
ATOM     52  C   UNL A   1      42.182  27.104  28.756  1.00  0.00     0.037 A 
ATOM     53  C   UNL A   1      41.062  30.273  34.363  1.00  0.00     0.049 A 
ATOM     54  C   UNL A   1      42.915  27.174  30.068  1.00  0.00     0.074 A 
ATOM     55  C   UNL A   1      41.799  30.218  35.532  1.00  0.00     0.029 A 
ATOM     56  N   UNL A   1      41.701  29.453  33.446  1.00  0.00    -0.354 N 
ATOM     57  N   UNL A   1      42.601  27.834  31.156  1.00  0.00    -0.248 NA
ATOM     58  C   UNL A   1      44.160  26.401  30.173  1.00  0.00     0.031 C 
ATOM     59  C   UNL A   1      42.906  29.392  35.311  1.00  0.00     0.029 A 
ATOM     60  C   UNL A   1      42.833  28.897  34.018  1.00  0.00     0.049 A 
ATOM     61  H   UNL A   1      41.395  29.289  32.524  1.00  0.00     0.167 HD
ATOM     62  C   UNL A   1      43.592  27.539  32.082  1.00  0.00     0.074 A 
ATOM     63  C   UNL A   1      44.511  26.627  31.432  1.00  0.00     0.031 C 
ATOM     64  C   UNL A   1      43.730  27.985  33.355  1.00  0.00     0.037 A 
BRANCH  51  65
ATOM     65  C   UNL A   1      39.318  31.928  35.155  1.00  0.00     0.064 A 
ATOM     66  C   UNL A   1      39.608  33.302  35.162  1.00  0.00     0.173 A 
ATOM     67  C   UNL A   1      38.506  31.425  36.182  1.00  0.00     0.173 A 
ATOM     68  F   UNL A   1      40.392  33.831  34.211  1.00  0.00    -0.203 F 
ATOM     69  C   UNL A   1      39.144  34.128  36.182  1.00  0.00     0.198 A 
ATOM     70  C   UNL A   1      38.013  32.262  37.181  1.00  0.00     0.198 A 
ATOM     71  F   UNL A   1      38.192  30.121  36.222  1.00  0.00    -0.203 F 
ATOM     72  F   UNL A   1      39.494  35.422  36.205  1.00  0.00    -0.200 F 
ATOM     73  C   UNL A   1      38.343  33.609  37.187  1.00  0.00     0.200 A 
ATOM     74  F   UNL A   1      37.230  31.762  38.146  1.00  0.00    -0.200 F 
ATOM     75  F   UNL A   1      37.899  34.406  38.170  1.00  0.00    -0.200 F 
ENDBRANCH  51  65
BRANCH  52  76
ATOM     76  C   UNL A   1      42.703  26.285  27.630  1.00  0.00     0.064 A 
ATOM     77  C   UNL A   1      43.635  26.817  26.727  1.00  0.00     0.173 A 
ATOM     78  C   UNL A   1      42.296  24.957  27.438  1.00  0.00     0.173 A 
ATOM     79  F   UNL A   1      44.041  28.089  26.858  1.00  0.00    -0.203 F 
ATOM     80  C   UNL A   1      44.128  26.058  25.667  1.00  0.00     0.198 A 
ATOM     81  C   UNL A   1      42.808  24.191  26.392  1.00  0.00     0.198 A 
ATOM     82  F   UNL A   1      41.411  24.397  28.277  1.00  0.00    -0.203 F 
ATOM     83  F   UNL A   1      44.988  26.605  24.798  1.00  0.00    -0.200 F 
ATOM     84  C   UNL A   1      43.718  24.743  25.504  1.00  0.00     0.200 A 
ATOM     85  F   UNL A   1      42.422  22.916  26.247  1.00  0.00    -0.200 F 
ATOM     86  F   UNL A   1      44.198  24.011  24.490  1.00  0.00    -0.200 F 
ENDBRANCH  52  76
BRANCH  64  87
ATOM     87  C   UNL A   1      44.900  27.470  34.140  1.00  0.00     0.064 A 
ATOM     88  C   UNL A   1      44.824  26.277  34.876  1.00  0.00     0.173 A 
ATOM     89  C   UNL A   1      46.125  28.152  34.114  1.00  0.00     0.173 A 
ATOM     90  F   UNL A   1      43.669  25.598  34.942  1.00  0.00    -0.203 F 
ATOM     91  C   UNL A   1      45.928  25.798  35.573  1.00  0.00     0.198 A 
ATOM     92  C   UNL A   1      47.236  27.654  34.790  1.00  0.00     0.198 A 
ATOM     93  F   UNL A   1      46.249  29.294  33.422  1.00  0.00    -0.203 F 
ATOM     94  F   UNL A   1      45.823  24.678  36.302  1.00  0.00    -0.200 F 
ATOM     95  C   UNL A   1      47.134  26.481  35.523  1.00  0.00     0.200 A 
ATOM     96  F   UNL A   1      48.403  28.308  34.731  1.00  0.00    -0.200 F 
ATOM     97  F   UNL A   1      48.200  26.012  36.188  1.00  0.00    -0.200 F 
ENDBRANCH  64  87
ENDBRANCH  38  39
ENDBRANCH  30  33
ENDBRANCH  28  29
ENDBRANCH  27  28
ENDBRANCH   1  27
TORSDOF 14
ENDMDL
MODEL 3
REMARK VINA RESULT:     -13.3      2.262      8.520
REMARK SMILES C/C(=N\Nc1ccccc1C(=O)NCCCNC(=O)c1ccc(-c2c3nc(c(-c4c(F)c(F)c(F)c(F)c4F)c4ccc([nH]4)c(-c4c(F)c(F)c(F)c(F)c4F)c4nc(c(-c5c(F)c(F)c(F)c(F)c5F)c5ccc2[nH]5)C=C4)C=C3)cc1)c1ccc(S(C)(=O)=O)cc1
REMARK SMILES IDX 14 1 13 2 11 3 12 4 10 6 5 7 6 8 7 9 9 10 8 11 4 12 3 14
REMARK SMILES IDX 1 15 2 16 83 17 84 18 92 19 85 20 91 21 86 22 87 23 88 24
REMARK SMILES IDX 89 25 90 26 15 27 16 28 17 29 18 30 19 32 20 33 21 34 82 35
REMARK SMILES IDX 22 36 81 37 23 38 24 39 25 40 75 41 26 42 80 43 74 44 76 45
REMARK SMILES IDX 27 46 79 47 73 48 72 49 28 51 60 52 40 53 59 54 41 55 44 56
REMARK SMILES IDX 58 57 77 58 42 59 43 60 57 62 78 63 45 64 29 65 30 66 38 67
REMARK SMILES IDX 31 68 32 69 36 70 39 71 33 72 34 73 37 74 35 75 61 76 62 77
REMARK SMILES IDX 70 78 63 79 64 80 68 81 71 82 65 83 66 84 69 85 67 86 46 87
REMARK SMILES IDX 47 88 55 89 48 90 49 91 53 92 56 93 50 94 51 95 54 96 52 97
REMARK H PARENT 13 5 4 13 17 31 76 50 44 61
REMARK Flexibility Score: inf
ROOT
ATOM      1  C   UNL A   1      32.440  27.744  27.025  1.00  0.00     0.118 C 
ENDROOT
BRANCH   1   2
ATOM      2  N   UNL A   1      31.504  26.637  27.084  1.00  0.00    -0.352 N 
ATOM      3  C   UNL A   1      30.862  26.008  26.046  1.00  0.00     0.253 C 
ATOM      4  O   UNL A   1      30.160  25.027  26.295  1.00  0.00    -0.269 OA
ATOM      5  H   UNL A   1      31.306  26.291  27.984  1.00  0.00     0.163 HD
BRANCH   3   6
ATOM      6  C   UNL A   1      30.888  26.556  24.669  1.00  0.00     0.064 A 
ATOM      7  C   UNL A   1      31.981  26.510  23.789  1.00  0.00     0.069 A 
ATOM      8  C   UNL A   1      31.864  27.209  22.566  1.00  0.00     0.028 A 
ATOM      9  C   UNL A   1      30.684  27.851  22.188  1.00  0.00     0.002 A 
ATOM     10  C   UNL A   1      29.685  27.172  24.265  1.00  0.00     0.016 A 
ATOM     11  C   UNL A   1      29.579  27.803  23.026  1.00  0.00     0.001 A 
BRANCH   7  12
ATOM     12  N   UNL A   1      33.136  25.705  23.903  1.00  0.00    -0.277 N 
ATOM     13  H   UNL A   1      33.974  26.171  24.124  1.00  0.00     0.190 HD
BRANCH  12  14
ATOM     14  N   UNL A   1      33.215  24.369  23.743  1.00  0.00    -0.180 NA
ATOM     15  C   UNL A   1      34.079  24.060  26.081  1.00  0.00     0.069 C 
ATOM     16  C   UNL A   1      33.585  23.600  24.727  1.00  0.00     0.065 C 
BRANCH  16  17
ATOM     17  C   UNL A   1      33.508  22.130  24.493  1.00  0.00    -0.002 A 
ATOM     18  C   UNL A   1      32.469  21.608  23.713  1.00  0.00     0.011 A 
ATOM     19  C   UNL A   1      34.404  21.267  25.133  1.00  0.00     0.011 A 
ATOM     20  C   UNL A   1      32.317  20.226  23.574  1.00  0.00     0.021 A 
ATOM     21  C   UNL A   1      34.266  19.886  24.989  1.00  0.00     0.021 A 
ATOM     22  C   UNL A   1      33.213  19.373  24.224  1.00  0.00     0.067 A 
BRANCH  22  23
ATOM     23  S   UNL A   1      33.037  17.613  24.038  1.00  0.00     0.175 S 
ATOM     24  C   UNL A   1      34.636  16.980  24.470  1.00  0.00     0.163 C 
ATOM     25  O   UNL A   1      32.080  17.168  25.029  1.00  0.00    -0.224 OA
ATOM     26  O   UNL A   1      32.823  17.345  22.625  1.00  0.00    -0.224 OA
ENDBRANCH  22  23
ENDBRANCH  16  17
ENDBRANCH  12  14
ENDBRANCH   7  12
ENDBRANCH   3   6
ENDBRANCH   1   2
BRANCH   1  27
ATOM     27  C   UNL A   1      31.779  29.105  27.112  1.00  0.00     0.042 C 
BRANCH  27  28
ATOM     28  C   UNL A   1      32.502  30.214  26.361  1.00  0.00     0.118 C 
BRANCH  28  29
ATOM     29  N   UNL A   1      32.439  31.539  26.973  1.00  0.00    -0.352 N 
ATOM     30  C   UNL A   1      33.426  32.296  27.569  1.00  0.00     0.251 C 
ATOM     31  H   UNL A   1      31.549  31.960  26.959  1.00  0.00     0.163 HD
ATOM     32  O   UNL A   1      33.192  33.440  27.946  1.00  0.00    -0.269 OA
BRANCH  30  33
ATOM     33  C   UNL A   1      34.742  31.682  27.846  1.00  0.00     0.039 A 
ATOM     34  C   UNL A   1      35.836  32.524  28.057  1.00  0.00     0.014 A 
ATOM     35  C   UNL A   1      34.865  30.308  28.039  1.00  0.00     0.014 A 
ATOM     36  C   UNL A   1      37.009  32.002  28.606  1.00  0.00     0.010 A 
ATOM     37  C   UNL A   1      35.977  29.818  28.710  1.00  0.00     0.010 A 
ATOM     38  C   UNL A   1      37.058  30.660  29.015  1.00  0.00    -0.014 A 
BRANCH  38  39
ATOM     39  C   UNL A   1      38.212  30.119  29.777  1.00  0.00     0.031 A 
ATOM     40  C   UNL A   1      38.447  30.561  31.195  1.00  0.00     0.074 A 
ATOM     41  C   UNL A   1      39.104  29.310  29.167  1.00  0.00     0.049 A 
ATOM     42  N   UNL A   1      39.452  30.296  31.992  1.00  0.00    -0.248 NA
ATOM     43  C   UNL A   1      37.443  31.464  31.779  1.00  0.00     0.031 C 
ATOM     44  C   UNL A   1      39.036  28.872  27.770  1.00  0.00     0.029 A 
ATOM     45  N   UNL A   1      40.250  28.720  29.640  1.00  0.00    -0.354 N 
ATOM     46  C   UNL A   1      39.213  31.026  33.149  1.00  0.00     0.074 A 
ATOM     47  C   UNL A   1      38.012  31.799  32.924  1.00  0.00     0.031 C 
ATOM     48  C   UNL A   1      40.071  28.055  27.514  1.00  0.00     0.029 A 
ATOM     49  C   UNL A   1      40.897  27.942  28.710  1.00  0.00     0.049 A 
ATOM     50  H   UNL A   1      40.579  28.844  30.561  1.00  0.00     0.167 HD
ATOM     51  C   UNL A   1      39.912  31.026  34.309  1.00  0.00     0.037 A 
ATOM     52  C   UNL A   1      42.029  27.219  28.813  1.00  0.00     0.037 A 
ATOM     53  C   UNL A   1      41.076  30.215  34.545  1.00  0.00     0.049 A 
ATOM     54  C   UNL A   1      42.765  27.199  30.124  1.00  0.00     0.074 A 
ATOM     55  C   UNL A   1      41.810  30.076  35.709  1.00  0.00     0.029 A 
ATOM     56  N   UNL A   1      41.672  29.400  33.594  1.00  0.00    -0.354 N 
ATOM     57  N   UNL A   1      42.486  27.831  31.238  1.00  0.00    -0.248 NA
ATOM     58  C   UNL A   1      43.970  26.360  30.195  1.00  0.00     0.031 C 
ATOM     59  C   UNL A   1      42.874  29.204  35.451  1.00  0.00     0.029 A 
ATOM     60  C   UNL A   1      42.775  28.765  34.140  1.00  0.00     0.049 A 
ATOM     61  H   UNL A   1      41.357  29.289  32.667  1.00  0.00     0.167 HD
ATOM     62  C   UNL A   1      43.462  27.449  32.149  1.00  0.00     0.074 A 
ATOM     63  C   UNL A   1      44.333  26.518  31.460  1.00  0.00     0.031 C 
ATOM     64  C   UNL A   1      43.624  27.836  33.438  1.00  0.00     0.037 A 
BRANCH  51  65
ATOM     65  C   UNL A   1      39.419  31.923  35.406  1.00  0.00     0.064 A 
ATOM     66  C   UNL A   1      39.847  33.257  35.517  1.00  0.00     0.173 A 
ATOM     67  C   UNL A   1      38.514  31.445  36.365  1.00  0.00     0.173 A 
ATOM     68  F   UNL A   1      40.724  33.759  34.634  1.00  0.00    -0.203 F 
ATOM     69  C   UNL A   1      39.424  34.061  36.571  1.00  0.00     0.198 A 
ATOM     70  C   UNL A   1      38.065  32.264  37.398  1.00  0.00     0.198 A 
ATOM     71  F   UNL A   1      38.068  30.181  36.305  1.00  0.00    -0.203 F 
ATOM     72  F   UNL A   1      39.902  35.307  36.694  1.00  0.00    -0.200 F 
ATOM     73  C   UNL A   1      38.529  33.567  37.507  1.00  0.00     0.200 A 
ATOM     74  F   UNL A   1      37.191  31.789  38.297  1.00  0.00    -0.200 F 
ATOM     75  F   UNL A   1      38.125  34.342  38.524  1.00  0.00    -0.200 F 
ENDBRANCH  51  65
BRANCH  52  76
ATOM     76  C   UNL A   1      42.507  26.420  27.653  1.00  0.00     0.064 A 
ATOM     77  C   UNL A   1      41.985  25.144  27.398  1.00  0.00     0.173 A 
ATOM     78  C   UNL A   1      43.481  26.913  26.773  1.00  0.00     0.173 A 
ATOM     79  F   UNL A   1      41.065  24.621  28.223  1.00  0.00    -0.203 F 
ATOM     80  C   UNL A   1      42.428  24.386  26.316  1.00  0.00     0.198 A 
ATOM     81  C   UNL A   1      43.906  26.165  25.677  1.00  0.00     0.198 A 
ATOM     82  F   UNL A   1      44.009  28.131  26.969  1.00  0.00    -0.203 F 
ATOM     83  F   UNL A   1      41.938  23.155  26.118  1.00  0.00    -0.200 F 
ATOM     84  C   UNL A   1      43.384  24.900  25.453  1.00  0.00     0.200 A 
ATOM     85  F   UNL A   1      44.819  26.671  24.836  1.00  0.00    -0.200 F 
ATOM     86  F   UNL A   1      43.805  24.174  24.407  1.00  0.00    -0.200 F 
ENDBRANCH  52  76
BRANCH  64  87
ATOM     87  C   UNL A   1      44.766  27.231  34.199  1.00  0.00     0.064 A 
ATOM     88  C   UNL A   1      44.643  25.996  34.852  1.00  0.00     0.173 A 
ATOM     89  C   UNL A   1      46.013  27.873  34.232  1.00  0.00     0.173 A 
ATOM     90  F   UNL A   1      43.466  25.352  34.862  1.00  0.00    -0.203 F 
ATOM     91  C   UNL A   1      45.722  25.434  35.527  1.00  0.00     0.198 A 
ATOM     92  C   UNL A   1      47.099  27.294  34.884  1.00  0.00     0.198 A 
ATOM     93  F   UNL A   1      46.183  29.053  33.619  1.00  0.00    -0.203 F 
ATOM     94  F   UNL A   1      45.572  24.273  36.179  1.00  0.00    -0.200 F 
ATOM     95  C   UNL A   1      46.951  26.079  35.535  1.00  0.00     0.200 A 
ATOM     96  F   UNL A   1      48.287  27.912  34.880  1.00  0.00    -0.200 F 
ATOM     97  F   UNL A   1      47.992  25.531  36.178  1.00  0.00    -0.200 F 
ENDBRANCH  64  87
ENDBRANCH  38  39
ENDBRANCH  30  33
ENDBRANCH  28  29
ENDBRANCH  27  28
ENDBRANCH   1  27
TORSDOF 14
ENDMDL
