MODEL 1
REMARK VINA RESULT:     -11.8      0.000      0.000
REMARK SMILES C[NH+](C)CC[NH2+][C@@H](C(=O)NCCCNC(=O)c1ccc(-c2c3nc(c(-c4c(F)c(F)c(F)c(F)c4F)c4ccc([nH]4)c(-c4c(F)c(F)c(F)c(F)c4F)c4nc(c(-c5c(F)c(F)c(F)c(F)c5F)c5ccc2[nH]5)C=C4)C=C3)cc1)c1cccc(C2CC2)c1
REMARK SMILES IDX 11 1 10 2 8 3 9 4 7 6 6 7 5 10 4 11 2 12 1 13 3 14 80 16
REMARK SMILES IDX 81 17 88 18 82 19 84 20 83 21 85 22 86 23 87 24 12 25 13 26
REMARK SMILES IDX 14 27 15 28 16 30 17 31 18 32 79 33 19 34 78 35 20 36 21 37
REMARK SMILES IDX 22 38 72 39 23 40 77 41 71 42 73 43 24 44 76 45 70 46 69 47
REMARK SMILES IDX 25 49 57 50 37 51 56 52 38 53 41 54 55 55 74 56 39 57 40 58
REMARK SMILES IDX 54 60 75 61 42 62 26 63 27 64 35 65 28 66 29 67 33 68 36 69
REMARK SMILES IDX 30 70 31 71 34 72 32 73 58 74 59 75 67 76 60 77 61 78 65 79
REMARK SMILES IDX 68 80 62 81 63 82 66 83 64 84 43 85 44 86 52 87 45 88 46 89
REMARK SMILES IDX 50 90 53 91 47 92 48 93 51 94 49 95
REMARK H PARENT 10 5 6 8 6 9 2 15 14 29 73 48 41 59
REMARK Flexibility Score: inf
ROOT
ATOM      1  C   UNL A   1      33.606  29.008  25.244  1.00  0.00     0.118 C 
ENDROOT
BRANCH   1   2
ATOM      2  N   UNL A   1      33.893  29.001  23.816  1.00  0.00    -0.351 N 
ATOM      3  C   UNL A   1      33.650  28.091  22.822  1.00  0.00     0.283 C 
ATOM      4  O   UNL A   1      34.244  28.303  21.758  1.00  0.00    -0.268 OA
ATOM      5  H   UNL A   1      34.354  29.813  23.502  1.00  0.00     0.163 HD
BRANCH   3   6
ATOM      6  C   UNL A   1      32.752  26.825  23.045  1.00  0.00     0.304 C 
BRANCH   6   7
ATOM      7  N   UNL A   1      32.839  25.968  21.831  1.00  0.00    -0.328 N 
ATOM      8  H   UNL A   1      31.976  26.081  21.300  1.00  0.00     0.347 HD
ATOM      9  H   UNL A   1      33.666  26.276  21.321  1.00  0.00     0.347 HD
BRANCH   7  10
ATOM     10  C   UNL A   1      33.023  24.554  22.099  1.00  0.00     0.323 C 
BRANCH  10  11
ATOM     11  C   UNL A   1      33.947  24.252  23.300  1.00  0.00     0.323 C 
BRANCH  11  12
ATOM     12  N   UNL A   1      34.657  22.963  23.332  1.00  0.00    -0.335 N 
ATOM     13  C   UNL A   1      36.110  23.089  23.324  1.00  0.00     0.332 C 
ATOM     14  C   UNL A   1      34.212  22.066  24.393  1.00  0.00     0.332 C 
ATOM     15  H   UNL A   1      34.394  22.525  22.448  1.00  0.00     0.347 HD
ENDBRANCH  11  12
ENDBRANCH  10  11
ENDBRANCH   7  10
ENDBRANCH   6   7
BRANCH   6  16
ATOM     16  C   UNL A   1      31.254  27.141  23.256  1.00  0.00     0.019 A 
ATOM     17  C   UNL A   1      30.444  26.191  23.909  1.00  0.00     0.010 A 
ATOM     18  C   UNL A   1      30.625  28.307  22.777  1.00  0.00     0.014 A 
ATOM     19  C   UNL A   1      29.065  26.355  23.994  1.00  0.00     0.001 A 
ATOM     20  C   UNL A   1      29.226  28.500  22.833  1.00  0.00    -0.044 A 
ATOM     21  C   UNL A   1      28.467  27.489  23.446  1.00  0.00     0.004 A 
BRANCH  20  22
ATOM     22  C   UNL A   1      28.511  29.694  22.225  1.00  0.00     0.019 C 
ATOM     23  C   UNL A   1      27.544  30.560  22.993  1.00  0.00     0.009 C 
ATOM     24  C   UNL A   1      28.907  31.090  22.651  1.00  0.00     0.009 C 
ENDBRANCH  20  22
ENDBRANCH   6  16
ENDBRANCH   3   6
ENDBRANCH   1   2
BRANCH   1  25
ATOM     25  C   UNL A   1      32.367  29.842  25.621  1.00  0.00     0.042 C 
BRANCH  25  26
ATOM     26  C   UNL A   1      32.368  30.457  27.023  1.00  0.00     0.118 C 
BRANCH  26  27
ATOM     27  N   UNL A   1      32.526  31.897  26.977  1.00  0.00    -0.352 N 
ATOM     28  C   UNL A   1      33.504  32.694  27.520  1.00  0.00     0.251 C 
ATOM     29  H   UNL A   1      31.825  32.378  26.480  1.00  0.00     0.163 HD
ATOM     30  O   UNL A   1      33.311  33.906  27.584  1.00  0.00    -0.269 OA
BRANCH  28  31
ATOM     31  C   UNL A   1      34.789  32.139  28.022  1.00  0.00     0.039 A 
ATOM     32  C   UNL A   1      34.794  30.823  28.502  1.00  0.00     0.014 A 
ATOM     33  C   UNL A   1      35.943  32.918  28.154  1.00  0.00     0.014 A 
ATOM     34  C   UNL A   1      35.938  30.293  29.109  1.00  0.00     0.010 A 
ATOM     35  C   UNL A   1      37.105  32.371  28.716  1.00  0.00     0.010 A 
ATOM     36  C   UNL A   1      37.105  31.065  29.229  1.00  0.00    -0.014 A 
BRANCH  36  37
ATOM     37  C   UNL A   1      38.289  30.528  29.955  1.00  0.00     0.031 A 
ATOM     38  C   UNL A   1      38.539  30.909  31.392  1.00  0.00     0.074 A 
ATOM     39  C   UNL A   1      39.142  29.689  29.336  1.00  0.00     0.049 A 
ATOM     40  N   UNL A   1      39.495  30.522  32.201  1.00  0.00    -0.248 NA
ATOM     41  C   UNL A   1      37.599  31.866  31.995  1.00  0.00     0.031 C 
ATOM     42  C   UNL A   1      39.045  29.265  27.941  1.00  0.00     0.029 A 
ATOM     43  N   UNL A   1      40.260  29.041  29.806  1.00  0.00    -0.354 N 
ATOM     44  C   UNL A   1      39.281  31.197  33.396  1.00  0.00     0.074 A 
ATOM     45  C   UNL A   1      38.130  32.051  33.195  1.00  0.00     0.031 C 
ATOM     46  C   UNL A   1      40.046  28.409  27.672  1.00  0.00     0.029 A 
ATOM     47  C   UNL A   1      40.863  28.236  28.871  1.00  0.00     0.049 A 
ATOM     48  H   UNL A   1      40.596  29.144  30.725  1.00  0.00     0.167 HD
ATOM     49  C   UNL A   1      39.964  31.101  34.563  1.00  0.00     0.037 A 
ATOM     50  C   UNL A   1      41.943  27.438  28.972  1.00  0.00     0.037 A 
ATOM     51  C   UNL A   1      41.088  30.230  34.784  1.00  0.00     0.049 A 
ATOM     52  C   UNL A   1      42.661  27.318  30.289  1.00  0.00     0.074 A 
ATOM     53  C   UNL A   1      41.817  30.033  35.945  1.00  0.00     0.029 A 
ATOM     54  N   UNL A   1      41.646  29.404  33.820  1.00  0.00    -0.354 N 
ATOM     55  N   UNL A   1      42.410  27.917  31.426  1.00  0.00    -0.248 NA
ATOM     56  C   UNL A   1      43.804  26.394  30.338  1.00  0.00     0.031 C 
ATOM     57  C   UNL A   1      42.831  29.107  35.677  1.00  0.00     0.029 A 
ATOM     58  C   UNL A   1      42.712  28.699  34.358  1.00  0.00     0.049 A 
ATOM     59  H   UNL A   1      41.331  29.328  32.890  1.00  0.00     0.167 HD
ATOM     60  C   UNL A   1      43.340  27.423  32.332  1.00  0.00     0.074 A 
ATOM     61  C   UNL A   1      44.155  26.465  31.614  1.00  0.00     0.031 C 
ATOM     62  C   UNL A   1      43.504  27.737  33.640  1.00  0.00     0.037 A 
BRANCH  49  63
ATOM     63  C   UNL A   1      39.504  31.961  35.704  1.00  0.00     0.064 A 
ATOM     64  C   UNL A   1      38.518  31.524  36.601  1.00  0.00     0.173 A 
ATOM     65  C   UNL A   1      40.080  33.221  35.925  1.00  0.00     0.173 A 
ATOM     66  F   UNL A   1      37.928  30.331  36.427  1.00  0.00    -0.203 F 
ATOM     67  C   UNL A   1      38.104  32.329  37.659  1.00  0.00     0.198 A 
ATOM     68  C   UNL A   1      39.682  34.012  36.999  1.00  0.00     0.198 A 
ATOM     69  F   UNL A   1      41.033  33.683  35.101  1.00  0.00    -0.203 F 
ATOM     70  F   UNL A   1      37.126  31.910  38.475  1.00  0.00    -0.200 F 
ATOM     71  C   UNL A   1      38.690  33.570  37.860  1.00  0.00     0.200 A 
ATOM     72  F   UNL A   1      40.257  35.206  37.200  1.00  0.00    -0.200 F 
ATOM     73  F   UNL A   1      38.292  34.342  38.881  1.00  0.00    -0.200 F 
ENDBRANCH  49  63
BRANCH  50  74
ATOM     74  C   UNL A   1      42.388  26.645  27.797  1.00  0.00     0.064 A 
ATOM     75  C   UNL A   1      43.350  27.152  26.912  1.00  0.00     0.173 A 
ATOM     76  C   UNL A   1      41.857  25.376  27.531  1.00  0.00     0.173 A 
ATOM     77  F   UNL A   1      43.868  28.373  27.114  1.00  0.00    -0.203 F 
ATOM     78  C   UNL A   1      43.753  26.424  25.795  1.00  0.00     0.198 A 
ATOM     79  C   UNL A   1      42.278  24.639  26.426  1.00  0.00     0.198 A 
ATOM     80  F   UNL A   1      40.934  24.849  28.349  1.00  0.00    -0.203 F 
ATOM     81  F   UNL A   1      44.644  26.948  24.943  1.00  0.00    -0.200 F 
ATOM     82  C   UNL A   1      43.220  25.166  25.555  1.00  0.00     0.200 A 
ATOM     83  F   UNL A   1      41.769  23.420  26.203  1.00  0.00    -0.200 F 
ATOM     84  F   UNL A   1      43.609  24.466  24.482  1.00  0.00    -0.200 F 
ENDBRANCH  50  74
BRANCH  62  85
ATOM     85  C   UNL A   1      44.579  27.009  34.391  1.00  0.00     0.064 A 
ATOM     86  C   UNL A   1      45.886  27.512  34.480  1.00  0.00     0.173 A 
ATOM     87  C   UNL A   1      44.291  25.804  35.050  1.00  0.00     0.173 A 
ATOM     88  F   UNL A   1      46.212  28.652  33.855  1.00  0.00    -0.203 F 
ATOM     89  C   UNL A   1      46.872  26.819  35.177  1.00  0.00     0.198 A 
ATOM     90  C   UNL A   1      45.274  25.127  35.766  1.00  0.00     0.198 A 
ATOM     91  F   UNL A   1      43.055  25.284  34.999  1.00  0.00    -0.203 F 
ATOM     92  F   UNL A   1      48.126  27.292  35.208  1.00  0.00    -0.200 F 
ATOM     93  C   UNL A   1      46.564  25.630  35.823  1.00  0.00     0.200 A 
ATOM     94  F   UNL A   1      44.974  23.982  36.397  1.00  0.00    -0.200 F 
ATOM     95  F   UNL A   1      47.516  24.964  36.492  1.00  0.00    -0.200 F 
ENDBRANCH  62  85
ENDBRANCH  36  37
ENDBRANCH  28  31
ENDBRANCH  26  27
ENDBRANCH  25  26
ENDBRANCH   1  25
TORSDOF 16
ENDMDL
MODEL 2
REMARK VINA RESULT:     -11.6      0.955      3.795
REMARK SMILES C[NH+](C)CC[NH2+][C@@H](C(=O)NCCCNC(=O)c1ccc(-c2c3nc(c(-c4c(F)c(F)c(F)c(F)c4F)c4ccc([nH]4)c(-c4c(F)c(F)c(F)c(F)c4F)c4nc(c(-c5c(F)c(F)c(F)c(F)c5F)c5ccc2[nH]5)C=C4)C=C3)cc1)c1cccc(C2CC2)c1
REMARK SMILES IDX 11 1 10 2 8 3 9 4 7 6 6 7 5 10 4 11 2 12 1 13 3 14 80 16
REMARK SMILES IDX 81 17 88 18 82 19 84 20 83 21 85 22 86 23 87 24 12 25 13 26
REMARK SMILES IDX 14 27 15 28 16 30 17 31 18 32 79 33 19 34 78 35 20 36 21 37
REMARK SMILES IDX 22 38 72 39 23 40 77 41 71 42 73 43 24 44 76 45 70 46 69 47
REMARK SMILES IDX 25 49 57 50 37 51 56 52 38 53 41 54 55 55 74 56 39 57 40 58
REMARK SMILES IDX 54 60 75 61 42 62 26 63 27 64 35 65 28 66 29 67 33 68 36 69
REMARK SMILES IDX 30 70 31 71 34 72 32 73 58 74 59 75 67 76 60 77 61 78 65 79
REMARK SMILES IDX 68 80 62 81 63 82 66 83 64 84 43 85 44 86 52 87 45 88 46 89
REMARK SMILES IDX 50 90 53 91 47 92 48 93 51 94 49 95
REMARK H PARENT 10 5 6 8 6 9 2 15 14 29 73 48 41 59
REMARK Flexibility Score: inf
ROOT
ATOM      1  C   UNL A   1      33.722  28.946  25.132  1.00  0.00     0.118 C 
ENDROOT
BRANCH   1   2
ATOM      2  N   UNL A   1      34.002  28.919  23.702  1.00  0.00    -0.351 N 
ATOM      3  C   UNL A   1      33.674  28.040  22.705  1.00  0.00     0.283 C 
ATOM      4  O   UNL A   1      34.281  28.203  21.640  1.00  0.00    -0.268 OA
ATOM      5  H   UNL A   1      34.533  29.688  23.390  1.00  0.00     0.163 HD
BRANCH   3   6
ATOM      6  C   UNL A   1      32.666  26.860  22.927  1.00  0.00     0.304 C 
BRANCH   6   7
ATOM      7  N   UNL A   1      31.382  27.425  23.426  1.00  0.00    -0.328 N 
ATOM      8  H   UNL A   1      30.909  26.705  23.971  1.00  0.00     0.347 HD
ATOM      9  H   UNL A   1      31.626  28.248  23.976  1.00  0.00     0.347 HD
BRANCH   7  10
ATOM     10  C   UNL A   1      30.475  27.878  22.389  1.00  0.00     0.323 C 
BRANCH  10  11
ATOM     11  C   UNL A   1      30.215  29.401  22.395  1.00  0.00     0.323 C 
BRANCH  11  12
ATOM     12  N   UNL A   1      28.886  29.888  21.992  1.00  0.00    -0.335 N 
ATOM     13  C   UNL A   1      27.788  29.303  22.752  1.00  0.00     0.332 C 
ATOM     14  C   UNL A   1      28.776  31.342  21.942  1.00  0.00     0.332 C 
ATOM     15  H   UNL A   1      28.791  29.554  21.032  1.00  0.00     0.347 HD
ENDBRANCH  11  12
ENDBRANCH  10  11
ENDBRANCH   7  10
ENDBRANCH   6   7
BRANCH   6  16
ATOM     16  C   UNL A   1      33.127  25.821  23.974  1.00  0.00     0.019 A 
ATOM     17  C   UNL A   1      32.285  25.536  25.066  1.00  0.00     0.010 A 
ATOM     18  C   UNL A   1      34.380  25.176  23.937  1.00  0.00     0.014 A 
ATOM     19  C   UNL A   1      32.711  24.724  26.114  1.00  0.00     0.001 A 
ATOM     20  C   UNL A   1      34.850  24.359  24.990  1.00  0.00    -0.044 A 
ATOM     21  C   UNL A   1      33.984  24.160  26.078  1.00  0.00     0.004 A 
BRANCH  20  22
ATOM     22  C   UNL A   1      36.239  23.744  25.028  1.00  0.00     0.019 C 
ATOM     23  C   UNL A   1      36.532  22.398  25.643  1.00  0.00     0.009 C 
ATOM     24  C   UNL A   1      36.545  22.551  24.149  1.00  0.00     0.009 C 
ENDBRANCH  20  22
ENDBRANCH   6  16
ENDBRANCH   3   6
ENDBRANCH   1   2
BRANCH   1  25
ATOM     25  C   UNL A   1      32.436  29.710  25.496  1.00  0.00     0.042 C 
BRANCH  25  26
ATOM     26  C   UNL A   1      32.363  30.272  26.918  1.00  0.00     0.118 C 
BRANCH  26  27
ATOM     27  N   UNL A   1      32.471  31.717  26.930  1.00  0.00    -0.352 N 
ATOM     28  C   UNL A   1      33.413  32.525  27.519  1.00  0.00     0.251 C 
ATOM     29  H   UNL A   1      31.761  32.192  26.441  1.00  0.00     0.163 HD
ATOM     30  O   UNL A   1      33.177  33.726  27.627  1.00  0.00    -0.269 OA
BRANCH  28  31
ATOM     31  C   UNL A   1      34.708  31.995  28.020  1.00  0.00     0.039 A 
ATOM     32  C   UNL A   1      34.750  30.665  28.459  1.00  0.00     0.014 A 
ATOM     33  C   UNL A   1      35.836  32.805  28.190  1.00  0.00     0.014 A 
ATOM     34  C   UNL A   1      35.903  30.153  29.064  1.00  0.00     0.010 A 
ATOM     35  C   UNL A   1      37.008  32.278  28.749  1.00  0.00     0.010 A 
ATOM     36  C   UNL A   1      37.044  30.956  29.221  1.00  0.00    -0.014 A 
BRANCH  36  37
ATOM     37  C   UNL A   1      38.235  30.434  29.945  1.00  0.00     0.031 A 
ATOM     38  C   UNL A   1      38.492  30.832  31.376  1.00  0.00     0.074 A 
ATOM     39  C   UNL A   1      39.090  29.594  29.330  1.00  0.00     0.049 A 
ATOM     40  N   UNL A   1      39.456  30.459  32.183  1.00  0.00    -0.248 NA
ATOM     41  C   UNL A   1      37.551  31.790  31.976  1.00  0.00     0.031 C 
ATOM     42  C   UNL A   1      38.987  29.155  27.939  1.00  0.00     0.029 A 
ATOM     43  N   UNL A   1      40.214  28.958  29.799  1.00  0.00    -0.354 N 
ATOM     44  C   UNL A   1      39.245  31.146  33.373  1.00  0.00     0.074 A 
ATOM     45  C   UNL A   1      38.088  31.990  33.170  1.00  0.00     0.031 C 
ATOM     46  C   UNL A   1      39.990  28.302  27.673  1.00  0.00     0.029 A 
ATOM     47  C   UNL A   1      40.816  28.147  28.868  1.00  0.00     0.049 A 
ATOM     48  H   UNL A   1      40.556  29.073  30.715  1.00  0.00     0.167 HD
ATOM     49  C   UNL A   1      39.937  31.065  34.536  1.00  0.00     0.037 A 
ATOM     50  C   UNL A   1      41.902  27.357  28.970  1.00  0.00     0.037 A 
ATOM     51  C   UNL A   1      41.068  30.204  34.758  1.00  0.00     0.049 A 
ATOM     52  C   UNL A   1      42.630  27.255  30.284  1.00  0.00     0.074 A 
ATOM     53  C   UNL A   1      41.805  30.024  35.917  1.00  0.00     0.029 A 
ATOM     54  N   UNL A   1      41.624  29.371  33.800  1.00  0.00    -0.354 N 
ATOM     55  N   UNL A   1      42.382  27.864  31.417  1.00  0.00    -0.248 NA
ATOM     56  C   UNL A   1      43.778  26.338  30.335  1.00  0.00     0.031 C 
ATOM     57  C   UNL A   1      42.823  29.101  35.651  1.00  0.00     0.029 A 
ATOM     58  C   UNL A   1      42.698  28.679  34.338  1.00  0.00     0.049 A 
ATOM     59  H   UNL A   1      41.304  29.284  32.872  1.00  0.00     0.167 HD
ATOM     60  C   UNL A   1      43.321  27.385  32.321  1.00  0.00     0.074 A 
ATOM     61  C   UNL A   1      44.137  26.425  31.608  1.00  0.00     0.031 C 
ATOM     62  C   UNL A   1      43.492  27.714  33.625  1.00  0.00     0.037 A 
BRANCH  49  63
ATOM     63  C   UNL A   1      39.479  31.934  35.671  1.00  0.00     0.064 A 
ATOM     64  C   UNL A   1      39.992  33.227  35.859  1.00  0.00     0.173 A 
ATOM     65  C   UNL A   1      38.492  31.484  36.561  1.00  0.00     0.173 A 
ATOM     66  F   UNL A   1      40.946  33.699  35.042  1.00  0.00    -0.203 F 
ATOM     67  C   UNL A   1      39.555  34.025  36.912  1.00  0.00     0.198 A 
ATOM     68  C   UNL A   1      38.038  32.296  37.598  1.00  0.00     0.198 A 
ATOM     69  F   UNL A   1      37.963  30.260  36.422  1.00  0.00    -0.203 F 
ATOM     70  F   UNL A   1      40.094  35.238  37.099  1.00  0.00    -0.200 F 
ATOM     71  C   UNL A   1      38.575  33.562  37.777  1.00  0.00     0.200 A 
ATOM     72  F   UNL A   1      37.083  31.851  38.426  1.00  0.00    -0.200 F 
ATOM     73  F   UNL A   1      38.153  34.333  38.789  1.00  0.00    -0.200 F 
ENDBRANCH  49  63
BRANCH  50  74
ATOM     74  C   UNL A   1      42.344  26.555  27.801  1.00  0.00     0.064 A 
ATOM     75  C   UNL A   1      41.785  25.295  27.542  1.00  0.00     0.173 A 
ATOM     76  C   UNL A   1      43.333  27.024  26.927  1.00  0.00     0.173 A 
ATOM     77  F   UNL A   1      40.852  24.795  28.367  1.00  0.00    -0.203 F 
ATOM     78  C   UNL A   1      42.212  24.527  26.463  1.00  0.00     0.198 A 
ATOM     79  C   UNL A   1      43.743  26.265  25.833  1.00  0.00     0.198 A 
ATOM     80  F   UNL A   1      43.897  28.224  27.132  1.00  0.00    -0.203 F 
ATOM     81  F   UNL A   1      41.692  23.309  26.261  1.00  0.00    -0.200 F 
ATOM     82  C   UNL A   1      43.187  25.015  25.605  1.00  0.00     0.200 A 
ATOM     83  F   UNL A   1      44.678  26.743  25.000  1.00  0.00    -0.200 F 
ATOM     84  F   UNL A   1      43.596  24.277  24.564  1.00  0.00    -0.200 F 
ENDBRANCH  50  74
BRANCH  62  85
ATOM     85  C   UNL A   1      44.576  27.000  34.376  1.00  0.00     0.064 A 
ATOM     86  C   UNL A   1      44.342  25.776  35.020  1.00  0.00     0.173 A 
ATOM     87  C   UNL A   1      45.871  27.537  34.434  1.00  0.00     0.173 A 
ATOM     88  F   UNL A   1      43.117  25.230  35.005  1.00  0.00    -0.203 F 
ATOM     89  C   UNL A   1      45.359  25.130  35.718  1.00  0.00     0.198 A 
ATOM     90  C   UNL A   1      46.891  26.876  35.112  1.00  0.00     0.198 A 
ATOM     91  F   UNL A   1      46.146  28.704  33.830  1.00  0.00    -0.203 F 
ATOM     92  F   UNL A   1      45.102  23.985  36.367  1.00  0.00    -0.200 F 
ATOM     93  C   UNL A   1      46.633  25.678  35.759  1.00  0.00     0.200 A 
ATOM     94  F   UNL A   1      48.123  27.403  35.145  1.00  0.00    -0.200 F 
ATOM     95  F   UNL A   1      47.610  25.055  36.434  1.00  0.00    -0.200 F 
ENDBRANCH  62  85
ENDBRANCH  36  37
ENDBRANCH  28  31
ENDBRANCH  26  27
ENDBRANCH  25  26
ENDBRANCH   1  25
TORSDOF 16
ENDMDL
MODEL 3
REMARK VINA RESULT:     -11.6      1.517      3.552
REMARK SMILES C[NH+](C)CC[NH2+][C@@H](C(=O)NCCCNC(=O)c1ccc(-c2c3nc(c(-c4c(F)c(F)c(F)c(F)c4F)c4ccc([nH]4)c(-c4c(F)c(F)c(F)c(F)c4F)c4nc(c(-c5c(F)c(F)c(F)c(F)c5F)c5ccc2[nH]5)C=C4)C=C3)cc1)c1cccc(C2CC2)c1
REMARK SMILES IDX 11 1 10 2 8 3 9 4 7 6 6 7 5 10 4 11 2 12 1 13 3 14 80 16
REMARK SMILES IDX 81 17 88 18 82 19 84 20 83 21 85 22 86 23 87 24 12 25 13 26
REMARK SMILES IDX 14 27 15 28 16 30 17 31 18 32 79 33 19 34 78 35 20 36 21 37
REMARK SMILES IDX 22 38 72 39 23 40 77 41 71 42 73 43 24 44 76 45 70 46 69 47
REMARK SMILES IDX 25 49 57 50 37 51 56 52 38 53 41 54 55 55 74 56 39 57 40 58
REMARK SMILES IDX 54 60 75 61 42 62 26 63 27 64 35 65 28 66 29 67 33 68 36 69
REMARK SMILES IDX 30 70 31 71 34 72 32 73 58 74 59 75 67 76 60 77 61 78 65 79
REMARK SMILES IDX 68 80 62 81 63 82 66 83 64 84 43 85 44 86 52 87 45 88 46 89
REMARK SMILES IDX 50 90 53 91 47 92 48 93 51 94 49 95
REMARK H PARENT 10 5 6 8 6 9 2 15 14 29 73 48 41 59
REMARK Flexibility Score: inf
ROOT
ATOM      1  C   UNL A   1      31.234  27.385  26.017  1.00  0.00     0.118 C 
ENDROOT
BRANCH   1   2
ATOM      2  N   UNL A   1      31.256  26.135  26.764  1.00  0.00    -0.351 N 
ATOM      3  C   UNL A   1      31.477  24.835  26.397  1.00  0.00     0.283 C 
ATOM      4  O   UNL A   1      31.184  23.990  27.252  1.00  0.00    -0.268 OA
ATOM      5  H   UNL A   1      31.076  26.247  27.726  1.00  0.00     0.163 HD
BRANCH   3   6
ATOM      6  C   UNL A   1      31.983  24.441  24.966  1.00  0.00     0.304 C 
BRANCH   6   7
ATOM      7  N   UNL A   1      30.801  24.105  24.126  1.00  0.00    -0.328 N 
ATOM      8  H   UNL A   1      30.992  23.225  23.648  1.00  0.00     0.347 HD
ATOM      9  H   UNL A   1      30.004  24.053  24.759  1.00  0.00     0.347 HD
BRANCH   7  10
ATOM     10  C   UNL A   1      30.466  25.101  23.125  1.00  0.00     0.323 C 
BRANCH  10  11
ATOM     11  C   UNL A   1      31.670  25.585  22.285  1.00  0.00     0.323 C 
BRANCH  11  12
ATOM     12  N   UNL A   1      31.833  27.031  22.062  1.00  0.00    -0.335 N 
ATOM     13  C   UNL A   1      30.645  27.815  22.377  1.00  0.00     0.332 C 
ATOM     14  C   UNL A   1      33.021  27.598  22.692  1.00  0.00     0.332 C 
ATOM     15  H   UNL A   1      31.975  27.101  21.054  1.00  0.00     0.347 HD
ENDBRANCH  11  12
ENDBRANCH  10  11
ENDBRANCH   7  10
ENDBRANCH   6   7
BRANCH   6  16
ATOM     16  C   UNL A   1      32.909  23.204  24.940  1.00  0.00     0.019 A 
ATOM     17  C   UNL A   1      34.298  23.390  25.079  1.00  0.00     0.010 A 
ATOM     18  C   UNL A   1      32.451  21.889  24.723  1.00  0.00     0.014 A 
ATOM     19  C   UNL A   1      35.188  22.333  24.915  1.00  0.00     0.001 A 
ATOM     20  C   UNL A   1      33.327  20.795  24.537  1.00  0.00    -0.044 A 
ATOM     21  C   UNL A   1      34.704  21.057  24.631  1.00  0.00     0.004 A 
BRANCH  20  22
ATOM     22  C   UNL A   1      32.864  19.390  24.190  1.00  0.00     0.019 C 
ATOM     23  C   UNL A   1      33.765  18.183  24.251  1.00  0.00     0.009 C 
ATOM     24  C   UNL A   1      32.702  18.370  25.295  1.00  0.00     0.009 C 
ENDBRANCH  20  22
ENDBRANCH   6  16
ENDBRANCH   3   6
ENDBRANCH   1   2
BRANCH   1  25
ATOM     25  C   UNL A   1      31.780  28.588  26.809  1.00  0.00     0.042 C 
BRANCH  25  26
ATOM     26  C   UNL A   1      32.795  29.472  26.081  1.00  0.00     0.118 C 
BRANCH  26  27
ATOM     27  N   UNL A   1      32.633  30.871  26.424  1.00  0.00    -0.352 N 
ATOM     28  C   UNL A   1      33.362  31.657  27.283  1.00  0.00     0.251 C 
ATOM     29  H   UNL A   1      31.886  31.327  25.973  1.00  0.00     0.163 HD
ATOM     30  O   UNL A   1      32.901  32.743  27.626  1.00  0.00    -0.269 OA
BRANCH  28  31
ATOM     31  C   UNL A   1      34.692  31.241  27.802  1.00  0.00     0.039 A 
ATOM     32  C   UNL A   1      34.847  29.915  28.227  1.00  0.00     0.014 A 
ATOM     33  C   UNL A   1      35.737  32.147  28.001  1.00  0.00     0.014 A 
ATOM     34  C   UNL A   1      36.031  29.502  28.847  1.00  0.00     0.010 A 
ATOM     35  C   UNL A   1      36.943  31.722  28.576  1.00  0.00     0.010 A 
ATOM     36  C   UNL A   1      37.091  30.403  29.034  1.00  0.00    -0.014 A 
BRANCH  36  37
ATOM     37  C   UNL A   1      38.312  29.983  29.774  1.00  0.00     0.031 A 
ATOM     38  C   UNL A   1      38.550  30.458  31.185  1.00  0.00     0.074 A 
ATOM     39  C   UNL A   1      39.212  29.166  29.192  1.00  0.00     0.049 A 
ATOM     40  N   UNL A   1      39.536  30.176  32.002  1.00  0.00    -0.248 NA
ATOM     41  C   UNL A   1      37.558  31.386  31.746  1.00  0.00     0.031 C 
ATOM     42  C   UNL A   1      39.129  28.660  27.822  1.00  0.00     0.029 A 
ATOM     43  N   UNL A   1      40.372  28.616  29.682  1.00  0.00    -0.354 N 
ATOM     44  C   UNL A   1      39.290  30.902  33.161  1.00  0.00     0.074 A 
ATOM     45  C   UNL A   1      38.086  31.670  32.927  1.00  0.00     0.031 C 
ATOM     46  C   UNL A   1      40.179  27.854  27.589  1.00  0.00     0.029 A 
ATOM     47  C   UNL A   1      41.016  27.800  28.785  1.00  0.00     0.049 A 
ATOM     48  H   UNL A   1      40.709  28.791  30.590  1.00  0.00     0.167 HD
ATOM     49  C   UNL A   1      39.989  30.913  34.323  1.00  0.00     0.037 A 
ATOM     50  C   UNL A   1      42.146  27.078  28.916  1.00  0.00     0.037 A 
ATOM     51  C   UNL A   1      41.167  30.128  34.577  1.00  0.00     0.049 A 
ATOM     52  C   UNL A   1      42.882  27.076  30.229  1.00  0.00     0.074 A 
ATOM     53  C   UNL A   1      41.917  30.041  35.738  1.00  0.00     0.029 A 
ATOM     54  N   UNL A   1      41.768  29.286  33.653  1.00  0.00    -0.354 N 
ATOM     55  N   UNL A   1      42.603  27.720  31.335  1.00  0.00    -0.248 NA
ATOM     56  C   UNL A   1      44.081  26.229  30.314  1.00  0.00     0.031 C 
ATOM     57  C   UNL A   1      42.985  29.167  35.508  1.00  0.00     0.029 A 
ATOM     58  C   UNL A   1      42.881  28.680  34.216  1.00  0.00     0.049 A 
ATOM     59  H   UNL A   1      41.450  29.139  32.732  1.00  0.00     0.167 HD
ATOM     60  C   UNL A   1      43.570  27.336  32.255  1.00  0.00     0.074 A 
ATOM     61  C   UNL A   1      44.438  26.392  31.580  1.00  0.00     0.031 C 
ATOM     62  C   UNL A   1      43.726  27.731  33.542  1.00  0.00     0.037 A 
BRANCH  49  63
ATOM     63  C   UNL A   1      39.485  31.804  35.421  1.00  0.00     0.064 A 
ATOM     64  C   UNL A   1      38.578  31.340  36.385  1.00  0.00     0.173 A 
ATOM     65  C   UNL A   1      39.942  33.126  35.532  1.00  0.00     0.173 A 
ATOM     66  F   UNL A   1      38.104  30.087  36.316  1.00  0.00    -0.203 F 
ATOM     67  C   UNL A   1      38.123  32.174  37.402  1.00  0.00     0.198 A 
ATOM     68  C   UNL A   1      39.505  33.950  36.565  1.00  0.00     0.198 A 
ATOM     69  F   UNL A   1      40.815  33.617  34.641  1.00  0.00    -0.203 F 
ATOM     70  F   UNL A   1      37.220  31.723  38.284  1.00  0.00    -0.200 F 
ATOM     71  C   UNL A   1      38.591  33.477  37.495  1.00  0.00     0.200 A 
ATOM     72  F   UNL A   1      39.966  35.205  36.661  1.00  0.00    -0.200 F 
ATOM     73  F   UNL A   1      38.154  34.279  38.477  1.00  0.00    -0.200 F 
ENDBRANCH  49  63
BRANCH  50  74
ATOM     74  C   UNL A   1      42.629  26.251  27.781  1.00  0.00     0.064 A 
ATOM     75  C   UNL A   1      43.600  26.742  26.897  1.00  0.00     0.173 A 
ATOM     76  C   UNL A   1      42.127  24.963  27.552  1.00  0.00     0.173 A 
ATOM     77  F   UNL A   1      44.092  27.979  27.064  1.00  0.00    -0.203 F 
ATOM     78  C   UNL A   1      44.039  25.982  25.817  1.00  0.00     0.198 A 
ATOM     79  C   UNL A   1      42.584  24.194  26.484  1.00  0.00     0.198 A 
ATOM     80  F   UNL A   1      41.197  24.449  28.370  1.00  0.00    -0.203 F 
ATOM     81  F   UNL A   1      44.939  26.490  24.963  1.00  0.00    -0.200 F 
ATOM     82  C   UNL A   1      43.535  24.706  25.613  1.00  0.00     0.200 A 
ATOM     83  F   UNL A   1      42.102  22.958  26.296  1.00  0.00    -0.200 F 
ATOM     84  F   UNL A   1      43.959  23.974  24.575  1.00  0.00    -0.200 F 
ENDBRANCH  50  74
BRANCH  62  85
ATOM     85  C   UNL A   1      44.851  27.114  34.318  1.00  0.00     0.064 A 
ATOM     86  C   UNL A   1      46.122  27.707  34.370  1.00  0.00     0.173 A 
ATOM     87  C   UNL A   1      44.648  25.927  35.038  1.00  0.00     0.173 A 
ATOM     88  F   UNL A   1      46.368  28.834  33.688  1.00  0.00    -0.203 F 
ATOM     89  C   UNL A   1      47.156  27.116  35.092  1.00  0.00     0.198 A 
ATOM     90  C   UNL A   1      45.678  25.353  35.777  1.00  0.00     0.198 A 
ATOM     91  F   UNL A   1      43.450  25.324  35.023  1.00  0.00    -0.203 F 
ATOM     92  F   UNL A   1      48.375  27.673  35.089  1.00  0.00    -0.200 F 
ATOM     93  C   UNL A   1      46.932  25.943  35.798  1.00  0.00     0.200 A 
ATOM     94  F   UNL A   1      45.458  24.224  36.466  1.00  0.00    -0.200 F 
ATOM     95  F   UNL A   1      47.930  25.376  36.491  1.00  0.00    -0.200 F 
ENDBRANCH  62  85
ENDBRANCH  36  37
ENDBRANCH  28  31
ENDBRANCH  26  27
ENDBRANCH  25  26
ENDBRANCH   1  25
TORSDOF 16
ENDMDL
