MODEL 1
REMARK VINA RESULT:     -12.2      0.000      0.000
REMARK SMILES CCOc1cnc(C(=O)c2[nH]c3cc(Cl)ccc3c2CC(=O)NCCCNC(=O)c2ccc(-c3c4nc(c(-c5c(F)c(F)c(F)c(F)c5F)c5ccc([nH]5)c(-c5c(F)c(F)c(F)c(F)c5F)c5nc(c(-c6c(F)c(F)c(F)c(F)c6F)c6ccc3[nH]6)C=C5)C=C4)cc2)cc1CC
REMARK SMILES IDX 21 1 22 2 23 3 20 5 19 6 10 7 11 8 12 9 18 11 13 12 17 13
REMARK SMILES IDX 14 14 16 15 15 16 8 17 9 18 7 19 4 20 5 21 94 22 6 23 93 24
REMARK SMILES IDX 3 25 2 26 1 27 95 28 96 29 24 30 25 31 26 32 27 33 28 34
REMARK SMILES IDX 29 36 30 37 31 38 92 39 32 40 91 41 33 42 34 43 35 44 85 45
REMARK SMILES IDX 36 46 90 47 84 48 86 49 37 50 89 51 83 52 82 53 38 55 70 56
REMARK SMILES IDX 50 57 69 58 51 59 54 60 68 61 87 62 52 63 53 64 67 66 88 67
REMARK SMILES IDX 55 68 39 69 40 70 48 71 41 72 42 73 46 74 49 75 43 76 44 77
REMARK SMILES IDX 47 78 45 79 71 80 72 81 80 82 73 83 74 84 78 85 81 86 75 87
REMARK SMILES IDX 76 88 79 89 77 90 56 91 57 92 65 93 58 94 59 95 63 96 66 97
REMARK SMILES IDX 60 98 61 99 64 100 62 101
REMARK H PARENT 23 4 11 10 27 35 86 54 54 65
REMARK Flexibility Score: inf
ROOT
ATOM      1  C   UNL A   1      36.077  23.186  24.750  1.00  0.00     0.224 C 
ATOM      2  O   UNL A   1      35.655  23.912  23.846  1.00  0.00    -0.275 OA
ATOM      3  N   UNL A   1      37.385  22.795  24.684  1.00  0.00    -0.356 N 
ATOM      4  H   UNL A   1      37.837  22.989  23.830  1.00  0.00     0.163 HD
ENDROOT
BRANCH   1   5
ATOM      5  C   UNL A   1      35.211  22.847  25.954  1.00  0.00     0.138 C 
BRANCH   5   6
ATOM      6  C   UNL A   1      34.054  21.934  25.663  1.00  0.00    -0.002 A 
ATOM      7  C   UNL A   1      32.701  22.195  25.862  1.00  0.00     0.093 A 
ATOM      8  N   UNL A   1      32.000  21.134  25.330  1.00  0.00    -0.351 N 
ATOM      9  C   UNL A   1      32.849  20.101  25.028  1.00  0.00     0.048 A 
ATOM     10  H   UNL A   1      31.026  21.122  25.189  1.00  0.00     0.167 HD
ATOM     11  C   UNL A   1      34.147  20.567  25.229  1.00  0.00     0.004 A 
ATOM     12  C   UNL A   1      32.564  18.802  24.589  1.00  0.00     0.047 A 
ATOM     13  C   UNL A   1      35.220  19.682  24.984  1.00  0.00     0.012 A 
ATOM     14  C   UNL A   1      33.646  17.949  24.362  1.00  0.00     0.043 A 
ATOM     15  C   UNL A   1      34.956  18.376  24.555  1.00  0.00     0.021 A 
ATOM     16  Cl  UNL A   1      33.349  16.337  23.835  1.00  0.00    -0.084 Cl
BRANCH   7  17
ATOM     17  C   UNL A   1      32.061  23.356  26.464  1.00  0.00     0.227 C 
ATOM     18  O   UNL A   1      31.618  23.317  27.605  1.00  0.00    -0.285 OA
BRANCH  17  19
ATOM     19  C   UNL A   1      31.978  24.627  25.640  1.00  0.00     0.113 A 
ATOM     20  C   UNL A   1      31.732  26.875  24.073  1.00  0.00     0.140 A 
ATOM     21  C   UNL A   1      31.722  25.586  23.551  1.00  0.00     0.158 A 
ATOM     22  C   UNL A   1      31.824  27.040  25.454  1.00  0.00    -0.002 A 
ATOM     23  N   UNL A   1      31.827  24.464  24.302  1.00  0.00    -0.249 NA
ATOM     24  C   UNL A   1      32.017  25.891  26.234  1.00  0.00     0.040 A 
BRANCH  20  25
ATOM     25  O   UNL A   1      31.578  27.956  23.254  1.00  0.00    -0.492 OA
BRANCH  25  26
ATOM     26  C   UNL A   1      30.273  27.993  22.658  1.00  0.00     0.226 C 
ATOM     27  C   UNL A   1      29.489  29.157  23.241  1.00  0.00     0.049 C 
ENDBRANCH  25  26
ENDBRANCH  20  25
BRANCH  22  28
ATOM     28  C   UNL A   1      31.725  28.393  26.118  1.00  0.00     0.036 C 
ATOM     29  C   UNL A   1      31.545  28.297  27.630  1.00  0.00     0.009 C 
ENDBRANCH  22  28
ENDBRANCH  17  19
ENDBRANCH   7  17
ENDBRANCH   5   6
ENDBRANCH   1   5
BRANCH   3  30
ATOM     30  C   UNL A   1      38.205  22.138  25.681  1.00  0.00     0.117 C 
BRANCH  30  31
ATOM     31  C   UNL A   1      38.760  20.792  25.220  1.00  0.00     0.042 C 
BRANCH  31  32
ATOM     32  C   UNL A   1      39.275  19.891  26.339  1.00  0.00     0.118 C 
BRANCH  32  33
ATOM     33  N   UNL A   1      40.496  19.187  25.981  1.00  0.00    -0.352 N 
ATOM     34  C   UNL A   1      41.795  19.618  25.903  1.00  0.00     0.251 C 
ATOM     35  H   UNL A   1      40.367  18.237  25.758  1.00  0.00     0.163 HD
ATOM     36  O   UNL A   1      42.642  18.870  25.418  1.00  0.00    -0.269 OA
BRANCH  34  37
ATOM     37  C   UNL A   1      42.207  20.965  26.372  1.00  0.00     0.039 A 
ATOM     38  C   UNL A   1      42.249  21.198  27.752  1.00  0.00     0.014 A 
ATOM     39  C   UNL A   1      42.468  22.016  25.489  1.00  0.00     0.014 A 
ATOM     40  C   UNL A   1      42.595  22.460  28.245  1.00  0.00     0.010 A 
ATOM     41  C   UNL A   1      42.867  23.262  25.980  1.00  0.00     0.010 A 
ATOM     42  C   UNL A   1      42.928  23.498  27.362  1.00  0.00    -0.014 A 
BRANCH  42  43
ATOM     43  C   UNL A   1      43.327  24.834  27.871  1.00  0.00     0.031 A 
ATOM     44  C   UNL A   1      42.285  25.864  28.204  1.00  0.00     0.074 A 
ATOM     45  C   UNL A   1      44.634  25.141  27.990  1.00  0.00     0.049 A 
ATOM     46  N   UNL A   1      42.443  27.107  28.588  1.00  0.00    -0.248 NA
ATOM     47  C   UNL A   1      40.881  25.450  28.069  1.00  0.00     0.031 C 
ATOM     48  C   UNL A   1      45.744  24.244  27.671  1.00  0.00     0.029 A 
ATOM     49  N   UNL A   1      45.246  26.299  28.401  1.00  0.00    -0.354 N 
ATOM     50  C   UNL A   1      41.162  27.629  28.714  1.00  0.00     0.074 A 
ATOM     51  C   UNL A   1      40.238  26.576  28.346  1.00  0.00     0.031 C 
ATOM     52  C   UNL A   1      46.903  24.880  27.909  1.00  0.00     0.029 A 
ATOM     53  C   UNL A   1      46.616  26.235  28.373  1.00  0.00     0.049 A 
ATOM     54  H   UNL A   1      44.749  27.097  28.689  1.00  0.00     0.167 HD
ATOM     55  C   UNL A   1      40.789  28.869  29.111  1.00  0.00     0.037 A 
ATOM     56  C   UNL A   1      47.540  27.165  28.682  1.00  0.00     0.037 A 
ATOM     57  C   UNL A   1      41.699  29.906  29.517  1.00  0.00     0.049 A 
ATOM     58  C   UNL A   1      47.099  28.521  29.157  1.00  0.00     0.074 A 
ATOM     59  C   UNL A   1      41.409  31.178  29.984  1.00  0.00     0.029 A 
ATOM     60  N   UNL A   1      43.080  29.789  29.511  1.00  0.00    -0.354 N 
ATOM     61  N   UNL A   1      45.885  28.989  29.305  1.00  0.00    -0.248 NA
ATOM     62  C   UNL A   1      48.159  29.476  29.510  1.00  0.00     0.031 C 
ATOM     63  C   UNL A   1      42.616  31.836  30.243  1.00  0.00     0.029 A 
ATOM     64  C   UNL A   1      43.657  30.966  29.961  1.00  0.00     0.049 A 
ATOM     65  H   UNL A   1      43.578  28.988  29.229  1.00  0.00     0.167 HD
ATOM     66  C   UNL A   1      46.032  30.282  29.784  1.00  0.00     0.074 A 
ATOM     67  C   UNL A   1      47.453  30.525  29.912  1.00  0.00     0.031 C 
ATOM     68  C   UNL A   1      45.073  31.189  30.090  1.00  0.00     0.037 A 
BRANCH  55  69
ATOM     69  C   UNL A   1      39.323  29.175  29.125  1.00  0.00     0.064 A 
ATOM     70  C   UNL A   1      38.631  29.496  27.949  1.00  0.00     0.173 A 
ATOM     71  C   UNL A   1      38.596  29.112  30.323  1.00  0.00     0.173 A 
ATOM     72  F   UNL A   1      39.289  29.579  26.782  1.00  0.00    -0.203 F 
ATOM     73  C   UNL A   1      37.265  29.761  27.973  1.00  0.00     0.198 A 
ATOM     74  C   UNL A   1      37.225  29.359  30.341  1.00  0.00     0.198 A 
ATOM     75  F   UNL A   1      39.213  28.805  31.473  1.00  0.00    -0.203 F 
ATOM     76  F   UNL A   1      36.630  30.099  26.842  1.00  0.00    -0.200 F 
ATOM     77  C   UNL A   1      36.563  29.688  29.167  1.00  0.00     0.200 A 
ATOM     78  F   UNL A   1      36.546  29.280  31.493  1.00  0.00    -0.200 F 
ATOM     79  F   UNL A   1      35.246  29.940  29.188  1.00  0.00    -0.200 F 
ENDBRANCH  55  69
BRANCH  56  80
ATOM     80  C   UNL A   1      48.980  26.832  28.577  1.00  0.00     0.064 A 
ATOM     81  C   UNL A   1      49.671  27.015  27.372  1.00  0.00     0.173 A 
ATOM     82  C   UNL A   1      49.694  26.333  29.676  1.00  0.00     0.173 A 
ATOM     83  F   UNL A   1      49.020  27.470  26.291  1.00  0.00    -0.203 F 
ATOM     84  C   UNL A   1      51.023  26.703  27.266  1.00  0.00     0.198 A 
ATOM     85  C   UNL A   1      51.051  26.038  29.573  1.00  0.00     0.198 A 
ATOM     86  F   UNL A   1      49.074  26.142  30.849  1.00  0.00    -0.203 F 
ATOM     87  F   UNL A   1      51.655  26.860  26.095  1.00  0.00    -0.200 F 
ATOM     88  C   UNL A   1      51.714  26.219  28.368  1.00  0.00     0.200 A 
ATOM     89  F   UNL A   1      51.717  25.578  30.641  1.00  0.00    -0.200 F 
ATOM     90  F   UNL A   1      53.016  25.922  28.266  1.00  0.00    -0.200 F 
ENDBRANCH  56  80
BRANCH  68  91
ATOM     91  C   UNL A   1      45.527  32.514  30.615  1.00  0.00     0.064 A 
ATOM     92  C   UNL A   1      45.772  33.594  29.756  1.00  0.00     0.173 A 
ATOM     93  C   UNL A   1      45.688  32.716  31.994  1.00  0.00     0.173 A 
ATOM     94  F   UNL A   1      45.648  33.441  28.429  1.00  0.00    -0.203 F 
ATOM     95  C   UNL A   1      46.179  34.827  30.258  1.00  0.00     0.198 A 
ATOM     96  C   UNL A   1      46.077  33.955  32.493  1.00  0.00     0.198 A 
ATOM     97  F   UNL A   1      45.464  31.711  32.854  1.00  0.00    -0.203 F 
ATOM     98  F   UNL A   1      46.439  35.838  29.417  1.00  0.00    -0.200 F 
ATOM     99  C   UNL A   1      46.326  35.009  31.625  1.00  0.00     0.200 A 
ATOM    100  F   UNL A   1      46.216  34.130  33.814  1.00  0.00    -0.200 F 
ATOM    101  F   UNL A   1      46.716  36.196  32.107  1.00  0.00    -0.200 F 
ENDBRANCH  68  91
ENDBRANCH  42  43
ENDBRANCH  34  37
ENDBRANCH  32  33
ENDBRANCH  31  32
ENDBRANCH  30  31
ENDBRANCH   3  30
TORSDOF 16
ENDMDL
MODEL 2
REMARK VINA RESULT:     -12.0      1.288      2.167
REMARK SMILES CCOc1cnc(C(=O)c2[nH]c3cc(Cl)ccc3c2CC(=O)NCCCNC(=O)c2ccc(-c3c4nc(c(-c5c(F)c(F)c(F)c(F)c5F)c5ccc([nH]5)c(-c5c(F)c(F)c(F)c(F)c5F)c5nc(c(-c6c(F)c(F)c(F)c(F)c6F)c6ccc3[nH]6)C=C5)C=C4)cc2)cc1CC
REMARK SMILES IDX 21 1 22 2 23 3 20 5 19 6 10 7 11 8 12 9 18 11 13 12 17 13
REMARK SMILES IDX 14 14 16 15 15 16 8 17 9 18 7 19 4 20 5 21 94 22 6 23 93 24
REMARK SMILES IDX 3 25 2 26 1 27 95 28 96 29 24 30 25 31 26 32 27 33 28 34
REMARK SMILES IDX 29 36 30 37 31 38 92 39 32 40 91 41 33 42 34 43 35 44 85 45
REMARK SMILES IDX 36 46 90 47 84 48 86 49 37 50 89 51 83 52 82 53 38 55 70 56
REMARK SMILES IDX 50 57 69 58 51 59 54 60 68 61 87 62 52 63 53 64 67 66 88 67
REMARK SMILES IDX 55 68 39 69 40 70 48 71 41 72 42 73 46 74 49 75 43 76 44 77
REMARK SMILES IDX 47 78 45 79 71 80 72 81 80 82 73 83 74 84 78 85 81 86 75 87
REMARK SMILES IDX 76 88 79 89 77 90 56 91 57 92 65 93 58 94 59 95 63 96 66 97
REMARK SMILES IDX 60 98 61 99 64 100 62 101
REMARK H PARENT 23 4 11 10 27 35 86 54 54 65
REMARK Flexibility Score: inf
ROOT
ATOM      1  C   UNL A   1      36.285  22.927  24.703  1.00  0.00     0.224 C 
ATOM      2  O   UNL A   1      35.897  23.610  23.752  1.00  0.00    -0.275 OA
ATOM      3  N   UNL A   1      37.587  22.513  24.692  1.00  0.00    -0.356 N 
ATOM      4  H   UNL A   1      38.064  22.654  23.841  1.00  0.00     0.163 HD
ENDROOT
BRANCH   1   5
ATOM      5  C   UNL A   1      35.383  22.666  25.901  1.00  0.00     0.138 C 
BRANCH   5   6
ATOM      6  C   UNL A   1      34.214  21.762  25.627  1.00  0.00    -0.002 A 
ATOM      7  C   UNL A   1      32.868  22.030  25.856  1.00  0.00     0.093 A 
ATOM      8  N   UNL A   1      32.149  20.979  25.331  1.00  0.00    -0.351 N 
ATOM      9  C   UNL A   1      32.985  19.942  25.003  1.00  0.00     0.048 A 
ATOM     10  H   UNL A   1      31.172  20.974  25.210  1.00  0.00     0.167 HD
ATOM     11  C   UNL A   1      34.289  20.398  25.181  1.00  0.00     0.004 A 
ATOM     12  C   UNL A   1      32.681  18.649  24.560  1.00  0.00     0.047 A 
ATOM     13  C   UNL A   1      35.351  19.508  24.907  1.00  0.00     0.012 A 
ATOM     14  C   UNL A   1      33.753  17.791  24.304  1.00  0.00     0.043 A 
ATOM     15  C   UNL A   1      35.070  18.207  24.474  1.00  0.00     0.021 A 
ATOM     16  Cl  UNL A   1      33.434  16.185  23.771  1.00  0.00    -0.084 Cl
BRANCH   7  17
ATOM     17  C   UNL A   1      32.248  23.191  26.481  1.00  0.00     0.227 C 
ATOM     18  O   UNL A   1      31.843  23.152  27.635  1.00  0.00    -0.285 OA
BRANCH  17  19
ATOM     19  C   UNL A   1      32.139  24.463  25.661  1.00  0.00     0.113 A 
ATOM     20  C   UNL A   1      31.857  26.706  24.091  1.00  0.00     0.140 A 
ATOM     21  C   UNL A   1      32.014  25.429  23.563  1.00  0.00     0.158 A 
ATOM     22  C   UNL A   1      31.791  26.856  25.476  1.00  0.00    -0.002 A 
ATOM     23  N   UNL A   1      32.140  24.308  24.313  1.00  0.00    -0.249 NA
ATOM     24  C   UNL A   1      32.004  25.716  26.264  1.00  0.00     0.040 A 
BRANCH  20  25
ATOM     25  O   UNL A   1      31.692  27.781  23.268  1.00  0.00    -0.492 OA
BRANCH  25  26
ATOM     26  C   UNL A   1      30.568  27.617  22.391  1.00  0.00     0.226 C 
ATOM     27  C   UNL A   1      29.500  28.636  22.750  1.00  0.00     0.049 C 
ENDBRANCH  25  26
ENDBRANCH  20  25
BRANCH  22  28
ATOM     28  C   UNL A   1      31.505  28.185  26.135  1.00  0.00     0.036 C 
ATOM     29  C   UNL A   1      31.754  28.162  27.641  1.00  0.00     0.009 C 
ENDBRANCH  22  28
ENDBRANCH  17  19
ENDBRANCH   7  17
ENDBRANCH   5   6
ENDBRANCH   1   5
BRANCH   3  30
ATOM     30  C   UNL A   1      38.372  21.898  25.743  1.00  0.00     0.117 C 
BRANCH  30  31
ATOM     31  C   UNL A   1      38.938  20.533  25.359  1.00  0.00     0.042 C 
BRANCH  31  32
ATOM     32  C   UNL A   1      39.552  19.744  26.512  1.00  0.00     0.118 C 
BRANCH  32  33
ATOM     33  N   UNL A   1      40.751  19.017  26.123  1.00  0.00    -0.352 N 
ATOM     34  C   UNL A   1      42.028  19.450  25.878  1.00  0.00     0.251 C 
ATOM     35  H   UNL A   1      40.622  18.046  26.020  1.00  0.00     0.163 HD
ATOM     36  O   UNL A   1      42.843  18.661  25.403  1.00  0.00    -0.269 OA
BRANCH  34  37
ATOM     37  C   UNL A   1      42.452  20.845  26.154  1.00  0.00     0.039 A 
ATOM     38  C   UNL A   1      42.654  21.221  27.488  1.00  0.00     0.014 A 
ATOM     39  C   UNL A   1      42.572  21.804  25.144  1.00  0.00     0.014 A 
ATOM     40  C   UNL A   1      43.019  22.533  27.804  1.00  0.00     0.010 A 
ATOM     41  C   UNL A   1      42.989  23.100  25.454  1.00  0.00     0.010 A 
ATOM     42  C   UNL A   1      43.210  23.480  26.786  1.00  0.00    -0.014 A 
BRANCH  42  43
ATOM     43  C   UNL A   1      43.627  24.869  27.104  1.00  0.00     0.031 A 
ATOM     44  C   UNL A   1      42.649  25.838  27.706  1.00  0.00     0.074 A 
ATOM     45  C   UNL A   1      44.876  25.276  26.807  1.00  0.00     0.049 A 
ATOM     46  N   UNL A   1      42.807  27.109  27.983  1.00  0.00    -0.248 NA
ATOM     47  C   UNL A   1      41.312  25.315  28.021  1.00  0.00     0.031 C 
ATOM     48  C   UNL A   1      45.912  24.446  26.193  1.00  0.00     0.029 A 
ATOM     49  N   UNL A   1      45.482  26.497  26.973  1.00  0.00    -0.354 N 
ATOM     50  C   UNL A   1      41.585  27.542  28.479  1.00  0.00     0.074 A 
ATOM     51  C   UNL A   1      40.687  26.406  28.445  1.00  0.00     0.031 C 
ATOM     52  C   UNL A   1      47.029  25.176  26.044  1.00  0.00     0.029 A 
ATOM     53  C   UNL A   1      46.779  26.531  26.529  1.00  0.00     0.049 A 
ATOM     54  H   UNL A   1      45.028  27.273  27.373  1.00  0.00     0.167 HD
ATOM     55  C   UNL A   1      41.243  28.773  28.929  1.00  0.00     0.037 A 
ATOM     56  C   UNL A   1      47.669  27.542  26.510  1.00  0.00     0.037 A 
ATOM     57  C   UNL A   1      42.140  29.896  29.003  1.00  0.00     0.049 A 
ATOM     58  C   UNL A   1      47.276  28.888  27.052  1.00  0.00     0.074 A 
ATOM     59  C   UNL A   1      41.895  31.168  29.494  1.00  0.00     0.029 A 
ATOM     60  N   UNL A   1      43.459  29.879  28.578  1.00  0.00    -0.354 N 
ATOM     61  N   UNL A   1      46.128  29.274  27.549  1.00  0.00    -0.248 NA
ATOM     62  C   UNL A   1      48.307  29.936  27.032  1.00  0.00     0.031 C 
ATOM     63  C   UNL A   1      43.062  31.926  29.350  1.00  0.00     0.029 A 
ATOM     64  C   UNL A   1      44.040  31.119  28.791  1.00  0.00     0.049 A 
ATOM     65  H   UNL A   1      43.915  29.101  28.184  1.00  0.00     0.167 HD
ATOM     66  C   UNL A   1      46.300  30.600  27.918  1.00  0.00     0.074 A 
ATOM     67  C   UNL A   1      47.667  30.952  27.597  1.00  0.00     0.031 C 
ATOM     68  C   UNL A   1      45.404  31.451  28.473  1.00  0.00     0.037 A 
BRANCH  55  69
ATOM     69  C   UNL A   1      39.829  28.972  29.382  1.00  0.00     0.064 A 
ATOM     70  C   UNL A   1      38.829  29.393  28.494  1.00  0.00     0.173 A 
ATOM     71  C   UNL A   1      39.464  28.705  30.709  1.00  0.00     0.173 A 
ATOM     72  F   UNL A   1      39.135  29.672  27.218  1.00  0.00    -0.203 F 
ATOM     73  C   UNL A   1      37.516  29.558  28.924  1.00  0.00     0.198 A 
ATOM     74  C   UNL A   1      38.145  28.852  31.131  1.00  0.00     0.198 A 
ATOM     75  F   UNL A   1      40.385  28.296  31.595  1.00  0.00    -0.203 F 
ATOM     76  F   UNL A   1      36.582  29.993  28.066  1.00  0.00    -0.200 F 
ATOM     77  C   UNL A   1      37.174  29.282  30.239  1.00  0.00     0.200 A 
ATOM     78  F   UNL A   1      37.813  28.578  32.400  1.00  0.00    -0.200 F 
ATOM     79  F   UNL A   1      35.907  29.437  30.650  1.00  0.00    -0.200 F 
ENDBRANCH  55  69
BRANCH  56  80
ATOM     80  C   UNL A   1      49.033  27.309  25.980  1.00  0.00     0.064 A 
ATOM     81  C   UNL A   1      50.100  27.037  26.845  1.00  0.00     0.173 A 
ATOM     82  C   UNL A   1      49.295  27.345  24.603  1.00  0.00     0.173 A 
ATOM     83  F   UNL A   1      49.897  27.014  28.171  1.00  0.00    -0.203 F 
ATOM     84  C   UNL A   1      51.384  26.818  26.354  1.00  0.00     0.198 A 
ATOM     85  C   UNL A   1      50.576  27.109  24.112  1.00  0.00     0.198 A 
ATOM     86  F   UNL A   1      48.303  27.602  23.737  1.00  0.00    -0.203 F 
ATOM     87  F   UNL A   1      52.395  26.589  27.203  1.00  0.00    -0.200 F 
ATOM     88  C   UNL A   1      51.620  26.850  24.987  1.00  0.00     0.200 A 
ATOM     89  F   UNL A   1      50.799  27.133  22.791  1.00  0.00    -0.200 F 
ATOM     90  F   UNL A   1      52.855  26.636  24.514  1.00  0.00    -0.200 F 
ENDBRANCH  56  80
BRANCH  68  91
ATOM     91  C   UNL A   1      45.879  32.834  28.790  1.00  0.00     0.064 A 
ATOM     92  C   UNL A   1      46.483  33.134  30.019  1.00  0.00     0.173 A 
ATOM     93  C   UNL A   1      45.759  33.862  27.843  1.00  0.00     0.173 A 
ATOM     94  F   UNL A   1      46.602  32.185  30.961  1.00  0.00    -0.203 F 
ATOM     95  C   UNL A   1      46.936  34.420  30.296  1.00  0.00     0.198 A 
ATOM     96  C   UNL A   1      46.230  35.143  28.117  1.00  0.00     0.198 A 
ATOM     97  F   UNL A   1      45.189  33.621  26.653  1.00  0.00    -0.203 F 
ATOM     98  F   UNL A   1      47.482  34.695  31.489  1.00  0.00    -0.200 F 
ATOM     99  C   UNL A   1      46.814  35.422  29.344  1.00  0.00     0.200 A 
ATOM    100  F   UNL A   1      46.115  36.109  27.196  1.00  0.00    -0.200 F 
ATOM    101  F   UNL A   1      47.252  36.660  29.612  1.00  0.00    -0.200 F 
ENDBRANCH  68  91
ENDBRANCH  42  43
ENDBRANCH  34  37
ENDBRANCH  32  33
ENDBRANCH  31  32
ENDBRANCH  30  31
ENDBRANCH   3  30
TORSDOF 16
ENDMDL
MODEL 3
REMARK VINA RESULT:     -12.0      1.850      4.237
REMARK SMILES CCOc1cnc(C(=O)c2[nH]c3cc(Cl)ccc3c2CC(=O)NCCCNC(=O)c2ccc(-c3c4nc(c(-c5c(F)c(F)c(F)c(F)c5F)c5ccc([nH]5)c(-c5c(F)c(F)c(F)c(F)c5F)c5nc(c(-c6c(F)c(F)c(F)c(F)c6F)c6ccc3[nH]6)C=C5)C=C4)cc2)cc1CC
REMARK SMILES IDX 21 1 22 2 23 3 20 5 19 6 10 7 11 8 12 9 18 11 13 12 17 13
REMARK SMILES IDX 14 14 16 15 15 16 8 17 9 18 7 19 4 20 5 21 94 22 6 23 93 24
REMARK SMILES IDX 3 25 2 26 1 27 95 28 96 29 24 30 25 31 26 32 27 33 28 34
REMARK SMILES IDX 29 36 30 37 31 38 92 39 32 40 91 41 33 42 34 43 35 44 85 45
REMARK SMILES IDX 36 46 90 47 84 48 86 49 37 50 89 51 83 52 82 53 38 55 70 56
REMARK SMILES IDX 50 57 69 58 51 59 54 60 68 61 87 62 52 63 53 64 67 66 88 67
REMARK SMILES IDX 55 68 39 69 40 70 48 71 41 72 42 73 46 74 49 75 43 76 44 77
REMARK SMILES IDX 47 78 45 79 71 80 72 81 80 82 73 83 74 84 78 85 81 86 75 87
REMARK SMILES IDX 76 88 79 89 77 90 56 91 57 92 65 93 58 94 59 95 63 96 66 97
REMARK SMILES IDX 60 98 61 99 64 100 62 101
REMARK H PARENT 23 4 11 10 27 35 86 54 54 65
REMARK Flexibility Score: inf
ROOT
ATOM      1  C   UNL A   1      36.854  23.392  25.563  1.00  0.00     0.224 C 
ATOM      2  O   UNL A   1      37.172  24.146  26.486  1.00  0.00    -0.275 OA
ATOM      3  N   UNL A   1      37.439  22.158  25.528  1.00  0.00    -0.356 N 
ATOM      4  H   UNL A   1      38.193  22.034  26.149  1.00  0.00     0.163 HD
ENDROOT
BRANCH   1   5
ATOM      5  C   UNL A   1      35.760  23.776  24.578  1.00  0.00     0.138 C 
BRANCH   5   6
ATOM      6  C   UNL A   1      34.502  24.309  25.204  1.00  0.00    -0.002 A 
ATOM      7  C   UNL A   1      33.705  23.686  26.161  1.00  0.00     0.093 A 
ATOM      8  N   UNL A   1      32.742  24.594  26.541  1.00  0.00    -0.351 N 
ATOM      9  C   UNL A   1      32.737  25.673  25.694  1.00  0.00     0.048 A 
ATOM     10  H   UNL A   1      32.141  24.483  27.313  1.00  0.00     0.167 HD
ATOM     11  C   UNL A   1      33.827  25.524  24.839  1.00  0.00     0.004 A 
ATOM     12  C   UNL A   1      31.858  26.761  25.629  1.00  0.00     0.047 A 
ATOM     13  C   UNL A   1      34.047  26.516  23.858  1.00  0.00     0.012 A 
ATOM     14  C   UNL A   1      32.099  27.722  24.644  1.00  0.00     0.043 A 
ATOM     15  C   UNL A   1      33.174  27.607  23.769  1.00  0.00     0.021 A 
ATOM     16  Cl  UNL A   1      31.039  29.073  24.512  1.00  0.00    -0.084 Cl
BRANCH   7  17
ATOM     17  C   UNL A   1      33.823  22.354  26.738  1.00  0.00     0.227 C 
ATOM     18  O   UNL A   1      34.217  22.191  27.885  1.00  0.00    -0.285 OA
BRANCH  17  19
ATOM     19  C   UNL A   1      33.419  21.171  25.878  1.00  0.00     0.113 A 
ATOM     20  C   UNL A   1      32.613  18.981  24.419  1.00  0.00     0.140 A 
ATOM     21  C   UNL A   1      32.975  18.904  25.760  1.00  0.00     0.158 A 
ATOM     22  C   UNL A   1      32.611  20.228  23.795  1.00  0.00    -0.002 A 
ATOM     23  N   UNL A   1      33.362  19.968  26.503  1.00  0.00    -0.249 NA
ATOM     24  C   UNL A   1      33.088  21.323  24.529  1.00  0.00     0.040 A 
BRANCH  20  25
ATOM     25  O   UNL A   1      32.193  17.870  23.749  1.00  0.00    -0.492 OA
BRANCH  25  26
ATOM     26  C   UNL A   1      33.038  16.739  24.007  1.00  0.00     0.226 C 
ATOM     27  C   UNL A   1      34.187  16.734  23.013  1.00  0.00     0.049 C 
ENDBRANCH  25  26
ENDBRANCH  20  25
BRANCH  22  28
ATOM     28  C   UNL A   1      32.122  20.426  22.380  1.00  0.00     0.036 C 
ATOM     29  C   UNL A   1      32.095  21.894  21.964  1.00  0.00     0.009 C 
ENDBRANCH  22  28
ENDBRANCH  17  19
ENDBRANCH   7  17
ENDBRANCH   5   6
ENDBRANCH   1   5
BRANCH   3  30
ATOM     30  C   UNL A   1      37.117  21.005  24.712  1.00  0.00     0.117 C 
BRANCH  30  31
ATOM     31  C   UNL A   1      38.128  19.868  24.842  1.00  0.00     0.042 C 
BRANCH  31  32
ATOM     32  C   UNL A   1      39.053  19.964  26.052  1.00  0.00     0.118 C 
BRANCH  32  33
ATOM     33  N   UNL A   1      40.255  19.157  25.911  1.00  0.00    -0.352 N 
ATOM     34  C   UNL A   1      41.582  19.497  25.977  1.00  0.00     0.251 C 
ATOM     35  H   UNL A   1      40.086  18.203  25.738  1.00  0.00     0.163 HD
ATOM     36  O   UNL A   1      42.426  18.660  25.663  1.00  0.00    -0.269 OA
BRANCH  34  37
ATOM     37  C   UNL A   1      42.028  20.847  26.401  1.00  0.00     0.039 A 
ATOM     38  C   UNL A   1      42.123  21.109  27.774  1.00  0.00     0.014 A 
ATOM     39  C   UNL A   1      42.271  21.876  25.488  1.00  0.00     0.014 A 
ATOM     40  C   UNL A   1      42.504  22.375  28.227  1.00  0.00     0.010 A 
ATOM     41  C   UNL A   1      42.703  23.126  25.937  1.00  0.00     0.010 A 
ATOM     42  C   UNL A   1      42.818  23.390  27.310  1.00  0.00    -0.014 A 
BRANCH  42  43
ATOM     43  C   UNL A   1      43.253  24.731  27.776  1.00  0.00     0.031 A 
ATOM     44  C   UNL A   1      42.238  25.776  28.144  1.00  0.00     0.074 A 
ATOM     45  C   UNL A   1      44.566  25.027  27.824  1.00  0.00     0.049 A 
ATOM     46  N   UNL A   1      42.424  27.023  28.498  1.00  0.00    -0.248 NA
ATOM     47  C   UNL A   1      40.826  25.371  28.086  1.00  0.00     0.031 C 
ATOM     48  C   UNL A   1      45.652  24.116  27.465  1.00  0.00     0.029 A 
ATOM     49  N   UNL A   1      45.208  26.186  28.185  1.00  0.00    -0.354 N 
ATOM     50  C   UNL A   1      41.156  27.558  28.680  1.00  0.00     0.074 A 
ATOM     51  C   UNL A   1      40.206  26.508  28.376  1.00  0.00     0.031 C 
ATOM     52  C   UNL A   1      46.827  24.745  27.635  1.00  0.00     0.029 A 
ATOM     53  C   UNL A   1      46.575  26.110  28.089  1.00  0.00     0.049 A 
ATOM     54  H   UNL A   1      44.733  26.994  28.484  1.00  0.00     0.167 HD
ATOM     55  C   UNL A   1      40.814  28.808  29.074  1.00  0.00     0.037 A 
ATOM     56  C   UNL A   1      47.520  27.036  28.336  1.00  0.00     0.037 A 
ATOM     57  C   UNL A   1      41.751  29.844  29.416  1.00  0.00     0.049 A 
ATOM     58  C   UNL A   1      47.115  28.405  28.809  1.00  0.00     0.074 A 
ATOM     59  C   UNL A   1      41.495  31.125  29.875  1.00  0.00     0.029 A 
ATOM     60  N   UNL A   1      43.129  29.714  29.343  1.00  0.00    -0.354 N 
ATOM     61  N   UNL A   1      45.914  28.886  29.010  1.00  0.00    -0.248 NA
ATOM     62  C   UNL A   1      48.199  29.355  29.092  1.00  0.00     0.031 C 
ATOM     63  C   UNL A   1      42.719  31.777  30.063  1.00  0.00     0.029 A 
ATOM     64  C   UNL A   1      43.737  30.894  29.743  1.00  0.00     0.049 A 
ATOM     65  H   UNL A   1      43.606  28.904  29.050  1.00  0.00     0.167 HD
ATOM     66  C   UNL A   1      46.095  30.185  29.459  1.00  0.00     0.074 A 
ATOM     67  C   UNL A   1      47.523  30.417  29.511  1.00  0.00     0.031 C 
ATOM     68  C   UNL A   1      45.160  31.105  29.797  1.00  0.00     0.037 A 
BRANCH  55  69
ATOM     69  C   UNL A   1      39.352  29.127  29.156  1.00  0.00     0.064 A 
ATOM     70  C   UNL A   1      38.667  29.104  30.378  1.00  0.00     0.173 A 
ATOM     71  C   UNL A   1      38.639  29.494  28.006  1.00  0.00     0.173 A 
ATOM     72  F   UNL A   1      39.305  28.747  31.503  1.00  0.00    -0.203 F 
ATOM     73  C   UNL A   1      37.313  29.419  30.444  1.00  0.00     0.198 A 
ATOM     74  C   UNL A   1      37.289  29.828  28.077  1.00  0.00     0.198 A 
ATOM     75  F   UNL A   1      39.254  29.535  26.814  1.00  0.00    -0.203 F 
ATOM     76  F   UNL A   1      36.668  29.358  31.618  1.00  0.00    -0.200 F 
ATOM     77  C   UNL A   1      36.627  29.786  29.295  1.00  0.00     0.200 A 
ATOM     78  F   UNL A   1      36.629  30.190  26.969  1.00  0.00    -0.200 F 
ATOM     79  F   UNL A   1      35.323  30.093  29.361  1.00  0.00    -0.200 F 
ENDBRANCH  55  69
BRANCH  56  80
ATOM     80  C   UNL A   1      48.950  26.689  28.164  1.00  0.00     0.064 A 
ATOM     81  C   UNL A   1      49.738  26.335  29.267  1.00  0.00     0.173 A 
ATOM     82  C   UNL A   1      49.555  26.695  26.899  1.00  0.00     0.173 A 
ATOM     83  F   UNL A   1      49.205  26.337  30.498  1.00  0.00    -0.203 F 
ATOM     84  C   UNL A   1      51.083  26.008  29.114  1.00  0.00     0.198 A 
ATOM     85  C   UNL A   1      50.894  26.351  26.744  1.00  0.00     0.198 A 
ATOM     86  F   UNL A   1      48.838  27.026  25.815  1.00  0.00    -0.203 F 
ATOM     87  F   UNL A   1      51.823  25.702  30.187  1.00  0.00    -0.200 F 
ATOM     88  C   UNL A   1      51.659  26.012  27.851  1.00  0.00     0.200 A 
ATOM     89  F   UNL A   1      51.446  26.348  25.523  1.00  0.00    -0.200 F 
ATOM     90  F   UNL A   1      52.952  25.694  27.703  1.00  0.00    -0.200 F 
ENDBRANCH  56  80
BRANCH  68  91
ATOM     91  C   UNL A   1      45.651  32.435  30.276  1.00  0.00     0.064 A 
ATOM     92  C   UNL A   1      45.931  32.664  31.630  1.00  0.00     0.173 A 
ATOM     93  C   UNL A   1      45.874  33.481  29.368  1.00  0.00     0.173 A 
ATOM     94  F   UNL A   1      45.715  31.698  32.536  1.00  0.00    -0.203 F 
ATOM     95  C   UNL A   1      46.404  33.900  32.061  1.00  0.00     0.198 A 
ATOM     96  C   UNL A   1      46.364  34.709  29.800  1.00  0.00     0.198 A 
ATOM     97  F   UNL A   1      45.621  33.307  28.062  1.00  0.00    -0.203 F 
ATOM     98  F   UNL A   1      46.636  34.110  33.365  1.00  0.00    -0.200 F 
ATOM     99  C   UNL A   1      46.624  34.920  31.147  1.00  0.00     0.200 A 
ATOM    100  F   UNL A   1      46.580  35.692  28.916  1.00  0.00    -0.200 F 
ATOM    101  F   UNL A   1      47.080  36.109  31.563  1.00  0.00    -0.200 F 
ENDBRANCH  68  91
ENDBRANCH  42  43
ENDBRANCH  34  37
ENDBRANCH  32  33
ENDBRANCH  31  32
ENDBRANCH  30  31
ENDBRANCH   3  30
TORSDOF 16
ENDMDL
