MODEL 1
REMARK VINA RESULT:     -10.3      0.000      0.000
REMARK SMILES C[N@@H+]1CCC[C@@H](C[NH2+]CC(=O)NCCCNC(=O)c2ccc(-c3c4nc(c(-c5c(F)c(F)c(F)c(F)c5F)c5ccc([nH]5)c(-c5c(F)c(F)c(F)c(F)c5F)c5nc(c(-c6c(F)c(F)c(F)c(F)c6F)c6ccc3[nH]6)C=C5)C=C4)cc2)C1
REMARK SMILES IDX 13 1 12 2 10 3 11 4 9 6 8 7 7 10 6 11 1 12 2 13 3 14 82 15
REMARK SMILES IDX 4 17 5 18 14 19 15 20 16 21 17 22 18 24 19 25 20 26 81 27
REMARK SMILES IDX 21 28 80 29 22 30 23 31 24 32 74 33 25 34 79 35 73 36 75 37
REMARK SMILES IDX 26 38 78 39 72 40 71 41 27 43 59 44 39 45 58 46 40 47 43 48
REMARK SMILES IDX 57 49 76 50 41 51 42 52 56 54 77 55 44 56 28 57 29 58 37 59
REMARK SMILES IDX 30 60 31 61 35 62 38 63 32 64 33 65 36 66 34 67 60 68 61 69
REMARK SMILES IDX 69 70 62 71 63 72 67 73 70 74 64 75 65 76 68 77 66 78 45 79
REMARK SMILES IDX 46 80 54 81 47 82 48 83 52 84 55 85 49 86 50 87 53 88 51 89
REMARK H PARENT 12 5 8 8 8 9 2 16 16 23 75 42 43 53
REMARK Flexibility Score: inf
ROOT
ATOM      1  C   UNL A   1      42.952  19.862  26.143  1.00  0.00     0.118 C 
ENDROOT
BRANCH   1   2
ATOM      2  N   UNL A   1      43.445  19.228  24.928  1.00  0.00    -0.351 N 
ATOM      3  C   UNL A   1      44.655  19.334  24.303  1.00  0.00     0.275 C 
ATOM      4  O   UNL A   1      44.766  18.827  23.183  1.00  0.00    -0.269 OA
ATOM      5  H   UNL A   1      42.803  18.627  24.486  1.00  0.00     0.163 HD
BRANCH   3   6
ATOM      6  C   UNL A   1      45.840  20.062  24.958  1.00  0.00     0.361 C 
BRANCH   6   7
ATOM      7  N   UNL A   1      46.175  21.320  24.251  1.00  0.00    -0.338 N 
ATOM      8  H   UNL A   1      47.009  21.726  24.673  1.00  0.00     0.346 HD
ATOM      9  H   UNL A   1      46.336  21.103  23.268  1.00  0.00     0.346 HD
BRANCH   7  10
ATOM     10  C   UNL A   1      45.079  22.285  24.338  1.00  0.00     0.270 C 
BRANCH  10  11
ATOM     11  C   UNL A   1      44.881  22.928  25.728  1.00  0.00     0.099 C 
ATOM     12  C   UNL A   1      47.418  25.727  25.578  1.00  0.00     0.332 C 
ATOM     13  N   UNL A   1      46.198  24.984  25.263  1.00  0.00    -0.337 N 
ATOM     14  C   UNL A   1      45.018  25.852  25.376  1.00  0.00     0.262 C 
ATOM     15  C   UNL A   1      46.066  23.814  26.150  1.00  0.00     0.271 C 
ATOM     16  H   UNL A   1      46.261  24.655  24.299  1.00  0.00     0.347 HD
ATOM     17  C   UNL A   1      43.738  25.103  25.001  1.00  0.00     0.062 C 
ATOM     18  C   UNL A   1      43.592  23.778  25.752  1.00  0.00     0.021 C 
ENDBRANCH  10  11
ENDBRANCH   7  10
ENDBRANCH   6   7
ENDBRANCH   3   6
ENDBRANCH   1   2
BRANCH   1  19
ATOM     19  C   UNL A   1      41.427  19.998  26.127  1.00  0.00     0.042 C 
BRANCH  19  20
ATOM     20  C   UNL A   1      40.907  21.365  26.557  1.00  0.00     0.118 C 
BRANCH  20  21
ATOM     21  N   UNL A   1      39.600  21.653  25.993  1.00  0.00    -0.352 N 
ATOM     22  C   UNL A   1      38.759  22.729  26.113  1.00  0.00     0.251 C 
ATOM     23  H   UNL A   1      39.251  20.937  25.414  1.00  0.00     0.163 HD
ATOM     24  O   UNL A   1      37.606  22.604  25.689  1.00  0.00    -0.269 OA
BRANCH  22  25
ATOM     25  C   UNL A   1      39.148  24.027  26.733  1.00  0.00     0.039 A 
ATOM     26  C   UNL A   1      39.911  24.914  25.957  1.00  0.00     0.014 A 
ATOM     27  C   UNL A   1      38.911  24.348  28.071  1.00  0.00     0.014 A 
ATOM     28  C   UNL A   1      40.401  26.108  26.501  1.00  0.00     0.010 A 
ATOM     29  C   UNL A   1      39.341  25.576  28.597  1.00  0.00     0.010 A 
ATOM     30  C   UNL A   1      40.105  26.463  27.825  1.00  0.00    -0.014 A 
BRANCH  30  31
ATOM     31  C   UNL A   1      40.611  27.734  28.416  1.00  0.00     0.031 A 
ATOM     32  C   UNL A   1      42.080  27.921  28.698  1.00  0.00     0.074 A 
ATOM     33  C   UNL A   1      39.752  28.723  28.728  1.00  0.00     0.049 A 
ATOM     34  N   UNL A   1      42.694  28.926  29.275  1.00  0.00    -0.248 NA
ATOM     35  C   UNL A   1      42.975  26.830  28.288  1.00  0.00     0.031 C 
ATOM     36  C   UNL A   1      38.306  28.686  28.510  1.00  0.00     0.029 A 
ATOM     37  N   UNL A   1      39.971  29.953  29.299  1.00  0.00    -0.354 N 
ATOM     38  C   UNL A   1      44.039  28.581  29.312  1.00  0.00     0.074 A 
ATOM     39  C   UNL A   1      44.148  27.259  28.731  1.00  0.00     0.031 C 
ATOM     40  C   UNL A   1      37.771  29.848  28.918  1.00  0.00     0.029 A 
ATOM     41  C   UNL A   1      38.827  30.695  29.469  1.00  0.00     0.049 A 
ATOM     42  H   UNL A   1      40.864  30.274  29.563  1.00  0.00     0.167 HD
ATOM     43  C   UNL A   1      45.090  29.303  29.771  1.00  0.00     0.037 A 
ATOM     44  C   UNL A   1      38.645  31.911  30.016  1.00  0.00     0.037 A 
ATOM     45  C   UNL A   1      44.999  30.630  30.323  1.00  0.00     0.049 A 
ATOM     46  C   UNL A   1      39.820  32.670  30.567  1.00  0.00     0.074 A 
ATOM     47  C   UNL A   1      46.021  31.455  30.762  1.00  0.00     0.029 A 
ATOM     48  N   UNL A   1      43.815  31.327  30.513  1.00  0.00    -0.354 N 
ATOM     49  N   UNL A   1      41.088  32.343  30.571  1.00  0.00    -0.248 NA
ATOM     50  C   UNL A   1      39.533  33.967  31.200  1.00  0.00     0.031 C 
ATOM     51  C   UNL A   1      45.453  32.637  31.252  1.00  0.00     0.029 A 
ATOM     52  C   UNL A   1      44.080  32.561  31.086  1.00  0.00     0.049 A 
ATOM     53  H   UNL A   1      42.920  30.994  30.275  1.00  0.00     0.167 HD
ATOM     54  C   UNL A   1      41.751  33.398  31.182  1.00  0.00     0.074 A 
ATOM     55  C   UNL A   1      40.748  34.381  31.532  1.00  0.00     0.031 C 
ATOM     56  C   UNL A   1      43.077  33.535  31.430  1.00  0.00     0.037 A 
BRANCH  43  57
ATOM     57  C   UNL A   1      46.448  28.668  29.700  1.00  0.00     0.064 A 
ATOM     58  C   UNL A   1      46.941  27.871  30.743  1.00  0.00     0.173 A 
ATOM     59  C   UNL A   1      47.249  28.826  28.558  1.00  0.00     0.173 A 
ATOM     60  F   UNL A   1      46.217  27.696  31.858  1.00  0.00    -0.203 F 
ATOM     61  C   UNL A   1      48.198  27.277  30.657  1.00  0.00     0.198 A 
ATOM     62  C   UNL A   1      48.494  28.211  28.466  1.00  0.00     0.198 A 
ATOM     63  F   UNL A   1      46.819  29.571  27.529  1.00  0.00    -0.203 F 
ATOM     64  F   UNL A   1      48.668  26.554  31.684  1.00  0.00    -0.200 F 
ATOM     65  C   UNL A   1      48.971  27.444  29.517  1.00  0.00     0.200 A 
ATOM     66  F   UNL A   1      49.236  28.364  27.360  1.00  0.00    -0.200 F 
ATOM     67  F   UNL A   1      50.179  26.870  29.436  1.00  0.00    -0.200 F 
ENDBRANCH  43  57
BRANCH  44  68
ATOM     68  C   UNL A   1      37.282  32.500  30.060  1.00  0.00     0.064 A 
ATOM     69  C   UNL A   1      36.830  33.333  29.026  1.00  0.00     0.173 A 
ATOM     70  C   UNL A   1      36.409  32.242  31.125  1.00  0.00     0.173 A 
ATOM     71  F   UNL A   1      37.641  33.627  28.001  1.00  0.00    -0.203 F 
ATOM     72  C   UNL A   1      35.554  33.891  29.062  1.00  0.00     0.198 A 
ATOM     73  C   UNL A   1      35.125  32.783  31.148  1.00  0.00     0.198 A 
ATOM     74  F   UNL A   1      36.798  31.452  32.137  1.00  0.00    -0.203 F 
ATOM     75  F   UNL A   1      35.157  34.708  28.078  1.00  0.00    -0.200 F 
ATOM     76  C   UNL A   1      34.701  33.610  30.118  1.00  0.00     0.200 A 
ATOM     77  F   UNL A   1      34.301  32.502  32.165  1.00  0.00    -0.200 F 
ATOM     78  F   UNL A   1      33.472  34.142  30.148  1.00  0.00    -0.200 F 
ENDBRANCH  44  68
BRANCH  56  79
ATOM     79  C   UNL A   1      43.525  34.804  32.091  1.00  0.00     0.064 A 
ATOM     80  C   UNL A   1      43.776  35.967  31.348  1.00  0.00     0.173 A 
ATOM     81  C   UNL A   1      43.670  34.870  33.485  1.00  0.00     0.173 A 
ATOM     82  F   UNL A   1      43.667  35.949  30.011  1.00  0.00    -0.203 F 
ATOM     83  C   UNL A   1      44.172  37.145  31.975  1.00  0.00     0.198 A 
ATOM     84  C   UNL A   1      44.046  36.056  34.111  1.00  0.00     0.198 A 
ATOM     85  F   UNL A   1      43.441  33.786  34.240  1.00  0.00    -0.203 F 
ATOM     86  F   UNL A   1      44.442  38.235  31.242  1.00  0.00    -0.200 F 
ATOM     87  C   UNL A   1      44.300  37.191  33.356  1.00  0.00     0.200 A 
ATOM     88  F   UNL A   1      44.163  36.100  35.445  1.00  0.00    -0.200 F 
ATOM     89  F   UNL A   1      44.677  38.328  33.958  1.00  0.00    -0.200 F 
ENDBRANCH  56  79
ENDBRANCH  30  31
ENDBRANCH  22  25
ENDBRANCH  20  21
ENDBRANCH  19  20
ENDBRANCH   1  19
TORSDOF 13
ENDMDL
MODEL 2
REMARK VINA RESULT:     -10.2      4.024     11.372
REMARK SMILES C[N@@H+]1CCC[C@@H](C[NH2+]CC(=O)NCCCNC(=O)c2ccc(-c3c4nc(c(-c5c(F)c(F)c(F)c(F)c5F)c5ccc([nH]5)c(-c5c(F)c(F)c(F)c(F)c5F)c5nc(c(-c6c(F)c(F)c(F)c(F)c6F)c6ccc3[nH]6)C=C5)C=C4)cc2)C1
REMARK SMILES IDX 13 1 12 2 10 3 11 4 9 6 8 7 7 10 6 11 1 12 2 13 3 14 82 15
REMARK SMILES IDX 4 17 5 18 14 19 15 20 16 21 17 22 18 24 19 25 20 26 81 27
REMARK SMILES IDX 21 28 80 29 22 30 23 31 24 32 74 33 25 34 79 35 73 36 75 37
REMARK SMILES IDX 26 38 78 39 72 40 71 41 27 43 59 44 39 45 58 46 40 47 43 48
REMARK SMILES IDX 57 49 76 50 41 51 42 52 56 54 77 55 44 56 28 57 29 58 37 59
REMARK SMILES IDX 30 60 31 61 35 62 38 63 32 64 33 65 36 66 34 67 60 68 61 69
REMARK SMILES IDX 69 70 62 71 63 72 67 73 70 74 64 75 65 76 68 77 66 78 45 79
REMARK SMILES IDX 46 80 54 81 47 82 48 83 52 84 55 85 49 86 50 87 53 88 51 89
REMARK H PARENT 12 5 8 8 8 9 2 16 16 23 75 42 43 53
REMARK Flexibility Score: inf
ROOT
ATOM      1  C   UNL A   1      33.657  35.235  29.475  1.00  0.00     0.118 C 
ENDROOT
BRANCH   1   2
ATOM      2  N   UNL A   1      32.582  35.318  30.453  1.00  0.00    -0.351 N 
ATOM      3  C   UNL A   1      32.583  35.803  31.730  1.00  0.00     0.275 C 
ATOM      4  O   UNL A   1      31.579  35.598  32.419  1.00  0.00    -0.269 OA
ATOM      5  H   UNL A   1      31.715  34.969  30.144  1.00  0.00     0.163 HD
BRANCH   3   6
ATOM      6  C   UNL A   1      33.787  36.569  32.301  1.00  0.00     0.361 C 
BRANCH   6   7
ATOM      7  N   UNL A   1      34.149  36.097  33.658  1.00  0.00    -0.338 N 
ATOM      8  H   UNL A   1      34.876  36.703  34.037  1.00  0.00     0.346 HD
ATOM      9  H   UNL A   1      33.313  36.126  34.242  1.00  0.00     0.346 HD
BRANCH   7  10
ATOM     10  C   UNL A   1      34.643  34.721  33.627  1.00  0.00     0.270 C 
BRANCH  10  11
ATOM     11  C   UNL A   1      35.992  34.526  32.901  1.00  0.00     0.099 C 
ATOM     12  C   UNL A   1      37.826  32.352  35.391  1.00  0.00     0.332 C 
ATOM     13  N   UNL A   1      36.833  32.714  34.380  1.00  0.00    -0.337 N 
ATOM     14  C   UNL A   1      36.810  31.721  33.297  1.00  0.00     0.262 C 
ATOM     15  C   UNL A   1      37.115  34.058  33.843  1.00  0.00     0.271 C 
ATOM     16  H   UNL A   1      35.914  32.727  34.821  1.00  0.00     0.347 HD
ATOM     17  C   UNL A   1      35.742  32.058  32.254  1.00  0.00     0.062 C 
ATOM     18  C   UNL A   1      35.845  33.501  31.754  1.00  0.00     0.021 C 
ENDBRANCH  10  11
ENDBRANCH   7  10
ENDBRANCH   6   7
ENDBRANCH   3   6
ENDBRANCH   1   2
BRANCH   1  19
ATOM     19  C   UNL A   1      33.345  34.209  28.382  1.00  0.00     0.042 C 
BRANCH  19  20
ATOM     20  C   UNL A   1      34.312  33.031  28.322  1.00  0.00     0.118 C 
BRANCH  20  21
ATOM     21  N   UNL A   1      33.674  31.827  27.820  1.00  0.00    -0.352 N 
ATOM     22  C   UNL A   1      34.150  30.567  27.565  1.00  0.00     0.251 C 
ATOM     23  H   UNL A   1      32.715  31.937  27.625  1.00  0.00     0.163 HD
ATOM     24  O   UNL A   1      33.421  29.797  26.932  1.00  0.00    -0.269 OA
BRANCH  22  25
ATOM     25  C   UNL A   1      35.492  30.080  27.991  1.00  0.00     0.039 A 
ATOM     26  C   UNL A   1      35.652  29.713  29.336  1.00  0.00     0.014 A 
ATOM     27  C   UNL A   1      36.619  30.095  27.167  1.00  0.00     0.014 A 
ATOM     28  C   UNL A   1      36.907  29.342  29.838  1.00  0.00     0.010 A 
ATOM     29  C   UNL A   1      37.862  29.657  27.649  1.00  0.00     0.010 A 
ATOM     30  C   UNL A   1      38.025  29.291  28.994  1.00  0.00    -0.014 A 
BRANCH  30  31
ATOM     31  C   UNL A   1      39.364  28.890  29.509  1.00  0.00     0.031 A 
ATOM     32  C   UNL A   1      40.071  29.723  30.547  1.00  0.00     0.074 A 
ATOM     33  C   UNL A   1      39.970  27.786  29.031  1.00  0.00     0.049 A 
ATOM     34  N   UNL A   1      41.269  29.572  31.059  1.00  0.00    -0.248 NA
ATOM     35  C   UNL A   1      39.340  30.885  31.071  1.00  0.00     0.031 C 
ATOM     36  C   UNL A   1      39.407  26.882  28.029  1.00  0.00     0.029 A 
ATOM     37  N   UNL A   1      41.195  27.238  29.323  1.00  0.00    -0.354 N 
ATOM     38  C   UNL A   1      41.440  30.626  31.949  1.00  0.00     0.074 A 
ATOM     39  C   UNL A   1      40.238  31.429  31.881  1.00  0.00     0.031 C 
ATOM     40  C   UNL A   1      40.272  25.879  27.806  1.00  0.00     0.029 A 
ATOM     41  C   UNL A   1      41.470  26.093  28.616  1.00  0.00     0.049 A 
ATOM     42  H   UNL A   1      41.818  27.629  29.977  1.00  0.00     0.167 HD
ATOM     43  C   UNL A   1      42.493  30.892  32.759  1.00  0.00     0.037 A 
ATOM     44  C   UNL A   1      42.565  25.309  28.609  1.00  0.00     0.037 A 
ATOM     45  C   UNL A   1      43.680  30.085  32.858  1.00  0.00     0.049 A 
ATOM     46  C   UNL A   1      43.742  25.656  29.478  1.00  0.00     0.074 A 
ATOM     47  C   UNL A   1      44.772  30.252  33.694  1.00  0.00     0.029 A 
ATOM     48  N   UNL A   1      43.934  28.955  32.095  1.00  0.00    -0.354 N 
ATOM     49  N   UNL A   1      43.878  26.640  30.332  1.00  0.00    -0.248 NA
ATOM     50  C   UNL A   1      44.923  24.784  29.373  1.00  0.00     0.031 C 
ATOM     51  C   UNL A   1      45.703  29.247  33.410  1.00  0.00     0.029 A 
ATOM     52  C   UNL A   1      45.176  28.432  32.422  1.00  0.00     0.049 A 
ATOM     53  H   UNL A   1      43.323  28.581  31.420  1.00  0.00     0.167 HD
ATOM     54  C   UNL A   1      45.145  26.494  30.881  1.00  0.00     0.074 A 
ATOM     55  C   UNL A   1      45.737  25.324  30.270  1.00  0.00     0.031 C 
ATOM     56  C   UNL A   1      45.759  27.266  31.810  1.00  0.00     0.037 A 
BRANCH  43  57
ATOM     57  C   UNL A   1      42.411  32.123  33.614  1.00  0.00     0.064 A 
ATOM     58  C   UNL A   1      41.881  32.081  34.912  1.00  0.00     0.173 A 
ATOM     59  C   UNL A   1      42.904  33.350  33.144  1.00  0.00     0.173 A 
ATOM     60  F   UNL A   1      41.390  30.934  35.404  1.00  0.00    -0.203 F 
ATOM     61  C   UNL A   1      41.823  33.230  35.698  1.00  0.00     0.198 A 
ATOM     62  C   UNL A   1      42.866  34.490  33.942  1.00  0.00     0.198 A 
ATOM     63  F   UNL A   1      43.429  33.441  31.913  1.00  0.00    -0.203 F 
ATOM     64  F   UNL A   1      41.273  33.176  36.920  1.00  0.00    -0.200 F 
ATOM     65  C   UNL A   1      42.320  34.431  35.215  1.00  0.00     0.200 A 
ATOM     66  F   UNL A   1      43.356  35.648  33.478  1.00  0.00    -0.200 F 
ATOM     67  F   UNL A   1      42.265  35.533  35.974  1.00  0.00    -0.200 F 
ENDBRANCH  43  57
BRANCH  44  68
ATOM     68  C   UNL A   1      42.597  24.099  27.749  1.00  0.00     0.064 A 
ATOM     69  C   UNL A   1      43.011  24.185  26.412  1.00  0.00     0.173 A 
ATOM     70  C   UNL A   1      42.223  22.842  28.241  1.00  0.00     0.173 A 
ATOM     71  F   UNL A   1      43.353  25.372  25.892  1.00  0.00    -0.203 F 
ATOM     72  C   UNL A   1      43.042  23.055  25.597  1.00  0.00     0.198 A 
ATOM     73  C   UNL A   1      42.275  21.709  27.431  1.00  0.00     0.198 A 
ATOM     74  F   UNL A   1      41.819  22.712  29.513  1.00  0.00    -0.203 F 
ATOM     75  F   UNL A   1      43.411  23.168  24.315  1.00  0.00    -0.200 F 
ATOM     76  C   UNL A   1      42.682  21.818  26.109  1.00  0.00     0.200 A 
ATOM     77  F   UNL A   1      41.935  20.515  27.932  1.00  0.00    -0.200 F 
ATOM     78  F   UNL A   1      42.718  20.731  25.327  1.00  0.00    -0.200 F 
ENDBRANCH  44  68
BRANCH  56  79
ATOM     79  C   UNL A   1      47.135  26.858  32.244  1.00  0.00     0.064 A 
ATOM     80  C   UNL A   1      47.331  25.904  33.252  1.00  0.00     0.173 A 
ATOM     81  C   UNL A   1      48.269  27.399  31.619  1.00  0.00     0.173 A 
ATOM     82  F   UNL A   1      46.279  25.371  33.891  1.00  0.00    -0.203 F 
ATOM     83  C   UNL A   1      48.615  25.518  33.631  1.00  0.00     0.198 A 
ATOM     84  C   UNL A   1      49.550  26.994  31.986  1.00  0.00     0.198 A 
ATOM     85  F   UNL A   1      48.134  28.313  30.647  1.00  0.00    -0.203 F 
ATOM     86  F   UNL A   1      48.781  24.631  34.623  1.00  0.00    -0.200 F 
ATOM     87  C   UNL A   1      49.722  26.057  32.994  1.00  0.00     0.200 A 
ATOM     88  F   UNL A   1      50.619  27.512  31.364  1.00  0.00    -0.200 F 
ATOM     89  F   UNL A   1      50.956  25.681  33.357  1.00  0.00    -0.200 F 
ENDBRANCH  56  79
ENDBRANCH  30  31
ENDBRANCH  22  25
ENDBRANCH  20  21
ENDBRANCH  19  20
ENDBRANCH   1  19
TORSDOF 13
ENDMDL
MODEL 3
REMARK VINA RESULT:     -10.2      3.802     11.394
REMARK SMILES C[N@@H+]1CCC[C@@H](C[NH2+]CC(=O)NCCCNC(=O)c2ccc(-c3c4nc(c(-c5c(F)c(F)c(F)c(F)c5F)c5ccc([nH]5)c(-c5c(F)c(F)c(F)c(F)c5F)c5nc(c(-c6c(F)c(F)c(F)c(F)c6F)c6ccc3[nH]6)C=C5)C=C4)cc2)C1
REMARK SMILES IDX 13 1 12 2 10 3 11 4 9 6 8 7 7 10 6 11 1 12 2 13 3 14 82 15
REMARK SMILES IDX 4 17 5 18 14 19 15 20 16 21 17 22 18 24 19 25 20 26 81 27
REMARK SMILES IDX 21 28 80 29 22 30 23 31 24 32 74 33 25 34 79 35 73 36 75 37
REMARK SMILES IDX 26 38 78 39 72 40 71 41 27 43 59 44 39 45 58 46 40 47 43 48
REMARK SMILES IDX 57 49 76 50 41 51 42 52 56 54 77 55 44 56 28 57 29 58 37 59
REMARK SMILES IDX 30 60 31 61 35 62 38 63 32 64 33 65 36 66 34 67 60 68 61 69
REMARK SMILES IDX 69 70 62 71 63 72 67 73 70 74 64 75 65 76 68 77 66 78 45 79
REMARK SMILES IDX 46 80 54 81 47 82 48 83 52 84 55 85 49 86 50 87 53 88 51 89
REMARK H PARENT 12 5 8 8 8 9 2 16 16 23 75 42 43 53
REMARK Flexibility Score: inf
ROOT
ATOM      1  C   UNL A   1      35.444  34.977  28.710  1.00  0.00     0.118 C 
ENDROOT
BRANCH   1   2
ATOM      2  N   UNL A   1      34.220  35.727  28.467  1.00  0.00    -0.351 N 
ATOM      3  C   UNL A   1      33.147  35.959  29.280  1.00  0.00     0.275 C 
ATOM      4  O   UNL A   1      32.149  36.482  28.775  1.00  0.00    -0.269 OA
ATOM      5  H   UNL A   1      34.155  36.132  27.572  1.00  0.00     0.163 HD
BRANCH   3   6
ATOM      6  C   UNL A   1      33.168  35.580  30.769  1.00  0.00     0.361 C 
BRANCH   6   7
ATOM      7  N   UNL A   1      33.791  36.635  31.601  1.00  0.00    -0.338 N 
ATOM      8  H   UNL A   1      34.310  37.271  30.996  1.00  0.00     0.346 HD
ATOM      9  H   UNL A   1      33.051  37.132  32.097  1.00  0.00     0.346 HD
BRANCH   7  10
ATOM     10  C   UNL A   1      34.705  36.062  32.588  1.00  0.00     0.270 C 
BRANCH  10  11
ATOM     11  C   UNL A   1      34.969  34.549  32.435  1.00  0.00     0.099 C 
ATOM     12  C   UNL A   1      38.732  34.450  32.782  1.00  0.00     0.332 C 
ATOM     13  N   UNL A   1      37.337  34.611  33.189  1.00  0.00    -0.337 N 
ATOM     14  C   UNL A   1      37.051  33.813  34.389  1.00  0.00     0.262 C 
ATOM     15  C   UNL A   1      36.434  34.231  32.087  1.00  0.00     0.271 C 
ATOM     16  H   UNL A   1      37.178  35.593  33.414  1.00  0.00     0.347 HD
ATOM     17  C   UNL A   1      35.608  34.008  34.857  1.00  0.00     0.062 C 
ATOM     18  C   UNL A   1      34.592  33.799  33.731  1.00  0.00     0.021 C 
ENDBRANCH  10  11
ENDBRANCH   7  10
ENDBRANCH   6   7
ENDBRANCH   3   6
ENDBRANCH   1   2
BRANCH   1  19
ATOM     19  C   UNL A   1      35.325  33.532  28.217  1.00  0.00     0.042 C 
BRANCH  19  20
ATOM     20  C   UNL A   1      34.642  32.582  29.194  1.00  0.00     0.118 C 
BRANCH  20  21
ATOM     21  N   UNL A   1      34.057  31.436  28.521  1.00  0.00    -0.352 N 
ATOM     22  C   UNL A   1      34.605  30.291  28.000  1.00  0.00     0.251 C 
ATOM     23  H   UNL A   1      33.080  31.491  28.419  1.00  0.00     0.163 HD
ATOM     24  O   UNL A   1      33.885  29.586  27.287  1.00  0.00    -0.269 OA
BRANCH  22  25
ATOM     25  C   UNL A   1      36.013  29.861  28.229  1.00  0.00     0.039 A 
ATOM     26  C   UNL A   1      36.326  29.307  29.480  1.00  0.00     0.014 A 
ATOM     27  C   UNL A   1      37.052  30.097  27.327  1.00  0.00     0.014 A 
ATOM     28  C   UNL A   1      37.646  28.971  29.810  1.00  0.00     0.010 A 
ATOM     29  C   UNL A   1      38.363  29.697  27.628  1.00  0.00     0.010 A 
ATOM     30  C   UNL A   1      38.679  29.145  28.878  1.00  0.00    -0.014 A 
BRANCH  30  31
ATOM     31  C   UNL A   1      40.087  28.784  29.210  1.00  0.00     0.031 A 
ATOM     32  C   UNL A   1      40.940  29.702  30.046  1.00  0.00     0.074 A 
ATOM     33  C   UNL A   1      40.619  27.640  28.740  1.00  0.00     0.049 A 
ATOM     34  N   UNL A   1      42.205  29.591  30.374  1.00  0.00    -0.248 NA
ATOM     35  C   UNL A   1      40.290  30.910  30.574  1.00  0.00     0.031 C 
ATOM     36  C   UNL A   1      39.914  26.653  27.922  1.00  0.00     0.029 A 
ATOM     37  N   UNL A   1      41.880  27.113  28.882  1.00  0.00    -0.354 N 
ATOM     38  C   UNL A   1      42.504  30.719  31.130  1.00  0.00     0.074 A 
ATOM     39  C   UNL A   1      41.299  31.519  31.182  1.00  0.00     0.031 C 
ATOM     40  C   UNL A   1      40.743  25.631  27.655  1.00  0.00     0.029 A 
ATOM     41  C   UNL A   1      42.051  25.910  28.244  1.00  0.00     0.049 A 
ATOM     42  H   UNL A   1      42.595  27.558  29.393  1.00  0.00     0.167 HD
ATOM     43  C   UNL A   1      43.669  31.050  31.738  1.00  0.00     0.037 A 
ATOM     44  C   UNL A   1      43.139  25.123  28.134  1.00  0.00     0.037 A 
ATOM     45  C   UNL A   1      44.865  30.249  31.719  1.00  0.00     0.049 A 
ATOM     46  C   UNL A   1      44.434  25.540  28.772  1.00  0.00     0.074 A 
ATOM     47  C   UNL A   1      46.073  30.485  32.354  1.00  0.00     0.029 A 
ATOM     48  N   UNL A   1      45.006  29.056  31.026  1.00  0.00    -0.354 N 
ATOM     49  N   UNL A   1      44.694  26.594  29.504  1.00  0.00    -0.248 NA
ATOM     50  C   UNL A   1      45.592  24.657  28.559  1.00  0.00     0.031 C 
ATOM     51  C   UNL A   1      46.957  29.453  32.016  1.00  0.00     0.029 A 
ATOM     52  C   UNL A   1      46.288  28.558  31.199  1.00  0.00     0.049 A 
ATOM     53  H   UNL A   1      44.299  28.627  30.492  1.00  0.00     0.167 HD
ATOM     54  C   UNL A   1      46.033  26.492  29.858  1.00  0.00     0.074 A 
ATOM     55  C   UNL A   1      46.533  25.269  29.266  1.00  0.00     0.031 C 
ATOM     56  C   UNL A   1      46.778  27.340  30.607  1.00  0.00     0.037 A 
BRANCH  43  57
ATOM     57  C   UNL A   1      43.711  32.352  32.483  1.00  0.00     0.064 A 
ATOM     58  C   UNL A   1      44.080  33.548  31.851  1.00  0.00     0.173 A 
ATOM     59  C   UNL A   1      43.341  32.410  33.836  1.00  0.00     0.173 A 
ATOM     60  F   UNL A   1      44.449  33.544  30.562  1.00  0.00    -0.203 F 
ATOM     61  C   UNL A   1      44.102  34.751  32.553  1.00  0.00     0.198 A 
ATOM     62  C   UNL A   1      43.342  33.618  34.528  1.00  0.00     0.198 A 
ATOM     63  F   UNL A   1      42.972  31.295  34.484  1.00  0.00    -0.203 F 
ATOM     64  F   UNL A   1      44.499  35.876  31.941  1.00  0.00    -0.200 F 
ATOM     65  C   UNL A   1      43.729  34.786  33.889  1.00  0.00     0.200 A 
ATOM     66  F   UNL A   1      42.971  33.652  35.815  1.00  0.00    -0.200 F 
ATOM     67  F   UNL A   1      43.749  35.944  34.561  1.00  0.00    -0.200 F 
ENDBRANCH  43  57
BRANCH  44  68
ATOM     68  C   UNL A   1      43.046  23.842  27.388  1.00  0.00     0.064 A 
ATOM     69  C   UNL A   1      43.453  23.764  26.049  1.00  0.00     0.173 A 
ATOM     70  C   UNL A   1      42.558  22.677  27.995  1.00  0.00     0.173 A 
ATOM     71  F   UNL A   1      43.902  24.861  25.421  1.00  0.00    -0.203 F 
ATOM     72  C   UNL A   1      43.367  22.567  25.342  1.00  0.00     0.198 A 
ATOM     73  C   UNL A   1      42.494  21.475  27.293  1.00  0.00     0.198 A 
ATOM     74  F   UNL A   1      42.156  22.703  29.274  1.00  0.00    -0.203 F 
ATOM     75  F   UNL A   1      43.733  22.526  24.054  1.00  0.00    -0.200 F 
ATOM     76  C   UNL A   1      42.895  21.423  25.966  1.00  0.00     0.200 A 
ATOM     77  F   UNL A   1      42.045  20.370  27.902  1.00  0.00    -0.200 F 
ATOM     78  F   UNL A   1      42.819  20.270  25.287  1.00  0.00    -0.200 F 
ENDBRANCH  44  68
BRANCH  56  79
ATOM     79  C   UNL A   1      48.209  26.965  30.853  1.00  0.00     0.064 A 
ATOM     80  C   UNL A   1      48.571  26.107  31.901  1.00  0.00     0.173 A 
ATOM     81  C   UNL A   1      49.225  27.438  30.008  1.00  0.00     0.173 A 
ATOM     82  F   UNL A   1      47.638  25.643  32.746  1.00  0.00    -0.203 F 
ATOM     83  C   UNL A   1      49.902  25.750  32.106  1.00  0.00     0.198 A 
ATOM     84  C   UNL A   1      50.552  27.061  30.203  1.00  0.00     0.198 A 
ATOM     85  F   UNL A   1      48.929  28.259  28.990  1.00  0.00    -0.203 F 
ATOM     86  F   UNL A   1      50.231  24.958  33.137  1.00  0.00    -0.200 F 
ATOM     87  C   UNL A   1      50.889  26.221  31.253  1.00  0.00     0.200 A 
ATOM     88  F   UNL A   1      51.504  27.511  29.374  1.00  0.00    -0.200 F 
ATOM     89  F   UNL A   1      52.168  25.872  31.449  1.00  0.00    -0.200 F 
ENDBRANCH  56  79
ENDBRANCH  30  31
ENDBRANCH  22  25
ENDBRANCH  20  21
ENDBRANCH  19  20
ENDBRANCH   1  19
TORSDOF 13
ENDMDL
