MODEL 1
REMARK VINA RESULT:     -13.2      0.000      0.000
REMARK SMILES CC(C)C[C@@H](CNC1=[NH+]S(=O)(=O)c2ccccc21)C(=O)NCCCNC(=O)c1ccc(-c2c3nc(c(-c4c(F)c(F)c(F)c(F)c4F)c4ccc([nH]4)c(-c4c(F)c(F)c(F)c(F)c4F)c4nc(c(-c5c(F)c(F)c(F)c(F)c5F)c5ccc2[nH]5)C=C4)C=C3)cc1
REMARK SMILES IDX 23 1 22 2 21 3 19 4 20 5 5 7 4 8 2 9 1 10 3 11 6 12 7 13
REMARK SMILES IDX 8 14 9 16 18 17 10 18 13 20 17 21 11 22 12 23 14 24 16 25
REMARK SMILES IDX 15 26 24 27 25 28 26 29 27 31 28 32 29 33 90 34 30 35 89 36
REMARK SMILES IDX 31 37 32 38 33 39 83 40 34 41 88 42 82 43 84 44 35 45 87 46
REMARK SMILES IDX 81 47 80 48 36 50 68 51 48 52 67 53 49 54 52 55 66 56 85 57
REMARK SMILES IDX 50 58 51 59 65 61 86 62 53 63 37 64 38 65 46 66 39 67 40 68
REMARK SMILES IDX 44 69 47 70 41 71 42 72 45 73 43 74 69 75 70 76 78 77 71 78
REMARK SMILES IDX 72 79 76 80 79 81 73 82 74 83 77 84 75 85 54 86 55 87 63 88
REMARK SMILES IDX 56 89 57 90 61 91 64 92 58 93 59 94 62 95 60 96
REMARK H PARENT 21 6 7 15 9 19 25 30 84 49 52 60
REMARK Flexibility Score: inf
ROOT
ATOM      1  C   UNL A   1      31.385  30.883  25.893  1.00  0.00     0.042 C 
ENDROOT
BRANCH   1   2
ATOM      2  C   UNL A   1      31.502  29.611  25.081  1.00  0.00     0.117 C 
BRANCH   2   3
ATOM      3  N   UNL A   1      31.225  29.799  23.660  1.00  0.00    -0.356 N 
ATOM      4  C   UNL A   1      30.747  28.892  22.752  1.00  0.00     0.227 C 
ATOM      5  O   UNL A   1      30.290  29.321  21.692  1.00  0.00    -0.275 OA
ATOM      6  H   UNL A   1      31.406  30.700  23.307  1.00  0.00     0.163 HD
BRANCH   4   7
ATOM      7  C   UNL A   1      30.820  27.397  23.031  1.00  0.00     0.120 C 
BRANCH   7   8
ATOM      8  C   UNL A   1      32.304  27.043  23.336  1.00  0.00     0.020 C 
BRANCH   8   9
ATOM      9  C   UNL A   1      33.193  26.426  22.249  1.00  0.00    -0.016 C 
ATOM     10  C   UNL A   1      33.996  25.254  22.813  1.00  0.00     0.007 C 
ATOM     11  C   UNL A   1      32.306  25.925  21.098  1.00  0.00     0.007 C 
ENDBRANCH   8   9
ENDBRANCH   7   8
BRANCH   7  12
ATOM     12  C   UNL A   1      29.622  26.898  23.870  1.00  0.00     0.247 C 
BRANCH  12  13
ATOM     13  N   UNL A   1      29.439  25.444  23.913  1.00  0.00    -0.272 N 
ATOM     14  C   UNL A   1      30.102  24.624  24.807  1.00  0.00     0.292 C 
ATOM     15  H   UNL A   1      28.813  25.033  23.275  1.00  0.00     0.305 HD
ATOM     16  N   UNL A   1      29.904  24.695  26.092  1.00  0.00    -0.162 N 
ATOM     17  C   UNL A   1      30.963  23.493  24.359  1.00  0.00     0.087 A 
ATOM     18  S   UNL A   1      30.662  23.454  26.869  1.00  0.00     0.329 S 
ATOM     19  H   UNL A   1      29.375  25.394  26.539  1.00  0.00     0.327 HD
ATOM     20  C   UNL A   1      31.271  22.687  25.436  1.00  0.00     0.124 A 
ATOM     21  C   UNL A   1      31.426  23.142  23.106  1.00  0.00     0.018 A 
ATOM     22  O   UNL A   1      29.687  22.562  27.450  1.00  0.00    -0.179 OA
ATOM     23  O   UNL A   1      31.811  23.948  27.603  1.00  0.00    -0.179 OA
ATOM     24  C   UNL A   1      31.936  21.476  25.326  1.00  0.00     0.025 A 
ATOM     25  C   UNL A   1      32.104  21.925  22.948  1.00  0.00     0.001 A 
ATOM     26  C   UNL A   1      32.337  21.086  24.048  1.00  0.00     0.002 A 
ENDBRANCH  12  13
ENDBRANCH   7  12
ENDBRANCH   4   7
ENDBRANCH   2   3
ENDBRANCH   1   2
BRANCH   1  27
ATOM     27  C   UNL A   1      32.575  31.112  26.813  1.00  0.00     0.118 C 
BRANCH  27  28
ATOM     28  N   UNL A   1      32.669  32.456  27.379  1.00  0.00    -0.352 N 
ATOM     29  C   UNL A   1      33.757  33.096  27.924  1.00  0.00     0.251 C 
ATOM     30  H   UNL A   1      31.834  32.979  27.366  1.00  0.00     0.163 HD
ATOM     31  O   UNL A   1      33.672  34.252  28.320  1.00  0.00    -0.269 OA
BRANCH  29  32
ATOM     32  C   UNL A   1      34.999  32.331  28.124  1.00  0.00     0.039 A 
ATOM     33  C   UNL A   1      36.195  33.047  28.208  1.00  0.00     0.014 A 
ATOM     34  C   UNL A   1      34.959  30.965  28.403  1.00  0.00     0.014 A 
ATOM     35  C   UNL A   1      37.325  32.421  28.720  1.00  0.00     0.010 A 
ATOM     36  C   UNL A   1      36.051  30.374  29.017  1.00  0.00     0.010 A 
ATOM     37  C   UNL A   1      37.232  31.107  29.206  1.00  0.00    -0.014 A 
BRANCH  37  38
ATOM     38  C   UNL A   1      38.351  30.500  29.960  1.00  0.00     0.031 A 
ATOM     39  C   UNL A   1      38.583  30.890  31.386  1.00  0.00     0.074 A 
ATOM     40  C   UNL A   1      39.191  29.660  29.324  1.00  0.00     0.049 A 
ATOM     41  N   UNL A   1      39.535  30.516  32.201  1.00  0.00    -0.248 NA
ATOM     42  C   UNL A   1      37.640  31.860  31.966  1.00  0.00     0.031 C 
ATOM     43  C   UNL A   1      39.097  29.272  27.913  1.00  0.00     0.029 A 
ATOM     44  N   UNL A   1      40.294  28.982  29.776  1.00  0.00    -0.354 N 
ATOM     45  C   UNL A   1      39.310  31.211  33.379  1.00  0.00     0.074 A 
ATOM     46  C   UNL A   1      38.177  32.080  33.156  1.00  0.00     0.031 C 
ATOM     47  C   UNL A   1      40.074  28.398  27.628  1.00  0.00     0.029 A 
ATOM     48  C   UNL A   1      40.886  28.191  28.822  1.00  0.00     0.049 A 
ATOM     49  H   UNL A   1      40.631  29.057  30.698  1.00  0.00     0.167 HD
ATOM     50  C   UNL A   1      39.973  31.106  34.554  1.00  0.00     0.037 A 
ATOM     51  C   UNL A   1      41.961  27.386  28.909  1.00  0.00     0.037 A 
ATOM     52  C   UNL A   1      41.083  30.218  34.767  1.00  0.00     0.049 A 
ATOM     53  C   UNL A   1      42.671  27.275  30.230  1.00  0.00     0.074 A 
ATOM     54  C   UNL A   1      41.800  29.992  35.927  1.00  0.00     0.029 A 
ATOM     55  N   UNL A   1      41.637  29.404  33.787  1.00  0.00    -0.354 N 
ATOM     56  N   UNL A   1      42.405  27.880  31.363  1.00  0.00    -0.248 NA
ATOM     57  C   UNL A   1      43.823  26.367  30.290  1.00  0.00     0.031 C 
ATOM     58  C   UNL A   1      42.813  29.070  35.640  1.00  0.00     0.029 A 
ATOM     59  C   UNL A   1      42.698  28.687  34.312  1.00  0.00     0.049 A 
ATOM     60  H   UNL A   1      41.321  29.347  32.856  1.00  0.00     0.167 HD
ATOM     61  C   UNL A   1      43.336  27.408  32.277  1.00  0.00     0.074 A 
ATOM     62  C   UNL A   1      44.164  26.452  31.568  1.00  0.00     0.031 C 
ATOM     63  C   UNL A   1      43.496  27.735  33.583  1.00  0.00     0.037 A 
BRANCH  50  64
ATOM     64  C   UNL A   1      39.505  31.970  35.687  1.00  0.00     0.064 A 
ATOM     65  C   UNL A   1      38.514  31.536  36.581  1.00  0.00     0.173 A 
ATOM     66  C   UNL A   1      40.048  33.249  35.881  1.00  0.00     0.173 A 
ATOM     67  F   UNL A   1      37.946  30.330  36.426  1.00  0.00    -0.203 F 
ATOM     68  C   UNL A   1      38.059  32.362  37.604  1.00  0.00     0.198 A 
ATOM     69  C   UNL A   1      39.615  34.059  36.926  1.00  0.00     0.198 A 
ATOM     70  F   UNL A   1      40.998  33.713  35.055  1.00  0.00    -0.203 F 
ATOM     71  F   UNL A   1      37.067  31.950  38.406  1.00  0.00    -0.200 F 
ATOM     72  C   UNL A   1      38.614  33.621  37.781  1.00  0.00     0.200 A 
ATOM     73  F   UNL A   1      40.157  35.273  37.100  1.00  0.00    -0.200 F 
ATOM     74  F   UNL A   1      38.174  34.416  38.765  1.00  0.00    -0.200 F 
ENDBRANCH  50  64
BRANCH  51  75
ATOM     75  C   UNL A   1      42.406  26.598  27.728  1.00  0.00     0.064 A 
ATOM     76  C   UNL A   1      41.853  25.339  27.453  1.00  0.00     0.173 A 
ATOM     77  C   UNL A   1      43.389  27.081  26.853  1.00  0.00     0.173 A 
ATOM     78  F   UNL A   1      40.920  24.826  28.269  1.00  0.00    -0.203 F 
ATOM     79  C   UNL A   1      42.282  24.584  26.363  1.00  0.00     0.198 A 
ATOM     80  C   UNL A   1      43.799  26.338  25.747  1.00  0.00     0.198 A 
ATOM     81  F   UNL A   1      43.945  28.284  27.064  1.00  0.00    -0.203 F 
ATOM     82  F   UNL A   1      41.768  23.365  26.151  1.00  0.00    -0.200 F 
ATOM     83  C   UNL A   1      43.251  25.086  25.508  1.00  0.00     0.200 A 
ATOM     84  F   UNL A   1      44.724  26.833  24.914  1.00  0.00    -0.200 F 
ATOM     85  F   UNL A   1      43.662  24.361  24.458  1.00  0.00    -0.200 F 
ENDBRANCH  51  75
BRANCH  63  86
ATOM     86  C   UNL A   1      44.586  27.030  34.333  1.00  0.00     0.064 A 
ATOM     87  C   UNL A   1      44.366  25.793  34.957  1.00  0.00     0.173 A 
ATOM     88  C   UNL A   1      45.877  27.575  34.385  1.00  0.00     0.173 A 
ATOM     89  F   UNL A   1      43.144  25.241  34.947  1.00  0.00    -0.203 F 
ATOM     90  C   UNL A   1      45.396  25.139  35.626  1.00  0.00     0.198 A 
ATOM     91  C   UNL A   1      46.911  26.905  35.029  1.00  0.00     0.198 A 
ATOM     92  F   UNL A   1      46.138  28.753  33.798  1.00  0.00    -0.203 F 
ATOM     93  F   UNL A   1      45.154  23.980  36.253  1.00  0.00    -0.200 F 
ATOM     94  C   UNL A   1      46.669  25.690  35.654  1.00  0.00     0.200 A 
ATOM     95  F   UNL A   1      48.143  27.431  35.043  1.00  0.00    -0.200 F 
ATOM     96  F   UNL A   1      47.661  25.053  36.289  1.00  0.00    -0.200 F 
ENDBRANCH  63  86
ENDBRANCH  37  38
ENDBRANCH  29  32
ENDBRANCH  27  28
ENDBRANCH   1  27
TORSDOF 14
ENDMDL
MODEL 2
REMARK VINA RESULT:     -13.2      4.540     10.180
REMARK SMILES CC(C)C[C@@H](CNC1=[NH+]S(=O)(=O)c2ccccc21)C(=O)NCCCNC(=O)c1ccc(-c2c3nc(c(-c4c(F)c(F)c(F)c(F)c4F)c4ccc([nH]4)c(-c4c(F)c(F)c(F)c(F)c4F)c4nc(c(-c5c(F)c(F)c(F)c(F)c5F)c5ccc2[nH]5)C=C4)C=C3)cc1
REMARK SMILES IDX 23 1 22 2 21 3 19 4 20 5 5 7 4 8 2 9 1 10 3 11 6 12 7 13
REMARK SMILES IDX 8 14 9 16 18 17 10 18 13 20 17 21 11 22 12 23 14 24 16 25
REMARK SMILES IDX 15 26 24 27 25 28 26 29 27 31 28 32 29 33 90 34 30 35 89 36
REMARK SMILES IDX 31 37 32 38 33 39 83 40 34 41 88 42 82 43 84 44 35 45 87 46
REMARK SMILES IDX 81 47 80 48 36 50 68 51 48 52 67 53 49 54 52 55 66 56 85 57
REMARK SMILES IDX 50 58 51 59 65 61 86 62 53 63 37 64 38 65 46 66 39 67 40 68
REMARK SMILES IDX 44 69 47 70 41 71 42 72 45 73 43 74 69 75 70 76 78 77 71 78
REMARK SMILES IDX 72 79 76 80 79 81 73 82 74 83 77 84 75 85 54 86 55 87 63 88
REMARK SMILES IDX 56 89 57 90 61 91 64 92 58 93 59 94 62 95 60 96
REMARK H PARENT 21 6 7 15 9 19 25 30 84 49 52 60
REMARK Flexibility Score: inf
ROOT
ATOM      1  C   UNL A   1      37.142  20.647  24.980  1.00  0.00     0.042 C 
ENDROOT
BRANCH   1   2
ATOM      2  C   UNL A   1      36.102  21.561  24.367  1.00  0.00     0.117 C 
BRANCH   2   3
ATOM      3  N   UNL A   1      35.022  21.914  25.283  1.00  0.00    -0.356 N 
ATOM      4  C   UNL A   1      33.753  21.404  25.351  1.00  0.00     0.227 C 
ATOM      5  O   UNL A   1      33.104  21.604  26.379  1.00  0.00    -0.275 OA
ATOM      6  H   UNL A   1      35.236  22.615  25.942  1.00  0.00     0.163 HD
BRANCH   4   7
ATOM      7  C   UNL A   1      33.153  20.649  24.173  1.00  0.00     0.120 C 
BRANCH   7   8
ATOM      8  C   UNL A   1      32.571  19.311  24.712  1.00  0.00     0.020 C 
BRANCH   8   9
ATOM      9  C   UNL A   1      32.862  17.992  23.988  1.00  0.00    -0.016 C 
ATOM     10  C   UNL A   1      32.522  18.109  22.502  1.00  0.00     0.007 C 
ATOM     11  C   UNL A   1      34.353  17.651  24.140  1.00  0.00     0.007 C 
ENDBRANCH   8   9
ENDBRANCH   7   8
BRANCH   7  12
ATOM     12  C   UNL A   1      32.405  21.587  23.197  1.00  0.00     0.247 C 
BRANCH  12  13
ATOM     13  N   UNL A   1      31.920  22.845  23.771  1.00  0.00    -0.272 N 
ATOM     14  C   UNL A   1      32.253  24.087  23.263  1.00  0.00     0.292 C 
ATOM     15  H   UNL A   1      31.329  22.803  24.557  1.00  0.00     0.305 HD
ATOM     16  N   UNL A   1      31.879  24.475  22.078  1.00  0.00    -0.162 N 
ATOM     17  C   UNL A   1      32.920  25.131  24.091  1.00  0.00     0.087 A 
ATOM     18  S   UNL A   1      32.234  26.067  21.845  1.00  0.00     0.329 S 
ATOM     19  H   UNL A   1      31.443  23.895  21.412  1.00  0.00     0.327 HD
ATOM     20  C   UNL A   1      32.884  26.343  23.431  1.00  0.00     0.124 A 
ATOM     21  C   UNL A   1      33.488  25.072  25.349  1.00  0.00     0.018 A 
ATOM     22  O   UNL A   1      31.017  26.838  21.742  1.00  0.00    -0.179 OA
ATOM     23  O   UNL A   1      33.332  26.205  20.909  1.00  0.00    -0.179 OA
ATOM     24  C   UNL A   1      33.292  27.540  23.995  1.00  0.00     0.025 A 
ATOM     25  C   UNL A   1      33.914  26.259  25.960  1.00  0.00     0.001 A 
ATOM     26  C   UNL A   1      33.797  27.490  25.295  1.00  0.00     0.002 A 
ENDBRANCH  12  13
ENDBRANCH   7  12
ENDBRANCH   4   7
ENDBRANCH   2   3
ENDBRANCH   1   2
BRANCH   1  27
ATOM     27  C   UNL A   1      38.357  21.397  25.504  1.00  0.00     0.118 C 
BRANCH  27  28
ATOM     28  N   UNL A   1      39.476  20.551  25.915  1.00  0.00    -0.352 N 
ATOM     29  C   UNL A   1      40.479  20.814  26.818  1.00  0.00     0.251 C 
ATOM     30  H   UNL A   1      39.516  19.666  25.484  1.00  0.00     0.163 HD
ATOM     31  O   UNL A   1      41.325  19.967  27.078  1.00  0.00    -0.269 OA
BRANCH  29  32
ATOM     32  C   UNL A   1      40.581  22.167  27.387  1.00  0.00     0.039 A 
ATOM     33  C   UNL A   1      41.576  22.397  28.338  1.00  0.00     0.014 A 
ATOM     34  C   UNL A   1      39.833  23.221  26.861  1.00  0.00     0.014 A 
ATOM     35  C   UNL A   1      41.926  23.706  28.650  1.00  0.00     0.010 A 
ATOM     36  C   UNL A   1      40.256  24.521  27.085  1.00  0.00     0.010 A 
ATOM     37  C   UNL A   1      41.324  24.771  27.959  1.00  0.00    -0.014 A 
BRANCH  37  38
ATOM     38  C   UNL A   1      41.836  26.151  28.105  1.00  0.00     0.031 A 
ATOM     39  C   UNL A   1      43.178  26.508  27.546  1.00  0.00     0.074 A 
ATOM     40  C   UNL A   1      41.115  27.047  28.809  1.00  0.00     0.049 A 
ATOM     41  N   UNL A   1      43.826  27.642  27.614  1.00  0.00    -0.248 NA
ATOM     42  C   UNL A   1      43.907  25.438  26.847  1.00  0.00     0.031 C 
ATOM     43  C   UNL A   1      39.829  26.778  29.459  1.00  0.00     0.029 A 
ATOM     44  N   UNL A   1      41.361  28.364  29.101  1.00  0.00    -0.354 N 
ATOM     45  C   UNL A   1      45.037  27.416  26.979  1.00  0.00     0.074 A 
ATOM     46  C   UNL A   1      45.067  26.023  26.592  1.00  0.00     0.031 C 
ATOM     47  C   UNL A   1      39.382  27.903  30.037  1.00  0.00     0.029 A 
ATOM     48  C   UNL A   1      40.364  28.962  29.833  1.00  0.00     0.049 A 
ATOM     49  H   UNL A   1      42.175  28.836  28.813  1.00  0.00     0.167 HD
ATOM     50  C   UNL A   1      46.024  28.304  26.714  1.00  0.00     0.037 A 
ATOM     51  C   UNL A   1      40.259  30.227  30.283  1.00  0.00     0.037 A 
ATOM     52  C   UNL A   1      45.969  29.691  27.084  1.00  0.00     0.049 A 
ATOM     53  C   UNL A   1      41.361  31.197  29.960  1.00  0.00     0.074 A 
ATOM     54  C   UNL A   1      46.885  30.693  26.826  1.00  0.00     0.029 A 
ATOM     55  N   UNL A   1      44.927  30.273  27.797  1.00  0.00    -0.354 N 
ATOM     56  N   UNL A   1      42.472  30.994  29.292  1.00  0.00    -0.248 NA
ATOM     57  C   UNL A   1      41.196  32.573  30.446  1.00  0.00     0.031 C 
ATOM     58  C   UNL A   1      46.419  31.873  27.415  1.00  0.00     0.029 A 
ATOM     59  C   UNL A   1      45.188  31.617  28.001  1.00  0.00     0.049 A 
ATOM     60  H   UNL A   1      44.124  29.799  28.110  1.00  0.00     0.167 HD
ATOM     61  C   UNL A   1      43.124  32.218  29.253  1.00  0.00     0.074 A 
ATOM     62  C   UNL A   1      42.276  33.163  29.952  1.00  0.00     0.031 C 
ATOM     63  C   UNL A   1      44.318  32.534  28.693  1.00  0.00     0.037 A 
BRANCH  50  64
ATOM     64  C   UNL A   1      47.232  27.791  25.988  1.00  0.00     0.064 A 
ATOM     65  C   UNL A   1      47.287  27.757  24.586  1.00  0.00     0.173 A 
ATOM     66  C   UNL A   1      48.348  27.326  26.699  1.00  0.00     0.173 A 
ATOM     67  F   UNL A   1      46.238  28.171  23.859  1.00  0.00    -0.203 F 
ATOM     68  C   UNL A   1      48.398  27.243  23.924  1.00  0.00     0.198 A 
ATOM     69  C   UNL A   1      49.471  26.843  26.033  1.00  0.00     0.198 A 
ATOM     70  F   UNL A   1      48.347  27.335  28.041  1.00  0.00    -0.203 F 
ATOM     71  F   UNL A   1      48.401  27.162  22.586  1.00  0.00    -0.200 F 
ATOM     72  C   UNL A   1      49.492  26.792  24.647  1.00  0.00     0.200 A 
ATOM     73  F   UNL A   1      50.530  26.414  26.733  1.00  0.00    -0.200 F 
ATOM     74  F   UNL A   1      50.560  26.296  24.008  1.00  0.00    -0.200 F 
ENDBRANCH  50  64
BRANCH  51  75
ATOM     75  C   UNL A   1      39.056  30.654  31.046  1.00  0.00     0.064 A 
ATOM     76  C   UNL A   1      37.927  31.159  30.387  1.00  0.00     0.173 A 
ATOM     77  C   UNL A   1      39.008  30.568  32.445  1.00  0.00     0.173 A 
ATOM     78  F   UNL A   1      37.929  31.275  29.050  1.00  0.00    -0.203 F 
ATOM     79  C   UNL A   1      36.806  31.584  31.097  1.00  0.00     0.198 A 
ATOM     80  C   UNL A   1      37.876  30.968  33.154  1.00  0.00     0.198 A 
ATOM     81  F   UNL A   1      40.058  30.084  33.126  1.00  0.00    -0.203 F 
ATOM     82  F   UNL A   1      35.758  32.105  30.443  1.00  0.00    -0.200 F 
ATOM     83  C   UNL A   1      36.779  31.484  32.480  1.00  0.00     0.200 A 
ATOM     84  F   UNL A   1      37.848  30.855  34.488  1.00  0.00    -0.200 F 
ATOM     85  F   UNL A   1      35.700  31.890  33.163  1.00  0.00    -0.200 F 
ENDBRANCH  51  75
BRANCH  63  86
ATOM     86  C   UNL A   1      44.757  33.964  28.786  1.00  0.00     0.064 A 
ATOM     87  C   UNL A   1      44.376  34.914  27.828  1.00  0.00     0.173 A 
ATOM     88  C   UNL A   1      45.527  34.398  29.875  1.00  0.00     0.173 A 
ATOM     89  F   UNL A   1      43.652  34.542  26.761  1.00  0.00    -0.203 F 
ATOM     90  C   UNL A   1      44.768  36.243  27.945  1.00  0.00     0.198 A 
ATOM     91  C   UNL A   1      45.894  35.733  30.005  1.00  0.00     0.198 A 
ATOM     92  F   UNL A   1      45.912  33.528  30.822  1.00  0.00    -0.203 F 
ATOM     93  F   UNL A   1      44.430  37.125  26.995  1.00  0.00    -0.200 F 
ATOM     94  C   UNL A   1      45.520  36.654  29.037  1.00  0.00     0.200 A 
ATOM     95  F   UNL A   1      46.607  36.131  31.067  1.00  0.00    -0.200 F 
ATOM     96  F   UNL A   1      45.888  37.936  29.153  1.00  0.00    -0.200 F 
ENDBRANCH  63  86
ENDBRANCH  37  38
ENDBRANCH  29  32
ENDBRANCH  27  28
ENDBRANCH   1  27
TORSDOF 14
ENDMDL
MODEL 3
REMARK VINA RESULT:     -13.2      0.627      7.410
REMARK SMILES CC(C)C[C@@H](CNC1=[NH+]S(=O)(=O)c2ccccc21)C(=O)NCCCNC(=O)c1ccc(-c2c3nc(c(-c4c(F)c(F)c(F)c(F)c4F)c4ccc([nH]4)c(-c4c(F)c(F)c(F)c(F)c4F)c4nc(c(-c5c(F)c(F)c(F)c(F)c5F)c5ccc2[nH]5)C=C4)C=C3)cc1
REMARK SMILES IDX 23 1 22 2 21 3 19 4 20 5 5 7 4 8 2 9 1 10 3 11 6 12 7 13
REMARK SMILES IDX 8 14 9 16 18 17 10 18 13 20 17 21 11 22 12 23 14 24 16 25
REMARK SMILES IDX 15 26 24 27 25 28 26 29 27 31 28 32 29 33 90 34 30 35 89 36
REMARK SMILES IDX 31 37 32 38 33 39 83 40 34 41 88 42 82 43 84 44 35 45 87 46
REMARK SMILES IDX 81 47 80 48 36 50 68 51 48 52 67 53 49 54 52 55 66 56 85 57
REMARK SMILES IDX 50 58 51 59 65 61 86 62 53 63 37 64 38 65 46 66 39 67 40 68
REMARK SMILES IDX 44 69 47 70 41 71 42 72 45 73 43 74 69 75 70 76 78 77 71 78
REMARK SMILES IDX 72 79 76 80 79 81 73 82 74 83 77 84 75 85 54 86 55 87 63 88
REMARK SMILES IDX 56 89 57 90 61 91 64 92 58 93 59 94 62 95 60 96
REMARK H PARENT 21 6 7 15 9 19 25 30 84 49 52 60
REMARK Flexibility Score: inf
ROOT
ATOM      1  C   UNL A   1      32.463  30.053  25.392  1.00  0.00     0.042 C 
ENDROOT
BRANCH   1   2
ATOM      2  C   UNL A   1      31.172  29.441  24.892  1.00  0.00     0.117 C 
BRANCH   2   3
ATOM      3  N   UNL A   1      30.849  29.804  23.516  1.00  0.00    -0.356 N 
ATOM      4  C   UNL A   1      30.346  29.016  22.516  1.00  0.00     0.227 C 
ATOM      5  O   UNL A   1      29.853  29.572  21.533  1.00  0.00    -0.275 OA
ATOM      6  H   UNL A   1      31.015  30.744  23.275  1.00  0.00     0.163 HD
BRANCH   4   7
ATOM      7  C   UNL A   1      30.435  27.498  22.601  1.00  0.00     0.120 C 
BRANCH   7   8
ATOM      8  C   UNL A   1      31.840  27.075  22.086  1.00  0.00     0.020 C 
BRANCH   8   9
ATOM      9  C   UNL A   1      33.060  27.154  23.011  1.00  0.00    -0.016 C 
ATOM     10  C   UNL A   1      33.787  25.810  23.058  1.00  0.00     0.007 C 
ATOM     11  C   UNL A   1      34.023  28.232  22.486  1.00  0.00     0.007 C 
ENDBRANCH   8   9
ENDBRANCH   7   8
BRANCH   7  12
ATOM     12  C   UNL A   1      29.782  26.944  23.888  1.00  0.00     0.247 C 
BRANCH  12  13
ATOM     13  N   UNL A   1      29.557  25.496  23.913  1.00  0.00    -0.272 N 
ATOM     14  C   UNL A   1      30.191  24.647  24.801  1.00  0.00     0.292 C 
ATOM     15  H   UNL A   1      28.924  25.110  23.266  1.00  0.00     0.305 HD
ATOM     16  N   UNL A   1      29.987  24.709  26.086  1.00  0.00    -0.162 N 
ATOM     17  C   UNL A   1      31.022  23.497  24.345  1.00  0.00     0.087 A 
ATOM     18  S   UNL A   1      30.704  23.438  26.853  1.00  0.00     0.329 S 
ATOM     19  H   UNL A   1      29.475  25.418  26.538  1.00  0.00     0.327 HD
ATOM     20  C   UNL A   1      31.300  22.670  25.415  1.00  0.00     0.124 A 
ATOM     21  C   UNL A   1      31.483  23.147  23.092  1.00  0.00     0.018 A 
ATOM     22  O   UNL A   1      29.700  22.568  27.418  1.00  0.00    -0.179 OA
ATOM     23  O   UNL A   1      31.861  23.891  27.600  1.00  0.00    -0.179 OA
ATOM     24  C   UNL A   1      31.931  21.442  25.295  1.00  0.00     0.025 A 
ATOM     25  C   UNL A   1      32.127  21.913  22.924  1.00  0.00     0.001 A 
ATOM     26  C   UNL A   1      32.329  21.055  24.015  1.00  0.00     0.002 A 
ENDBRANCH  12  13
ENDBRANCH   7  12
ENDBRANCH   4   7
ENDBRANCH   2   3
ENDBRANCH   1   2
BRANCH   1  27
ATOM     27  C   UNL A   1      32.441  30.349  26.884  1.00  0.00     0.118 C 
BRANCH  27  28
ATOM     28  N   UNL A   1      32.450  31.769  27.233  1.00  0.00    -0.352 N 
ATOM     29  C   UNL A   1      33.500  32.556  27.643  1.00  0.00     0.251 C 
ATOM     30  H   UNL A   1      31.581  32.227  27.163  1.00  0.00     0.163 HD
ATOM     31  O   UNL A   1      33.340  33.752  27.857  1.00  0.00    -0.269 OA
BRANCH  29  32
ATOM     32  C   UNL A   1      34.795  31.917  27.925  1.00  0.00     0.039 A 
ATOM     33  C   UNL A   1      35.917  32.742  28.025  1.00  0.00     0.014 A 
ATOM     34  C   UNL A   1      34.866  30.565  28.260  1.00  0.00     0.014 A 
ATOM     35  C   UNL A   1      37.075  32.242  28.609  1.00  0.00     0.010 A 
ATOM     36  C   UNL A   1      35.979  30.100  28.943  1.00  0.00     0.010 A 
ATOM     37  C   UNL A   1      37.080  30.945  29.147  1.00  0.00    -0.014 A 
BRANCH  37  38
ATOM     38  C   UNL A   1      38.215  30.473  29.970  1.00  0.00     0.031 A 
ATOM     39  C   UNL A   1      39.188  29.491  29.397  1.00  0.00     0.074 A 
ATOM     40  C   UNL A   1      38.309  30.879  31.251  1.00  0.00     0.049 A 
ATOM     41  N   UNL A   1      40.215  28.916  29.969  1.00  0.00    -0.248 NA
ATOM     42  C   UNL A   1      38.959  29.068  28.007  1.00  0.00     0.031 C 
ATOM     43  C   UNL A   1      37.369  31.778  31.929  1.00  0.00     0.029 A 
ATOM     44  N   UNL A   1      39.237  30.588  32.218  1.00  0.00    -0.354 N 
ATOM     45  C   UNL A   1      40.742  28.061  29.013  1.00  0.00     0.074 A 
ATOM     46  C   UNL A   1      39.887  28.137  27.851  1.00  0.00     0.031 C 
ATOM     47  C   UNL A   1      37.790  31.994  33.184  1.00  0.00     0.029 A 
ATOM     48  C   UNL A   1      39.006  31.223  33.414  1.00  0.00     0.049 A 
ATOM     49  H   UNL A   1      39.997  29.981  32.069  1.00  0.00     0.167 HD
ATOM     50  C   UNL A   1      41.861  27.304  29.092  1.00  0.00     0.037 A 
ATOM     51  C   UNL A   1      39.705  31.186  34.564  1.00  0.00     0.037 A 
ATOM     52  C   UNL A   1      42.714  27.259  30.247  1.00  0.00     0.049 A 
ATOM     53  C   UNL A   1      40.954  30.349  34.619  1.00  0.00     0.074 A 
ATOM     54  C   UNL A   1      43.898  26.568  30.422  1.00  0.00     0.029 A 
ATOM     55  N   UNL A   1      42.468  27.941  31.432  1.00  0.00    -0.354 N 
ATOM     56  N   UNL A   1      41.488  29.601  33.683  1.00  0.00    -0.248 NA
ATOM     57  C   UNL A   1      41.701  30.357  35.883  1.00  0.00     0.031 C 
ATOM     58  C   UNL A   1      44.350  26.799  31.725  1.00  0.00     0.029 A 
ATOM     59  C   UNL A   1      43.471  27.673  32.348  1.00  0.00     0.049 A 
ATOM     60  H   UNL A   1      41.695  28.528  31.596  1.00  0.00     0.167 HD
ATOM     61  C   UNL A   1      42.646  29.070  34.233  1.00  0.00     0.074 A 
ATOM     62  C   UNL A   1      42.745  29.596  35.580  1.00  0.00     0.031 C 
ATOM     63  C   UNL A   1      43.546  28.222  33.678  1.00  0.00     0.037 A 
BRANCH  50  64
ATOM     64  C   UNL A   1      42.216  26.478  27.892  1.00  0.00     0.064 A 
ATOM     65  C   UNL A   1      41.647  25.212  27.677  1.00  0.00     0.173 A 
ATOM     66  C   UNL A   1      43.136  26.951  26.945  1.00  0.00     0.173 A 
ATOM     67  F   UNL A   1      40.777  24.704  28.563  1.00  0.00    -0.203 F 
ATOM     68  C   UNL A   1      42.013  24.438  26.580  1.00  0.00     0.198 A 
ATOM     69  C   UNL A   1      43.475  26.188  25.832  1.00  0.00     0.198 A 
ATOM     70  F   UNL A   1      43.710  28.154  27.102  1.00  0.00    -0.203 F 
ATOM     71  F   UNL A   1      41.504  23.207  26.431  1.00  0.00    -0.200 F 
ATOM     72  C   UNL A   1      42.922  24.928  25.655  1.00  0.00     0.200 A 
ATOM     73  F   UNL A   1      44.348  26.666  24.934  1.00  0.00    -0.200 F 
ATOM     74  F   UNL A   1      43.275  24.181  24.600  1.00  0.00    -0.200 F 
ENDBRANCH  50  64
BRANCH  51  75
ATOM     75  C   UNL A   1      39.264  31.989  35.736  1.00  0.00     0.064 A 
ATOM     76  C   UNL A   1      39.736  33.294  35.933  1.00  0.00     0.173 A 
ATOM     77  C   UNL A   1      38.367  31.473  36.682  1.00  0.00     0.173 A 
ATOM     78  F   UNL A   1      40.608  33.828  35.064  1.00  0.00    -0.203 F 
ATOM     79  C   UNL A   1      39.347  34.044  37.041  1.00  0.00     0.198 A 
ATOM     80  C   UNL A   1      37.957  32.232  37.777  1.00  0.00     0.198 A 
ATOM     81  F   UNL A   1      37.877  30.232  36.538  1.00  0.00    -0.203 F 
ATOM     82  F   UNL A   1      39.850  35.272  37.227  1.00  0.00    -0.200 F 
ATOM     83  C   UNL A   1      38.454  33.514  37.960  1.00  0.00     0.200 A 
ATOM     84  F   UNL A   1      37.081  31.724  38.654  1.00  0.00    -0.200 F 
ATOM     85  F   UNL A   1      38.078  34.236  39.025  1.00  0.00    -0.200 F 
ENDBRANCH  51  75
BRANCH  63  86
ATOM     86  C   UNL A   1      44.729  27.839  34.516  1.00  0.00     0.064 A 
ATOM     87  C   UNL A   1      45.899  28.612  34.531  1.00  0.00     0.173 A 
ATOM     88  C   UNL A   1      44.671  26.714  35.351  1.00  0.00     0.173 A 
ATOM     89  F   UNL A   1      46.006  29.689  33.737  1.00  0.00    -0.203 F 
ATOM     90  C   UNL A   1      46.977  28.259  35.336  1.00  0.00     0.198 A 
ATOM     91  C   UNL A   1      45.739  26.380  36.176  1.00  0.00     0.198 A 
ATOM     92  F   UNL A   1      43.570  25.946  35.376  1.00  0.00    -0.203 F 
ATOM     93  F   UNL A   1      48.102  28.986  35.302  1.00  0.00    -0.200 F 
ATOM     94  C   UNL A   1      46.894  27.148  36.164  1.00  0.00     0.200 A 
ATOM     95  F   UNL A   1      45.651  25.316  36.986  1.00  0.00    -0.200 F 
ATOM     96  F   UNL A   1      47.929  26.816  36.946  1.00  0.00    -0.200 F 
ENDBRANCH  63  86
ENDBRANCH  37  38
ENDBRANCH  29  32
ENDBRANCH  27  28
ENDBRANCH   1  27
TORSDOF 14
ENDMDL
