MODEL 1
REMARK VINA RESULT:     -10.8      0.000      0.000
REMARK SMILES CCOC(=O)c1cc(C[NH2+]CC(=O)NCCCNC(=O)c2ccc(-c3c4nc(c(-c5c(F)c(F)c(F)c(F)c5F)c5ccc([nH]5)c(-c5c(F)c(F)c(F)c(F)c5F)c5nc(c(-c6c(F)c(F)c(F)c(F)c6F)c6ccc3[nH]6)C=C5)C=C4)cc2)c(C)o1
REMARK SMILES IDX 12 1 13 2 14 3 11 5 10 6 9 9 8 10 6 11 7 12 86 13 84 14
REMARK SMILES IDX 85 15 4 16 5 17 3 18 2 19 1 20 15 21 16 22 17 23 18 24 19 25
REMARK SMILES IDX 20 27 21 28 22 29 83 30 23 31 82 32 24 33 25 34 26 35 76 36
REMARK SMILES IDX 27 37 81 38 75 39 77 40 28 41 80 42 74 43 73 44 29 46 61 47
REMARK SMILES IDX 41 48 60 49 42 50 45 51 59 52 78 53 43 54 44 55 58 57 79 58
REMARK SMILES IDX 46 59 30 60 31 61 39 62 32 63 33 64 37 65 40 66 34 67 35 68
REMARK SMILES IDX 38 69 36 70 62 71 63 72 71 73 64 74 65 75 69 76 72 77 66 78
REMARK SMILES IDX 67 79 70 80 68 81 47 82 48 83 56 84 49 85 50 86 54 87 57 88
REMARK SMILES IDX 51 89 52 90 55 91 53 92
REMARK H PARENT 14 4 10 7 10 8 18 26 77 45 45 56
REMARK Flexibility Score: inf
ROOT
ATOM      1  C   UNL A   1      32.646  28.750  25.817  1.00  0.00     0.275 C 
ATOM      2  O   UNL A   1      33.845  28.457  25.861  1.00  0.00    -0.269 OA
ATOM      3  N   UNL A   1      32.325  30.036  25.472  1.00  0.00    -0.351 N 
ATOM      4  H   UNL A   1      33.101  30.594  25.235  1.00  0.00     0.163 HD
ENDROOT
BRANCH   1   5
ATOM      5  C   UNL A   1      31.568  27.721  26.208  1.00  0.00     0.362 C 
BRANCH   5   6
ATOM      6  N   UNL A   1      31.711  26.435  25.473  1.00  0.00    -0.335 N 
ATOM      7  H   UNL A   1      32.418  26.531  24.745  1.00  0.00     0.347 HD
ATOM      8  H   UNL A   1      31.999  25.695  26.114  1.00  0.00     0.347 HD
BRANCH   6   9
ATOM      9  C   UNL A   1      30.435  26.106  24.875  1.00  0.00     0.301 C 
BRANCH   9  10
ATOM     10  C   UNL A   1      30.041  26.925  23.707  1.00  0.00     0.048 A 
ATOM     11  C   UNL A   1      28.940  28.629  22.747  1.00  0.00     0.212 A 
ATOM     12  C   UNL A   1      28.764  27.537  23.576  1.00  0.00     0.068 A 
ATOM     13  O   UNL A   1      30.163  28.541  22.144  1.00  0.00    -0.454 OA
ATOM     14  C   UNL A   1      30.829  27.498  22.727  1.00  0.00     0.110 A 
ATOM     15  C   UNL A   1      32.238  27.323  22.316  1.00  0.00     0.088 C 
BRANCH  11  16
ATOM     16  C   UNL A   1      28.158  29.840  22.636  1.00  0.00     0.374 C 
ATOM     17  O   UNL A   1      27.125  30.111  23.233  1.00  0.00    -0.242 OA
BRANCH  16  18
ATOM     18  O   UNL A   1      28.640  30.560  21.577  1.00  0.00    -0.460 OA
BRANCH  18  19
ATOM     19  C   UNL A   1      28.401  31.970  21.651  1.00  0.00     0.230 C 
ATOM     20  C   UNL A   1      27.894  32.408  20.284  1.00  0.00     0.049 C 
ENDBRANCH  18  19
ENDBRANCH  16  18
ENDBRANCH  11  16
ENDBRANCH   9  10
ENDBRANCH   6   9
ENDBRANCH   5   6
ENDBRANCH   1   5
BRANCH   3  21
ATOM     21  C   UNL A   1      31.044  30.730  25.389  1.00  0.00     0.118 C 
BRANCH  21  22
ATOM     22  C   UNL A   1      31.022  32.056  26.166  1.00  0.00     0.042 C 
BRANCH  22  23
ATOM     23  C   UNL A   1      32.316  32.397  26.900  1.00  0.00     0.118 C 
BRANCH  23  24
ATOM     24  N   UNL A   1      32.336  33.777  27.352  1.00  0.00    -0.352 N 
ATOM     25  C   UNL A   1      33.102  34.391  28.313  1.00  0.00     0.251 C 
ATOM     26  H   UNL A   1      31.693  34.369  26.897  1.00  0.00     0.163 HD
ATOM     27  O   UNL A   1      32.780  35.512  28.700  1.00  0.00    -0.269 OA
BRANCH  25  28
ATOM     28  C   UNL A   1      34.302  33.741  28.904  1.00  0.00     0.039 A 
ATOM     29  C   UNL A   1      34.110  32.690  29.809  1.00  0.00     0.014 A 
ATOM     30  C   UNL A   1      35.598  34.203  28.663  1.00  0.00     0.014 A 
ATOM     31  C   UNL A   1      35.206  32.082  30.435  1.00  0.00     0.010 A 
ATOM     32  C   UNL A   1      36.697  33.553  29.236  1.00  0.00     0.010 A 
ATOM     33  C   UNL A   1      36.516  32.489  30.137  1.00  0.00    -0.014 A 
BRANCH  33  34
ATOM     34  C   UNL A   1      37.692  31.829  30.772  1.00  0.00     0.031 A 
ATOM     35  C   UNL A   1      38.124  32.211  32.165  1.00  0.00     0.074 A 
ATOM     36  C   UNL A   1      38.408  30.911  30.091  1.00  0.00     0.049 A 
ATOM     37  N   UNL A   1      39.150  31.791  32.863  1.00  0.00    -0.248 NA
ATOM     38  C   UNL A   1      37.305  33.219  32.857  1.00  0.00     0.031 C 
ATOM     39  C   UNL A   1      38.131  30.461  28.726  1.00  0.00     0.029 A 
ATOM     40  N   UNL A   1      39.527  30.197  30.451  1.00  0.00    -0.354 N 
ATOM     41  C   UNL A   1      39.110  32.491  34.062  1.00  0.00     0.074 A 
ATOM     42  C   UNL A   1      37.989  33.403  33.977  1.00  0.00     0.031 C 
ATOM     43  C   UNL A   1      39.045  29.546  28.368  1.00  0.00     0.029 A 
ATOM     44  C   UNL A   1      39.985  29.353  29.468  1.00  0.00     0.049 A 
ATOM     45  H   UNL A   1      39.960  30.284  31.331  1.00  0.00     0.167 HD
ATOM     46  C   UNL A   1      39.912  32.370  35.148  1.00  0.00     0.037 A 
ATOM     47  C   UNL A   1      41.040  28.516  29.453  1.00  0.00     0.037 A 
ATOM     48  C   UNL A   1      41.002  31.435  35.259  1.00  0.00     0.049 A 
ATOM     49  C   UNL A   1      41.911  28.392  30.673  1.00  0.00     0.074 A 
ATOM     50  C   UNL A   1      41.824  31.195  36.345  1.00  0.00     0.029 A 
ATOM     51  N   UNL A   1      41.417  30.582  34.247  1.00  0.00    -0.354 N 
ATOM     52  N   UNL A   1      41.818  29.014  31.822  1.00  0.00    -0.248 NA
ATOM     53  C   UNL A   1      43.029  27.439  30.596  1.00  0.00     0.031 C 
ATOM     54  C   UNL A   1      42.763  30.223  35.980  1.00  0.00     0.029 A 
ATOM     55  C   UNL A   1      42.497  29.828  34.680  1.00  0.00     0.049 A 
ATOM     56  H   UNL A   1      41.006  30.522  33.355  1.00  0.00     0.167 HD
ATOM     57  C   UNL A   1      42.842  28.509  32.613  1.00  0.00     0.074 A 
ATOM     58  C   UNL A   1      43.537  27.519  31.817  1.00  0.00     0.031 C 
ATOM     59  C   UNL A   1      43.175  28.837  33.885  1.00  0.00     0.037 A 
BRANCH  46  60
ATOM     60  C   UNL A   1      39.636  33.269  36.318  1.00  0.00     0.064 A 
ATOM     61  C   UNL A   1      38.784  32.875  37.361  1.00  0.00     0.173 A 
ATOM     62  C   UNL A   1      40.259  34.522  36.418  1.00  0.00     0.173 A 
ATOM     63  F   UNL A   1      38.155  31.691  37.308  1.00  0.00    -0.203 F 
ATOM     64  C   UNL A   1      38.542  33.715  38.446  1.00  0.00     0.198 A 
ATOM     65  C   UNL A   1      40.039  35.347  37.519  1.00  0.00     0.198 A 
ATOM     66  F   UNL A   1      41.090  34.944  35.452  1.00  0.00    -0.203 F 
ATOM     67  F   UNL A   1      37.686  33.337  39.405  1.00  0.00    -0.200 F 
ATOM     68  C   UNL A   1      39.174  34.945  38.526  1.00  0.00     0.200 A 
ATOM     69  F   UNL A   1      40.660  36.531  37.602  1.00  0.00    -0.200 F 
ATOM     70  F   UNL A   1      38.945  35.751  39.573  1.00  0.00    -0.200 F 
ENDBRANCH  46  60
BRANCH  47  71
ATOM     71  C   UNL A   1      41.316  27.694  28.245  1.00  0.00     0.064 A 
ATOM     72  C   UNL A   1      40.732  26.430  28.086  1.00  0.00     0.173 A 
ATOM     73  C   UNL A   1      42.176  28.148  27.235  1.00  0.00     0.173 A 
ATOM     74  F   UNL A   1      39.921  25.944  29.039  1.00  0.00    -0.203 F 
ATOM     75  C   UNL A   1      41.014  25.641  26.974  1.00  0.00     0.198 A 
ATOM     76  C   UNL A   1      42.439  27.369  26.111  1.00  0.00     0.198 A 
ATOM     77  F   UNL A   1      42.756  29.353  27.341  1.00  0.00    -0.203 F 
ATOM     78  F   UNL A   1      40.478  24.416  26.871  1.00  0.00    -0.200 F 
ATOM     79  C   UNL A   1      41.863  26.113  25.985  1.00  0.00     0.200 A 
ATOM     80  F   UNL A   1      43.257  27.828  25.154  1.00  0.00    -0.200 F 
ATOM     81  F   UNL A   1      42.135  25.351  24.916  1.00  0.00    -0.200 F 
ENDBRANCH  47  71
BRANCH  59  82
ATOM     82  C   UNL A   1      44.319  28.097  34.513  1.00  0.00     0.064 A 
ATOM     83  C   UNL A   1      44.127  26.881  35.185  1.00  0.00     0.173 A 
ATOM     84  C   UNL A   1      45.628  28.591  34.407  1.00  0.00     0.173 A 
ATOM     85  F   UNL A   1      42.893  26.375  35.326  1.00  0.00    -0.203 F 
ATOM     86  C   UNL A   1      45.202  26.198  35.748  1.00  0.00     0.198 A 
ATOM     87  C   UNL A   1      46.704  27.891  34.948  1.00  0.00     0.198 A 
ATOM     88  F   UNL A   1      45.865  29.747  33.769  1.00  0.00    -0.203 F 
ATOM     89  F   UNL A   1      44.991  25.059  36.423  1.00  0.00    -0.200 F 
ATOM     90  C   UNL A   1      46.489  26.699  35.623  1.00  0.00     0.200 A 
ATOM     91  F   UNL A   1      47.948  28.371  34.816  1.00  0.00    -0.200 F 
ATOM     92  F   UNL A   1      47.523  26.037  36.160  1.00  0.00    -0.200 F 
ENDBRANCH  59  82
ENDBRANCH  33  34
ENDBRANCH  25  28
ENDBRANCH  23  24
ENDBRANCH  22  23
ENDBRANCH  21  22
ENDBRANCH   3  21
TORSDOF 16
ENDMDL
MODEL 2
REMARK VINA RESULT:     -10.7      0.724      2.193
REMARK SMILES CCOC(=O)c1cc(C[NH2+]CC(=O)NCCCNC(=O)c2ccc(-c3c4nc(c(-c5c(F)c(F)c(F)c(F)c5F)c5ccc([nH]5)c(-c5c(F)c(F)c(F)c(F)c5F)c5nc(c(-c6c(F)c(F)c(F)c(F)c6F)c6ccc3[nH]6)C=C5)C=C4)cc2)c(C)o1
REMARK SMILES IDX 12 1 13 2 14 3 11 5 10 6 9 9 8 10 6 11 7 12 86 13 84 14
REMARK SMILES IDX 85 15 4 16 5 17 3 18 2 19 1 20 15 21 16 22 17 23 18 24 19 25
REMARK SMILES IDX 20 27 21 28 22 29 83 30 23 31 82 32 24 33 25 34 26 35 76 36
REMARK SMILES IDX 27 37 81 38 75 39 77 40 28 41 80 42 74 43 73 44 29 46 61 47
REMARK SMILES IDX 41 48 60 49 42 50 45 51 59 52 78 53 43 54 44 55 58 57 79 58
REMARK SMILES IDX 46 59 30 60 31 61 39 62 32 63 33 64 37 65 40 66 34 67 35 68
REMARK SMILES IDX 38 69 36 70 62 71 63 72 71 73 64 74 65 75 69 76 72 77 66 78
REMARK SMILES IDX 67 79 70 80 68 81 47 82 48 83 56 84 49 85 50 86 54 87 57 88
REMARK SMILES IDX 51 89 52 90 55 91 53 92
REMARK H PARENT 14 4 10 7 10 8 18 26 77 45 45 56
REMARK Flexibility Score: inf
ROOT
ATOM      1  C   UNL A   1      32.501  29.149  25.346  1.00  0.00     0.275 C 
ATOM      2  O   UNL A   1      33.400  28.904  24.536  1.00  0.00    -0.269 OA
ATOM      3  N   UNL A   1      32.007  30.426  25.370  1.00  0.00    -0.351 N 
ATOM      4  H   UNL A   1      32.392  31.019  24.684  1.00  0.00     0.163 HD
ENDROOT
BRANCH   1   5
ATOM      5  C   UNL A   1      32.015  28.071  26.334  1.00  0.00     0.362 C 
BRANCH   5   6
ATOM      6  N   UNL A   1      32.211  26.690  25.817  1.00  0.00    -0.335 N 
ATOM      7  H   UNL A   1      32.896  26.699  25.062  1.00  0.00     0.347 HD
ATOM      8  H   UNL A   1      32.551  26.081  26.562  1.00  0.00     0.347 HD
BRANCH   6   9
ATOM      9  C   UNL A   1      30.942  26.204  25.319  1.00  0.00     0.301 C 
BRANCH   9  10
ATOM     10  C   UNL A   1      30.528  26.722  23.996  1.00  0.00     0.048 A 
ATOM     11  C   UNL A   1      29.744  28.331  22.642  1.00  0.00     0.212 A 
ATOM     12  C   UNL A   1      29.474  27.660  23.819  1.00  0.00     0.068 A 
ATOM     13  O   UNL A   1      30.721  27.661  21.959  1.00  0.00    -0.454 OA
ATOM     14  C   UNL A   1      31.192  26.678  22.785  1.00  0.00     0.110 A 
ATOM     15  C   UNL A   1      32.363  25.925  22.289  1.00  0.00     0.088 C 
BRANCH  11  16
ATOM     16  C   UNL A   1      29.321  29.644  22.207  1.00  0.00     0.374 C 
ATOM     17  O   UNL A   1      29.011  29.982  21.073  1.00  0.00    -0.242 OA
BRANCH  16  18
ATOM     18  O   UNL A   1      29.537  30.521  23.234  1.00  0.00    -0.460 OA
BRANCH  18  19
ATOM     19  C   UNL A   1      28.768  31.728  23.164  1.00  0.00     0.230 C 
ATOM     20  C   UNL A   1      27.406  31.423  23.771  1.00  0.00     0.049 C 
ENDBRANCH  18  19
ENDBRANCH  16  18
ENDBRANCH  11  16
ENDBRANCH   9  10
ENDBRANCH   6   9
ENDBRANCH   5   6
ENDBRANCH   1   5
BRANCH   3  21
ATOM     21  C   UNL A   1      31.014  31.069  26.225  1.00  0.00     0.118 C 
BRANCH  21  22
ATOM     22  C   UNL A   1      31.322  32.549  26.503  1.00  0.00     0.042 C 
BRANCH  22  23
ATOM     23  C   UNL A   1      32.627  32.809  27.252  1.00  0.00     0.118 C 
BRANCH  23  24
ATOM     24  N   UNL A   1      32.724  34.184  27.710  1.00  0.00    -0.352 N 
ATOM     25  C   UNL A   1      33.482  34.740  28.711  1.00  0.00     0.251 C 
ATOM     26  H   UNL A   1      32.151  34.822  27.225  1.00  0.00     0.163 HD
ATOM     27  O   UNL A   1      33.223  35.881  29.086  1.00  0.00    -0.269 OA
BRANCH  25  28
ATOM     28  C   UNL A   1      34.599  34.003  29.360  1.00  0.00     0.039 A 
ATOM     29  C   UNL A   1      35.911  34.317  28.982  1.00  0.00     0.014 A 
ATOM     30  C   UNL A   1      34.382  32.951  30.254  1.00  0.00     0.014 A 
ATOM     31  C   UNL A   1      36.994  33.613  29.523  1.00  0.00     0.010 A 
ATOM     32  C   UNL A   1      35.467  32.293  30.845  1.00  0.00     0.010 A 
ATOM     33  C   UNL A   1      36.787  32.609  30.481  1.00  0.00    -0.014 A 
BRANCH  33  34
ATOM     34  C   UNL A   1      37.934  31.874  31.088  1.00  0.00     0.031 A 
ATOM     35  C   UNL A   1      38.390  32.193  32.490  1.00  0.00     0.074 A 
ATOM     36  C   UNL A   1      38.603  30.945  30.375  1.00  0.00     0.049 A 
ATOM     37  N   UNL A   1      39.399  31.703  33.168  1.00  0.00    -0.248 NA
ATOM     38  C   UNL A   1      37.624  33.216  33.217  1.00  0.00     0.031 C 
ATOM     39  C   UNL A   1      38.298  30.551  28.999  1.00  0.00     0.029 A 
ATOM     40  N   UNL A   1      39.688  30.169  30.706  1.00  0.00    -0.354 N 
ATOM     41  C   UNL A   1      39.398  32.368  34.388  1.00  0.00     0.074 A 
ATOM     42  C   UNL A   1      38.321  33.334  34.338  1.00  0.00     0.031 C 
ATOM     43  C   UNL A   1      39.165  29.605  28.607  1.00  0.00     0.029 A 
ATOM     44  C   UNL A   1      40.101  29.335  29.694  1.00  0.00     0.049 A 
ATOM     45  H   UNL A   1      40.129  30.207  31.585  1.00  0.00     0.167 HD
ATOM     46  C   UNL A   1      40.199  32.176  35.464  1.00  0.00     0.037 A 
ATOM     47  C   UNL A   1      41.115  28.449  29.647  1.00  0.00     0.037 A 
ATOM     48  C   UNL A   1      41.244  31.187  35.540  1.00  0.00     0.049 A 
ATOM     49  C   UNL A   1      41.985  28.246  30.857  1.00  0.00     0.074 A 
ATOM     50  C   UNL A   1      42.059  30.875  36.613  1.00  0.00     0.029 A 
ATOM     51  N   UNL A   1      41.613  30.347  34.500  1.00  0.00    -0.354 N 
ATOM     52  N   UNL A   1      41.927  28.837  32.025  1.00  0.00    -0.248 NA
ATOM     53  C   UNL A   1      43.056  27.244  30.744  1.00  0.00     0.031 C 
ATOM     54  C   UNL A   1      42.949  29.871  36.212  1.00  0.00     0.029 A 
ATOM     55  C   UNL A   1      42.658  29.529  34.902  1.00  0.00     0.049 A 
ATOM     56  H   UNL A   1      41.195  30.334  33.609  1.00  0.00     0.167 HD
ATOM     57  C   UNL A   1      42.930  28.260  32.794  1.00  0.00     0.074 A 
ATOM     58  C   UNL A   1      43.574  27.263  31.964  1.00  0.00     0.031 C 
ATOM     59  C   UNL A   1      43.284  28.533  34.074  1.00  0.00     0.037 A 
BRANCH  46  60
ATOM     60  C   UNL A   1      39.972  33.050  36.663  1.00  0.00     0.064 A 
ATOM     61  C   UNL A   1      40.730  34.211  36.879  1.00  0.00     0.173 A 
ATOM     62  C   UNL A   1      38.961  32.746  37.586  1.00  0.00     0.173 A 
ATOM     63  F   UNL A   1      41.717  34.540  36.030  1.00  0.00    -0.203 F 
ATOM     64  C   UNL A   1      40.505  35.019  37.991  1.00  0.00     0.198 A 
ATOM     65  C   UNL A   1      38.718  33.572  38.682  1.00  0.00     0.198 A 
ATOM     66  F   UNL A   1      38.201  31.652  37.423  1.00  0.00    -0.203 F 
ATOM     67  F   UNL A   1      41.275  36.095  38.201  1.00  0.00    -0.200 F 
ATOM     68  C   UNL A   1      39.496  34.702  38.887  1.00  0.00     0.200 A 
ATOM     69  F   UNL A   1      37.734  33.272  39.540  1.00  0.00    -0.200 F 
ATOM     70  F   UNL A   1      39.276  35.483  39.954  1.00  0.00    -0.200 F 
ENDBRANCH  46  60
BRANCH  47  71
ATOM     71  C   UNL A   1      41.345  27.653  28.413  1.00  0.00     0.064 A 
ATOM     72  C   UNL A   1      42.267  28.077  27.446  1.00  0.00     0.173 A 
ATOM     73  C   UNL A   1      40.643  26.464  28.170  1.00  0.00     0.173 A 
ATOM     74  F   UNL A   1      42.944  29.221  27.624  1.00  0.00    -0.203 F 
ATOM     75  C   UNL A   1      42.462  27.354  26.272  1.00  0.00     0.198 A 
ATOM     76  C   UNL A   1      40.856  25.728  27.006  1.00  0.00     0.198 A 
ATOM     77  F   UNL A   1      39.753  26.017  29.069  1.00  0.00    -0.203 F 
ATOM     78  F   UNL A   1      43.315  27.807  25.342  1.00  0.00    -0.200 F 
ATOM     79  C   UNL A   1      41.760  26.178  26.055  1.00  0.00     0.200 A 
ATOM     80  F   UNL A   1      40.180  24.590  26.801  1.00  0.00    -0.200 F 
ATOM     81  F   UNL A   1      41.947  25.484  24.923  1.00  0.00    -0.200 F 
ENDBRANCH  47  71
BRANCH  59  82
ATOM     82  C   UNL A   1      44.395  27.720  34.671  1.00  0.00     0.064 A 
ATOM     83  C   UNL A   1      45.728  28.155  34.630  1.00  0.00     0.173 A 
ATOM     84  C   UNL A   1      44.117  26.512  35.328  1.00  0.00     0.173 A 
ATOM     85  F   UNL A   1      46.047  29.296  34.001  1.00  0.00    -0.203 F 
ATOM     86  C   UNL A   1      46.745  27.397  35.204  1.00  0.00     0.198 A 
ATOM     87  C   UNL A   1      45.133  25.770  35.924  1.00  0.00     0.198 A 
ATOM     88  F   UNL A   1      42.858  26.055  35.400  1.00  0.00    -0.203 F 
ATOM     89  F   UNL A   1      48.017  27.809  35.115  1.00  0.00    -0.200 F 
ATOM     90  C   UNL A   1      46.447  26.210  35.855  1.00  0.00     0.200 A 
ATOM     91  F   UNL A   1      44.843  24.629  36.564  1.00  0.00    -0.200 F 
ATOM     92  F   UNL A   1      47.427  25.485  36.413  1.00  0.00    -0.200 F 
ENDBRANCH  59  82
ENDBRANCH  33  34
ENDBRANCH  25  28
ENDBRANCH  23  24
ENDBRANCH  22  23
ENDBRANCH  21  22
ENDBRANCH   3  21
TORSDOF 16
ENDMDL
MODEL 3
REMARK VINA RESULT:     -10.7      6.077     11.352
REMARK SMILES CCOC(=O)c1cc(C[NH2+]CC(=O)NCCCNC(=O)c2ccc(-c3c4nc(c(-c5c(F)c(F)c(F)c(F)c5F)c5ccc([nH]5)c(-c5c(F)c(F)c(F)c(F)c5F)c5nc(c(-c6c(F)c(F)c(F)c(F)c6F)c6ccc3[nH]6)C=C5)C=C4)cc2)c(C)o1
REMARK SMILES IDX 12 1 13 2 14 3 11 5 10 6 9 9 8 10 6 11 7 12 86 13 84 14
REMARK SMILES IDX 85 15 4 16 5 17 3 18 2 19 1 20 15 21 16 22 17 23 18 24 19 25
REMARK SMILES IDX 20 27 21 28 22 29 83 30 23 31 82 32 24 33 25 34 26 35 76 36
REMARK SMILES IDX 27 37 81 38 75 39 77 40 28 41 80 42 74 43 73 44 29 46 61 47
REMARK SMILES IDX 41 48 60 49 42 50 45 51 59 52 78 53 43 54 44 55 58 57 79 58
REMARK SMILES IDX 46 59 30 60 31 61 39 62 32 63 33 64 37 65 40 66 34 67 35 68
REMARK SMILES IDX 38 69 36 70 62 71 63 72 71 73 64 74 65 75 69 76 72 77 66 78
REMARK SMILES IDX 67 79 70 80 68 81 47 82 48 83 56 84 49 85 50 86 54 87 57 88
REMARK SMILES IDX 51 89 52 90 55 91 53 92
REMARK H PARENT 14 4 10 7 10 8 18 26 77 45 45 56
REMARK Flexibility Score: inf
ROOT
ATOM      1  C   UNL A   1      37.507  23.253  25.578  1.00  0.00     0.275 C 
ATOM      2  O   UNL A   1      38.143  24.081  26.238  1.00  0.00    -0.269 OA
ATOM      3  N   UNL A   1      38.083  22.026  25.386  1.00  0.00    -0.351 N 
ATOM      4  H   UNL A   1      38.942  21.907  25.852  1.00  0.00     0.163 HD
ENDROOT
BRANCH   1   5
ATOM      5  C   UNL A   1      36.156  23.626  24.939  1.00  0.00     0.362 C 
BRANCH   5   6
ATOM      6  N   UNL A   1      35.018  23.492  25.889  1.00  0.00    -0.335 N 
ATOM      7  H   UNL A   1      35.008  22.553  26.285  1.00  0.00     0.347 HD
ATOM      8  H   UNL A   1      35.113  24.168  26.648  1.00  0.00     0.347 HD
BRANCH   6   9
ATOM      9  C   UNL A   1      33.787  23.729  25.164  1.00  0.00     0.301 C 
BRANCH   9  10
ATOM     10  C   UNL A   1      32.936  22.541  24.936  1.00  0.00     0.048 A 
ATOM     11  C   UNL A   1      32.597  20.326  24.800  1.00  0.00     0.212 A 
ATOM     12  C   UNL A   1      33.409  21.343  24.334  1.00  0.00     0.068 A 
ATOM     13  O   UNL A   1      31.498  20.872  25.402  1.00  0.00    -0.454 OA
ATOM     14  C   UNL A   1      31.705  22.222  25.477  1.00  0.00     0.110 A 
ATOM     15  C   UNL A   1      30.691  22.988  26.232  1.00  0.00     0.088 C 
BRANCH  11  16
ATOM     16  C   UNL A   1      32.863  18.910  24.915  1.00  0.00     0.374 C 
ATOM     17  O   UNL A   1      32.209  18.084  25.539  1.00  0.00    -0.242 OA
BRANCH  16  18
ATOM     18  O   UNL A   1      34.103  18.666  24.392  1.00  0.00    -0.460 OA
BRANCH  18  19
ATOM     19  C   UNL A   1      34.522  17.298  24.452  1.00  0.00     0.230 C 
ATOM     20  C   UNL A   1      34.079  16.640  23.152  1.00  0.00     0.049 C 
ENDBRANCH  18  19
ENDBRANCH  16  18
ENDBRANCH  11  16
ENDBRANCH   9  10
ENDBRANCH   6   9
ENDBRANCH   5   6
ENDBRANCH   1   5
BRANCH   3  21
ATOM     21  C   UNL A   1      37.655  20.860  24.618  1.00  0.00     0.118 C 
BRANCH  21  22
ATOM     22  C   UNL A   1      38.484  19.601  24.918  1.00  0.00     0.042 C 
BRANCH  22  23
ATOM     23  C   UNL A   1      39.312  19.661  26.199  1.00  0.00     0.118 C 
BRANCH  23  24
ATOM     24  N   UNL A   1      40.548  18.907  26.082  1.00  0.00    -0.352 N 
ATOM     25  C   UNL A   1      41.850  19.336  25.990  1.00  0.00     0.251 C 
ATOM     26  H   UNL A   1      40.434  17.928  26.063  1.00  0.00     0.163 HD
ATOM     27  O   UNL A   1      42.715  18.531  25.652  1.00  0.00    -0.269 OA
BRANCH  25  28
ATOM     28  C   UNL A   1      42.243  20.740  26.277  1.00  0.00     0.039 A 
ATOM     29  C   UNL A   1      42.376  21.132  27.615  1.00  0.00     0.014 A 
ATOM     30  C   UNL A   1      42.387  21.698  25.271  1.00  0.00     0.014 A 
ATOM     31  C   UNL A   1      42.690  22.458  27.939  1.00  0.00     0.010 A 
ATOM     32  C   UNL A   1      42.767  23.007  25.591  1.00  0.00     0.010 A 
ATOM     33  C   UNL A   1      42.914  23.407  26.930  1.00  0.00    -0.014 A 
BRANCH  33  34
ATOM     34  C   UNL A   1      43.281  24.814  27.261  1.00  0.00     0.031 A 
ATOM     35  C   UNL A   1      44.684  25.314  27.026  1.00  0.00     0.074 A 
ATOM     36  C   UNL A   1      42.371  25.643  27.814  1.00  0.00     0.049 A 
ATOM     37  N   UNL A   1      45.206  26.484  27.300  1.00  0.00    -0.248 NA
ATOM     38  C   UNL A   1      45.631  24.365  26.423  1.00  0.00     0.031 C 
ATOM     39  C   UNL A   1      40.985  25.292  28.128  1.00  0.00     0.029 A 
ATOM     40  N   UNL A   1      42.480  26.951  28.222  1.00  0.00    -0.354 N 
ATOM     41  C   UNL A   1      46.541  26.405  26.922  1.00  0.00     0.074 A 
ATOM     42  C   UNL A   1      46.762  25.056  26.447  1.00  0.00     0.031 C 
ATOM     43  C   UNL A   1      40.372  26.357  28.669  1.00  0.00     0.029 A 
ATOM     44  C   UNL A   1      41.322  27.462  28.758  1.00  0.00     0.049 A 
ATOM     45  H   UNL A   1      43.310  27.473  28.138  1.00  0.00     0.167 HD
ATOM     46  C   UNL A   1      47.491  27.371  26.939  1.00  0.00     0.037 A 
ATOM     47  C   UNL A   1      41.052  28.682  29.262  1.00  0.00     0.037 A 
ATOM     48  C   UNL A   1      47.269  28.728  27.368  1.00  0.00     0.049 A 
ATOM     49  C   UNL A   1      42.120  29.741  29.262  1.00  0.00     0.074 A 
ATOM     50  C   UNL A   1      48.154  29.792  27.355  1.00  0.00     0.029 A 
ATOM     51  N   UNL A   1      46.074  29.209  27.882  1.00  0.00    -0.354 N 
ATOM     52  N   UNL A   1      43.358  29.667  28.838  1.00  0.00    -0.248 NA
ATOM     53  C   UNL A   1      41.749  31.058  29.801  1.00  0.00     0.031 C 
ATOM     54  C   UNL A   1      47.507  30.908  27.897  1.00  0.00     0.029 A 
ATOM     55  C   UNL A   1      46.206  30.550  28.207  1.00  0.00     0.049 A 
ATOM     56  H   UNL A   1      45.255  28.677  27.999  1.00  0.00     0.167 HD
ATOM     57  C   UNL A   1      43.903  30.931  29.031  1.00  0.00     0.074 A 
ATOM     58  C   UNL A   1      42.857  31.756  29.599  1.00  0.00     0.031 C 
ATOM     59  C   UNL A   1      45.158  31.366  28.761  1.00  0.00     0.037 A 
BRANCH  46  60
ATOM     60  C   UNL A   1      48.867  26.999  26.468  1.00  0.00     0.064 A 
ATOM     61  C   UNL A   1      49.838  26.508  27.354  1.00  0.00     0.173 A 
ATOM     62  C   UNL A   1      49.208  27.099  25.112  1.00  0.00     0.173 A 
ATOM     63  F   UNL A   1      49.565  26.403  28.664  1.00  0.00    -0.203 F 
ATOM     64  C   UNL A   1      51.109  26.159  26.904  1.00  0.00     0.198 A 
ATOM     65  C   UNL A   1      50.471  26.722  24.660  1.00  0.00     0.198 A 
ATOM     66  F   UNL A   1      48.315  27.556  24.221  1.00  0.00    -0.203 F 
ATOM     67  F   UNL A   1      52.034  25.739  27.778  1.00  0.00    -0.200 F 
ATOM     68  C   UNL A   1      51.421  26.260  25.558  1.00  0.00     0.200 A 
ATOM     69  F   UNL A   1      50.768  26.807  23.356  1.00  0.00    -0.200 F 
ATOM     70  F   UNL A   1      52.643  25.919  25.125  1.00  0.00    -0.200 F 
ENDBRANCH  46  60
BRANCH  47  71
ATOM     71  C   UNL A   1      39.693  28.985  29.781  1.00  0.00     0.064 A 
ATOM     72  C   UNL A   1      38.680  29.438  28.924  1.00  0.00     0.173 A 
ATOM     73  C   UNL A   1      39.382  28.840  31.140  1.00  0.00     0.173 A 
ATOM     74  F   UNL A   1      38.938  29.615  27.619  1.00  0.00    -0.203 F 
ATOM     75  C   UNL A   1      37.415  29.757  29.410  1.00  0.00     0.198 A 
ATOM     76  C   UNL A   1      38.109  29.136  31.622  1.00  0.00     0.198 A 
ATOM     77  F   UNL A   1      40.318  28.406  31.998  1.00  0.00    -0.203 F 
ATOM     78  F   UNL A   1      36.480  30.233  28.577  1.00  0.00    -0.200 F 
ATOM     79  C   UNL A   1      37.129  29.601  30.758  1.00  0.00     0.200 A 
ATOM     80  F   UNL A   1      37.834  28.981  32.924  1.00  0.00    -0.200 F 
ATOM     81  F   UNL A   1      35.911  29.910  31.225  1.00  0.00    -0.200 F 
ENDBRANCH  47  71
BRANCH  59  82
ATOM     82  C   UNL A   1      45.464  32.808  29.041  1.00  0.00     0.064 A 
ATOM     83  C   UNL A   1      46.005  33.219  30.268  1.00  0.00     0.173 A 
ATOM     84  C   UNL A   1      45.250  33.784  28.056  1.00  0.00     0.173 A 
ATOM     85  F   UNL A   1      46.214  32.327  31.247  1.00  0.00    -0.203 F 
ATOM     86  C   UNL A   1      46.298  34.559  30.506  1.00  0.00     0.198 A 
ATOM     87  C   UNL A   1      45.570  35.119  28.288  1.00  0.00     0.198 A 
ATOM     88  F   UNL A   1      44.740  33.441  26.863  1.00  0.00    -0.203 F 
ATOM     89  F   UNL A   1      46.775  34.938  31.701  1.00  0.00    -0.200 F 
ATOM     90  C   UNL A   1      46.088  35.506  29.515  1.00  0.00     0.200 A 
ATOM     91  F   UNL A   1      45.377  36.031  27.325  1.00  0.00    -0.200 F 
ATOM     92  F   UNL A   1      46.378  36.795  29.744  1.00  0.00    -0.200 F 
ENDBRANCH  59  82
ENDBRANCH  33  34
ENDBRANCH  25  28
ENDBRANCH  23  24
ENDBRANCH  22  23
ENDBRANCH  21  22
ENDBRANCH   3  21
TORSDOF 16
ENDMDL
