MODEL 1
REMARK VINA RESULT:     -13.9      0.000      0.000
REMARK SMILES Cc1cccc(N2CCN(C(=O)[C@@H]3CC=CC[C@@H]3C(=O)NCCCNC(=O)c3ccc(-c4c5nc(c(-c6c(F)c(F)c(F)c(F)c6F)c6ccc([nH]6)c(-c6c(F)c(F)c(F)c(F)c6F)c6nc(c(-c7c(F)c(F)c(F)c(F)c7F)c7ccc4[nH]7)C=C6)C=C5)cc3)CC2)c1C
REMARK SMILES IDX 23 1 22 2 21 3 19 4 20 5 18 7 13 8 14 9 15 10 17 11 16 12
REMARK SMILES IDX 11 13 7 14 8 15 92 16 9 17 91 18 10 19 12 20 6 21 1 22 2 23
REMARK SMILES IDX 3 24 93 25 4 26 94 27 5 28 24 29 25 30 26 31 27 33 28 34
REMARK SMILES IDX 29 35 90 36 30 37 89 38 31 39 32 40 33 41 83 42 34 43 88 44
REMARK SMILES IDX 82 45 84 46 35 47 87 48 81 49 80 50 36 52 68 53 48 54 67 55
REMARK SMILES IDX 49 56 52 57 66 58 85 59 50 60 51 61 65 63 86 64 53 65 37 66
REMARK SMILES IDX 38 67 46 68 39 69 40 70 44 71 47 72 41 73 42 74 45 75 43 76
REMARK SMILES IDX 69 77 70 78 78 79 71 80 72 81 76 82 79 83 73 84 74 85 77 86
REMARK SMILES IDX 75 87 54 88 55 89 63 90 56 91 57 92 61 93 64 94 58 95 59 96
REMARK SMILES IDX 62 97 60 98
REMARK H PARENT 21 6 25 32 84 51 52 62
REMARK Flexibility Score: inf
ROOT
ATOM      1  C   UNL A   1      31.784  30.280  26.982  1.00  0.00     0.042 C 
ENDROOT
BRANCH   1   2
ATOM      2  C   UNL A   1      32.411  28.897  26.961  1.00  0.00     0.117 C 
BRANCH   2   3
ATOM      3  N   UNL A   1      33.247  28.640  25.809  1.00  0.00    -0.356 N 
ATOM      4  C   UNL A   1      33.153  27.786  24.764  1.00  0.00     0.224 C 
ATOM      5  O   UNL A   1      34.020  27.951  23.893  1.00  0.00    -0.275 OA
ATOM      6  H   UNL A   1      34.053  29.203  25.779  1.00  0.00     0.163 HD
BRANCH   4   7
ATOM      7  C   UNL A   1      32.055  26.732  24.519  1.00  0.00     0.095 C 
ATOM      8  C   UNL A   1      31.996  25.893  23.245  1.00  0.00     0.095 C 
ATOM      9  C   UNL A   1      31.492  26.724  22.011  1.00  0.00     0.041 C 
ATOM     10  C   UNL A   1      30.701  27.964  22.336  1.00  0.00    -0.030 C 
ATOM     11  C   UNL A   1      30.684  27.417  24.741  1.00  0.00     0.041 C 
ATOM     12  C   UNL A   1      30.308  28.273  23.578  1.00  0.00    -0.030 C 
BRANCH   8  13
ATOM     13  C   UNL A   1      33.139  24.908  22.879  1.00  0.00     0.226 C 
ATOM     14  N   UNL A   1      35.961  22.774  24.946  1.00  0.00    -0.368 N 
ATOM     15  C   UNL A   1      35.752  22.736  23.483  1.00  0.00     0.138 C 
ATOM     16  C   UNL A   1      34.927  23.496  25.740  1.00  0.00     0.138 C 
ATOM     17  C   UNL A   1      34.284  22.753  23.034  1.00  0.00     0.141 C 
ATOM     18  C   UNL A   1      33.515  23.630  25.111  1.00  0.00     0.141 C 
ATOM     19  N   UNL A   1      33.528  23.832  23.664  1.00  0.00    -0.339 N 
ATOM     20  O   UNL A   1      33.651  25.038  21.757  1.00  0.00    -0.275 OA
BRANCH  14  21
ATOM     21  C   UNL A   1      37.256  22.637  25.522  1.00  0.00     0.040 A 
ATOM     22  C   UNL A   1      40.317  20.291  26.138  1.00  0.00     0.044 C 
ATOM     23  C   UNL A   1      39.387  21.484  26.142  1.00  0.00    -0.046 A 
ATOM     24  C   UNL A   1      39.863  22.639  26.765  1.00  0.00     0.004 A 
ATOM     25  C   UNL A   1      38.087  21.464  25.517  1.00  0.00    -0.025 A 
ATOM     26  C   UNL A   1      39.076  23.767  26.806  1.00  0.00     0.002 A 
ATOM     27  C   UNL A   1      37.673  20.135  24.919  1.00  0.00     0.047 C 
ATOM     28  C   UNL A   1      37.814  23.754  26.204  1.00  0.00     0.026 A 
ENDBRANCH  14  21
ENDBRANCH   8  13
ENDBRANCH   4   7
ENDBRANCH   2   3
ENDBRANCH   1   2
BRANCH   1  29
ATOM     29  C   UNL A   1      32.769  31.339  26.526  1.00  0.00     0.118 C 
BRANCH  29  30
ATOM     30  N   UNL A   1      32.810  32.502  27.408  1.00  0.00    -0.352 N 
ATOM     31  C   UNL A   1      33.823  32.925  28.236  1.00  0.00     0.251 C 
ATOM     32  H   UNL A   1      31.999  33.060  27.410  1.00  0.00     0.163 HD
ATOM     33  O   UNL A   1      33.609  33.794  29.078  1.00  0.00    -0.269 OA
BRANCH  31  34
ATOM     34  C   UNL A   1      35.118  32.216  28.224  1.00  0.00     0.039 A 
ATOM     35  C   UNL A   1      36.272  33.001  28.264  1.00  0.00     0.014 A 
ATOM     36  C   UNL A   1      35.196  30.834  28.387  1.00  0.00     0.014 A 
ATOM     37  C   UNL A   1      37.465  32.428  28.682  1.00  0.00     0.010 A 
ATOM     38  C   UNL A   1      36.347  30.289  28.934  1.00  0.00     0.010 A 
ATOM     39  C   UNL A   1      37.470  31.100  29.135  1.00  0.00    -0.014 A 
BRANCH  39  40
ATOM     40  C   UNL A   1      38.612  30.607  29.932  1.00  0.00     0.031 A 
ATOM     41  C   UNL A   1      38.747  30.981  31.371  1.00  0.00     0.074 A 
ATOM     42  C   UNL A   1      39.542  29.854  29.309  1.00  0.00     0.049 A 
ATOM     43  N   UNL A   1      39.638  30.586  32.241  1.00  0.00    -0.248 NA
ATOM     44  C   UNL A   1      37.777  31.953  31.899  1.00  0.00     0.031 C 
ATOM     45  C   UNL A   1      39.550  29.535  27.876  1.00  0.00     0.029 A 
ATOM     46  N   UNL A   1      40.646  29.202  29.792  1.00  0.00    -0.354 N 
ATOM     47  C   UNL A   1      39.336  31.260  33.415  1.00  0.00     0.074 A 
ATOM     48  C   UNL A   1      38.227  32.142  33.129  1.00  0.00     0.031 C 
ATOM     49  C   UNL A   1      40.560  28.693  27.614  1.00  0.00     0.029 A 
ATOM     50  C   UNL A   1      41.286  28.433  28.850  1.00  0.00     0.049 A 
ATOM     51  H   UNL A   1      40.951  29.277  30.726  1.00  0.00     0.167 HD
ATOM     52  C   UNL A   1      39.919  31.125  34.628  1.00  0.00     0.037 A 
ATOM     53  C   UNL A   1      42.326  27.590  28.984  1.00  0.00     0.037 A 
ATOM     54  C   UNL A   1      41.013  30.230  34.885  1.00  0.00     0.049 A 
ATOM     55  C   UNL A   1      42.909  27.405  30.357  1.00  0.00     0.074 A 
ATOM     56  C   UNL A   1      41.672  29.981  36.074  1.00  0.00     0.029 A 
ATOM     57  N   UNL A   1      41.612  29.431  33.917  1.00  0.00    -0.354 N 
ATOM     58  N   UNL A   1      42.561  27.981  31.483  1.00  0.00    -0.248 NA
ATOM     59  C   UNL A   1      44.015  26.448  30.485  1.00  0.00     0.031 C 
ATOM     60  C   UNL A   1      42.686  29.050  35.821  1.00  0.00     0.029 A 
ATOM     61  C   UNL A   1      42.637  28.692  34.482  1.00  0.00     0.049 A 
ATOM     62  H   UNL A   1      41.347  29.396  32.970  1.00  0.00     0.167 HD
ATOM     63  C   UNL A   1      43.393  27.450  32.456  1.00  0.00     0.074 A 
ATOM     64  C   UNL A   1      44.245  26.483  31.789  1.00  0.00     0.031 C 
ATOM     65  C   UNL A   1      43.460  27.739  33.779  1.00  0.00     0.037 A 
BRANCH  52  66
ATOM     66  C   UNL A   1      39.369  31.963  35.744  1.00  0.00     0.064 A 
ATOM     67  C   UNL A   1      39.811  33.279  35.958  1.00  0.00     0.173 A 
ATOM     68  C   UNL A   1      38.411  31.442  36.626  1.00  0.00     0.173 A 
ATOM     69  F   UNL A   1      40.742  33.817  35.155  1.00  0.00    -0.203 F 
ATOM     70  C   UNL A   1      39.345  34.027  37.036  1.00  0.00     0.198 A 
ATOM     71  C   UNL A   1      37.926  32.203  37.687  1.00  0.00     0.198 A 
ATOM     72  F   UNL A   1      37.957  30.190  36.470  1.00  0.00    -0.203 F 
ATOM     73  F   UNL A   1      39.832  35.255  37.258  1.00  0.00    -0.200 F 
ATOM     74  C   UNL A   1      38.401  33.490  37.898  1.00  0.00     0.200 A 
ATOM     75  F   UNL A   1      37.011  31.686  38.518  1.00  0.00    -0.200 F 
ATOM     76  F   UNL A   1      37.960  34.207  38.941  1.00  0.00    -0.200 F 
ENDBRANCH  52  66
BRANCH  53  77
ATOM     77  C   UNL A   1      42.820  26.817  27.813  1.00  0.00     0.064 A 
ATOM     78  C   UNL A   1      42.460  25.474  27.631  1.00  0.00     0.173 A 
ATOM     79  C   UNL A   1      43.642  27.405  26.840  1.00  0.00     0.173 A 
ATOM     80  F   UNL A   1      41.685  24.861  28.538  1.00  0.00    -0.203 F 
ATOM     81  C   UNL A   1      42.916  24.745  26.534  1.00  0.00     0.198 A 
ATOM     82  C   UNL A   1      44.077  26.683  25.730  1.00  0.00     0.198 A 
ATOM     83  F   UNL A   1      44.008  28.691  26.958  1.00  0.00    -0.203 F 
ATOM     84  F   UNL A   1      42.586  23.453  26.406  1.00  0.00    -0.200 F 
ATOM     85  C   UNL A   1      43.720  25.351  25.581  1.00  0.00     0.200 A 
ATOM     86  F   UNL A   1      44.840  27.278  24.802  1.00  0.00    -0.200 F 
ATOM     87  F   UNL A   1      44.152  24.653  24.523  1.00  0.00    -0.200 F 
ENDBRANCH  53  77
BRANCH  65  88
ATOM     88  C   UNL A   1      44.481  26.992  34.578  1.00  0.00     0.064 A 
ATOM     89  C   UNL A   1      45.770  27.507  34.776  1.00  0.00     0.173 A 
ATOM     90  C   UNL A   1      44.156  25.769  35.181  1.00  0.00     0.173 A 
ATOM     91  F   UNL A   1      46.128  28.667  34.205  1.00  0.00    -0.203 F 
ATOM     92  C   UNL A   1      46.707  26.811  35.532  1.00  0.00     0.198 A 
ATOM     93  C   UNL A   1      45.087  25.089  35.958  1.00  0.00     0.198 A 
ATOM     94  F   UNL A   1      42.933  25.241  35.022  1.00  0.00    -0.203 F 
ATOM     95  F   UNL A   1      47.947  27.299  35.673  1.00  0.00    -0.200 F 
ATOM     96  C   UNL A   1      46.362  25.606  36.128  1.00  0.00     0.200 A 
ATOM     97  F   UNL A   1      44.751  23.930  36.541  1.00  0.00    -0.200 F 
ATOM     98  F   UNL A   1      47.265  24.939  36.860  1.00  0.00    -0.200 F 
ENDBRANCH  65  88
ENDBRANCH  39  40
ENDBRANCH  31  34
ENDBRANCH  29  30
ENDBRANCH   1  29
TORSDOF 12
ENDMDL
MODEL 2
REMARK VINA RESULT:     -13.8      4.154     10.330
REMARK SMILES Cc1cccc(N2CCN(C(=O)[C@@H]3CC=CC[C@@H]3C(=O)NCCCNC(=O)c3ccc(-c4c5nc(c(-c6c(F)c(F)c(F)c(F)c6F)c6ccc([nH]6)c(-c6c(F)c(F)c(F)c(F)c6F)c6nc(c(-c7c(F)c(F)c(F)c(F)c7F)c7ccc4[nH]7)C=C6)C=C5)cc3)CC2)c1C
REMARK SMILES IDX 23 1 22 2 21 3 19 4 20 5 18 7 13 8 14 9 15 10 17 11 16 12
REMARK SMILES IDX 11 13 7 14 8 15 92 16 9 17 91 18 10 19 12 20 6 21 1 22 2 23
REMARK SMILES IDX 3 24 93 25 4 26 94 27 5 28 24 29 25 30 26 31 27 33 28 34
REMARK SMILES IDX 29 35 90 36 30 37 89 38 31 39 32 40 33 41 83 42 34 43 88 44
REMARK SMILES IDX 82 45 84 46 35 47 87 48 81 49 80 50 36 52 68 53 48 54 67 55
REMARK SMILES IDX 49 56 52 57 66 58 85 59 50 60 51 61 65 63 86 64 53 65 37 66
REMARK SMILES IDX 38 67 46 68 39 69 40 70 44 71 47 72 41 73 42 74 45 75 43 76
REMARK SMILES IDX 69 77 70 78 78 79 71 80 72 81 76 82 79 83 73 84 74 85 77 86
REMARK SMILES IDX 75 87 54 88 55 89 63 90 56 91 57 92 61 93 64 94 58 95 59 96
REMARK SMILES IDX 62 97 60 98
REMARK H PARENT 21 6 25 32 84 51 52 62
REMARK Flexibility Score: inf
ROOT
ATOM      1  C   UNL A   1      37.791  21.351  24.863  1.00  0.00     0.042 C 
ENDROOT
BRANCH   1   2
ATOM      2  C   UNL A   1      37.054  22.655  25.111  1.00  0.00     0.117 C 
BRANCH   2   3
ATOM      3  N   UNL A   1      36.097  22.600  26.194  1.00  0.00    -0.356 N 
ATOM      4  C   UNL A   1      34.750  22.716  26.252  1.00  0.00     0.224 C 
ATOM      5  O   UNL A   1      34.268  22.482  27.370  1.00  0.00    -0.275 OA
ATOM      6  H   UNL A   1      36.512  22.448  27.073  1.00  0.00     0.163 HD
BRANCH   4   7
ATOM      7  C   UNL A   1      33.790  23.007  25.082  1.00  0.00     0.095 C 
ATOM      8  C   UNL A   1      32.303  23.278  25.292  1.00  0.00     0.095 C 
ATOM      9  C   UNL A   1      31.504  21.971  25.641  1.00  0.00     0.041 C 
ATOM     10  C   UNL A   1      32.156  20.678  25.228  1.00  0.00    -0.030 C 
ATOM     11  C   UNL A   1      33.957  21.872  24.041  1.00  0.00     0.041 C 
ATOM     12  C   UNL A   1      33.262  20.625  24.477  1.00  0.00    -0.030 C 
BRANCH   8  13
ATOM     13  C   UNL A   1      31.819  24.511  26.103  1.00  0.00     0.226 C 
ATOM     14  N   UNL A   1      32.851  28.470  26.338  1.00  0.00    -0.368 N 
ATOM     15  C   UNL A   1      31.753  27.820  27.083  1.00  0.00     0.138 C 
ATOM     16  C   UNL A   1      33.498  27.653  25.272  1.00  0.00     0.138 C 
ATOM     17  C   UNL A   1      30.945  26.788  26.283  1.00  0.00     0.141 C 
ATOM     18  C   UNL A   1      32.661  26.500  24.657  1.00  0.00     0.141 C 
ATOM     19  N   UNL A   1      31.803  25.812  25.619  1.00  0.00    -0.339 N 
ATOM     20  O   UNL A   1      31.312  24.287  27.213  1.00  0.00    -0.275 OA
BRANCH  14  21
ATOM     21  C   UNL A   1      33.609  29.537  26.899  1.00  0.00     0.040 A 
ATOM     22  C   UNL A   1      33.629  33.272  28.042  1.00  0.00     0.044 C 
ATOM     23  C   UNL A   1      34.054  31.854  27.729  1.00  0.00    -0.046 A 
ATOM     24  C   UNL A   1      35.365  31.511  28.065  1.00  0.00     0.004 A 
ATOM     25  C   UNL A   1      33.163  30.881  27.145  1.00  0.00    -0.025 A 
ATOM     26  C   UNL A   1      35.824  30.238  27.816  1.00  0.00     0.002 A 
ATOM     27  C   UNL A   1      31.785  31.395  26.785  1.00  0.00     0.047 C 
ATOM     28  C   UNL A   1      34.967  29.291  27.248  1.00  0.00     0.026 A 
ENDBRANCH  14  21
ENDBRANCH   8  13
ENDBRANCH   4   7
ENDBRANCH   2   3
ENDBRANCH   1   2
BRANCH   1  29
ATOM     29  C   UNL A   1      38.483  20.860  26.120  1.00  0.00     0.118 C 
BRANCH  29  30
ATOM     30  N   UNL A   1      39.882  20.502  25.902  1.00  0.00    -0.352 N 
ATOM     31  C   UNL A   1      41.016  21.222  26.199  1.00  0.00     0.251 C 
ATOM     32  H   UNL A   1      40.034  19.625  25.484  1.00  0.00     0.163 HD
ATOM     33  O   UNL A   1      42.103  20.875  25.745  1.00  0.00    -0.269 OA
BRANCH  31  34
ATOM     34  C   UNL A   1      40.897  22.504  26.923  1.00  0.00     0.039 A 
ATOM     35  C   UNL A   1      41.666  22.653  28.079  1.00  0.00     0.014 A 
ATOM     36  C   UNL A   1      40.227  23.594  26.373  1.00  0.00     0.014 A 
ATOM     37  C   UNL A   1      41.935  23.930  28.551  1.00  0.00     0.010 A 
ATOM     38  C   UNL A   1      40.601  24.873  26.756  1.00  0.00     0.010 A 
ATOM     39  C   UNL A   1      41.503  25.043  27.813  1.00  0.00    -0.014 A 
BRANCH  39  40
ATOM     40  C   UNL A   1      42.099  26.368  28.079  1.00  0.00     0.031 A 
ATOM     41  C   UNL A   1      43.430  26.726  27.505  1.00  0.00     0.074 A 
ATOM     42  C   UNL A   1      41.427  27.216  28.884  1.00  0.00     0.049 A 
ATOM     43  N   UNL A   1      44.073  27.862  27.571  1.00  0.00    -0.248 NA
ATOM     44  C   UNL A   1      44.155  25.662  26.794  1.00  0.00     0.031 C 
ATOM     45  C   UNL A   1      40.173  26.904  29.581  1.00  0.00     0.029 A 
ATOM     46  N   UNL A   1      41.683  28.513  29.242  1.00  0.00    -0.354 N 
ATOM     47  C   UNL A   1      45.273  27.648  26.911  1.00  0.00     0.074 A 
ATOM     48  C   UNL A   1      45.304  26.257  26.516  1.00  0.00     0.031 C 
ATOM     49  C   UNL A   1      39.735  28.000  30.219  1.00  0.00     0.029 A 
ATOM     50  C   UNL A   1      40.686  29.082  30.000  1.00  0.00     0.049 A 
ATOM     51  H   UNL A   1      42.503  28.993  28.981  1.00  0.00     0.167 HD
ATOM     52  C   UNL A   1      46.247  28.547  26.636  1.00  0.00     0.037 A 
ATOM     53  C   UNL A   1      40.550  30.346  30.439  1.00  0.00     0.037 A 
ATOM     54  C   UNL A   1      46.183  29.927  27.032  1.00  0.00     0.049 A 
ATOM     55  C   UNL A   1      41.610  31.342  30.059  1.00  0.00     0.074 A 
ATOM     56  C   UNL A   1      47.088  30.943  26.791  1.00  0.00     0.029 A 
ATOM     57  N   UNL A   1      45.138  30.482  27.763  1.00  0.00    -0.354 N 
ATOM     58  N   UNL A   1      42.703  31.153  29.359  1.00  0.00    -0.248 NA
ATOM     59  C   UNL A   1      41.416  32.723  30.515  1.00  0.00     0.031 C 
ATOM     60  C   UNL A   1      46.604  32.108  27.397  1.00  0.00     0.029 A 
ATOM     61  C   UNL A   1      45.379  31.827  27.986  1.00  0.00     0.049 A 
ATOM     62  H   UNL A   1      44.344  29.992  28.075  1.00  0.00     0.167 HD
ATOM     63  C   UNL A   1      43.322  32.390  29.277  1.00  0.00     0.074 A 
ATOM     64  C   UNL A   1      42.464  33.329  29.977  1.00  0.00     0.031 C 
ATOM     65  C   UNL A   1      44.496  32.724  28.688  1.00  0.00     0.037 A 
BRANCH  52  66
ATOM     66  C   UNL A   1      47.438  28.048  25.874  1.00  0.00     0.064 A 
ATOM     67  C   UNL A   1      47.403  27.896  24.478  1.00  0.00     0.173 A 
ATOM     68  C   UNL A   1      48.618  27.692  26.542  1.00  0.00     0.173 A 
ATOM     69  F   UNL A   1      46.289  28.202  23.794  1.00  0.00    -0.203 F 
ATOM     70  C   UNL A   1      48.489  27.370  23.785  1.00  0.00     0.198 A 
ATOM     71  C   UNL A   1      49.714  27.192  25.842  1.00  0.00     0.198 A 
ATOM     72  F   UNL A   1      48.705  27.814  27.874  1.00  0.00    -0.203 F 
ATOM     73  F   UNL A   1      48.406  27.171  22.462  1.00  0.00    -0.200 F 
ATOM     74  C   UNL A   1      49.645  27.021  24.467  1.00  0.00     0.200 A 
ATOM     75  F   UNL A   1      50.833  26.859  26.500  1.00  0.00    -0.200 F 
ATOM     76  F   UNL A   1      50.687  26.505  23.800  1.00  0.00    -0.200 F 
ENDBRANCH  52  66
BRANCH  53  77
ATOM     77  C   UNL A   1      39.342  30.744  31.211  1.00  0.00     0.064 A 
ATOM     78  C   UNL A   1      39.223  30.434  32.574  1.00  0.00     0.173 A 
ATOM     79  C   UNL A   1      38.293  31.459  30.615  1.00  0.00     0.173 A 
ATOM     80  F   UNL A   1      40.193  29.741  33.189  1.00  0.00    -0.203 F 
ATOM     81  C   UNL A   1      38.096  30.807  33.304  1.00  0.00     0.198 A 
ATOM     82  C   UNL A   1      37.178  31.854  31.352  1.00  0.00     0.198 A 
ATOM     83  F   UNL A   1      38.360  31.792  29.317  1.00  0.00    -0.203 F 
ATOM     84  F   UNL A   1      37.992  30.464  34.595  1.00  0.00    -0.200 F 
ATOM     85  C   UNL A   1      37.076  31.522  32.695  1.00  0.00     0.200 A 
ATOM     86  F   UNL A   1      36.203  32.560  30.763  1.00  0.00    -0.200 F 
ATOM     87  F   UNL A   1      35.996  31.886  33.399  1.00  0.00    -0.200 F 
ENDBRANCH  53  77
BRANCH  65  88
ATOM     88  C   UNL A   1      44.905  34.162  28.776  1.00  0.00     0.064 A 
ATOM     89  C   UNL A   1      45.729  34.622  29.812  1.00  0.00     0.173 A 
ATOM     90  C   UNL A   1      44.500  35.076  27.794  1.00  0.00     0.173 A 
ATOM     91  F   UNL A   1      46.127  33.784  30.781  1.00  0.00    -0.203 F 
ATOM     92  C   UNL A   1      46.114  35.957  29.877  1.00  0.00     0.198 A 
ATOM     93  C   UNL A   1      44.908  36.404  27.847  1.00  0.00     0.198 A 
ATOM     94  F   UNL A   1      43.715  34.678  26.781  1.00  0.00    -0.203 F 
ATOM     95  F   UNL A   1      46.865  36.387  30.899  1.00  0.00    -0.200 F 
ATOM     96  C   UNL A   1      45.709  36.845  28.890  1.00  0.00     0.200 A 
ATOM     97  F   UNL A   1      44.525  37.260  26.889  1.00  0.00    -0.200 F 
ATOM     98  F   UNL A   1      46.085  38.130  28.951  1.00  0.00    -0.200 F 
ENDBRANCH  65  88
ENDBRANCH  39  40
ENDBRANCH  31  34
ENDBRANCH  29  30
ENDBRANCH   1  29
TORSDOF 12
ENDMDL
MODEL 3
REMARK VINA RESULT:     -13.7      4.678     10.299
REMARK SMILES Cc1cccc(N2CCN(C(=O)[C@@H]3CC=CC[C@@H]3C(=O)NCCCNC(=O)c3ccc(-c4c5nc(c(-c6c(F)c(F)c(F)c(F)c6F)c6ccc([nH]6)c(-c6c(F)c(F)c(F)c(F)c6F)c6nc(c(-c7c(F)c(F)c(F)c(F)c7F)c7ccc4[nH]7)C=C6)C=C5)cc3)CC2)c1C
REMARK SMILES IDX 23 1 22 2 21 3 19 4 20 5 18 7 13 8 14 9 15 10 17 11 16 12
REMARK SMILES IDX 11 13 7 14 8 15 92 16 9 17 91 18 10 19 12 20 6 21 1 22 2 23
REMARK SMILES IDX 3 24 93 25 4 26 94 27 5 28 24 29 25 30 26 31 27 33 28 34
REMARK SMILES IDX 29 35 90 36 30 37 89 38 31 39 32 40 33 41 83 42 34 43 88 44
REMARK SMILES IDX 82 45 84 46 35 47 87 48 81 49 80 50 36 52 68 53 48 54 67 55
REMARK SMILES IDX 49 56 52 57 66 58 85 59 50 60 51 61 65 63 86 64 53 65 37 66
REMARK SMILES IDX 38 67 46 68 39 69 40 70 44 71 47 72 41 73 42 74 45 75 43 76
REMARK SMILES IDX 69 77 70 78 78 79 71 80 72 81 76 82 79 83 73 84 74 85 77 86
REMARK SMILES IDX 75 87 54 88 55 89 63 90 56 91 57 92 61 93 64 94 58 95 59 96
REMARK SMILES IDX 62 97 60 98
REMARK H PARENT 21 6 25 32 84 51 52 62
REMARK Flexibility Score: inf
ROOT
ATOM      1  C   UNL A   1      37.876  22.137  25.301  1.00  0.00     0.042 C 
ENDROOT
BRANCH   1   2
ATOM      2  C   UNL A   1      37.035  23.245  25.911  1.00  0.00     0.117 C 
BRANCH   2   3
ATOM      3  N   UNL A   1      35.884  22.778  26.651  1.00  0.00    -0.356 N 
ATOM      4  C   UNL A   1      34.711  22.210  26.287  1.00  0.00     0.224 C 
ATOM      5  O   UNL A   1      34.015  21.828  27.240  1.00  0.00    -0.275 OA
ATOM      6  H   UNL A   1      35.971  22.901  27.624  1.00  0.00     0.163 HD
BRANCH   4   7
ATOM      7  C   UNL A   1      34.223  21.920  24.855  1.00  0.00     0.095 C 
ATOM      8  C   UNL A   1      32.743  21.770  24.510  1.00  0.00     0.095 C 
ATOM      9  C   UNL A   1      32.155  20.399  25.003  1.00  0.00     0.041 C 
ATOM     10  C   UNL A   1      33.162  19.305  25.243  1.00  0.00    -0.030 C 
ATOM     11  C   UNL A   1      34.994  20.682  24.334  1.00  0.00     0.041 C 
ATOM     12  C   UNL A   1      34.455  19.418  24.917  1.00  0.00    -0.030 C 
BRANCH   8  13
ATOM     13  C   UNL A   1      31.752  22.950  24.697  1.00  0.00     0.226 C 
ATOM     14  N   UNL A   1      32.029  27.036  24.822  1.00  0.00    -0.368 N 
ATOM     15  C   UNL A   1      30.779  26.254  24.918  1.00  0.00     0.138 C 
ATOM     16  C   UNL A   1      33.256  26.275  24.451  1.00  0.00     0.138 C 
ATOM     17  C   UNL A   1      30.698  25.038  23.983  1.00  0.00     0.141 C 
ATOM     18  C   UNL A   1      33.058  24.949  23.671  1.00  0.00     0.141 C 
ATOM     19  N   UNL A   1      31.881  24.188  24.083  1.00  0.00    -0.339 N 
ATOM     20  O   UNL A   1      30.723  22.718  25.351  1.00  0.00    -0.275 OA
BRANCH  14  21
ATOM     21  C   UNL A   1      32.203  28.260  25.529  1.00  0.00     0.040 A 
ATOM     22  C   UNL A   1      31.033  31.959  25.978  1.00  0.00     0.044 C 
ATOM     23  C   UNL A   1      31.777  30.651  26.129  1.00  0.00    -0.046 A 
ATOM     24  C   UNL A   1      32.755  30.604  27.124  1.00  0.00     0.004 A 
ATOM     25  C   UNL A   1      31.488  29.490  25.322  1.00  0.00    -0.025 A 
ATOM     26  C   UNL A   1      33.471  29.446  27.325  1.00  0.00     0.002 A 
ATOM     27  C   UNL A   1      30.439  29.689  24.248  1.00  0.00     0.047 C 
ATOM     28  C   UNL A   1      33.198  28.318  26.545  1.00  0.00     0.026 A 
ENDBRANCH  14  21
ENDBRANCH   8  13
ENDBRANCH   4   7
ENDBRANCH   2   3
ENDBRANCH   1   2
BRANCH   1  29
ATOM     29  C   UNL A   1      39.104  21.850  26.144  1.00  0.00     0.118 C 
BRANCH  29  30
ATOM     30  N   UNL A   1      39.585  20.478  26.007  1.00  0.00    -0.352 N 
ATOM     31  C   UNL A   1      40.868  19.995  26.118  1.00  0.00     0.251 C 
ATOM     32  H   UNL A   1      38.895  19.805  25.808  1.00  0.00     0.163 HD
ATOM     33  O   UNL A   1      41.132  18.854  25.752  1.00  0.00    -0.269 OA
BRANCH  31  34
ATOM     34  C   UNL A   1      41.958  20.908  26.520  1.00  0.00     0.039 A 
ATOM     35  C   UNL A   1      42.498  21.728  25.527  1.00  0.00     0.014 A 
ATOM     36  C   UNL A   1      42.285  21.109  27.860  1.00  0.00     0.014 A 
ATOM     37  C   UNL A   1      43.188  22.873  25.898  1.00  0.00     0.010 A 
ATOM     38  C   UNL A   1      42.852  22.316  28.236  1.00  0.00     0.010 A 
ATOM     39  C   UNL A   1      43.255  23.229  27.254  1.00  0.00    -0.014 A 
BRANCH  39  40
ATOM     40  C   UNL A   1      43.632  24.608  27.627  1.00  0.00     0.031 A 
ATOM     41  C   UNL A   1      45.060  25.040  27.581  1.00  0.00     0.074 A 
ATOM     42  C   UNL A   1      42.657  25.440  28.048  1.00  0.00     0.049 A 
ATOM     43  N   UNL A   1      45.567  26.223  27.801  1.00  0.00    -0.248 NA
ATOM     44  C   UNL A   1      46.059  24.001  27.284  1.00  0.00     0.031 C 
ATOM     45  C   UNL A   1      41.249  25.066  28.233  1.00  0.00     0.029 A 
ATOM     46  N   UNL A   1      42.686  26.769  28.377  1.00  0.00    -0.354 N 
ATOM     47  C   UNL A   1      46.939  26.071  27.669  1.00  0.00     0.074 A 
ATOM     48  C   UNL A   1      47.193  24.669  27.422  1.00  0.00     0.031 C 
ATOM     49  C   UNL A   1      40.542  26.155  28.570  1.00  0.00     0.029 A 
ATOM     50  C   UNL A   1      41.446  27.295  28.650  1.00  0.00     0.049 A 
ATOM     51  H   UNL A   1      43.517  27.298  28.414  1.00  0.00     0.167 HD
ATOM     52  C   UNL A   1      47.893  27.028  27.721  1.00  0.00     0.037 A 
ATOM     53  C   UNL A   1      41.083  28.565  28.908  1.00  0.00     0.037 A 
ATOM     54  C   UNL A   1      47.609  28.417  27.957  1.00  0.00     0.049 A 
ATOM     55  C   UNL A   1      42.154  29.620  28.888  1.00  0.00     0.074 A 
ATOM     56  C   UNL A   1      48.482  29.487  28.004  1.00  0.00     0.029 A 
ATOM     57  N   UNL A   1      46.335  28.925  28.188  1.00  0.00    -0.354 N 
ATOM     58  N   UNL A   1      43.441  29.483  28.675  1.00  0.00    -0.248 NA
ATOM     59  C   UNL A   1      41.726  31.003  29.129  1.00  0.00     0.031 C 
ATOM     60  C   UNL A   1      47.741  30.639  28.289  1.00  0.00     0.029 A 
ATOM     61  C   UNL A   1      46.400  30.294  28.384  1.00  0.00     0.049 A 
ATOM     62  H   UNL A   1      45.509  28.390  28.209  1.00  0.00     0.167 HD
ATOM     63  C   UNL A   1      43.977  30.758  28.744  1.00  0.00     0.074 A 
ATOM     64  C   UNL A   1      42.868  31.661  28.990  1.00  0.00     0.031 C 
ATOM     65  C   UNL A   1      45.269  31.153  28.626  1.00  0.00     0.037 A 
BRANCH  52  66
ATOM     66  C   UNL A   1      49.312  26.587  27.512  1.00  0.00     0.064 A 
ATOM     67  C   UNL A   1      50.185  26.395  28.595  1.00  0.00     0.173 A 
ATOM     68  C   UNL A   1      49.814  26.378  26.220  1.00  0.00     0.173 A 
ATOM     69  F   UNL A   1      49.760  26.603  29.851  1.00  0.00    -0.203 F 
ATOM     70  C   UNL A   1      51.519  26.051  28.390  1.00  0.00     0.198 A 
ATOM     71  C   UNL A   1      51.142  26.006  26.020  1.00  0.00     0.198 A 
ATOM     72  F   UNL A   1      49.024  26.550  25.151  1.00  0.00    -0.203 F 
ATOM     73  F   UNL A   1      52.349  25.940  29.436  1.00  0.00    -0.200 F 
ATOM     74  C   UNL A   1      51.995  25.853  27.103  1.00  0.00     0.200 A 
ATOM     75  F   UNL A   1      51.601  25.810  24.776  1.00  0.00    -0.200 F 
ATOM     76  F   UNL A   1      53.281  25.531  26.906  1.00  0.00    -0.200 F 
ENDBRANCH  52  66
BRANCH  53  77
ATOM     77  C   UNL A   1      39.651  28.906  29.127  1.00  0.00     0.064 A 
ATOM     78  C   UNL A   1      39.086  28.854  30.409  1.00  0.00     0.173 A 
ATOM     79  C   UNL A   1      38.824  29.310  28.069  1.00  0.00     0.173 A 
ATOM     80  F   UNL A   1      39.832  28.462  31.453  1.00  0.00    -0.203 F 
ATOM     81  C   UNL A   1      37.747  29.175  30.622  1.00  0.00     0.198 A 
ATOM     82  C   UNL A   1      37.492  29.656  28.286  1.00  0.00     0.198 A 
ATOM     83  F   UNL A   1      39.316  29.388  26.823  1.00  0.00    -0.203 F 
ATOM     84  F   UNL A   1      37.224  29.080  31.852  1.00  0.00    -0.200 F 
ATOM     85  C   UNL A   1      36.951  29.582  29.562  1.00  0.00     0.200 A 
ATOM     86  F   UNL A   1      36.731  30.065  27.262  1.00  0.00    -0.200 F 
ATOM     87  F   UNL A   1      35.665  29.897  29.768  1.00  0.00    -0.200 F 
ENDBRANCH  53  77
BRANCH  65  88
ATOM     88  C   UNL A   1      45.536  32.621  28.754  1.00  0.00     0.064 A 
ATOM     89  C   UNL A   1      45.471  33.472  27.643  1.00  0.00     0.173 A 
ATOM     90  C   UNL A   1      45.822  33.184  30.006  1.00  0.00     0.173 A 
ATOM     91  F   UNL A   1      45.215  32.973  26.424  1.00  0.00    -0.203 F 
ATOM     92  C   UNL A   1      45.708  34.836  27.775  1.00  0.00     0.198 A 
ATOM     93  C   UNL A   1      46.033  34.551  30.139  1.00  0.00     0.198 A 
ATOM     94  F   UNL A   1      45.890  32.407  31.098  1.00  0.00    -0.203 F 
ATOM     95  F   UNL A   1      45.685  35.627  26.694  1.00  0.00    -0.200 F 
ATOM     96  C   UNL A   1      45.982  35.375  29.025  1.00  0.00     0.200 A 
ATOM     97  F   UNL A   1      46.287  35.073  31.347  1.00  0.00    -0.200 F 
ATOM     98  F   UNL A   1      46.205  36.691  29.151  1.00  0.00    -0.200 F 
ENDBRANCH  65  88
ENDBRANCH  39  40
ENDBRANCH  31  34
ENDBRANCH  29  30
ENDBRANCH   1  29
TORSDOF 12
ENDMDL
