MODEL 1
REMARK VINA RESULT:     -12.2      0.000      0.000
REMARK SMILES CN1C(=O)CC[C@H]([NH2+]Cc2ccc(C(=O)NCCCNC(=O)c3ccc(-c4c5nc(c(-c6c(F)c(F)c(F)c(F)c6F)c6ccc([nH]6)c(-c6c(F)c(F)c(F)c(F)c6F)c6nc(c(-c7c(F)c(F)c(F)c(F)c7F)c7ccc4[nH]7)C=C6)C=C5)cc3)cn2)C1=O
REMARK SMILES IDX 17 1 16 2 14 3 15 4 13 6 10 7 11 8 87 9 12 10 86 11 9 12
REMARK SMILES IDX 8 13 7 16 1 17 2 18 3 19 88 20 4 21 5 22 89 23 6 24 18 25
REMARK SMILES IDX 19 26 20 27 21 28 22 30 23 31 24 32 85 33 25 34 84 35 26 36
REMARK SMILES IDX 27 37 28 38 78 39 29 40 83 41 77 42 79 43 30 44 82 45 76 46
REMARK SMILES IDX 75 47 31 49 63 50 43 51 62 52 44 53 47 54 61 55 80 56 45 57
REMARK SMILES IDX 46 58 60 60 81 61 48 62 32 63 33 64 41 65 34 66 35 67 39 68
REMARK SMILES IDX 42 69 36 70 37 71 40 72 38 73 64 74 65 75 73 76 66 77 67 78
REMARK SMILES IDX 71 79 74 80 68 81 69 82 72 83 70 84 49 85 50 86 58 87 51 88
REMARK SMILES IDX 52 89 56 90 59 91 53 92 54 93 57 94 55 95
REMARK H PARENT 16 5 8 14 8 15 20 29 79 48 47 59
REMARK Flexibility Score: inf
ROOT
ATOM      1  C   UNL A   1      31.550  31.035  26.448  1.00  0.00     0.118 C 
ENDROOT
BRANCH   1   2
ATOM      2  N   UNL A   1      32.771  30.460  26.984  1.00  0.00    -0.352 N 
ATOM      3  C   UNL A   1      33.279  29.187  26.930  1.00  0.00     0.252 C 
ATOM      4  O   UNL A   1      34.401  28.994  27.394  1.00  0.00    -0.269 OA
ATOM      5  H   UNL A   1      33.335  31.099  27.476  1.00  0.00     0.163 HD
BRANCH   3   6
ATOM      6  C   UNL A   1      32.560  28.060  26.301  1.00  0.00     0.058 A 
ATOM      7  C   UNL A   1      31.413  25.955  24.932  1.00  0.00     0.094 A 
ATOM      8  C   UNL A   1      30.827  26.396  26.115  1.00  0.00     0.030 A 
ATOM      9  N   UNL A   1      32.560  26.493  24.443  1.00  0.00    -0.255 NA
ATOM     10  C   UNL A   1      31.414  27.453  26.809  1.00  0.00     0.017 A 
ATOM     11  C   UNL A   1      33.105  27.523  25.139  1.00  0.00     0.125 A 
BRANCH   7  12
ATOM     12  C   UNL A   1      30.822  24.784  24.173  1.00  0.00     0.318 C 
BRANCH  12  13
ATOM     13  N   UNL A   1      30.284  23.783  25.108  1.00  0.00    -0.331 N 
ATOM     14  H   UNL A   1      30.181  24.214  26.026  1.00  0.00     0.347 HD
ATOM     15  H   UNL A   1      29.386  23.466  24.742  1.00  0.00     0.347 HD
BRANCH  13  16
ATOM     16  C   UNL A   1      31.162  22.604  25.232  1.00  0.00     0.274 C 
ATOM     17  C   UNL A   1      34.050  21.819  27.624  1.00  0.00     0.156 C 
ATOM     18  N   UNL A   1      33.245  21.909  26.419  1.00  0.00    -0.281 N 
ATOM     19  C   UNL A   1      33.765  21.292  25.285  1.00  0.00     0.229 C 
ATOM     20  C   UNL A   1      32.078  22.680  26.475  1.00  0.00     0.287 C 
ATOM     21  O   UNL A   1      34.849  20.706  25.276  1.00  0.00    -0.274 OA
ATOM     22  C   UNL A   1      32.906  21.302  24.046  1.00  0.00     0.107 C 
ATOM     23  O   UNL A   1      31.778  23.327  27.481  1.00  0.00    -0.267 OA
ATOM     24  C   UNL A   1      32.021  22.528  23.975  1.00  0.00     0.085 C 
ENDBRANCH  13  16
ENDBRANCH  12  13
ENDBRANCH   7  12
ENDBRANCH   3   6
ENDBRANCH   1   2
BRANCH   1  25
ATOM     25  C   UNL A   1      31.393  32.497  26.864  1.00  0.00     0.042 C 
BRANCH  25  26
ATOM     26  C   UNL A   1      32.719  33.210  27.118  1.00  0.00     0.118 C 
BRANCH  26  27
ATOM     27  N   UNL A   1      32.537  34.476  27.808  1.00  0.00    -0.352 N 
ATOM     28  C   UNL A   1      33.097  34.946  28.968  1.00  0.00     0.251 C 
ATOM     29  H   UNL A   1      31.908  35.096  27.373  1.00  0.00     0.163 HD
ATOM     30  O   UNL A   1      32.633  35.958  29.488  1.00  0.00    -0.269 OA
BRANCH  28  31
ATOM     31  C   UNL A   1      34.246  34.261  29.605  1.00  0.00     0.039 A 
ATOM     32  C   UNL A   1      35.527  34.514  29.105  1.00  0.00     0.014 A 
ATOM     33  C   UNL A   1      34.072  33.313  30.618  1.00  0.00     0.014 A 
ATOM     34  C   UNL A   1      36.631  33.843  29.634  1.00  0.00     0.010 A 
ATOM     35  C   UNL A   1      35.182  32.689  31.190  1.00  0.00     0.010 A 
ATOM     36  C   UNL A   1      36.470  32.933  30.691  1.00  0.00    -0.014 A 
BRANCH  36  37
ATOM     37  C   UNL A   1      37.639  32.213  31.255  1.00  0.00     0.031 A 
ATOM     38  C   UNL A   1      38.138  32.538  32.636  1.00  0.00     0.074 A 
ATOM     39  C   UNL A   1      38.272  31.287  30.511  1.00  0.00     0.049 A 
ATOM     40  N   UNL A   1      39.149  32.027  33.295  1.00  0.00    -0.248 NA
ATOM     41  C   UNL A   1      37.422  33.595  33.366  1.00  0.00     0.031 C 
ATOM     42  C   UNL A   1      37.915  30.918  29.140  1.00  0.00     0.029 A 
ATOM     43  N   UNL A   1      39.348  30.486  30.802  1.00  0.00    -0.354 N 
ATOM     44  C   UNL A   1      39.197  32.708  34.504  1.00  0.00     0.074 A 
ATOM     45  C   UNL A   1      38.146  33.701  34.471  1.00  0.00     0.031 C 
ATOM     46  C   UNL A   1      38.741  29.947  28.718  1.00  0.00     0.029 A 
ATOM     47  C   UNL A   1      39.698  29.642  29.778  1.00  0.00     0.049 A 
ATOM     48  H   UNL A   1      39.823  30.515  31.664  1.00  0.00     0.167 HD
ATOM     49  C   UNL A   1      40.028  32.508  35.555  1.00  0.00     0.037 A 
ATOM     50  C   UNL A   1      40.678  28.722  29.706  1.00  0.00     0.037 A 
ATOM     51  C   UNL A   1      41.054  31.499  35.599  1.00  0.00     0.049 A 
ATOM     52  C   UNL A   1      41.564  28.496  30.900  1.00  0.00     0.074 A 
ATOM     53  C   UNL A   1      41.913  31.181  36.637  1.00  0.00     0.029 A 
ATOM     54  N   UNL A   1      41.358  30.639  34.553  1.00  0.00    -0.354 N 
ATOM     55  N   UNL A   1      41.558  29.103  32.061  1.00  0.00    -0.248 NA
ATOM     56  C   UNL A   1      42.585  27.447  30.775  1.00  0.00     0.031 C 
ATOM     57  C   UNL A   1      42.758  30.151  36.208  1.00  0.00     0.029 A 
ATOM     58  C   UNL A   1      42.397  29.798  34.917  1.00  0.00     0.049 A 
ATOM     59  H   UNL A   1      40.901  30.628  33.681  1.00  0.00     0.167 HD
ATOM     60  C   UNL A   1      42.552  28.493  32.814  1.00  0.00     0.074 A 
ATOM     61  C   UNL A   1      43.129  27.456  31.983  1.00  0.00     0.031 C 
ATOM     62  C   UNL A   1      42.955  28.769  34.079  1.00  0.00     0.037 A 
BRANCH  49  63
ATOM     63  C   UNL A   1      39.856  33.398  36.752  1.00  0.00     0.064 A 
ATOM     64  C   UNL A   1      40.590  34.585  36.897  1.00  0.00     0.173 A 
ATOM     65  C   UNL A   1      38.926  33.076  37.754  1.00  0.00     0.173 A 
ATOM     66  F   UNL A   1      41.500  34.933  35.974  1.00  0.00    -0.203 F 
ATOM     67  C   UNL A   1      40.422  35.401  38.012  1.00  0.00     0.198 A 
ATOM     68  C   UNL A   1      38.741  33.909  38.853  1.00  0.00     0.198 A 
ATOM     69  F   UNL A   1      38.195  31.955  37.662  1.00  0.00    -0.203 F 
ATOM     70  F   UNL A   1      41.169  36.505  38.152  1.00  0.00    -0.200 F 
ATOM     71  C   UNL A   1      39.493  35.067  38.987  1.00  0.00     0.200 A 
ATOM     72  F   UNL A   1      37.835  33.590  39.788  1.00  0.00    -0.200 F 
ATOM     73  F   UNL A   1      39.330  35.856  40.058  1.00  0.00    -0.200 F 
ENDBRANCH  49  63
BRANCH  50  74
ATOM     74  C   UNL A   1      40.842  27.913  28.472  1.00  0.00     0.064 A 
ATOM     75  C   UNL A   1      41.632  28.374  27.410  1.00  0.00     0.173 A 
ATOM     76  C   UNL A   1      40.217  26.666  28.328  1.00  0.00     0.173 A 
ATOM     77  F   UNL A   1      42.233  29.570  27.495  1.00  0.00    -0.203 F 
ATOM     78  C   UNL A   1      41.775  27.628  26.242  1.00  0.00     0.198 A 
ATOM     79  C   UNL A   1      40.382  25.909  27.170  1.00  0.00     0.198 A 
ATOM     80  F   UNL A   1      39.456  26.178  29.319  1.00  0.00    -0.203 F 
ATOM     81  F   UNL A   1      42.501  28.113  25.226  1.00  0.00    -0.200 F 
ATOM     82  C   UNL A   1      41.154  26.394  26.125  1.00  0.00     0.200 A 
ATOM     83  F   UNL A   1      39.790  24.710  27.066  1.00  0.00    -0.200 F 
ATOM     84  F   UNL A   1      41.294  25.675  25.004  1.00  0.00    -0.200 F 
ENDBRANCH  50  74
BRANCH  62  85
ATOM     85  C   UNL A   1      44.049  27.915  34.647  1.00  0.00     0.064 A 
ATOM     86  C   UNL A   1      45.398  28.286  34.549  1.00  0.00     0.173 A 
ATOM     87  C   UNL A   1      43.744  26.717  35.310  1.00  0.00     0.173 A 
ATOM     88  F   UNL A   1      45.742  29.416  33.910  1.00  0.00    -0.203 F 
ATOM     89  C   UNL A   1      46.404  27.473  35.066  1.00  0.00     0.198 A 
ATOM     90  C   UNL A   1      44.749  25.920  35.849  1.00  0.00     0.198 A 
ATOM     91  F   UNL A   1      42.468  26.319  35.435  1.00  0.00    -0.203 F 
ATOM     92  F   UNL A   1      47.688  27.822  34.913  1.00  0.00    -0.200 F 
ATOM     93  C   UNL A   1      46.078  26.294  35.720  1.00  0.00     0.200 A 
ATOM     94  F   UNL A   1      44.433  24.786  36.490  1.00  0.00    -0.200 F 
ATOM     95  F   UNL A   1      47.046  25.512  36.214  1.00  0.00    -0.200 F 
ENDBRANCH  62  85
ENDBRANCH  36  37
ENDBRANCH  28  31
ENDBRANCH  26  27
ENDBRANCH  25  26
ENDBRANCH   1  25
TORSDOF 13
ENDMDL
MODEL 2
REMARK VINA RESULT:     -12.2      0.778      7.254
REMARK SMILES CN1C(=O)CC[C@H]([NH2+]Cc2ccc(C(=O)NCCCNC(=O)c3ccc(-c4c5nc(c(-c6c(F)c(F)c(F)c(F)c6F)c6ccc([nH]6)c(-c6c(F)c(F)c(F)c(F)c6F)c6nc(c(-c7c(F)c(F)c(F)c(F)c7F)c7ccc4[nH]7)C=C6)C=C5)cc3)cn2)C1=O
REMARK SMILES IDX 17 1 16 2 14 3 15 4 13 6 10 7 11 8 87 9 12 10 86 11 9 12
REMARK SMILES IDX 8 13 7 16 1 17 2 18 3 19 88 20 4 21 5 22 89 23 6 24 18 25
REMARK SMILES IDX 19 26 20 27 21 28 22 30 23 31 24 32 85 33 25 34 84 35 26 36
REMARK SMILES IDX 27 37 28 38 78 39 29 40 83 41 77 42 79 43 30 44 82 45 76 46
REMARK SMILES IDX 75 47 31 49 63 50 43 51 62 52 44 53 47 54 61 55 80 56 45 57
REMARK SMILES IDX 46 58 60 60 81 61 48 62 32 63 33 64 41 65 34 66 35 67 39 68
REMARK SMILES IDX 42 69 36 70 37 71 40 72 38 73 64 74 65 75 73 76 66 77 67 78
REMARK SMILES IDX 71 79 74 80 68 81 69 82 72 83 70 84 49 85 50 86 58 87 51 88
REMARK SMILES IDX 52 89 56 90 59 91 53 92 54 93 57 94 55 95
REMARK H PARENT 16 5 8 14 8 15 20 29 79 48 47 59
REMARK Flexibility Score: inf
ROOT
ATOM      1  C   UNL A   1      31.516  30.994  26.416  1.00  0.00     0.118 C 
ENDROOT
BRANCH   1   2
ATOM      2  N   UNL A   1      32.752  30.440  26.941  1.00  0.00    -0.352 N 
ATOM      3  C   UNL A   1      33.275  29.173  26.893  1.00  0.00     0.252 C 
ATOM      4  O   UNL A   1      34.406  28.998  27.343  1.00  0.00    -0.269 OA
ATOM      5  H   UNL A   1      33.315  31.091  27.419  1.00  0.00     0.163 HD
BRANCH   3   6
ATOM      6  C   UNL A   1      32.562  28.031  26.284  1.00  0.00     0.058 A 
ATOM      7  C   UNL A   1      31.419  25.903  24.948  1.00  0.00     0.094 A 
ATOM      8  C   UNL A   1      30.864  26.325  26.153  1.00  0.00     0.030 A 
ATOM      9  N   UNL A   1      32.534  26.470  24.421  1.00  0.00    -0.255 NA
ATOM     10  C   UNL A   1      31.450  27.394  26.830  1.00  0.00     0.017 A 
ATOM     11  C   UNL A   1      33.078  27.511  25.102  1.00  0.00     0.125 A 
BRANCH   7  12
ATOM     12  C   UNL A   1      30.830  24.720  24.206  1.00  0.00     0.318 C 
BRANCH  12  13
ATOM     13  N   UNL A   1      30.330  23.713  25.155  1.00  0.00    -0.331 N 
ATOM     14  H   UNL A   1      30.271  24.136  26.081  1.00  0.00     0.347 HD
ATOM     15  H   UNL A   1      29.414  23.405  24.827  1.00  0.00     0.347 HD
BRANCH  13  16
ATOM     16  C   UNL A   1      31.204  22.528  25.228  1.00  0.00     0.274 C 
ATOM     17  C   UNL A   1      34.140  21.668  27.536  1.00  0.00     0.156 C 
ATOM     18  N   UNL A   1      33.309  21.794  26.352  1.00  0.00    -0.281 N 
ATOM     19  C   UNL A   1      33.803  21.206  25.190  1.00  0.00     0.229 C 
ATOM     20  C   UNL A   1      32.147  22.567  26.453  1.00  0.00     0.287 C 
ATOM     21  O   UNL A   1      34.884  20.617  25.143  1.00  0.00    -0.274 OA
ATOM     22  C   UNL A   1      32.918  21.253  23.970  1.00  0.00     0.107 C 
ATOM     23  O   UNL A   1      31.871  23.187  27.483  1.00  0.00    -0.267 OA
ATOM     24  C   UNL A   1      32.036  22.483  23.951  1.00  0.00     0.085 C 
ENDBRANCH  13  16
ENDBRANCH  12  13
ENDBRANCH   7  12
ENDBRANCH   3   6
ENDBRANCH   1   2
BRANCH   1  25
ATOM     25  C   UNL A   1      31.407  32.489  26.710  1.00  0.00     0.042 C 
BRANCH  25  26
ATOM     26  C   UNL A   1      32.713  33.119  27.189  1.00  0.00     0.118 C 
BRANCH  26  27
ATOM     27  N   UNL A   1      32.510  34.448  27.741  1.00  0.00    -0.352 N 
ATOM     28  C   UNL A   1      33.029  35.032  28.868  1.00  0.00     0.251 C 
ATOM     29  H   UNL A   1      31.900  35.022  27.224  1.00  0.00     0.163 HD
ATOM     30  O   UNL A   1      32.550  36.091  29.267  1.00  0.00    -0.269 OA
BRANCH  28  31
ATOM     31  C   UNL A   1      34.151  34.414  29.612  1.00  0.00     0.039 A 
ATOM     32  C   UNL A   1      35.444  34.559  29.100  1.00  0.00     0.014 A 
ATOM     33  C   UNL A   1      33.940  33.625  30.747  1.00  0.00     0.014 A 
ATOM     34  C   UNL A   1      36.523  33.940  29.735  1.00  0.00     0.010 A 
ATOM     35  C   UNL A   1      35.025  33.060  31.419  1.00  0.00     0.010 A 
ATOM     36  C   UNL A   1      36.325  33.196  30.908  1.00  0.00    -0.014 A 
BRANCH  36  37
ATOM     37  C   UNL A   1      37.467  32.532  31.585  1.00  0.00     0.031 A 
ATOM     38  C   UNL A   1      38.190  31.394  30.919  1.00  0.00     0.074 A 
ATOM     39  C   UNL A   1      37.837  32.935  32.816  1.00  0.00     0.049 A 
ATOM     40  N   UNL A   1      39.200  30.683  31.355  1.00  0.00    -0.248 NA
ATOM     41  C   UNL A   1      37.696  30.983  29.595  1.00  0.00     0.031 C 
ATOM     42  C   UNL A   1      37.184  33.994  33.588  1.00  0.00     0.029 A 
ATOM     43  N   UNL A   1      38.850  32.503  33.633  1.00  0.00    -0.354 N 
ATOM     44  C   UNL A   1      39.451  29.736  30.370  1.00  0.00     0.074 A 
ATOM     45  C   UNL A   1      38.459  29.930  29.336  1.00  0.00     0.031 C 
ATOM     46  C   UNL A   1      37.829  34.145  34.756  1.00  0.00     0.029 A 
ATOM     47  C   UNL A   1      38.923  33.180  34.825  1.00  0.00     0.049 A 
ATOM     48  H   UNL A   1      39.466  31.775  33.388  1.00  0.00     0.167 HD
ATOM     49  C   UNL A   1      40.434  28.805  30.323  1.00  0.00     0.037 A 
ATOM     50  C   UNL A   1      39.779  33.042  35.854  1.00  0.00     0.037 A 
ATOM     51  C   UNL A   1      41.439  28.633  31.338  1.00  0.00     0.049 A 
ATOM     52  C   UNL A   1      40.882  32.023  35.761  1.00  0.00     0.074 A 
ATOM     53  C   UNL A   1      42.508  27.754  31.359  1.00  0.00     0.029 A 
ATOM     54  N   UNL A   1      41.500  29.362  32.517  1.00  0.00    -0.354 N 
ATOM     55  N   UNL A   1      41.147  31.177  34.796  1.00  0.00    -0.248 NA
ATOM     56  C   UNL A   1      41.812  31.951  36.896  1.00  0.00     0.031 C 
ATOM     57  C   UNL A   1      43.197  27.928  32.564  1.00  0.00     0.029 A 
ATOM     58  C   UNL A   1      42.582  28.946  33.277  1.00  0.00     0.049 A 
ATOM     59  H   UNL A   1      40.868  30.071  32.776  1.00  0.00     0.167 HD
ATOM     60  C   UNL A   1      42.287  30.492  35.193  1.00  0.00     0.074 A 
ATOM     61  C   UNL A   1      42.673  31.034  36.479  1.00  0.00     0.031 C 
ATOM     62  C   UNL A   1      42.953  29.500  34.552  1.00  0.00     0.037 A 
BRANCH  49  63
ATOM     63  C   UNL A   1      40.472  27.901  29.124  1.00  0.00     0.064 A 
ATOM     64  C   UNL A   1      41.276  28.190  28.011  1.00  0.00     0.173 A 
ATOM     65  C   UNL A   1      39.720  26.716  29.099  1.00  0.00     0.173 A 
ATOM     66  F   UNL A   1      42.005  29.316  27.979  1.00  0.00    -0.203 F 
ATOM     67  C   UNL A   1      41.302  27.344  26.906  1.00  0.00     0.198 A 
ATOM     68  C   UNL A   1      39.770  25.858  28.004  1.00  0.00     0.198 A 
ATOM     69  F   UNL A   1      38.939  26.389  30.140  1.00  0.00    -0.203 F 
ATOM     70  F   UNL A   1      42.040  27.666  25.833  1.00  0.00    -0.200 F 
ATOM     71  C   UNL A   1      40.554  26.176  26.905  1.00  0.00     0.200 A 
ATOM     72  F   UNL A   1      39.056  24.724  28.010  1.00  0.00    -0.200 F 
ATOM     73  F   UNL A   1      40.584  25.360  25.842  1.00  0.00    -0.200 F 
ENDBRANCH  49  63
BRANCH  50  74
ATOM     74  C   UNL A   1      39.655  33.922  37.043  1.00  0.00     0.064 A 
ATOM     75  C   UNL A   1      40.272  35.181  37.071  1.00  0.00     0.173 A 
ATOM     76  C   UNL A   1      38.919  33.529  38.169  1.00  0.00     0.173 A 
ATOM     77  F   UNL A   1      41.003  35.591  36.025  1.00  0.00    -0.203 F 
ATOM     78  C   UNL A   1      40.175  36.005  38.191  1.00  0.00     0.198 A 
ATOM     79  C   UNL A   1      38.801  34.364  39.278  1.00  0.00     0.198 A 
ATOM     80  F   UNL A   1      38.305  32.337  38.187  1.00  0.00    -0.203 F 
ATOM     81  F   UNL A   1      40.810  37.184  38.209  1.00  0.00    -0.200 F 
ATOM     82  C   UNL A   1      39.435  35.598  39.291  1.00  0.00     0.200 A 
ATOM     83  F   UNL A   1      38.075  33.974  40.334  1.00  0.00    -0.200 F 
ATOM     84  F   UNL A   1      39.339  36.391  40.366  1.00  0.00    -0.200 F 
ENDBRANCH  50  74
BRANCH  62  85
ATOM     85  C   UNL A   1      44.184  28.963  35.221  1.00  0.00     0.064 A 
ATOM     86  C   UNL A   1      45.452  29.516  34.982  1.00  0.00     0.173 A 
ATOM     87  C   UNL A   1      44.094  27.893  36.123  1.00  0.00     0.173 A 
ATOM     88  F   UNL A   1      45.592  30.532  34.116  1.00  0.00    -0.203 F 
ATOM     89  C   UNL A   1      46.587  28.994  35.597  1.00  0.00     0.198 A 
ATOM     90  C   UNL A   1      45.227  27.392  36.756  1.00  0.00     0.198 A 
ATOM     91  F   UNL A   1      42.904  27.332  36.390  1.00  0.00    -0.203 F 
ATOM     92  F   UNL A   1      47.793  29.503  35.311  1.00  0.00    -0.200 F 
ATOM     93  C   UNL A   1      46.473  27.936  36.486  1.00  0.00     0.200 A 
ATOM     94  F   UNL A   1      45.114  26.376  37.624  1.00  0.00    -0.200 F 
ATOM     95  F   UNL A   1      47.566  27.435  37.075  1.00  0.00    -0.200 F 
ENDBRANCH  62  85
ENDBRANCH  36  37
ENDBRANCH  28  31
ENDBRANCH  26  27
ENDBRANCH  25  26
ENDBRANCH   1  25
TORSDOF 13
ENDMDL
MODEL 3
REMARK VINA RESULT:     -12.2      7.172     14.786
REMARK SMILES CN1C(=O)CC[C@H]([NH2+]Cc2ccc(C(=O)NCCCNC(=O)c3ccc(-c4c5nc(c(-c6c(F)c(F)c(F)c(F)c6F)c6ccc([nH]6)c(-c6c(F)c(F)c(F)c(F)c6F)c6nc(c(-c7c(F)c(F)c(F)c(F)c7F)c7ccc4[nH]7)C=C6)C=C5)cc3)cn2)C1=O
REMARK SMILES IDX 17 1 16 2 14 3 15 4 13 6 10 7 11 8 87 9 12 10 86 11 9 12
REMARK SMILES IDX 8 13 7 16 1 17 2 18 3 19 88 20 4 21 5 22 89 23 6 24 18 25
REMARK SMILES IDX 19 26 20 27 21 28 22 30 23 31 24 32 85 33 25 34 84 35 26 36
REMARK SMILES IDX 27 37 28 38 78 39 29 40 83 41 77 42 79 43 30 44 82 45 76 46
REMARK SMILES IDX 75 47 31 49 63 50 43 51 62 52 44 53 47 54 61 55 80 56 45 57
REMARK SMILES IDX 46 58 60 60 81 61 48 62 32 63 33 64 41 65 34 66 35 67 39 68
REMARK SMILES IDX 42 69 36 70 37 71 40 72 38 73 64 74 65 75 73 76 66 77 67 78
REMARK SMILES IDX 71 79 74 80 68 81 69 82 72 83 70 84 49 85 50 86 58 87 51 88
REMARK SMILES IDX 52 89 56 90 59 91 53 92 54 93 57 94 55 95
REMARK H PARENT 16 5 8 14 8 15 20 29 79 48 47 59
REMARK Flexibility Score: inf
ROOT
ATOM      1  C   UNL A   1      46.450  21.892  39.238  1.00  0.00     0.118 C 
ENDROOT
BRANCH   1   2
ATOM      2  N   UNL A   1      47.581  21.191  38.656  1.00  0.00    -0.352 N 
ATOM      3  C   UNL A   1      47.777  19.866  38.361  1.00  0.00     0.252 C 
ATOM      4  O   UNL A   1      48.810  19.553  37.772  1.00  0.00    -0.269 OA
ATOM      5  H   UNL A   1      48.344  21.771  38.433  1.00  0.00     0.163 HD
BRANCH   3   6
ATOM      6  C   UNL A   1      46.787  18.816  38.678  1.00  0.00     0.058 A 
ATOM      7  C   UNL A   1      44.807  16.927  39.039  1.00  0.00     0.094 A 
ATOM      8  C   UNL A   1      45.852  16.998  39.955  1.00  0.00     0.030 A 
ATOM      9  N   UNL A   1      44.743  17.725  37.942  1.00  0.00    -0.255 NA
ATOM     10  C   UNL A   1      46.856  17.947  39.765  1.00  0.00     0.017 A 
ATOM     11  C   UNL A   1      45.734  18.641  37.787  1.00  0.00     0.125 A 
BRANCH   7  12
ATOM     12  C   UNL A   1      43.719  15.883  39.196  1.00  0.00     0.318 C 
BRANCH  12  13
ATOM     13  N   UNL A   1      42.621  16.404  40.026  1.00  0.00    -0.331 N 
ATOM     14  H   UNL A   1      42.993  17.121  40.649  1.00  0.00     0.347 HD
ATOM     15  H   UNL A   1      41.911  16.784  39.401  1.00  0.00     0.347 HD
BRANCH  13  16
ATOM     16  C   UNL A   1      41.987  15.350  40.841  1.00  0.00     0.274 C 
ATOM     17  C   UNL A   1      43.135  13.555  44.026  1.00  0.00     0.156 C 
ATOM     18  N   UNL A   1      42.557  13.806  42.717  1.00  0.00    -0.281 N 
ATOM     19  C   UNL A   1      41.923  12.726  42.108  1.00  0.00     0.229 C 
ATOM     20  C   UNL A   1      42.766  15.066  42.146  1.00  0.00     0.287 C 
ATOM     21  O   UNL A   1      41.854  11.609  42.625  1.00  0.00    -0.274 OA
ATOM     22  C   UNL A   1      41.245  12.986  40.788  1.00  0.00     0.107 C 
ATOM     23  O   UNL A   1      43.480  15.912  42.690  1.00  0.00    -0.267 OA
ATOM     24  C   UNL A   1      41.931  14.081  39.999  1.00  0.00     0.085 C 
ENDBRANCH  13  16
ENDBRANCH  12  13
ENDBRANCH   7  12
ENDBRANCH   3   6
ENDBRANCH   1   2
BRANCH   1  25
ATOM     25  C   UNL A   1      45.652  22.643  38.174  1.00  0.00     0.042 C 
BRANCH  25  26
ATOM     26  C   UNL A   1      45.702  24.162  38.325  1.00  0.00     0.118 C 
BRANCH  26  27
ATOM     27  N   UNL A   1      46.965  24.717  37.866  1.00  0.00    -0.352 N 
ATOM     28  C   UNL A   1      47.255  25.470  36.758  1.00  0.00     0.251 C 
ATOM     29  H   UNL A   1      47.738  24.518  38.443  1.00  0.00     0.163 HD
ATOM     30  O   UNL A   1      48.430  25.646  36.445  1.00  0.00    -0.269 OA
BRANCH  28  31
ATOM     31  C   UNL A   1      46.184  26.073  35.931  1.00  0.00     0.039 A 
ATOM     32  C   UNL A   1      46.391  27.354  35.410  1.00  0.00     0.014 A 
ATOM     33  C   UNL A   1      44.953  25.438  35.738  1.00  0.00     0.014 A 
ATOM     34  C   UNL A   1      45.383  27.985  34.678  1.00  0.00     0.010 A 
ATOM     35  C   UNL A   1      43.970  26.041  34.952  1.00  0.00     0.010 A 
ATOM     36  C   UNL A   1      44.167  27.328  34.431  1.00  0.00    -0.014 A 
BRANCH  36  37
ATOM     37  C   UNL A   1      43.091  27.996  33.657  1.00  0.00     0.031 A 
ATOM     38  C   UNL A   1      42.908  27.696  32.195  1.00  0.00     0.074 A 
ATOM     39  C   UNL A   1      42.295  28.896  34.265  1.00  0.00     0.049 A 
ATOM     40  N   UNL A   1      42.034  28.185  31.350  1.00  0.00    -0.248 NA
ATOM     41  C   UNL A   1      43.848  26.736  31.595  1.00  0.00     0.031 C 
ATOM     42  C   UNL A   1      42.404  29.309  35.665  1.00  0.00     0.029 A 
ATOM     43  N   UNL A   1      41.238  29.626  33.783  1.00  0.00    -0.354 N 
ATOM     44  C   UNL A   1      42.328  27.606  30.122  1.00  0.00     0.074 A 
ATOM     45  C   UNL A   1      43.489  26.766  30.319  1.00  0.00     0.031 C 
ATOM     46  C   UNL A   1      41.436  30.201  35.935  1.00  0.00     0.029 A 
ATOM     47  C   UNL A   1      40.656  30.438  34.723  1.00  0.00     0.049 A 
ATOM     48  H   UNL A   1      40.927  29.572  32.850  1.00  0.00     0.167 HD
ATOM     49  C   UNL A   1      41.674  27.745  28.944  1.00  0.00     0.037 A 
ATOM     50  C   UNL A   1      39.608  31.276  34.621  1.00  0.00     0.037 A 
ATOM     51  C   UNL A   1      40.501  28.558  28.756  1.00  0.00     0.049 A 
ATOM     52  C   UNL A   1      38.879  31.386  33.310  1.00  0.00     0.074 A 
ATOM     53  C   UNL A   1      39.735  28.723  27.615  1.00  0.00     0.029 A 
ATOM     54  N   UNL A   1      39.920  29.341  29.743  1.00  0.00    -0.354 N 
ATOM     55  N   UNL A   1      39.128  30.784  32.173  1.00  0.00    -0.248 NA
ATOM     56  C   UNL A   1      37.715  32.281  33.274  1.00  0.00     0.031 C 
ATOM     57  C   UNL A   1      38.711  29.632  27.902  1.00  0.00     0.029 A 
ATOM     58  C   UNL A   1      38.813  30.000  29.235  1.00  0.00     0.049 A 
ATOM     59  H   UNL A   1      40.247  29.418  30.669  1.00  0.00     0.167 HD
ATOM     60  C   UNL A   1      38.139  31.206  31.294  1.00  0.00     0.074 A 
ATOM     61  C   UNL A   1      37.276  32.101  32.037  1.00  0.00     0.031 C 
ATOM     62  C   UNL A   1      37.963  30.884  29.990  1.00  0.00     0.037 A 
BRANCH  49  63
ATOM     63  C   UNL A   1      42.214  26.993  27.761  1.00  0.00     0.064 A 
ATOM     64  C   UNL A   1      43.160  27.564  26.896  1.00  0.00     0.173 A 
ATOM     65  C   UNL A   1      41.803  25.676  27.505  1.00  0.00     0.173 A 
ATOM     66  F   UNL A   1      43.577  28.825  27.090  1.00  0.00    -0.203 F 
ATOM     67  C   UNL A   1      43.651  26.857  25.803  1.00  0.00     0.198 A 
ATOM     68  C   UNL A   1      42.318  24.961  26.427  1.00  0.00     0.198 A 
ATOM     69  F   UNL A   1      40.905  25.080  28.304  1.00  0.00    -0.203 F 
ATOM     70  F   UNL A   1      44.517  27.441  24.962  1.00  0.00    -0.200 F 
ATOM     71  C   UNL A   1      43.235  25.554  25.572  1.00  0.00     0.200 A 
ATOM     72  F   UNL A   1      41.923  23.699  26.212  1.00  0.00    -0.200 F 
ATOM     73  F   UNL A   1      43.712  24.873  24.521  1.00  0.00    -0.200 F 
ENDBRANCH  49  63
BRANCH  50  74
ATOM     74  C   UNL A   1      39.156  32.044  35.809  1.00  0.00     0.064 A 
ATOM     75  C   UNL A   1      38.258  31.482  36.728  1.00  0.00     0.173 A 
ATOM     76  C   UNL A   1      39.611  33.347  36.053  1.00  0.00     0.173 A 
ATOM     77  F   UNL A   1      37.781  30.245  36.525  1.00  0.00    -0.203 F 
ATOM     78  C   UNL A   1      37.816  32.203  37.835  1.00  0.00     0.198 A 
ATOM     79  C   UNL A   1      39.188  34.058  37.174  1.00  0.00     0.198 A 
ATOM     80  F   UNL A   1      40.476  33.925  35.207  1.00  0.00    -0.203 F 
ATOM     81  F   UNL A   1      36.925  31.658  38.673  1.00  0.00    -0.200 F 
ATOM     82  C   UNL A   1      38.285  33.488  38.060  1.00  0.00     0.200 A 
ATOM     83  F   UNL A   1      39.653  35.295  37.395  1.00  0.00    -0.200 F 
ATOM     84  F   UNL A   1      37.863  34.181  39.126  1.00  0.00    -0.200 F 
ENDBRANCH  50  74
BRANCH  62  85
ATOM     85  C   UNL A   1      36.774  31.481  29.295  1.00  0.00     0.064 A 
ATOM     86  C   UNL A   1      36.730  32.840  28.951  1.00  0.00     0.173 A 
ATOM     87  C   UNL A   1      35.673  30.681  28.958  1.00  0.00     0.173 A 
ATOM     88  F   UNL A   1      37.753  33.650  29.266  1.00  0.00    -0.203 F 
ATOM     89  C   UNL A   1      35.612  33.383  28.322  1.00  0.00     0.198 A 
ATOM     90  C   UNL A   1      34.569  31.221  28.306  1.00  0.00     0.198 A 
ATOM     91  F   UNL A   1      35.668  29.373  29.261  1.00  0.00    -0.203 F 
ATOM     92  F   UNL A   1      35.570  34.694  28.052  1.00  0.00    -0.200 F 
ATOM     93  C   UNL A   1      34.535  32.572  27.996  1.00  0.00     0.200 A 
ATOM     94  F   UNL A   1      33.532  30.434  27.982  1.00  0.00    -0.200 F 
ATOM     95  F   UNL A   1      33.460  33.096  27.394  1.00  0.00    -0.200 F 
ENDBRANCH  62  85
ENDBRANCH  36  37
ENDBRANCH  28  31
ENDBRANCH  26  27
ENDBRANCH  25  26
ENDBRANCH   1  25
TORSDOF 13
ENDMDL
