MODEL 1
REMARK VINA RESULT:     -10.8      0.000      0.000
REMARK SMILES COc1cccc([C@H]2CC(c3ccc(S(C)(=O)=O)cc3)=NN2c2ccc(C(=O)NCCCNC(=O)c3ccc(-c4c5nc(c(-c6c(F)c(F)c(F)c(F)c6F)c6ccc([nH]6)c(-c6c(F)c(F)c(F)c(F)c6F)c6nc(c(-c7c(F)c(F)c(F)c(F)c7F)c7ccc4[nH]7)C=C6)C=C5)cc3)cc2)c1
REMARK SMILES IDX 30 1 29 2 27 3 28 4 26 6 23 7 24 8 100 9 25 10 99 11 22 12
REMARK SMILES IDX 8 13 9 14 10 15 21 16 7 17 3 18 4 19 101 20 5 21 6 22 2 23
REMARK SMILES IDX 1 24 11 25 12 26 20 27 13 28 19 29 14 30 15 31 16 32 17 33
REMARK SMILES IDX 18 34 31 35 32 36 33 37 34 38 35 40 36 41 37 42 98 43 38 44
REMARK SMILES IDX 97 45 39 46 40 47 41 48 91 49 42 50 96 51 90 52 92 53 43 54
REMARK SMILES IDX 95 55 89 56 88 57 44 59 76 60 56 61 75 62 57 63 60 64 74 65
REMARK SMILES IDX 93 66 58 67 59 68 73 70 94 71 61 72 45 73 46 74 54 75 47 76
REMARK SMILES IDX 48 77 52 78 55 79 49 80 50 81 53 82 51 83 77 84 78 85 86 86
REMARK SMILES IDX 79 87 80 88 84 89 87 90 81 91 82 92 85 93 83 94 62 95 63 96
REMARK SMILES IDX 71 97 64 98 65 99 69 100 72 101 66 102 67 103 70 104 68 105
REMARK H PARENT 29 5 33 39 92 58 60 69
REMARK Flexibility Score: inf
ROOT
ATOM      1  C   UNL A   1      34.462  33.542  30.385  1.00  0.00     0.118 C 
ENDROOT
BRANCH   1   2
ATOM      2  N   UNL A   1      34.223  34.735  31.175  1.00  0.00    -0.352 N 
ATOM      3  C   UNL A   1      34.793  35.215  32.325  1.00  0.00     0.251 C 
ATOM      4  O   UNL A   1      34.387  36.301  32.740  1.00  0.00    -0.269 OA
ATOM      5  H   UNL A   1      33.511  35.312  30.814  1.00  0.00     0.163 HD
BRANCH   3   6
ATOM      6  C   UNL A   1      35.891  34.522  33.053  1.00  0.00     0.039 A 
ATOM      7  C   UNL A   1      38.103  33.253  34.287  1.00  0.00     0.060 A 
ATOM      8  C   UNL A   1      38.284  34.108  33.195  1.00  0.00     0.029 A 
ATOM      9  C   UNL A   1      36.810  33.081  34.783  1.00  0.00     0.029 A 
ATOM     10  C   UNL A   1      37.192  34.718  32.571  1.00  0.00     0.016 A 
ATOM     11  C   UNL A   1      35.721  33.737  34.196  1.00  0.00     0.016 A 
BRANCH   7  12
ATOM     12  N   UNL A   1      39.192  32.621  34.858  1.00  0.00    -0.257 N 
ATOM     13  C   UNL A   1      40.270  33.299  35.575  1.00  0.00     0.144 C 
ATOM     14  C   UNL A   1      41.274  32.164  35.825  1.00  0.00     0.091 C 
ATOM     15  C   UNL A   1      40.581  31.040  35.109  1.00  0.00     0.071 C 
ATOM     16  N   UNL A   1      39.429  31.314  34.584  1.00  0.00    -0.176 NA
BRANCH  13  17
ATOM     17  C   UNL A   1      39.758  33.938  36.855  1.00  0.00    -0.019 A 
ATOM     18  C   UNL A   1      39.368  35.908  38.240  1.00  0.00     0.119 A 
ATOM     19  C   UNL A   1      38.912  35.089  39.271  1.00  0.00     0.046 A 
ATOM     20  C   UNL A   1      39.808  35.334  37.047  1.00  0.00     0.052 A 
ATOM     21  C   UNL A   1      38.856  33.708  39.100  1.00  0.00     0.004 A 
ATOM     22  C   UNL A   1      39.271  33.134  37.898  1.00  0.00     0.006 A 
BRANCH  18  23
ATOM     23  O   UNL A   1      39.396  37.248  38.519  1.00  0.00    -0.497 OA
ATOM     24  C   UNL A   1      40.318  37.633  39.534  1.00  0.00     0.278 C 
ENDBRANCH  18  23
ENDBRANCH  13  17
BRANCH  15  25
ATOM     25  C   UNL A   1      41.206  29.722  34.976  1.00  0.00    -0.002 A 
ATOM     26  C   UNL A   1      41.751  29.127  36.118  1.00  0.00     0.011 A 
ATOM     27  C   UNL A   1      41.285  29.101  33.729  1.00  0.00     0.011 A 
ATOM     28  C   UNL A   1      42.374  27.885  36.017  1.00  0.00     0.021 A 
ATOM     29  C   UNL A   1      41.934  27.870  33.620  1.00  0.00     0.021 A 
ATOM     30  C   UNL A   1      42.478  27.273  34.764  1.00  0.00     0.067 A 
BRANCH  30  31
ATOM     31  S   UNL A   1      43.307  25.705  34.639  1.00  0.00     0.175 S 
ATOM     32  C   UNL A   1      44.611  25.808  35.837  1.00  0.00     0.163 C 
ATOM     33  O   UNL A   1      42.360  24.697  35.072  1.00  0.00    -0.224 OA
ATOM     34  O   UNL A   1      43.922  25.638  33.326  1.00  0.00    -0.224 OA
ENDBRANCH  30  31
ENDBRANCH  15  25
ENDBRANCH   7  12
ENDBRANCH   3   6
ENDBRANCH   1   2
BRANCH   1  35
ATOM     35  C   UNL A   1      34.484  33.869  28.892  1.00  0.00     0.042 C 
BRANCH  35  36
ATOM     36  C   UNL A   1      35.183  32.805  28.051  1.00  0.00     0.118 C 
BRANCH  36  37
ATOM     37  N   UNL A   1      34.406  31.577  27.973  1.00  0.00    -0.352 N 
ATOM     38  C   UNL A   1      34.819  30.270  27.948  1.00  0.00     0.251 C 
ATOM     39  H   UNL A   1      33.430  31.705  27.932  1.00  0.00     0.163 HD
ATOM     40  O   UNL A   1      34.018  29.387  27.653  1.00  0.00    -0.269 OA
BRANCH  38  41
ATOM     41  C   UNL A   1      36.219  29.911  28.264  1.00  0.00     0.039 A 
ATOM     42  C   UNL A   1      36.519  29.461  29.555  1.00  0.00     0.014 A 
ATOM     43  C   UNL A   1      37.242  30.070  27.326  1.00  0.00     0.014 A 
ATOM     44  C   UNL A   1      37.833  29.127  29.889  1.00  0.00     0.010 A 
ATOM     45  C   UNL A   1      38.542  29.677  27.639  1.00  0.00     0.010 A 
ATOM     46  C   UNL A   1      38.850  29.208  28.925  1.00  0.00    -0.014 A 
BRANCH  46  47
ATOM     47  C   UNL A   1      40.242  28.808  29.246  1.00  0.00     0.031 A 
ATOM     48  C   UNL A   1      41.152  29.746  29.985  1.00  0.00     0.074 A 
ATOM     49  C   UNL A   1      40.709  27.624  28.803  1.00  0.00     0.049 A 
ATOM     50  N   UNL A   1      42.419  29.608  30.287  1.00  0.00    -0.248 NA
ATOM     51  C   UNL A   1      40.567  31.023  30.419  1.00  0.00     0.031 C 
ATOM     52  C   UNL A   1      39.938  26.652  28.027  1.00  0.00     0.029 A 
ATOM     53  N   UNL A   1      41.949  27.049  28.924  1.00  0.00    -0.354 N 
ATOM     54  C   UNL A   1      42.785  30.783  30.928  1.00  0.00     0.074 A 
ATOM     55  C   UNL A   1      41.620  31.643  30.931  1.00  0.00     0.031 C 
ATOM     56  C   UNL A   1      40.721  25.600  27.744  1.00  0.00     0.029 A 
ATOM     57  C   UNL A   1      42.054  25.836  28.291  1.00  0.00     0.049 A 
ATOM     58  H   UNL A   1      42.691  27.466  29.418  1.00  0.00     0.167 HD
ATOM     59  C   UNL A   1      43.978  31.108  31.482  1.00  0.00     0.037 A 
ATOM     60  C   UNL A   1      43.110  25.013  28.154  1.00  0.00     0.037 A 
ATOM     61  C   UNL A   1      45.128  30.240  31.495  1.00  0.00     0.049 A 
ATOM     62  C   UNL A   1      44.420  25.385  28.790  1.00  0.00     0.074 A 
ATOM     63  C   UNL A   1      46.358  30.445  32.093  1.00  0.00     0.029 A 
ATOM     64  N   UNL A   1      45.186  29.001  30.875  1.00  0.00    -0.354 N 
ATOM     65  N   UNL A   1      44.734  26.465  29.461  1.00  0.00    -0.248 NA
ATOM     66  C   UNL A   1      45.519  24.418  28.659  1.00  0.00     0.031 C 
ATOM     67  C   UNL A   1      47.176  29.348  31.798  1.00  0.00     0.029 A 
ATOM     68  C   UNL A   1      46.440  28.438  31.055  1.00  0.00     0.049 A 
ATOM     69  H   UNL A   1      44.446  28.581  30.379  1.00  0.00     0.167 HD
ATOM     70  C   UNL A   1      46.058  26.305  29.845  1.00  0.00     0.074 A 
ATOM     71  C   UNL A   1      46.483  25.013  29.348  1.00  0.00     0.031 C 
ATOM     72  C   UNL A   1      46.850  27.153  30.546  1.00  0.00     0.037 A 
BRANCH  59  73
ATOM     73  C   UNL A   1      44.098  32.463  32.116  1.00  0.00     0.064 A 
ATOM     74  C   UNL A   1      44.060  32.631  33.509  1.00  0.00     0.173 A 
ATOM     75  C   UNL A   1      44.269  33.608  31.323  1.00  0.00     0.173 A 
ATOM     76  F   UNL A   1      43.888  31.569  34.312  1.00  0.00    -0.203 F 
ATOM     77  C   UNL A   1      44.148  33.897  34.082  1.00  0.00     0.198 A 
ATOM     78  C   UNL A   1      44.387  34.870  31.902  1.00  0.00     0.198 A 
ATOM     79  F   UNL A   1      44.320  33.505  29.987  1.00  0.00    -0.203 F 
ATOM     80  F   UNL A   1      44.051  34.037  35.411  1.00  0.00    -0.200 F 
ATOM     81  C   UNL A   1      44.316  35.014  33.279  1.00  0.00     0.200 A 
ATOM     82  F   UNL A   1      44.562  35.948  31.125  1.00  0.00    -0.200 F 
ATOM     83  F   UNL A   1      44.400  36.233  33.832  1.00  0.00    -0.200 F 
ENDBRANCH  59  73
BRANCH  60  84
ATOM     84  C   UNL A   1      42.955  23.747  27.394  1.00  0.00     0.064 A 
ATOM     85  C   UNL A   1      43.306  23.671  26.040  1.00  0.00     0.173 A 
ATOM     86  C   UNL A   1      42.483  22.581  28.015  1.00  0.00     0.173 A 
ATOM     87  F   UNL A   1      43.744  24.765  25.400  1.00  0.00    -0.203 F 
ATOM     88  C   UNL A   1      43.185  22.477  25.332  1.00  0.00     0.198 A 
ATOM     89  C   UNL A   1      42.385  21.382  27.313  1.00  0.00     0.198 A 
ATOM     90  F   UNL A   1      42.142  22.601  29.312  1.00  0.00    -0.203 F 
ATOM     91  F   UNL A   1      43.501  22.437  24.031  1.00  0.00    -0.200 F 
ATOM     92  C   UNL A   1      42.731  21.332  25.971  1.00  0.00     0.200 A 
ATOM     93  F   UNL A   1      41.964  20.273  27.937  1.00  0.00    -0.200 F 
ATOM     94  F   UNL A   1      42.628  20.181  25.293  1.00  0.00    -0.200 F 
ENDBRANCH  60  84
BRANCH  72  95
ATOM     95  C   UNL A   1      48.254  26.705  30.828  1.00  0.00     0.064 A 
ATOM     96  C   UNL A   1      48.558  25.906  31.940  1.00  0.00     0.173 A 
ATOM     97  C   UNL A   1      49.298  27.045  29.955  1.00  0.00     0.173 A 
ATOM     98  F   UNL A   1      47.597  25.569  32.812  1.00  0.00    -0.203 F 
ATOM     99  C   UNL A   1      49.862  25.483  32.179  1.00  0.00     0.198 A 
ATOM    100  C   UNL A   1      50.596  26.597  30.183  1.00  0.00     0.198 A 
ATOM    101  F   UNL A   1      49.056  27.803  28.875  1.00  0.00    -0.203 F 
ATOM    102  F   UNL A   1      50.140  24.756  33.271  1.00  0.00    -0.200 F 
ATOM    103  C   UNL A   1      50.878  25.822  31.298  1.00  0.00     0.200 A 
ATOM    104  F   UNL A   1      51.574  26.917  29.325  1.00  0.00    -0.200 F 
ATOM    105  F   UNL A   1      52.132  25.408  31.527  1.00  0.00    -0.200 F 
ENDBRANCH  72  95
ENDBRANCH  46  47
ENDBRANCH  38  41
ENDBRANCH  36  37
ENDBRANCH  35  36
ENDBRANCH   1  35
TORSDOF 15
ENDMDL
MODEL 2
REMARK VINA RESULT:     -10.8      0.977      1.801
REMARK SMILES COc1cccc([C@H]2CC(c3ccc(S(C)(=O)=O)cc3)=NN2c2ccc(C(=O)NCCCNC(=O)c3ccc(-c4c5nc(c(-c6c(F)c(F)c(F)c(F)c6F)c6ccc([nH]6)c(-c6c(F)c(F)c(F)c(F)c6F)c6nc(c(-c7c(F)c(F)c(F)c(F)c7F)c7ccc4[nH]7)C=C6)C=C5)cc3)cc2)c1
REMARK SMILES IDX 30 1 29 2 27 3 28 4 26 6 23 7 24 8 100 9 25 10 99 11 22 12
REMARK SMILES IDX 8 13 9 14 10 15 21 16 7 17 3 18 4 19 101 20 5 21 6 22 2 23
REMARK SMILES IDX 1 24 11 25 12 26 20 27 13 28 19 29 14 30 15 31 16 32 17 33
REMARK SMILES IDX 18 34 31 35 32 36 33 37 34 38 35 40 36 41 37 42 98 43 38 44
REMARK SMILES IDX 97 45 39 46 40 47 41 48 91 49 42 50 96 51 90 52 92 53 43 54
REMARK SMILES IDX 95 55 89 56 88 57 44 59 76 60 56 61 75 62 57 63 60 64 74 65
REMARK SMILES IDX 93 66 58 67 59 68 73 70 94 71 61 72 45 73 46 74 54 75 47 76
REMARK SMILES IDX 48 77 52 78 55 79 49 80 50 81 53 82 51 83 77 84 78 85 86 86
REMARK SMILES IDX 79 87 80 88 84 89 87 90 81 91 82 92 85 93 83 94 62 95 63 96
REMARK SMILES IDX 71 97 64 98 65 99 69 100 72 101 66 102 67 103 70 104 68 105
REMARK H PARENT 29 5 33 39 92 58 60 69
REMARK Flexibility Score: inf
ROOT
ATOM      1  C   UNL A   1      34.720  33.124  30.506  1.00  0.00     0.118 C 
ENDROOT
BRANCH   1   2
ATOM      2  N   UNL A   1      34.586  34.345  31.278  1.00  0.00    -0.352 N 
ATOM      3  C   UNL A   1      35.263  34.832  32.365  1.00  0.00     0.251 C 
ATOM      4  O   UNL A   1      34.930  35.943  32.780  1.00  0.00    -0.269 OA
ATOM      5  H   UNL A   1      33.868  34.938  30.959  1.00  0.00     0.163 HD
BRANCH   3   6
ATOM      6  C   UNL A   1      36.391  34.118  33.023  1.00  0.00     0.039 A 
ATOM      7  C   UNL A   1      38.402  32.627  34.351  1.00  0.00     0.060 A 
ATOM      8  C   UNL A   1      37.104  32.123  34.219  1.00  0.00     0.029 A 
ATOM      9  C   UNL A   1      38.691  33.861  33.767  1.00  0.00     0.029 A 
ATOM     10  C   UNL A   1      36.105  32.866  33.584  1.00  0.00     0.016 A 
ATOM     11  C   UNL A   1      37.707  34.582  33.079  1.00  0.00     0.016 A 
BRANCH   7  12
ATOM     12  N   UNL A   1      39.363  31.898  35.026  1.00  0.00    -0.257 N 
ATOM     13  C   UNL A   1      40.191  32.413  36.114  1.00  0.00     0.144 C 
ATOM     14  C   UNL A   1      41.179  31.263  36.359  1.00  0.00     0.091 C 
ATOM     15  C   UNL A   1      40.752  30.317  35.272  1.00  0.00     0.071 C 
ATOM     16  N   UNL A   1      39.743  30.687  34.549  1.00  0.00    -0.176 NA
BRANCH  13  17
ATOM     17  C   UNL A   1      39.347  32.747  37.333  1.00  0.00    -0.019 A 
ATOM     18  C   UNL A   1      37.311  32.477  38.649  1.00  0.00     0.119 A 
ATOM     19  C   UNL A   1      37.753  33.463  39.529  1.00  0.00     0.046 A 
ATOM     20  C   UNL A   1      38.094  32.137  37.546  1.00  0.00     0.052 A 
ATOM     21  C   UNL A   1      38.988  34.078  39.335  1.00  0.00     0.004 A 
ATOM     22  C   UNL A   1      39.783  33.720  38.246  1.00  0.00     0.006 A 
BRANCH  18  23
ATOM     23  O   UNL A   1      36.078  31.950  38.926  1.00  0.00    -0.497 OA
ATOM     24  C   UNL A   1      35.915  31.464  40.254  1.00  0.00     0.278 C 
ENDBRANCH  18  23
ENDBRANCH  13  17
BRANCH  15  25
ATOM     25  C   UNL A   1      41.476  29.069  35.022  1.00  0.00    -0.002 A 
ATOM     26  C   UNL A   1      41.838  28.280  36.119  1.00  0.00     0.011 A 
ATOM     27  C   UNL A   1      41.826  28.704  33.721  1.00  0.00     0.011 A 
ATOM     28  C   UNL A   1      42.550  27.100  35.913  1.00  0.00     0.021 A 
ATOM     29  C   UNL A   1      42.564  27.537  33.516  1.00  0.00     0.021 A 
ATOM     30  C   UNL A   1      42.925  26.745  34.613  1.00  0.00     0.067 A 
BRANCH  30  31
ATOM     31  S   UNL A   1      43.864  25.256  34.364  1.00  0.00     0.175 S 
ATOM     32  C   UNL A   1      42.762  23.960  34.867  1.00  0.00     0.163 C 
ATOM     33  O   UNL A   1      44.092  25.141  32.938  1.00  0.00    -0.224 OA
ATOM     34  O   UNL A   1      44.973  25.277  35.301  1.00  0.00    -0.224 OA
ENDBRANCH  30  31
ENDBRANCH  15  25
ENDBRANCH   7  12
ENDBRANCH   3   6
ENDBRANCH   1   2
BRANCH   1  35
ATOM     35  C   UNL A   1      35.820  33.260  29.453  1.00  0.00     0.042 C 
BRANCH  35  36
ATOM     36  C   UNL A   1      35.333  32.989  28.032  1.00  0.00     0.118 C 
BRANCH  36  37
ATOM     37  N   UNL A   1      34.480  31.811  27.966  1.00  0.00    -0.352 N 
ATOM     38  C   UNL A   1      34.810  30.481  27.975  1.00  0.00     0.251 C 
ATOM     39  H   UNL A   1      33.515  32.000  27.906  1.00  0.00     0.163 HD
ATOM     40  O   UNL A   1      33.959  29.644  27.685  1.00  0.00    -0.269 OA
BRANCH  38  41
ATOM     41  C   UNL A   1      36.179  30.041  28.322  1.00  0.00     0.039 A 
ATOM     42  C   UNL A   1      37.168  30.093  27.334  1.00  0.00     0.014 A 
ATOM     43  C   UNL A   1      36.480  29.523  29.584  1.00  0.00     0.014 A 
ATOM     44  C   UNL A   1      38.468  29.673  27.625  1.00  0.00     0.010 A 
ATOM     45  C   UNL A   1      37.790  29.162  29.894  1.00  0.00     0.010 A 
ATOM     46  C   UNL A   1      38.795  29.228  28.916  1.00  0.00    -0.014 A 
BRANCH  46  47
ATOM     47  C   UNL A   1      40.180  28.826  29.260  1.00  0.00     0.031 A 
ATOM     48  C   UNL A   1      41.076  29.758  30.024  1.00  0.00     0.074 A 
ATOM     49  C   UNL A   1      40.656  27.646  28.816  1.00  0.00     0.049 A 
ATOM     50  N   UNL A   1      42.337  29.618  30.350  1.00  0.00    -0.248 NA
ATOM     51  C   UNL A   1      40.481  31.031  30.458  1.00  0.00     0.031 C 
ATOM     52  C   UNL A   1      39.901  26.681  28.017  1.00  0.00     0.029 A 
ATOM     53  N   UNL A   1      41.894  27.071  28.956  1.00  0.00    -0.354 N 
ATOM     54  C   UNL A   1      42.690  30.788  31.008  1.00  0.00     0.074 A 
ATOM     55  C   UNL A   1      41.524  31.647  30.997  1.00  0.00     0.031 C 
ATOM     56  C   UNL A   1      40.690  25.632  27.739  1.00  0.00     0.029 A 
ATOM     57  C   UNL A   1      42.012  25.863  28.313  1.00  0.00     0.049 A 
ATOM     58  H   UNL A   1      42.627  27.484  29.467  1.00  0.00     0.167 HD
ATOM     59  C   UNL A   1      43.872  31.107  31.587  1.00  0.00     0.037 A 
ATOM     60  C   UNL A   1      43.071  25.042  28.190  1.00  0.00     0.037 A 
ATOM     61  C   UNL A   1      45.021  30.241  31.615  1.00  0.00     0.049 A 
ATOM     62  C   UNL A   1      44.368  25.409  28.854  1.00  0.00     0.074 A 
ATOM     63  C   UNL A   1      46.240  30.441  32.238  1.00  0.00     0.029 A 
ATOM     64  N   UNL A   1      45.092  29.007  30.985  1.00  0.00    -0.354 N 
ATOM     65  N   UNL A   1      44.669  26.484  29.540  1.00  0.00    -0.248 NA
ATOM     66  C   UNL A   1      45.470  24.444  28.735  1.00  0.00     0.031 C 
ATOM     67  C   UNL A   1      47.064  29.346  31.950  1.00  0.00     0.029 A 
ATOM     68  C   UNL A   1      46.343  28.443  31.184  1.00  0.00     0.049 A 
ATOM     69  H   UNL A   1      44.362  28.591  30.472  1.00  0.00     0.167 HD
ATOM     70  C   UNL A   1      45.986  26.321  29.949  1.00  0.00     0.074 A 
ATOM     71  C   UNL A   1      46.421  25.033  29.448  1.00  0.00     0.031 C 
ATOM     72  C   UNL A   1      46.763  27.163  30.672  1.00  0.00     0.037 A 
BRANCH  59  73
ATOM     73  C   UNL A   1      43.978  32.458  32.236  1.00  0.00     0.064 A 
ATOM     74  C   UNL A   1      44.233  33.617  31.488  1.00  0.00     0.173 A 
ATOM     75  C   UNL A   1      43.808  32.597  33.622  1.00  0.00     0.173 A 
ATOM     76  F   UNL A   1      44.413  33.537  30.160  1.00  0.00    -0.203 F 
ATOM     77  C   UNL A   1      44.352  34.859  32.106  1.00  0.00     0.198 A 
ATOM     78  C   UNL A   1      43.899  33.846  34.234  1.00  0.00     0.198 A 
ATOM     79  F   UNL A   1      43.556  31.523  34.384  1.00  0.00    -0.203 F 
ATOM     80  F   UNL A   1      44.653  35.942  31.377  1.00  0.00    -0.200 F 
ATOM     81  C   UNL A   1      44.181  34.972  33.478  1.00  0.00     0.200 A 
ATOM     82  F   UNL A   1      43.721  33.956  35.557  1.00  0.00    -0.200 F 
ATOM     83  F   UNL A   1      44.297  36.168  34.072  1.00  0.00    -0.200 F 
ENDBRANCH  59  73
BRANCH  60  84
ATOM     84  C   UNL A   1      42.931  23.783  27.416  1.00  0.00     0.064 A 
ATOM     85  C   UNL A   1      43.313  23.717  26.069  1.00  0.00     0.173 A 
ATOM     86  C   UNL A   1      42.444  22.612  28.016  1.00  0.00     0.173 A 
ATOM     87  F   UNL A   1      43.767  24.816  25.449  1.00  0.00    -0.203 F 
ATOM     88  C   UNL A   1      43.206  22.530  25.349  1.00  0.00     0.198 A 
ATOM     89  C   UNL A   1      42.360  21.419  27.302  1.00  0.00     0.198 A 
ATOM     90  F   UNL A   1      42.073  22.622  29.305  1.00  0.00    -0.203 F 
ATOM     91  F   UNL A   1      43.552  22.501  24.055  1.00  0.00    -0.200 F 
ATOM     92  C   UNL A   1      42.737  21.380  25.968  1.00  0.00     0.200 A 
ATOM     93  F   UNL A   1      41.923  20.307  27.906  1.00  0.00    -0.200 F 
ATOM     94  F   UNL A   1      42.648  20.235  25.278  1.00  0.00    -0.200 F 
ENDBRANCH  60  84
BRANCH  72  95
ATOM     95  C   UNL A   1      48.161  26.713  30.977  1.00  0.00     0.064 A 
ATOM     96  C   UNL A   1      48.445  25.907  32.090  1.00  0.00     0.173 A 
ATOM     97  C   UNL A   1      49.221  27.058  30.126  1.00  0.00     0.173 A 
ATOM     98  F   UNL A   1      47.468  25.565  32.942  1.00  0.00    -0.203 F 
ATOM     99  C   UNL A   1      49.745  25.483  32.350  1.00  0.00     0.198 A 
ATOM    100  C   UNL A   1      50.515  26.609  30.375  1.00  0.00     0.198 A 
ATOM    101  F   UNL A   1      49.000  27.823  29.046  1.00  0.00    -0.203 F 
ATOM    102  F   UNL A   1      50.002  24.749  33.443  1.00  0.00    -0.200 F 
ATOM    103  C   UNL A   1      50.777  25.827  31.490  1.00  0.00     0.200 A 
ATOM    104  F   UNL A   1      51.509  26.934  29.537  1.00  0.00    -0.200 F 
ATOM    105  F   UNL A   1      52.026  25.411  31.739  1.00  0.00    -0.200 F 
ENDBRANCH  72  95
ENDBRANCH  46  47
ENDBRANCH  38  41
ENDBRANCH  36  37
ENDBRANCH  35  36
ENDBRANCH   1  35
TORSDOF 15
ENDMDL
MODEL 3
REMARK VINA RESULT:     -10.7      4.523     11.233
REMARK SMILES COc1cccc([C@H]2CC(c3ccc(S(C)(=O)=O)cc3)=NN2c2ccc(C(=O)NCCCNC(=O)c3ccc(-c4c5nc(c(-c6c(F)c(F)c(F)c(F)c6F)c6ccc([nH]6)c(-c6c(F)c(F)c(F)c(F)c6F)c6nc(c(-c7c(F)c(F)c(F)c(F)c7F)c7ccc4[nH]7)C=C6)C=C5)cc3)cc2)c1
REMARK SMILES IDX 30 1 29 2 27 3 28 4 26 6 23 7 24 8 100 9 25 10 99 11 22 12
REMARK SMILES IDX 8 13 9 14 10 15 21 16 7 17 3 18 4 19 101 20 5 21 6 22 2 23
REMARK SMILES IDX 1 24 11 25 12 26 20 27 13 28 19 29 14 30 15 31 16 32 17 33
REMARK SMILES IDX 18 34 31 35 32 36 33 37 34 38 35 40 36 41 37 42 98 43 38 44
REMARK SMILES IDX 97 45 39 46 40 47 41 48 91 49 42 50 96 51 90 52 92 53 43 54
REMARK SMILES IDX 95 55 89 56 88 57 44 59 76 60 56 61 75 62 57 63 60 64 74 65
REMARK SMILES IDX 93 66 58 67 59 68 73 70 94 71 61 72 45 73 46 74 54 75 47 76
REMARK SMILES IDX 48 77 52 78 55 79 49 80 50 81 53 82 51 83 77 84 78 85 86 86
REMARK SMILES IDX 79 87 80 88 84 89 87 90 81 91 82 92 85 93 83 94 62 95 63 96
REMARK SMILES IDX 71 97 64 98 65 99 69 100 72 101 66 102 67 103 70 104 68 105
REMARK H PARENT 29 5 33 39 92 58 60 69
REMARK Flexibility Score: inf
ROOT
ATOM      1  C   UNL A   1      42.764  20.899  26.872  1.00  0.00     0.118 C 
ENDROOT
BRANCH   1   2
ATOM      2  N   UNL A   1      42.657  21.442  28.213  1.00  0.00    -0.352 N 
ATOM      3  C   UNL A   1      43.173  22.567  28.801  1.00  0.00     0.251 C 
ATOM      4  O   UNL A   1      42.865  22.777  29.974  1.00  0.00    -0.269 OA
ATOM      5  H   UNL A   1      42.106  20.895  28.818  1.00  0.00     0.163 HD
BRANCH   3   6
ATOM      6  C   UNL A   1      44.032  23.551  28.087  1.00  0.00     0.039 A 
ATOM      7  C   UNL A   1      45.544  25.405  26.568  1.00  0.00     0.060 A 
ATOM      8  C   UNL A   1      44.277  24.992  26.142  1.00  0.00     0.029 A 
ATOM      9  C   UNL A   1      46.021  24.918  27.785  1.00  0.00     0.029 A 
ATOM     10  C   UNL A   1      43.539  24.061  26.878  1.00  0.00     0.016 A 
ATOM     11  C   UNL A   1      45.258  24.030  28.555  1.00  0.00     0.016 A 
BRANCH   7  12
ATOM     12  N   UNL A   1      46.278  26.289  25.799  1.00  0.00    -0.257 N 
ATOM     13  C   UNL A   1      45.707  27.346  24.967  1.00  0.00     0.144 C 
ATOM     14  C   UNL A   1      46.934  27.884  24.218  1.00  0.00     0.091 C 
ATOM     15  C   UNL A   1      47.987  26.944  24.733  1.00  0.00     0.071 C 
ATOM     16  N   UNL A   1      47.603  26.072  25.609  1.00  0.00    -0.176 NA
BRANCH  13  17
ATOM     17  C   UNL A   1      45.015  28.398  25.817  1.00  0.00    -0.019 A 
ATOM     18  C   UNL A   1      45.107  30.336  27.296  1.00  0.00     0.119 A 
ATOM     19  C   UNL A   1      43.727  30.263  27.473  1.00  0.00     0.046 A 
ATOM     20  C   UNL A   1      45.749  29.397  26.489  1.00  0.00     0.052 A 
ATOM     21  C   UNL A   1      42.984  29.283  26.819  1.00  0.00     0.004 A 
ATOM     22  C   UNL A   1      43.622  28.358  25.991  1.00  0.00     0.006 A 
BRANCH  18  23
ATOM     23  O   UNL A   1      45.740  31.327  27.996  1.00  0.00    -0.497 OA
ATOM     24  C   UNL A   1      44.999  31.859  29.090  1.00  0.00     0.278 C 
ENDBRANCH  18  23
ENDBRANCH  13  17
BRANCH  15  25
ATOM     25  C   UNL A   1      49.361  26.989  24.227  1.00  0.00    -0.002 A 
ATOM     26  C   UNL A   1      50.383  26.476  25.032  1.00  0.00     0.011 A 
ATOM     27  C   UNL A   1      49.638  27.567  22.987  1.00  0.00     0.011 A 
ATOM     28  C   UNL A   1      51.703  26.529  24.588  1.00  0.00     0.021 A 
ATOM     29  C   UNL A   1      50.962  27.646  22.552  1.00  0.00     0.021 A 
ATOM     30  C   UNL A   1      51.985  27.131  23.357  1.00  0.00     0.067 A 
BRANCH  30  31
ATOM     31  S   UNL A   1      53.676  27.226  22.815  1.00  0.00     0.175 S 
ATOM     32  C   UNL A   1      54.613  26.687  24.221  1.00  0.00     0.163 C 
ATOM     33  O   UNL A   1      53.829  26.248  21.756  1.00  0.00    -0.224 OA
ATOM     34  O   UNL A   1      53.987  28.626  22.591  1.00  0.00    -0.224 OA
ENDBRANCH  30  31
ENDBRANCH  15  25
ENDBRANCH   7  12
ENDBRANCH   3   6
ENDBRANCH   1   2
BRANCH   1  35
ATOM     35  C   UNL A   1      41.405  20.898  26.171  1.00  0.00     0.042 C 
BRANCH  35  36
ATOM     36  C   UNL A   1      40.338  21.691  26.921  1.00  0.00     0.118 C 
BRANCH  36  37
ATOM     37  N   UNL A   1      39.302  22.187  26.027  1.00  0.00    -0.352 N 
ATOM     38  C   UNL A   1      38.652  23.394  26.011  1.00  0.00     0.251 C 
ATOM     39  H   UNL A   1      39.025  21.557  25.322  1.00  0.00     0.163 HD
ATOM     40  O   UNL A   1      37.651  23.533  25.314  1.00  0.00    -0.269 OA
BRANCH  38  41
ATOM     41  C   UNL A   1      39.136  24.527  26.830  1.00  0.00     0.039 A 
ATOM     42  C   UNL A   1      40.055  25.417  26.262  1.00  0.00     0.014 A 
ATOM     43  C   UNL A   1      38.744  24.685  28.161  1.00  0.00     0.014 A 
ATOM     44  C   UNL A   1      40.541  26.490  27.012  1.00  0.00     0.010 A 
ATOM     45  C   UNL A   1      39.181  25.790  28.890  1.00  0.00     0.010 A 
ATOM     46  C   UNL A   1      40.088  26.699  28.324  1.00  0.00    -0.014 A 
BRANCH  46  47
ATOM     47  C   UNL A   1      40.554  27.861  29.119  1.00  0.00     0.031 A 
ATOM     48  C   UNL A   1      41.924  27.863  29.733  1.00  0.00     0.074 A 
ATOM     49  C   UNL A   1      39.709  28.885  29.349  1.00  0.00     0.049 A 
ATOM     50  N   UNL A   1      42.479  28.749  30.522  1.00  0.00    -0.248 NA
ATOM     51  C   UNL A   1      42.775  26.700  29.443  1.00  0.00     0.031 C 
ATOM     52  C   UNL A   1      38.336  28.972  28.854  1.00  0.00     0.029 A 
ATOM     53  N   UNL A   1      39.877  30.037  30.077  1.00  0.00    -0.354 N 
ATOM     54  C   UNL A   1      43.733  28.243  30.836  1.00  0.00     0.074 A 
ATOM     55  C   UNL A   1      43.840  26.952  30.190  1.00  0.00     0.031 C 
ATOM     56  C   UNL A   1      37.786  30.116  29.289  1.00  0.00     0.029 A 
ATOM     57  C   UNL A   1      38.755  30.827  30.117  1.00  0.00     0.049 A 
ATOM     58  H   UNL A   1      40.720  30.273  30.527  1.00  0.00     0.167 HD
ATOM     59  C   UNL A   1      44.712  28.813  31.578  1.00  0.00     0.037 A 
ATOM     60  C   UNL A   1      38.530  31.988  30.760  1.00  0.00     0.037 A 
ATOM     61  C   UNL A   1      44.608  30.107  32.200  1.00  0.00     0.049 A 
ATOM     62  C   UNL A   1      39.636  32.610  31.564  1.00  0.00     0.074 A 
ATOM     63  C   UNL A   1      45.569  30.805  32.911  1.00  0.00     0.029 A 
ATOM     64  N   UNL A   1      43.468  30.898  32.188  1.00  0.00    -0.354 N 
ATOM     65  N   UNL A   1      40.845  32.160  31.792  1.00  0.00    -0.248 NA
ATOM     66  C   UNL A   1      39.349  33.908  32.193  1.00  0.00     0.031 C 
ATOM     67  C   UNL A   1      44.996  31.999  33.365  1.00  0.00     0.029 A 
ATOM     68  C   UNL A   1      43.693  32.066  32.899  1.00  0.00     0.049 A 
ATOM     69  H   UNL A   1      42.623  30.664  31.740  1.00  0.00     0.167 HD
ATOM     70  C   UNL A   1      41.470  33.121  32.575  1.00  0.00     0.074 A 
ATOM     71  C   UNL A   1      40.510  34.189  32.768  1.00  0.00     0.031 C 
ATOM     72  C   UNL A   1      42.724  33.117  33.088  1.00  0.00     0.037 A 
BRANCH  59  73
ATOM     73  C   UNL A   1      45.982  28.033  31.759  1.00  0.00     0.064 A 
ATOM     74  C   UNL A   1      46.160  27.155  32.839  1.00  0.00     0.173 A 
ATOM     75  C   UNL A   1      47.029  28.152  30.833  1.00  0.00     0.173 A 
ATOM     76  F   UNL A   1      45.193  27.011  33.758  1.00  0.00    -0.203 F 
ATOM     77  C   UNL A   1      47.353  26.455  33.007  1.00  0.00     0.198 A 
ATOM     78  C   UNL A   1      48.210  27.428  30.987  1.00  0.00     0.198 A 
ATOM     79  F   UNL A   1      46.910  28.972  29.778  1.00  0.00    -0.203 F 
ATOM     80  F   UNL A   1      47.521  25.667  34.077  1.00  0.00    -0.200 F 
ATOM     81  C   UNL A   1      48.374  26.589  32.079  1.00  0.00     0.200 A 
ATOM     82  F   UNL A   1      49.192  27.549  30.083  1.00  0.00    -0.200 F 
ATOM     83  F   UNL A   1      49.522  25.917  32.242  1.00  0.00    -0.200 F 
ENDBRANCH  59  73
BRANCH  60  84
ATOM     84  C   UNL A   1      37.200  32.638  30.646  1.00  0.00     0.064 A 
ATOM     85  C   UNL A   1      36.874  33.425  29.534  1.00  0.00     0.173 A 
ATOM     86  C   UNL A   1      36.218  32.459  31.632  1.00  0.00     0.173 A 
ATOM     87  F   UNL A   1      37.787  33.638  28.575  1.00  0.00    -0.203 F 
ATOM     88  C   UNL A   1      35.618  34.014  29.413  1.00  0.00     0.198 A 
ATOM     89  C   UNL A   1      34.954  33.029  31.499  1.00  0.00     0.198 A 
ATOM     90  F   UNL A   1      36.479  31.708  32.712  1.00  0.00    -0.203 F 
ATOM     91  F   UNL A   1      35.341  34.785  28.353  1.00  0.00    -0.200 F 
ATOM     92  C   UNL A   1      34.656  33.810  30.392  1.00  0.00     0.200 A 
ATOM     93  F   UNL A   1      34.022  32.816  32.438  1.00  0.00    -0.200 F 
ATOM     94  F   UNL A   1      33.444  34.367  30.269  1.00  0.00    -0.200 F 
ENDBRANCH  60  84
BRANCH  72  95
ATOM     95  C   UNL A   1      43.137  34.311  33.898  1.00  0.00     0.064 A 
ATOM     96  C   UNL A   1      42.994  34.334  35.293  1.00  0.00     0.173 A 
ATOM     97  C   UNL A   1      43.715  35.428  33.276  1.00  0.00     0.173 A 
ATOM     98  F   UNL A   1      42.432  33.297  35.931  1.00  0.00    -0.203 F 
ATOM     99  C   UNL A   1      43.397  35.442  36.033  1.00  0.00     0.198 A 
ATOM    100  C   UNL A   1      44.141  36.522  34.022  1.00  0.00     0.198 A 
ATOM    101  F   UNL A   1      43.876  35.452  31.944  1.00  0.00    -0.203 F 
ATOM    102  F   UNL A   1      43.214  35.461  37.362  1.00  0.00    -0.200 F 
ATOM    103  C   UNL A   1      43.976  36.531  35.399  1.00  0.00     0.200 A 
ATOM    104  F   UNL A   1      44.710  37.569  33.410  1.00  0.00    -0.200 F 
ATOM    105  F   UNL A   1      44.370  37.594  36.115  1.00  0.00    -0.200 F 
ENDBRANCH  72  95
ENDBRANCH  46  47
ENDBRANCH  38  41
ENDBRANCH  36  37
ENDBRANCH  35  36
ENDBRANCH   1  35
TORSDOF 15
ENDMDL
