MODEL 1
REMARK VINA RESULT:     -13.6      0.000      0.000
REMARK SMILES Cc1ccc2c(CC(=O)N3CCC(C(=O)NCCCNC(=O)c4ccc(-c5c6nc(c(-c7c(F)c(F)c(F)c(F)c7F)c7ccc([nH]7)c(-c7c(F)c(F)c(F)c(F)c7F)c7nc(c(-c8c(F)c(F)c(F)c(F)c8F)c8ccc5[nH]8)C=C7)C=C6)cc4)CC3)coc2c1
REMARK SMILES IDX 18 1 17 2 16 3 14 4 15 5 13 7 8 8 9 9 10 10 11 11 87 12
REMARK SMILES IDX 12 13 86 14 7 15 6 16 1 17 2 18 3 19 91 20 4 21 90 22 5 23
REMARK SMILES IDX 89 24 88 25 19 26 20 27 21 28 22 30 23 31 24 32 85 33 25 34
REMARK SMILES IDX 84 35 26 36 27 37 28 38 78 39 29 40 83 41 77 42 79 43 30 44
REMARK SMILES IDX 82 45 76 46 75 47 31 49 63 50 43 51 62 52 44 53 47 54 61 55
REMARK SMILES IDX 80 56 45 57 46 58 60 60 81 61 48 62 32 63 33 64 41 65 34 66
REMARK SMILES IDX 35 67 39 68 42 69 36 70 37 71 40 72 38 73 64 74 65 75 73 76
REMARK SMILES IDX 66 77 67 78 71 79 74 80 68 81 69 82 72 83 70 84 49 85 50 86
REMARK SMILES IDX 58 87 51 88 52 89 56 90 59 91 53 92 54 93 57 94 55 95
REMARK H PARENT 16 6 20 29 79 48 47 59
REMARK Flexibility Score: inf
ROOT
ATOM      1  C   UNL A   1      33.459  30.817  27.499  1.00  0.00     0.042 C 
ENDROOT
BRANCH   1   2
ATOM      2  C   UNL A   1      34.210  29.534  27.148  1.00  0.00     0.117 C 
BRANCH   2   3
ATOM      3  N   UNL A   1      34.276  29.321  25.711  1.00  0.00    -0.356 N 
ATOM      4  C   UNL A   1      33.593  28.501  24.875  1.00  0.00     0.223 C 
ATOM      5  O   UNL A   1      33.937  28.491  23.689  1.00  0.00    -0.275 OA
ATOM      6  H   UNL A   1      34.947  29.882  25.257  1.00  0.00     0.163 HD
BRANCH   4   7
ATOM      7  C   UNL A   1      32.424  27.649  25.338  1.00  0.00     0.082 C 
ATOM      8  C   UNL A   1      31.199  23.959  24.576  1.00  0.00     0.227 C 
ATOM      9  O   UNL A   1      31.186  23.969  23.339  1.00  0.00    -0.275 OA
ATOM     10  N   UNL A   1      31.032  25.140  25.292  1.00  0.00    -0.342 N 
ATOM     11  C   UNL A   1      30.406  26.280  24.635  1.00  0.00     0.120 C 
ATOM     12  C   UNL A   1      31.767  25.501  26.499  1.00  0.00     0.120 C 
ATOM     13  C   UNL A   1      31.438  27.317  24.210  1.00  0.00     0.035 C 
ATOM     14  C   UNL A   1      32.917  26.437  26.137  1.00  0.00     0.035 C 
BRANCH   8  15
ATOM     15  C   UNL A   1      31.158  22.618  25.311  1.00  0.00     0.139 C 
BRANCH  15  16
ATOM     16  C   UNL A   1      32.306  21.698  25.105  1.00  0.00     0.008 A 
ATOM     17  C   UNL A   1      37.979  21.926  25.530  1.00  0.00     0.044 C 
ATOM     18  C   UNL A   1      36.478  21.890  25.566  1.00  0.00    -0.047 A 
ATOM     19  C   UNL A   1      35.764  22.967  26.114  1.00  0.00     0.004 A 
ATOM     20  C   UNL A   1      35.794  20.812  24.981  1.00  0.00     0.051 A 
ATOM     21  C   UNL A   1      34.364  23.005  26.082  1.00  0.00     0.012 A 
ATOM     22  C   UNL A   1      34.402  20.884  24.954  1.00  0.00     0.134 A 
ATOM     23  C   UNL A   1      33.671  21.948  25.464  1.00  0.00     0.024 A 
ATOM     24  O   UNL A   1      33.565  19.965  24.398  1.00  0.00    -0.464 OA
ATOM     25  C   UNL A   1      32.303  20.454  24.505  1.00  0.00     0.200 A 
ENDBRANCH  15  16
ENDBRANCH   8  15
ENDBRANCH   4   7
ENDBRANCH   2   3
ENDBRANCH   1   2
BRANCH   1  26
ATOM     26  C   UNL A   1      34.366  31.966  27.946  1.00  0.00     0.118 C 
BRANCH  26  27
ATOM     27  N   UNL A   1      34.516  32.085  29.384  1.00  0.00    -0.352 N 
ATOM     28  C   UNL A   1      35.478  31.716  30.281  1.00  0.00     0.251 C 
ATOM     29  H   UNL A   1      33.750  32.533  29.810  1.00  0.00     0.163 HD
ATOM     30  O   UNL A   1      35.303  32.081  31.448  1.00  0.00    -0.269 OA
BRANCH  28  31
ATOM     31  C   UNL A   1      36.652  30.856  29.970  1.00  0.00     0.039 A 
ATOM     32  C   UNL A   1      36.650  29.461  29.949  1.00  0.00     0.014 A 
ATOM     33  C   UNL A   1      37.872  31.527  29.768  1.00  0.00     0.014 A 
ATOM     34  C   UNL A   1      37.844  28.753  29.897  1.00  0.00     0.010 A 
ATOM     35  C   UNL A   1      39.066  30.824  29.670  1.00  0.00     0.010 A 
ATOM     36  C   UNL A   1      39.053  29.439  29.818  1.00  0.00    -0.014 A 
BRANCH  36  37
ATOM     37  C   UNL A   1      40.279  28.661  29.957  1.00  0.00     0.031 A 
ATOM     38  C   UNL A   1      40.837  28.475  31.331  1.00  0.00     0.074 A 
ATOM     39  C   UNL A   1      40.835  28.052  28.891  1.00  0.00     0.049 A 
ATOM     40  N   UNL A   1      42.052  28.657  31.750  1.00  0.00    -0.248 NA
ATOM     41  C   UNL A   1      39.901  28.046  32.381  1.00  0.00     0.031 C 
ATOM     42  C   UNL A   1      40.287  27.900  27.540  1.00  0.00     0.029 A 
ATOM     43  N   UNL A   1      41.982  27.324  28.845  1.00  0.00    -0.354 N 
ATOM     44  C   UNL A   1      42.068  28.262  33.088  1.00  0.00     0.074 A 
ATOM     45  C   UNL A   1      40.704  27.950  33.441  1.00  0.00     0.031 C 
ATOM     46  C   UNL A   1      40.975  26.937  26.891  1.00  0.00     0.029 A 
ATOM     47  C   UNL A   1      42.078  26.507  27.733  1.00  0.00     0.049 A 
ATOM     48  H   UNL A   1      42.680  27.375  29.537  1.00  0.00     0.167 HD
ATOM     49  C   UNL A   1      43.210  28.104  33.816  1.00  0.00     0.037 A 
ATOM     50  C   UNL A   1      42.933  25.470  27.578  1.00  0.00     0.037 A 
ATOM     51  C   UNL A   1      44.327  28.800  33.248  1.00  0.00     0.049 A 
ATOM     52  C   UNL A   1      44.060  25.664  28.527  1.00  0.00     0.074 A 
ATOM     53  C   UNL A   1      44.617  30.133  33.032  1.00  0.00     0.029 A 
ATOM     54  N   UNL A   1      45.258  28.108  32.516  1.00  0.00    -0.354 N 
ATOM     55  N   UNL A   1      44.944  26.620  28.432  1.00  0.00    -0.248 NA
ATOM     56  C   UNL A   1      43.953  25.044  29.839  1.00  0.00     0.031 C 
ATOM     57  C   UNL A   1      45.340  30.161  31.804  1.00  0.00     0.029 A 
ATOM     58  C   UNL A   1      45.462  28.840  31.372  1.00  0.00     0.049 A 
ATOM     59  H   UNL A   1      45.692  27.259  32.761  1.00  0.00     0.167 HD
ATOM     60  C   UNL A   1      45.211  26.992  29.742  1.00  0.00     0.074 A 
ATOM     61  C   UNL A   1      44.643  25.928  30.563  1.00  0.00     0.031 C 
ATOM     62  C   UNL A   1      45.619  28.257  30.061  1.00  0.00     0.037 A 
BRANCH  49  63
ATOM     63  C   UNL A   1      43.339  27.166  34.982  1.00  0.00     0.064 A 
ATOM     64  C   UNL A   1      43.619  27.647  36.274  1.00  0.00     0.173 A 
ATOM     65  C   UNL A   1      43.417  25.767  34.816  1.00  0.00     0.173 A 
ATOM     66  F   UNL A   1      43.622  28.964  36.528  1.00  0.00    -0.203 F 
ATOM     67  C   UNL A   1      43.961  26.785  37.322  1.00  0.00     0.198 A 
ATOM     68  C   UNL A   1      43.710  24.907  35.873  1.00  0.00     0.198 A 
ATOM     69  F   UNL A   1      43.300  25.202  33.606  1.00  0.00    -0.203 F 
ATOM     70  F   UNL A   1      44.298  27.289  38.517  1.00  0.00    -0.200 F 
ATOM     71  C   UNL A   1      43.999  25.416  37.123  1.00  0.00     0.200 A 
ATOM     72  F   UNL A   1      43.765  23.585  35.654  1.00  0.00    -0.200 F 
ATOM     73  F   UNL A   1      44.355  24.592  38.117  1.00  0.00    -0.200 F 
ENDBRANCH  49  63
BRANCH  50  74
ATOM     74  C   UNL A   1      42.615  24.173  26.939  1.00  0.00     0.064 A 
ATOM     75  C   UNL A   1      43.423  23.641  25.926  1.00  0.00     0.173 A 
ATOM     76  C   UNL A   1      41.633  23.311  27.475  1.00  0.00     0.173 A 
ATOM     77  F   UNL A   1      44.421  24.372  25.408  1.00  0.00    -0.203 F 
ATOM     78  C   UNL A   1      43.255  22.329  25.472  1.00  0.00     0.198 A 
ATOM     79  C   UNL A   1      41.455  22.010  27.010  1.00  0.00     0.198 A 
ATOM     80  F   UNL A   1      40.883  23.682  28.523  1.00  0.00    -0.203 F 
ATOM     81  F   UNL A   1      44.079  21.835  24.537  1.00  0.00    -0.200 F 
ATOM     82  C   UNL A   1      42.272  21.515  26.014  1.00  0.00     0.200 A 
ATOM     83  F   UNL A   1      40.525  21.225  27.572  1.00  0.00    -0.200 F 
ATOM     84  F   UNL A   1      42.140  20.244  25.608  1.00  0.00    -0.200 F 
ENDBRANCH  50  74
BRANCH  62  85
ATOM     85  C   UNL A   1      45.964  29.197  28.936  1.00  0.00     0.064 A 
ATOM     86  C   UNL A   1      45.006  29.983  28.269  1.00  0.00     0.173 A 
ATOM     87  C   UNL A   1      47.311  29.443  28.635  1.00  0.00     0.173 A 
ATOM     88  F   UNL A   1      43.710  29.902  28.585  1.00  0.00    -0.203 F 
ATOM     89  C   UNL A   1      45.374  30.926  27.311  1.00  0.00     0.198 A 
ATOM     90  C   UNL A   1      47.679  30.414  27.705  1.00  0.00     0.198 A 
ATOM     91  F   UNL A   1      48.278  28.777  29.286  1.00  0.00    -0.203 F 
ATOM     92  F   UNL A   1      44.434  31.649  26.684  1.00  0.00    -0.200 F 
ATOM     93  C   UNL A   1      46.712  31.146  27.034  1.00  0.00     0.200 A 
ATOM     94  F   UNL A   1      48.977  30.664  27.481  1.00  0.00    -0.200 F 
ATOM     95  F   UNL A   1      47.070  32.084  26.147  1.00  0.00    -0.200 F 
ENDBRANCH  62  85
ENDBRANCH  36  37
ENDBRANCH  28  31
ENDBRANCH  26  27
ENDBRANCH   1  26
TORSDOF 12
ENDMDL
MODEL 2
REMARK VINA RESULT:     -13.5      3.237      8.846
REMARK SMILES Cc1ccc2c(CC(=O)N3CCC(C(=O)NCCCNC(=O)c4ccc(-c5c6nc(c(-c7c(F)c(F)c(F)c(F)c7F)c7ccc([nH]7)c(-c7c(F)c(F)c(F)c(F)c7F)c7nc(c(-c8c(F)c(F)c(F)c(F)c8F)c8ccc5[nH]8)C=C7)C=C6)cc4)CC3)coc2c1
REMARK SMILES IDX 18 1 17 2 16 3 14 4 15 5 13 7 8 8 9 9 10 10 11 11 87 12
REMARK SMILES IDX 12 13 86 14 7 15 6 16 1 17 2 18 3 19 91 20 4 21 90 22 5 23
REMARK SMILES IDX 89 24 88 25 19 26 20 27 21 28 22 30 23 31 24 32 85 33 25 34
REMARK SMILES IDX 84 35 26 36 27 37 28 38 78 39 29 40 83 41 77 42 79 43 30 44
REMARK SMILES IDX 82 45 76 46 75 47 31 49 63 50 43 51 62 52 44 53 47 54 61 55
REMARK SMILES IDX 80 56 45 57 46 58 60 60 81 61 48 62 32 63 33 64 41 65 34 66
REMARK SMILES IDX 35 67 39 68 42 69 36 70 37 71 40 72 38 73 64 74 65 75 73 76
REMARK SMILES IDX 66 77 67 78 71 79 74 80 68 81 69 82 72 83 70 84 49 85 50 86
REMARK SMILES IDX 58 87 51 88 52 89 56 90 59 91 53 92 54 93 57 94 55 95
REMARK H PARENT 16 6 20 29 79 48 47 59
REMARK Flexibility Score: inf
ROOT
ATOM      1  C   UNL A   1      40.650  20.175  26.759  1.00  0.00     0.042 C 
ENDROOT
BRANCH   1   2
ATOM      2  C   UNL A   1      39.673  20.909  25.841  1.00  0.00     0.117 C 
BRANCH   2   3
ATOM      3  N   UNL A   1      39.208  22.154  26.430  1.00  0.00    -0.356 N 
ATOM      4  C   UNL A   1      38.129  22.936  26.183  1.00  0.00     0.223 C 
ATOM      5  O   UNL A   1      38.045  23.997  26.809  1.00  0.00    -0.275 OA
ATOM      6  H   UNL A   1      39.789  22.494  27.148  1.00  0.00     0.163 HD
BRANCH   4   7
ATOM      7  C   UNL A   1      37.031  22.534  25.212  1.00  0.00     0.082 C 
ATOM      8  C   UNL A   1      33.071  22.658  25.287  1.00  0.00     0.227 C 
ATOM      9  O   UNL A   1      32.842  22.094  26.363  1.00  0.00    -0.275 OA
ATOM     10  N   UNL A   1      34.237  22.378  24.579  1.00  0.00    -0.342 N 
ATOM     11  C   UNL A   1      34.946  21.134  24.853  1.00  0.00     0.120 C 
ATOM     12  C   UNL A   1      35.050  23.364  23.878  1.00  0.00     0.120 C 
ATOM     13  C   UNL A   1      36.172  21.370  25.724  1.00  0.00     0.035 C 
ATOM     14  C   UNL A   1      36.237  23.762  24.750  1.00  0.00     0.035 C 
BRANCH   8  15
ATOM     15  C   UNL A   1      31.964  23.478  24.623  1.00  0.00     0.139 C 
BRANCH  15  16
ATOM     16  C   UNL A   1      31.484  24.681  25.350  1.00  0.00     0.008 A 
ATOM     17  C   UNL A   1      33.725  29.485  27.427  1.00  0.00     0.044 C 
ATOM     18  C   UNL A   1      33.173  28.267  26.742  1.00  0.00    -0.047 A 
ATOM     19  C   UNL A   1      33.992  27.511  25.890  1.00  0.00     0.004 A 
ATOM     20  C   UNL A   1      31.861  27.848  27.020  1.00  0.00     0.051 A 
ATOM     21  C   UNL A   1      33.535  26.321  25.308  1.00  0.00     0.012 A 
ATOM     22  C   UNL A   1      31.440  26.655  26.435  1.00  0.00     0.134 A 
ATOM     23  C   UNL A   1      32.236  25.873  25.610  1.00  0.00     0.024 A 
ATOM     24  O   UNL A   1      30.226  26.064  26.613  1.00  0.00    -0.464 OA
ATOM     25  C   UNL A   1      30.254  24.882  25.945  1.00  0.00     0.200 A 
ENDBRANCH  15  16
ENDBRANCH   8  15
ENDBRANCH   4   7
ENDBRANCH   2   3
ENDBRANCH   1   2
BRANCH   1  26
ATOM     26  C   UNL A   1      41.967  20.921  26.989  1.00  0.00     0.118 C 
BRANCH  26  27
ATOM     27  N   UNL A   1      42.461  21.632  25.827  1.00  0.00    -0.352 N 
ATOM     28  C   UNL A   1      42.652  22.949  25.518  1.00  0.00     0.251 C 
ATOM     29  H   UNL A   1      42.720  21.029  25.093  1.00  0.00     0.163 HD
ATOM     30  O   UNL A   1      43.202  23.182  24.436  1.00  0.00    -0.269 OA
BRANCH  28  31
ATOM     31  C   UNL A   1      42.179  24.097  26.340  1.00  0.00     0.039 A 
ATOM     32  C   UNL A   1      41.327  25.111  25.899  1.00  0.00     0.014 A 
ATOM     33  C   UNL A   1      42.715  24.189  27.637  1.00  0.00     0.014 A 
ATOM     34  C   UNL A   1      41.148  26.262  26.655  1.00  0.00     0.010 A 
ATOM     35  C   UNL A   1      42.504  25.319  28.418  1.00  0.00     0.010 A 
ATOM     36  C   UNL A   1      41.785  26.388  27.887  1.00  0.00    -0.014 A 
BRANCH  36  37
ATOM     37  C   UNL A   1      41.718  27.684  28.551  1.00  0.00     0.031 A 
ATOM     38  C   UNL A   1      42.796  28.677  28.257  1.00  0.00     0.074 A 
ATOM     39  C   UNL A   1      40.666  28.008  29.328  1.00  0.00     0.049 A 
ATOM     40  N   UNL A   1      43.511  29.374  29.086  1.00  0.00    -0.248 NA
ATOM     41  C   UNL A   1      43.131  28.904  26.843  1.00  0.00     0.031 C 
ATOM     42  C   UNL A   1      39.407  27.279  29.508  1.00  0.00     0.029 A 
ATOM     43  N   UNL A   1      40.467  29.151  30.037  1.00  0.00    -0.354 N 
ATOM     44  C   UNL A   1      44.312  30.210  28.307  1.00  0.00     0.074 A 
ATOM     45  C   UNL A   1      44.079  29.837  26.933  1.00  0.00     0.031 C 
ATOM     46  C   UNL A   1      38.498  28.103  30.070  1.00  0.00     0.029 A 
ATOM     47  C   UNL A   1      39.149  29.359  30.400  1.00  0.00     0.049 A 
ATOM     48  H   UNL A   1      41.194  29.772  30.272  1.00  0.00     0.167 HD
ATOM     49  C   UNL A   1      45.046  31.241  28.813  1.00  0.00     0.037 A 
ATOM     50  C   UNL A   1      38.615  30.527  30.826  1.00  0.00     0.037 A 
ATOM     51  C   UNL A   1      45.283  31.111  30.221  1.00  0.00     0.049 A 
ATOM     52  C   UNL A   1      39.725  31.378  31.325  1.00  0.00     0.074 A 
ATOM     53  C   UNL A   1      45.976  30.201  30.995  1.00  0.00     0.029 A 
ATOM     54  N   UNL A   1      44.527  31.834  31.107  1.00  0.00    -0.354 N 
ATOM     55  N   UNL A   1      40.425  31.120  32.396  1.00  0.00    -0.248 NA
ATOM     56  C   UNL A   1      40.342  32.303  30.386  1.00  0.00     0.031 C 
ATOM     57  C   UNL A   1      45.216  30.082  32.196  1.00  0.00     0.029 A 
ATOM     58  C   UNL A   1      44.128  30.948  32.078  1.00  0.00     0.049 A 
ATOM     59  H   UNL A   1      44.314  32.794  31.059  1.00  0.00     0.167 HD
ATOM     60  C   UNL A   1      41.718  31.517  32.082  1.00  0.00     0.074 A 
ATOM     61  C   UNL A   1      41.585  32.319  30.870  1.00  0.00     0.031 C 
ATOM     62  C   UNL A   1      42.809  30.936  32.665  1.00  0.00     0.037 A 
BRANCH  49  63
ATOM     63  C   UNL A   1      45.417  32.469  28.032  1.00  0.00     0.064 A 
ATOM     64  C   UNL A   1      44.468  33.475  27.768  1.00  0.00     0.173 A 
ATOM     65  C   UNL A   1      46.639  32.579  27.336  1.00  0.00     0.173 A 
ATOM     66  F   UNL A   1      43.255  33.438  28.339  1.00  0.00    -0.203 F 
ATOM     67  C   UNL A   1      44.727  34.511  26.864  1.00  0.00     0.198 A 
ATOM     68  C   UNL A   1      46.912  33.638  26.473  1.00  0.00     0.198 A 
ATOM     69  F   UNL A   1      47.566  31.613  27.404  1.00  0.00    -0.203 F 
ATOM     70  F   UNL A   1      43.769  35.404  26.581  1.00  0.00    -0.200 F 
ATOM     71  C   UNL A   1      45.951  34.596  26.223  1.00  0.00     0.200 A 
ATOM     72  F   UNL A   1      48.095  33.690  25.843  1.00  0.00    -0.200 F 
ATOM     73  F   UNL A   1      46.188  35.570  25.335  1.00  0.00    -0.200 F 
ENDBRANCH  49  63
BRANCH  50  74
ATOM     74  C   UNL A   1      37.278  31.051  30.464  1.00  0.00     0.064 A 
ATOM     75  C   UNL A   1      36.347  31.413  31.445  1.00  0.00     0.173 A 
ATOM     76  C   UNL A   1      36.971  31.428  29.139  1.00  0.00     0.173 A 
ATOM     77  F   UNL A   1      36.593  31.149  32.737  1.00  0.00    -0.203 F 
ATOM     78  C   UNL A   1      35.176  32.106  31.120  1.00  0.00     0.198 A 
ATOM     79  C   UNL A   1      35.797  32.102  28.813  1.00  0.00     0.198 A 
ATOM     80  F   UNL A   1      37.846  31.229  28.141  1.00  0.00    -0.203 F 
ATOM     81  F   UNL A   1      34.331  32.483  32.090  1.00  0.00    -0.200 F 
ATOM     82  C   UNL A   1      34.902  32.450  29.805  1.00  0.00     0.200 A 
ATOM     83  F   UNL A   1      35.566  32.460  27.541  1.00  0.00    -0.200 F 
ATOM     84  F   UNL A   1      33.801  33.151  29.499  1.00  0.00    -0.200 F 
ENDBRANCH  50  74
BRANCH  62  85
ATOM     85  C   UNL A   1      42.582  29.981  33.807  1.00  0.00     0.064 A 
ATOM     86  C   UNL A   1      42.234  28.630  33.622  1.00  0.00     0.173 A 
ATOM     87  C   UNL A   1      42.888  30.388  35.113  1.00  0.00     0.173 A 
ATOM     88  F   UNL A   1      42.048  28.130  32.397  1.00  0.00    -0.203 F 
ATOM     89  C   UNL A   1      42.143  27.747  34.696  1.00  0.00     0.198 A 
ATOM     90  C   UNL A   1      42.835  29.493  36.180  1.00  0.00     0.198 A 
ATOM     91  F   UNL A   1      43.295  31.645  35.349  1.00  0.00    -0.203 F 
ATOM     92  F   UNL A   1      41.795  26.468  34.487  1.00  0.00    -0.200 F 
ATOM     93  C   UNL A   1      42.451  28.177  35.975  1.00  0.00     0.200 A 
ATOM     94  F   UNL A   1      43.189  29.898  37.409  1.00  0.00    -0.200 F 
ATOM     95  F   UNL A   1      42.408  27.318  37.003  1.00  0.00    -0.200 F 
ENDBRANCH  62  85
ENDBRANCH  36  37
ENDBRANCH  28  31
ENDBRANCH  26  27
ENDBRANCH   1  26
TORSDOF 12
ENDMDL
MODEL 3
REMARK VINA RESULT:     -13.4      3.366      8.978
REMARK SMILES Cc1ccc2c(CC(=O)N3CCC(C(=O)NCCCNC(=O)c4ccc(-c5c6nc(c(-c7c(F)c(F)c(F)c(F)c7F)c7ccc([nH]7)c(-c7c(F)c(F)c(F)c(F)c7F)c7nc(c(-c8c(F)c(F)c(F)c(F)c8F)c8ccc5[nH]8)C=C7)C=C6)cc4)CC3)coc2c1
REMARK SMILES IDX 18 1 17 2 16 3 14 4 15 5 13 7 8 8 9 9 10 10 11 11 87 12
REMARK SMILES IDX 12 13 86 14 7 15 6 16 1 17 2 18 3 19 91 20 4 21 90 22 5 23
REMARK SMILES IDX 89 24 88 25 19 26 20 27 21 28 22 30 23 31 24 32 85 33 25 34
REMARK SMILES IDX 84 35 26 36 27 37 28 38 78 39 29 40 83 41 77 42 79 43 30 44
REMARK SMILES IDX 82 45 76 46 75 47 31 49 63 50 43 51 62 52 44 53 47 54 61 55
REMARK SMILES IDX 80 56 45 57 46 58 60 60 81 61 48 62 32 63 33 64 41 65 34 66
REMARK SMILES IDX 35 67 39 68 42 69 36 70 37 71 40 72 38 73 64 74 65 75 73 76
REMARK SMILES IDX 66 77 67 78 71 79 74 80 68 81 69 82 72 83 70 84 49 85 50 86
REMARK SMILES IDX 58 87 51 88 52 89 56 90 59 91 53 92 54 93 57 94 55 95
REMARK H PARENT 16 6 20 29 79 48 47 59
REMARK Flexibility Score: inf
ROOT
ATOM      1  C   UNL A   1      38.672  21.100  25.388  1.00  0.00     0.042 C 
ENDROOT
BRANCH   1   2
ATOM      2  C   UNL A   1      37.577  22.163  25.306  1.00  0.00     0.117 C 
BRANCH   2   3
ATOM      3  N   UNL A   1      36.448  21.845  26.165  1.00  0.00    -0.356 N 
ATOM      4  C   UNL A   1      35.110  21.823  25.947  1.00  0.00     0.223 C 
ATOM      5  O   UNL A   1      34.385  21.584  26.916  1.00  0.00    -0.275 OA
ATOM      6  H   UNL A   1      36.705  21.598  27.082  1.00  0.00     0.163 HD
BRANCH   4   7
ATOM      7  C   UNL A   1      34.501  22.039  24.572  1.00  0.00     0.082 C 
ATOM      8  C   UNL A   1      31.578  24.306  23.152  1.00  0.00     0.227 C 
ATOM      9  O   UNL A   1      30.658  24.010  23.925  1.00  0.00    -0.275 OA
ATOM     10  N   UNL A   1      32.606  23.401  22.902  1.00  0.00    -0.342 N 
ATOM     11  C   UNL A   1      32.383  21.988  23.175  1.00  0.00     0.120 C 
ATOM     12  C   UNL A   1      34.016  23.750  22.775  1.00  0.00     0.120 C 
ATOM     13  C   UNL A   1      33.047  21.557  24.476  1.00  0.00     0.035 C 
ATOM     14  C   UNL A   1      34.733  23.477  24.093  1.00  0.00     0.035 C 
BRANCH   8  15
ATOM     15  C   UNL A   1      31.454  25.564  22.291  1.00  0.00     0.139 C 
BRANCH  15  16
ATOM     16  C   UNL A   1      31.314  26.859  23.004  1.00  0.00     0.008 A 
ATOM     17  C   UNL A   1      33.919  29.595  27.263  1.00  0.00     0.044 C 
ATOM     18  C   UNL A   1      33.361  28.884  26.063  1.00  0.00    -0.047 A 
ATOM     19  C   UNL A   1      34.013  27.751  25.554  1.00  0.00     0.004 A 
ATOM     20  C   UNL A   1      32.145  29.313  25.504  1.00  0.00     0.051 A 
ATOM     21  C   UNL A   1      33.471  27.013  24.493  1.00  0.00     0.012 A 
ATOM     22  C   UNL A   1      31.626  28.552  24.457  1.00  0.00     0.134 A 
ATOM     23  C   UNL A   1      32.235  27.412  23.951  1.00  0.00     0.024 A 
ATOM     24  O   UNL A   1      30.448  28.779  23.815  1.00  0.00    -0.464 OA
ATOM     25  C   UNL A   1      30.272  27.763  22.929  1.00  0.00     0.200 A 
ENDBRANCH  15  16
ENDBRANCH   8  15
ENDBRANCH   4   7
ENDBRANCH   2   3
ENDBRANCH   1   2
BRANCH   1  26
ATOM     26  C   UNL A   1      39.798  21.440  26.366  1.00  0.00     0.118 C 
BRANCH  26  27
ATOM     27  N   UNL A   1      41.007  21.933  25.737  1.00  0.00    -0.352 N 
ATOM     28  C   UNL A   1      41.757  23.069  25.859  1.00  0.00     0.251 C 
ATOM     29  H   UNL A   1      41.373  21.307  25.072  1.00  0.00     0.163 HD
ATOM     30  O   UNL A   1      42.810  23.100  25.213  1.00  0.00    -0.269 OA
BRANCH  28  31
ATOM     31  C   UNL A   1      41.360  24.276  26.634  1.00  0.00     0.039 A 
ATOM     32  C   UNL A   1      40.503  25.281  26.184  1.00  0.00     0.014 A 
ATOM     33  C   UNL A   1      41.978  24.435  27.888  1.00  0.00     0.014 A 
ATOM     34  C   UNL A   1      40.395  26.481  26.876  1.00  0.00     0.010 A 
ATOM     35  C   UNL A   1      41.839  25.615  28.608  1.00  0.00     0.010 A 
ATOM     36  C   UNL A   1      41.111  26.667  28.056  1.00  0.00    -0.014 A 
BRANCH  36  37
ATOM     37  C   UNL A   1      41.111  28.003  28.640  1.00  0.00     0.031 A 
ATOM     38  C   UNL A   1      42.200  28.943  28.234  1.00  0.00     0.074 A 
ATOM     39  C   UNL A   1      40.109  28.405  29.445  1.00  0.00     0.049 A 
ATOM     40  N   UNL A   1      42.974  29.667  28.982  1.00  0.00    -0.248 NA
ATOM     41  C   UNL A   1      42.470  29.073  26.794  1.00  0.00     0.031 C 
ATOM     42  C   UNL A   1      38.841  27.726  29.731  1.00  0.00     0.029 A 
ATOM     43  N   UNL A   1      39.976  29.594  30.090  1.00  0.00    -0.354 N 
ATOM     44  C   UNL A   1      43.757  30.430  28.114  1.00  0.00     0.074 A 
ATOM     45  C   UNL A   1      43.445  29.981  26.779  1.00  0.00     0.031 C 
ATOM     46  C   UNL A   1      37.984  28.610  30.284  1.00  0.00     0.029 A 
ATOM     47  C   UNL A   1      38.684  29.864  30.502  1.00  0.00     0.049 A 
ATOM     48  H   UNL A   1      40.730  30.206  30.251  1.00  0.00     0.167 HD
ATOM     49  C   UNL A   1      44.543  31.467  28.519  1.00  0.00     0.037 A 
ATOM     50  C   UNL A   1      38.203  31.070  30.880  1.00  0.00     0.037 A 
ATOM     51  C   UNL A   1      44.847  31.417  29.919  1.00  0.00     0.049 A 
ATOM     52  C   UNL A   1      39.359  31.917  31.271  1.00  0.00     0.074 A 
ATOM     53  C   UNL A   1      45.553  30.535  30.715  1.00  0.00     0.029 A 
ATOM     54  N   UNL A   1      44.155  32.215  30.794  1.00  0.00    -0.354 N 
ATOM     55  N   UNL A   1      40.105  31.704  32.321  1.00  0.00    -0.248 NA
ATOM     56  C   UNL A   1      39.953  32.764  30.248  1.00  0.00     0.031 C 
ATOM     57  C   UNL A   1      44.851  30.512  31.956  1.00  0.00     0.029 A 
ATOM     58  C   UNL A   1      43.782  31.402  31.836  1.00  0.00     0.049 A 
ATOM     59  H   UNL A   1      43.966  33.176  30.696  1.00  0.00     0.167 HD
ATOM     60  C   UNL A   1      41.391  32.042  31.921  1.00  0.00     0.074 A 
ATOM     61  C   UNL A   1      41.219  32.773  30.669  1.00  0.00     0.031 C 
ATOM     62  C   UNL A   1      42.494  31.466  32.486  1.00  0.00     0.037 A 
BRANCH  49  63
ATOM     63  C   UNL A   1      44.907  32.634  27.646  1.00  0.00     0.064 A 
ATOM     64  C   UNL A   1      46.157  32.697  27.001  1.00  0.00     0.173 A 
ATOM     65  C   UNL A   1      44.136  33.815  27.608  1.00  0.00     0.173 A 
ATOM     66  F   UNL A   1      46.990  31.647  27.022  1.00  0.00    -0.203 F 
ATOM     67  C   UNL A   1      46.601  33.864  26.370  1.00  0.00     0.198 A 
ATOM     68  C   UNL A   1      44.559  34.960  26.937  1.00  0.00     0.198 A 
ATOM     69  F   UNL A   1      42.990  33.919  28.296  1.00  0.00    -0.203 F 
ATOM     70  F   UNL A   1      47.830  33.907  25.837  1.00  0.00    -0.200 F 
ATOM     71  C   UNL A   1      45.800  34.992  26.333  1.00  0.00     0.200 A 
ATOM     72  F   UNL A   1      43.779  36.051  26.932  1.00  0.00    -0.200 F 
ATOM     73  F   UNL A   1      46.237  36.119  25.756  1.00  0.00    -0.200 F 
ENDBRANCH  49  63
BRANCH  50  74
ATOM     74  C   UNL A   1      36.865  31.612  30.551  1.00  0.00     0.064 A 
ATOM     75  C   UNL A   1      35.988  32.046  31.552  1.00  0.00     0.173 A 
ATOM     76  C   UNL A   1      36.508  31.931  29.223  1.00  0.00     0.173 A 
ATOM     77  F   UNL A   1      36.285  31.840  32.844  1.00  0.00    -0.203 F 
ATOM     78  C   UNL A   1      34.820  32.753  31.244  1.00  0.00     0.198 A 
ATOM     79  C   UNL A   1      35.337  32.619  28.915  1.00  0.00     0.198 A 
ATOM     80  F   UNL A   1      37.332  31.660  28.200  1.00  0.00    -0.203 F 
ATOM     81  F   UNL A   1      34.030  33.199  32.230  1.00  0.00    -0.200 F 
ATOM     82  C   UNL A   1      34.496  33.039  29.926  1.00  0.00     0.200 A 
ATOM     83  F   UNL A   1      35.058  32.920  27.638  1.00  0.00    -0.200 F 
ATOM     84  F   UNL A   1      33.400  33.753  29.635  1.00  0.00    -0.200 F 
ENDBRANCH  50  74
BRANCH  62  85
ATOM     85  C   UNL A   1      42.298  30.590  33.695  1.00  0.00     0.064 A 
ATOM     86  C   UNL A   1      41.940  29.231  33.610  1.00  0.00     0.173 A 
ATOM     87  C   UNL A   1      42.646  31.079  34.961  1.00  0.00     0.173 A 
ATOM     88  F   UNL A   1      41.714  28.652  32.427  1.00  0.00    -0.203 F 
ATOM     89  C   UNL A   1      41.879  28.421  34.743  1.00  0.00     0.198 A 
ATOM     90  C   UNL A   1      42.623  30.257  36.087  1.00  0.00     0.198 A 
ATOM     91  F   UNL A   1      43.065  32.347  35.101  1.00  0.00    -0.203 F 
ATOM     92  F   UNL A   1      41.520  27.133  34.629  1.00  0.00    -0.200 F 
ATOM     93  C   UNL A   1      42.227  28.933  35.980  1.00  0.00     0.200 A 
ATOM     94  F   UNL A   1      43.015  30.741  37.274  1.00  0.00    -0.200 F 
ATOM     95  F   UNL A   1      42.213  28.144  37.064  1.00  0.00    -0.200 F 
ENDBRANCH  62  85
ENDBRANCH  36  37
ENDBRANCH  28  31
ENDBRANCH  26  27
ENDBRANCH   1  26
TORSDOF 12
ENDMDL
