MODEL 1
REMARK VINA RESULT:      -9.9      0.000      0.000
REMARK SMILES [NH3+][C@H](CSCc1ccco1)C(=O)NCCCNC(=O)c1ccc(-c2c3nc(c(-c4c(F)c(F)c(F)c(F)c4F)c4ccc([nH]4)c(-c4c(F)c(F)c(F)c(F)c4F)c4nc(c(-c5c(F)c(F)c(F)c(F)c5F)c5ccc2[nH]5)C=C4)C=C3)cc1
REMARK SMILES IDX 14 1 13 2 11 3 12 4 2 6 1 7 3 11 4 12 5 13 6 14 7 15 10 16
REMARK SMILES IDX 8 17 9 18 15 19 16 20 17 21 18 22 19 24 20 25 21 26 82 27
REMARK SMILES IDX 22 28 81 29 23 30 24 31 25 32 75 33 26 34 80 35 74 36 76 37
REMARK SMILES IDX 27 38 79 39 73 40 72 41 28 43 60 44 40 45 59 46 41 47 44 48
REMARK SMILES IDX 58 49 77 50 42 51 43 52 57 54 78 55 45 56 29 57 30 58 38 59
REMARK SMILES IDX 31 60 32 61 36 62 39 63 33 64 34 65 37 66 35 67 61 68 62 69
REMARK SMILES IDX 70 70 63 71 64 72 68 73 71 74 65 75 66 76 69 77 67 78 46 79
REMARK SMILES IDX 47 80 55 81 48 82 49 83 53 84 56 85 50 86 51 87 54 88 52 89
REMARK H PARENT 13 5 1 8 1 9 1 10 17 23 76 42 44 53
REMARK Flexibility Score: inf
ROOT
ATOM      1  C   UNL A   1      34.291  35.393  28.883  1.00  0.00     0.118 C 
ENDROOT
BRANCH   1   2
ATOM      2  N   UNL A   1      33.510  36.256  29.756  1.00  0.00    -0.351 N 
ATOM      3  C   UNL A   1      33.243  36.303  31.088  1.00  0.00     0.279 C 
ATOM      4  O   UNL A   1      32.512  37.238  31.441  1.00  0.00    -0.268 OA
ATOM      5  H   UNL A   1      33.066  36.981  29.261  1.00  0.00     0.163 HD
BRANCH   3   6
ATOM      6  C   UNL A   1      33.699  35.271  32.135  1.00  0.00     0.280 C 
BRANCH   6   7
ATOM      7  N   UNL A   1      32.603  34.617  32.875  1.00  0.00    -0.347 N 
ATOM      8  H   UNL A   1      31.733  35.122  32.709  1.00  0.00     0.345 HD
ATOM      9  H   UNL A   1      32.816  34.623  33.872  1.00  0.00     0.345 HD
ATOM     10  H   UNL A   1      32.504  33.654  32.554  1.00  0.00     0.345 HD
ENDBRANCH   6   7
BRANCH   6  11
ATOM     11  C   UNL A   1      34.895  35.731  32.995  1.00  0.00     0.145 C 
BRANCH  11  12
ATOM     12  S   UNL A   1      36.249  34.538  33.274  1.00  0.00    -0.147 SA
BRANCH  12  13
ATOM     13  C   UNL A   1      36.136  33.567  31.737  1.00  0.00     0.145 C 
BRANCH  13  14
ATOM     14  C   UNL A   1      37.223  33.827  30.768  1.00  0.00     0.113 A 
ATOM     15  C   UNL A   1      37.461  33.374  29.486  1.00  0.00     0.046 A 
ATOM     16  O   UNL A   1      38.282  34.562  31.208  1.00  0.00    -0.468 OA
ATOM     17  C   UNL A   1      38.743  33.851  29.128  1.00  0.00     0.042 A 
ATOM     18  C   UNL A   1      39.198  34.574  30.205  1.00  0.00     0.195 A 
ENDBRANCH  13  14
ENDBRANCH  12  13
ENDBRANCH  11  12
ENDBRANCH   6  11
ENDBRANCH   3   6
ENDBRANCH   1   2
BRANCH   1  19
ATOM     19  C   UNL A   1      33.537  34.185  28.316  1.00  0.00     0.042 C 
BRANCH  19  20
ATOM     20  C   UNL A   1      34.086  32.801  28.654  1.00  0.00     0.118 C 
BRANCH  20  21
ATOM     21  N   UNL A   1      33.612  31.769  27.754  1.00  0.00    -0.352 N 
ATOM     22  C   UNL A   1      34.250  30.635  27.306  1.00  0.00     0.251 C 
ATOM     23  H   UNL A   1      32.698  31.898  27.411  1.00  0.00     0.163 HD
ATOM     24  O   UNL A   1      33.749  29.983  26.394  1.00  0.00    -0.269 OA
BRANCH  22  25
ATOM     25  C   UNL A   1      35.540  30.190  27.889  1.00  0.00     0.039 A 
ATOM     26  C   UNL A   1      35.526  29.585  29.150  1.00  0.00     0.014 A 
ATOM     27  C   UNL A   1      36.763  30.434  27.256  1.00  0.00     0.014 A 
ATOM     28  C   UNL A   1      36.724  29.191  29.757  1.00  0.00     0.010 A 
ATOM     29  C   UNL A   1      37.957  29.994  27.838  1.00  0.00     0.010 A 
ATOM     30  C   UNL A   1      37.951  29.379  29.100  1.00  0.00    -0.014 A 
BRANCH  30  31
ATOM     31  C   UNL A   1      39.228  28.960  29.742  1.00  0.00     0.031 A 
ATOM     32  C   UNL A   1      39.730  29.665  30.974  1.00  0.00     0.074 A 
ATOM     33  C   UNL A   1      39.956  27.962  29.206  1.00  0.00     0.049 A 
ATOM     34  N   UNL A   1      40.829  29.457  31.658  1.00  0.00    -0.248 NA
ATOM     35  C   UNL A   1      38.896  30.756  31.497  1.00  0.00     0.031 C 
ATOM     36  C   UNL A   1      39.603  27.215  28.000  1.00  0.00     0.029 A 
ATOM     37  N   UNL A   1      41.148  27.407  29.605  1.00  0.00    -0.354 N 
ATOM     38  C   UNL A   1      40.822  30.396  32.682  1.00  0.00     0.074 A 
ATOM     39  C   UNL A   1      39.632  31.202  32.506  1.00  0.00     0.031 C 
ATOM     40  C   UNL A   1      40.548  26.289  27.765  1.00  0.00     0.029 A 
ATOM     41  C   UNL A   1      41.587  26.395  28.787  1.00  0.00     0.049 A 
ATOM     42  H   UNL A   1      41.641  27.707  30.403  1.00  0.00     0.167 HD
ATOM     43  C   UNL A   1      41.714  30.560  33.689  1.00  0.00     0.037 A 
ATOM     44  C   UNL A   1      42.701  25.641  28.849  1.00  0.00     0.037 A 
ATOM     45  C   UNL A   1      42.885  29.746  33.887  1.00  0.00     0.049 A 
ATOM     46  C   UNL A   1      43.679  25.847  29.974  1.00  0.00     0.074 A 
ATOM     47  C   UNL A   1      43.811  29.802  34.914  1.00  0.00     0.029 A 
ATOM     48  N   UNL A   1      43.291  28.726  33.039  1.00  0.00    -0.354 N 
ATOM     49  N   UNL A   1      43.628  26.697  30.970  1.00  0.00    -0.248 NA
ATOM     50  C   UNL A   1      44.869  24.982  29.986  1.00  0.00     0.031 C 
ATOM     51  C   UNL A   1      44.800  28.843  34.666  1.00  0.00     0.029 A 
ATOM     52  C   UNL A   1      44.466  28.162  33.507  1.00  0.00     0.049 A 
ATOM     53  H   UNL A   1      42.814  28.446  32.224  1.00  0.00     0.167 HD
ATOM     54  C   UNL A   1      44.758  26.454  31.738  1.00  0.00     0.074 A 
ATOM     55  C   UNL A   1      45.473  25.368  31.101  1.00  0.00     0.031 C 
ATOM     56  C   UNL A   1      45.165  27.076  32.870  1.00  0.00     0.037 A 
BRANCH  43  57
ATOM     57  C   UNL A   1      41.458  31.669  34.667  1.00  0.00     0.064 A 
ATOM     58  C   UNL A   1      42.055  32.930  34.518  1.00  0.00     0.173 A 
ATOM     59  C   UNL A   1      40.570  31.485  35.737  1.00  0.00     0.173 A 
ATOM     60  F   UNL A   1      42.919  33.155  33.517  1.00  0.00    -0.203 F 
ATOM     61  C   UNL A   1      41.791  33.958  35.420  1.00  0.00     0.198 A 
ATOM     62  C   UNL A   1      40.288  32.522  36.621  1.00  0.00     0.198 A 
ATOM     63  F   UNL A   1      39.968  30.300  35.920  1.00  0.00    -0.203 F 
ATOM     64  F   UNL A   1      42.404  35.142  35.282  1.00  0.00    -0.200 F 
ATOM     65  C   UNL A   1      40.903  33.756  36.466  1.00  0.00     0.200 A 
ATOM     66  F   UNL A   1      39.421  32.330  37.625  1.00  0.00    -0.200 F 
ATOM     67  F   UNL A   1      40.644  34.748  37.328  1.00  0.00    -0.200 F 
ENDBRANCH  43  57
BRANCH  44  68
ATOM     68  C   UNL A   1      42.943  24.596  27.821  1.00  0.00     0.064 A 
ATOM     69  C   UNL A   1      42.523  23.275  28.025  1.00  0.00     0.173 A 
ATOM     70  C   UNL A   1      43.604  24.896  26.622  1.00  0.00     0.173 A 
ATOM     71  F   UNL A   1      41.908  22.937  29.168  1.00  0.00    -0.203 F 
ATOM     72  C   UNL A   1      42.767  22.288  27.073  1.00  0.00     0.198 A 
ATOM     73  C   UNL A   1      43.826  23.913  25.660  1.00  0.00     0.198 A 
ATOM     74  F   UNL A   1      44.026  26.145  26.381  1.00  0.00    -0.203 F 
ATOM     75  F   UNL A   1      42.391  21.024  27.310  1.00  0.00    -0.200 F 
ATOM     76  C   UNL A   1      43.414  22.608  25.889  1.00  0.00     0.200 A 
ATOM     77  F   UNL A   1      44.442  24.228  24.512  1.00  0.00    -0.200 F 
ATOM     78  F   UNL A   1      43.647  21.659  24.972  1.00  0.00    -0.200 F 
ENDBRANCH  44  68
BRANCH  56  79
ATOM     79  C   UNL A   1      46.428  26.582  33.514  1.00  0.00     0.064 A 
ATOM     80  C   UNL A   1      47.677  27.142  33.207  1.00  0.00     0.173 A 
ATOM     81  C   UNL A   1      46.383  25.561  34.476  1.00  0.00     0.173 A 
ATOM     82  F   UNL A   1      47.773  28.109  32.283  1.00  0.00    -0.203 F 
ATOM     83  C   UNL A   1      48.837  26.685  33.826  1.00  0.00     0.198 A 
ATOM     84  C   UNL A   1      47.543  25.124  35.110  1.00  0.00     0.198 A 
ATOM     85  F   UNL A   1      45.213  24.995  34.807  1.00  0.00    -0.203 F 
ATOM     86  F   UNL A   1      50.025  27.207  33.488  1.00  0.00    -0.200 F 
ATOM     87  C   UNL A   1      48.769  25.681  34.781  1.00  0.00     0.200 A 
ATOM     88  F   UNL A   1      47.473  24.161  36.040  1.00  0.00    -0.200 F 
ATOM     89  F   UNL A   1      49.887  25.246  35.379  1.00  0.00    -0.200 F 
ENDBRANCH  56  79
ENDBRANCH  30  31
ENDBRANCH  22  25
ENDBRANCH  20  21
ENDBRANCH  19  20
ENDBRANCH   1  19
TORSDOF 15
ENDMDL
MODEL 2
REMARK VINA RESULT:      -9.9      4.674     11.249
REMARK SMILES [NH3+][C@H](CSCc1ccco1)C(=O)NCCCNC(=O)c1ccc(-c2c3nc(c(-c4c(F)c(F)c(F)c(F)c4F)c4ccc([nH]4)c(-c4c(F)c(F)c(F)c(F)c4F)c4nc(c(-c5c(F)c(F)c(F)c(F)c5F)c5ccc2[nH]5)C=C4)C=C3)cc1
REMARK SMILES IDX 14 1 13 2 11 3 12 4 2 6 1 7 3 11 4 12 5 13 6 14 7 15 10 16
REMARK SMILES IDX 8 17 9 18 15 19 16 20 17 21 18 22 19 24 20 25 21 26 82 27
REMARK SMILES IDX 22 28 81 29 23 30 24 31 25 32 75 33 26 34 80 35 74 36 76 37
REMARK SMILES IDX 27 38 79 39 73 40 72 41 28 43 60 44 40 45 59 46 41 47 44 48
REMARK SMILES IDX 58 49 77 50 42 51 43 52 57 54 78 55 45 56 29 57 30 58 38 59
REMARK SMILES IDX 31 60 32 61 36 62 39 63 33 64 34 65 37 66 35 67 61 68 62 69
REMARK SMILES IDX 70 70 63 71 64 72 68 73 71 74 65 75 66 76 69 77 67 78 46 79
REMARK SMILES IDX 47 80 55 81 48 82 49 83 53 84 56 85 50 86 51 87 54 88 52 89
REMARK H PARENT 13 5 1 8 1 9 1 10 17 23 76 42 44 53
REMARK Flexibility Score: inf
ROOT
ATOM      1  C   UNL A   1      42.797  19.949  26.219  1.00  0.00     0.118 C 
ENDROOT
BRANCH   1   2
ATOM      2  N   UNL A   1      43.284  19.519  24.918  1.00  0.00    -0.351 N 
ATOM      3  C   UNL A   1      44.506  19.350  24.346  1.00  0.00     0.279 C 
ATOM      4  O   UNL A   1      44.484  18.944  23.176  1.00  0.00    -0.268 OA
ATOM      5  H   UNL A   1      42.550  19.297  24.301  1.00  0.00     0.163 HD
BRANCH   3   6
ATOM      6  C   UNL A   1      45.859  19.694  24.994  1.00  0.00     0.280 C 
BRANCH   6   7
ATOM      7  N   UNL A   1      46.327  18.722  26.000  1.00  0.00    -0.347 N 
ATOM      8  H   UNL A   1      46.275  19.142  26.928  1.00  0.00     0.345 HD
ATOM      9  H   UNL A   1      47.292  18.463  25.798  1.00  0.00     0.345 HD
ATOM     10  H   UNL A   1      45.738  17.890  25.969  1.00  0.00     0.345 HD
ENDBRANCH   6   7
BRANCH   6  11
ATOM     11  C   UNL A   1      46.008  21.178  25.391  1.00  0.00     0.145 C 
BRANCH  11  12
ATOM     12  S   UNL A   1      45.807  22.432  24.078  1.00  0.00    -0.147 SA
BRANCH  12  13
ATOM     13  C   UNL A   1      44.318  23.288  24.682  1.00  0.00     0.145 C 
BRANCH  13  14
ATOM     14  C   UNL A   1      44.543  24.692  25.091  1.00  0.00     0.113 A 
ATOM     15  C   UNL A   1      43.731  25.633  25.690  1.00  0.00     0.046 A 
ATOM     16  O   UNL A   1      45.729  25.259  24.732  1.00  0.00    -0.468 OA
ATOM     17  C   UNL A   1      44.458  26.846  25.686  1.00  0.00     0.042 A 
ATOM     18  C   UNL A   1      45.669  26.565  25.101  1.00  0.00     0.195 A 
ENDBRANCH  13  14
ENDBRANCH  12  13
ENDBRANCH  11  12
ENDBRANCH   6  11
ENDBRANCH   3   6
ENDBRANCH   1   2
BRANCH   1  19
ATOM     19  C   UNL A   1      41.305  20.298  26.272  1.00  0.00     0.042 C 
BRANCH  19  20
ATOM     20  C   UNL A   1      40.940  21.776  26.384  1.00  0.00     0.118 C 
BRANCH  20  21
ATOM     21  N   UNL A   1      39.627  22.077  25.848  1.00  0.00    -0.352 N 
ATOM     22  C   UNL A   1      38.820  23.169  26.065  1.00  0.00     0.251 C 
ATOM     23  H   UNL A   1      39.257  21.397  25.239  1.00  0.00     0.163 HD
ATOM     24  O   UNL A   1      37.658  23.149  25.668  1.00  0.00    -0.269 OA
BRANCH  22  25
ATOM     25  C   UNL A   1      39.317  24.369  26.783  1.00  0.00     0.039 A 
ATOM     26  C   UNL A   1      38.996  24.514  28.137  1.00  0.00     0.014 A 
ATOM     27  C   UNL A   1      40.019  25.387  26.129  1.00  0.00     0.014 A 
ATOM     28  C   UNL A   1      39.406  25.652  28.842  1.00  0.00     0.010 A 
ATOM     29  C   UNL A   1      40.474  26.500  26.845  1.00  0.00     0.010 A 
ATOM     30  C   UNL A   1      40.162  26.650  28.206  1.00  0.00    -0.014 A 
BRANCH  30  31
ATOM     31  C   UNL A   1      40.602  27.861  28.952  1.00  0.00     0.031 A 
ATOM     32  C   UNL A   1      42.018  27.980  29.447  1.00  0.00     0.074 A 
ATOM     33  C   UNL A   1      39.723  28.848  29.212  1.00  0.00     0.049 A 
ATOM     34  N   UNL A   1      42.578  28.946  30.134  1.00  0.00    -0.248 NA
ATOM     35  C   UNL A   1      42.921  26.860  29.144  1.00  0.00     0.031 C 
ATOM     36  C   UNL A   1      38.315  28.849  28.818  1.00  0.00     0.029 A 
ATOM     37  N   UNL A   1      39.885  30.041  29.874  1.00  0.00    -0.354 N 
ATOM     38  C   UNL A   1      43.890  28.546  30.353  1.00  0.00     0.074 A 
ATOM     39  C   UNL A   1      44.033  27.231  29.764  1.00  0.00     0.031 C 
ATOM     40  C   UNL A   1      37.745  29.993  29.232  1.00  0.00     0.029 A 
ATOM     41  C   UNL A   1      38.738  30.793  29.943  1.00  0.00     0.049 A 
ATOM     42  H   UNL A   1      40.743  30.330  30.263  1.00  0.00     0.167 HD
ATOM     43  C   UNL A   1      44.891  29.220  30.970  1.00  0.00     0.037 A 
ATOM     44  C   UNL A   1      38.511  31.990  30.517  1.00  0.00     0.037 A 
ATOM     45  C   UNL A   1      44.765  30.538  31.534  1.00  0.00     0.049 A 
ATOM     46  C   UNL A   1      39.638  32.715  31.202  1.00  0.00     0.074 A 
ATOM     47  C   UNL A   1      45.742  31.321  32.126  1.00  0.00     0.029 A 
ATOM     48  N   UNL A   1      43.587  31.270  31.578  1.00  0.00    -0.354 N 
ATOM     49  N   UNL A   1      40.887  32.352  31.348  1.00  0.00    -0.248 NA
ATOM     50  C   UNL A   1      39.320  34.021  31.799  1.00  0.00     0.031 C 
ATOM     51  C   UNL A   1      45.147  32.510  32.563  1.00  0.00     0.029 A 
ATOM     52  C   UNL A   1      43.808  32.485  32.206  1.00  0.00     0.049 A 
ATOM     53  H   UNL A   1      42.722  30.969  31.216  1.00  0.00     0.167 HD
ATOM     54  C   UNL A   1      41.511  33.390  32.026  1.00  0.00     0.074 A 
ATOM     55  C   UNL A   1      40.505  34.406  32.254  1.00  0.00     0.031 C 
ATOM     56  C   UNL A   1      42.802  33.492  32.422  1.00  0.00     0.037 A 
BRANCH  43  57
ATOM     57  C   UNL A   1      46.226  28.540  31.069  1.00  0.00     0.064 A 
ATOM     58  C   UNL A   1      47.200  28.691  30.070  1.00  0.00     0.173 A 
ATOM     59  C   UNL A   1      46.552  27.771  32.195  1.00  0.00     0.173 A 
ATOM     60  F   UNL A   1      46.934  29.409  28.969  1.00  0.00    -0.203 F 
ATOM     61  C   UNL A   1      48.443  28.074  30.185  1.00  0.00     0.198 A 
ATOM     62  C   UNL A   1      47.805  27.177  32.318  1.00  0.00     0.198 A 
ATOM     63  F   UNL A   1      45.658  27.602  33.181  1.00  0.00    -0.203 F 
ATOM     64  F   UNL A   1      49.344  28.197  29.200  1.00  0.00    -0.200 F 
ATOM     65  C   UNL A   1      48.747  27.324  31.311  1.00  0.00     0.200 A 
ATOM     66  F   UNL A   1      48.102  26.463  33.412  1.00  0.00    -0.200 F 
ATOM     67  F   UNL A   1      49.947  26.737  31.424  1.00  0.00    -0.200 F 
ENDBRANCH  43  57
BRANCH  44  68
ATOM     68  C   UNL A   1      37.155  32.596  30.449  1.00  0.00     0.064 A 
ATOM     69  C   UNL A   1      36.793  33.432  29.384  1.00  0.00     0.173 A 
ATOM     70  C   UNL A   1      36.201  32.358  31.449  1.00  0.00     0.173 A 
ATOM     71  F   UNL A   1      37.682  33.707  28.418  1.00  0.00    -0.203 F 
ATOM     72  C   UNL A   1      35.532  34.019  29.327  1.00  0.00     0.198 A 
ATOM     73  C   UNL A   1      34.931  32.926  31.378  1.00  0.00     0.198 A 
ATOM     74  F   UNL A   1      36.500  31.566  32.488  1.00  0.00    -0.203 F 
ATOM     75  F   UNL A   1      35.224  34.846  28.319  1.00  0.00    -0.200 F 
ATOM     76  C   UNL A   1      34.599  33.761  30.321  1.00  0.00     0.200 A 
ATOM     77  F   UNL A   1      34.030  32.667  32.335  1.00  0.00    -0.200 F 
ATOM     78  F   UNL A   1      33.385  34.324  30.265  1.00  0.00    -0.200 F 
ENDBRANCH  44  68
BRANCH  56  79
ATOM     79  C   UNL A   1      43.213  34.755  33.120  1.00  0.00     0.064 A 
ATOM     80  C   UNL A   1      43.569  35.908  32.403  1.00  0.00     0.173 A 
ATOM     81  C   UNL A   1      43.213  34.827  34.522  1.00  0.00     0.173 A 
ATOM     82  F   UNL A   1      43.599  35.885  31.062  1.00  0.00    -0.203 F 
ATOM     83  C   UNL A   1      43.930  37.078  33.065  1.00  0.00     0.198 A 
ATOM     84  C   UNL A   1      43.551  36.006  35.178  1.00  0.00     0.198 A 
ATOM     85  F   UNL A   1      42.877  33.754  35.252  1.00  0.00    -0.203 F 
ATOM     86  F   UNL A   1      44.306  38.155  32.361  1.00  0.00    -0.200 F 
ATOM     87  C   UNL A   1      43.915  37.129  34.451  1.00  0.00     0.200 A 
ATOM     88  F   UNL A   1      43.526  36.056  36.518  1.00  0.00    -0.200 F 
ATOM     89  F   UNL A   1      44.258  38.259  35.085  1.00  0.00    -0.200 F 
ENDBRANCH  56  79
ENDBRANCH  30  31
ENDBRANCH  22  25
ENDBRANCH  20  21
ENDBRANCH  19  20
ENDBRANCH   1  19
TORSDOF 15
ENDMDL
MODEL 3
REMARK VINA RESULT:      -9.9      4.923     11.495
REMARK SMILES [NH3+][C@H](CSCc1ccco1)C(=O)NCCCNC(=O)c1ccc(-c2c3nc(c(-c4c(F)c(F)c(F)c(F)c4F)c4ccc([nH]4)c(-c4c(F)c(F)c(F)c(F)c4F)c4nc(c(-c5c(F)c(F)c(F)c(F)c5F)c5ccc2[nH]5)C=C4)C=C3)cc1
REMARK SMILES IDX 14 1 13 2 11 3 12 4 2 6 1 7 3 11 4 12 5 13 6 14 7 15 10 16
REMARK SMILES IDX 8 17 9 18 15 19 16 20 17 21 18 22 19 24 20 25 21 26 82 27
REMARK SMILES IDX 22 28 81 29 23 30 24 31 25 32 75 33 26 34 80 35 74 36 76 37
REMARK SMILES IDX 27 38 79 39 73 40 72 41 28 43 60 44 40 45 59 46 41 47 44 48
REMARK SMILES IDX 58 49 77 50 42 51 43 52 57 54 78 55 45 56 29 57 30 58 38 59
REMARK SMILES IDX 31 60 32 61 36 62 39 63 33 64 34 65 37 66 35 67 61 68 62 69
REMARK SMILES IDX 70 70 63 71 64 72 68 73 71 74 65 75 66 76 69 77 67 78 46 79
REMARK SMILES IDX 47 80 55 81 48 82 49 83 53 84 56 85 50 86 51 87 54 88 52 89
REMARK H PARENT 13 5 1 8 1 9 1 10 17 23 76 42 44 53
REMARK Flexibility Score: inf
ROOT
ATOM      1  C   UNL A   1      42.025  19.431  25.987  1.00  0.00     0.118 C 
ENDROOT
BRANCH   1   2
ATOM      2  N   UNL A   1      43.319  18.767  26.019  1.00  0.00    -0.351 N 
ATOM      3  C   UNL A   1      44.463  18.834  25.287  1.00  0.00     0.279 C 
ATOM      4  O   UNL A   1      45.369  18.078  25.664  1.00  0.00    -0.268 OA
ATOM      5  H   UNL A   1      43.381  18.108  26.747  1.00  0.00     0.163 HD
BRANCH   3   6
ATOM      6  C   UNL A   1      44.675  19.687  24.024  1.00  0.00     0.280 C 
BRANCH   6   7
ATOM      7  N   UNL A   1      45.009  18.920  22.809  1.00  0.00    -0.347 N 
ATOM      8  H   UNL A   1      45.542  18.090  23.068  1.00  0.00     0.345 HD
ATOM      9  H   UNL A   1      45.566  19.501  22.183  1.00  0.00     0.345 HD
ATOM     10  H   UNL A   1      44.149  18.640  22.337  1.00  0.00     0.345 HD
ENDBRANCH   6   7
BRANCH   6  11
ATOM     11  C   UNL A   1      45.519  20.958  24.256  1.00  0.00     0.145 C 
BRANCH  11  12
ATOM     12  S   UNL A   1      44.715  22.574  23.979  1.00  0.00    -0.147 SA
BRANCH  12  13
ATOM     13  C   UNL A   1      45.974  23.680  24.693  1.00  0.00     0.145 C 
BRANCH  13  14
ATOM     14  C   UNL A   1      45.487  25.041  25.005  1.00  0.00     0.113 A 
ATOM     15  C   UNL A   1      44.285  25.516  25.489  1.00  0.00     0.046 A 
ATOM     16  O   UNL A   1      46.297  26.083  24.664  1.00  0.00    -0.468 OA
ATOM     17  C   UNL A   1      44.362  26.927  25.430  1.00  0.00     0.042 A 
ATOM     18  C   UNL A   1      45.607  27.222  24.929  1.00  0.00     0.195 A 
ENDBRANCH  13  14
ENDBRANCH  12  13
ENDBRANCH  11  12
ENDBRANCH   6  11
ENDBRANCH   3   6
ENDBRANCH   1   2
BRANCH   1  19
ATOM     19  C   UNL A   1      42.065  20.947  26.210  1.00  0.00     0.042 C 
BRANCH  19  20
ATOM     20  C   UNL A   1      40.913  21.565  26.999  1.00  0.00     0.118 C 
BRANCH  20  21
ATOM     21  N   UNL A   1      39.736  21.806  26.187  1.00  0.00    -0.352 N 
ATOM     22  C   UNL A   1      38.925  22.915  26.126  1.00  0.00     0.251 C 
ATOM     23  H   UNL A   1      39.479  21.065  25.592  1.00  0.00     0.163 HD
ATOM     24  O   UNL A   1      37.863  22.851  25.513  1.00  0.00    -0.269 OA
BRANCH  22  25
ATOM     25  C   UNL A   1      39.297  24.184  26.799  1.00  0.00     0.039 A 
ATOM     26  C   UNL A   1      40.096  25.097  26.102  1.00  0.00     0.014 A 
ATOM     27  C   UNL A   1      38.943  24.451  28.126  1.00  0.00     0.014 A 
ATOM     28  C   UNL A   1      40.507  26.286  26.716  1.00  0.00     0.010 A 
ATOM     29  C   UNL A   1      39.310  25.662  28.722  1.00  0.00     0.010 A 
ATOM     30  C   UNL A   1      40.106  26.587  28.027  1.00  0.00    -0.014 A 
BRANCH  30  31
ATOM     31  C   UNL A   1      40.541  27.852  28.682  1.00  0.00     0.031 A 
ATOM     32  C   UNL A   1      41.971  28.036  29.114  1.00  0.00     0.074 A 
ATOM     33  C   UNL A   1      39.646  28.831  28.917  1.00  0.00     0.049 A 
ATOM     34  N   UNL A   1      42.530  29.055  29.719  1.00  0.00    -0.248 NA
ATOM     35  C   UNL A   1      42.891  26.922  28.843  1.00  0.00     0.031 C 
ATOM     36  C   UNL A   1      38.225  28.773  28.578  1.00  0.00     0.029 A 
ATOM     37  N   UNL A   1      39.800  30.066  29.500  1.00  0.00    -0.354 N 
ATOM     38  C   UNL A   1      43.859  28.702  29.910  1.00  0.00     0.074 A 
ATOM     39  C   UNL A   1      44.015  27.357  29.395  1.00  0.00     0.031 C 
ATOM     40  C   UNL A   1      37.640  29.926  28.945  1.00  0.00     0.029 A 
ATOM     41  C   UNL A   1      38.637  30.793  29.568  1.00  0.00     0.049 A 
ATOM     42  H   UNL A   1      40.664  30.399  29.837  1.00  0.00     0.167 HD
ATOM     43  C   UNL A   1      44.865  29.436  30.447  1.00  0.00     0.037 A 
ATOM     44  C   UNL A   1      38.399  32.016  30.078  1.00  0.00     0.037 A 
ATOM     45  C   UNL A   1      44.724  30.783  30.936  1.00  0.00     0.049 A 
ATOM     46  C   UNL A   1      39.531  32.809  30.675  1.00  0.00     0.074 A 
ATOM     47  C   UNL A   1      45.701  31.624  31.441  1.00  0.00     0.029 A 
ATOM     48  N   UNL A   1      43.529  31.486  30.982  1.00  0.00    -0.354 N 
ATOM     49  N   UNL A   1      40.795  32.486  30.793  1.00  0.00    -0.248 NA
ATOM     50  C   UNL A   1      39.201  34.140  31.205  1.00  0.00     0.031 C 
ATOM     51  C   UNL A   1      45.091  32.822  31.830  1.00  0.00     0.029 A 
ATOM     52  C   UNL A   1      43.741  32.742  31.527  1.00  0.00     0.049 A 
ATOM     53  H   UNL A   1      42.659  31.143  30.673  1.00  0.00     0.167 HD
ATOM     54  C   UNL A   1      41.415  33.578  31.383  1.00  0.00     0.074 A 
ATOM     55  C   UNL A   1      40.391  34.580  31.590  1.00  0.00     0.031 C 
ATOM     56  C   UNL A   1      42.717  33.735  31.722  1.00  0.00     0.037 A 
BRANCH  43  57
ATOM     57  C   UNL A   1      46.219  28.797  30.534  1.00  0.00     0.064 A 
ATOM     58  C   UNL A   1      46.621  28.081  31.672  1.00  0.00     0.173 A 
ATOM     59  C   UNL A   1      47.107  28.859  29.450  1.00  0.00     0.173 A 
ATOM     60  F   UNL A   1      45.812  27.999  32.738  1.00  0.00    -0.203 F 
ATOM     61  C   UNL A   1      47.872  27.473  31.730  1.00  0.00     0.198 A 
ATOM     62  C   UNL A   1      48.347  28.228  29.501  1.00  0.00     0.198 A 
ATOM     63  F   UNL A   1      46.769  29.526  28.335  1.00  0.00    -0.203 F 
ATOM     64  F   UNL A   1      48.251  26.828  32.843  1.00  0.00    -0.200 F 
ATOM     65  C   UNL A   1      48.731  27.541  30.643  1.00  0.00     0.200 A 
ATOM     66  F   UNL A   1      49.171  28.284  28.446  1.00  0.00    -0.200 F 
ATOM     67  F   UNL A   1      49.932  26.948  30.698  1.00  0.00    -0.200 F 
ENDBRANCH  43  57
BRANCH  44  68
ATOM     68  C   UNL A   1      37.027  32.583  30.027  1.00  0.00     0.064 A 
ATOM     69  C   UNL A   1      36.576  33.275  28.895  1.00  0.00     0.173 A 
ATOM     70  C   UNL A   1      36.144  32.450  31.109  1.00  0.00     0.173 A 
ATOM     71  F   UNL A   1      37.394  33.448  27.847  1.00  0.00    -0.203 F 
ATOM     72  C   UNL A   1      35.298  33.827  28.851  1.00  0.00     0.198 A 
ATOM     73  C   UNL A   1      34.857  32.981  31.054  1.00  0.00     0.198 A 
ATOM     74  F   UNL A   1      36.529  31.796  32.214  1.00  0.00    -0.203 F 
ATOM     75  F   UNL A   1      34.905  34.519  27.774  1.00  0.00    -0.200 F 
ATOM     76  C   UNL A   1      34.437  33.675  29.928  1.00  0.00     0.200 A 
ATOM     77  F   UNL A   1      34.025  32.823  32.092  1.00  0.00    -0.200 F 
ATOM     78  F   UNL A   1      33.207  34.203  29.885  1.00  0.00    -0.200 F 
ENDBRANCH  44  68
BRANCH  56  79
ATOM     79  C   UNL A   1      43.119  35.049  32.326  1.00  0.00     0.064 A 
ATOM     80  C   UNL A   1      43.080  35.262  33.713  1.00  0.00     0.173 A 
ATOM     81  C   UNL A   1      43.586  36.093  31.513  1.00  0.00     0.173 A 
ATOM     82  F   UNL A   1      42.627  34.300  34.530  1.00  0.00    -0.203 F 
ATOM     83  C   UNL A   1      43.474  36.480  34.260  1.00  0.00     0.198 A 
ATOM     84  C   UNL A   1      44.002  37.300  32.067  1.00  0.00     0.198 A 
ATOM     85  F   UNL A   1      43.646  35.938  30.182  1.00  0.00    -0.203 F 
ATOM     86  F   UNL A   1      43.390  36.676  35.583  1.00  0.00    -0.200 F 
ATOM     87  C   UNL A   1      43.940  37.496  33.438  1.00  0.00     0.200 A 
ATOM     88  F   UNL A   1      44.462  38.277  31.272  1.00  0.00    -0.200 F 
ATOM     89  F   UNL A   1      44.324  38.665  33.968  1.00  0.00    -0.200 F 
ENDBRANCH  56  79
ENDBRANCH  30  31
ENDBRANCH  22  25
ENDBRANCH  20  21
ENDBRANCH  19  20
ENDBRANCH   1  19
TORSDOF 15
ENDMDL
