MODEL 1
REMARK VINA RESULT:     -13.6      0.000      0.000
REMARK SMILES O=C(NCCCNC(=O)c1ccc(-c2c3nc(c(-c4c(F)c(F)c(F)c(F)c4F)c4ccc([nH]4)c(-c4c(F)c(F)c(F)c(F)c4F)c4nc(c(-c5c(F)c(F)c(F)c(F)c5F)c5ccc2[nH]5)C=C4)C=C3)cc1)C1=Cc2cc(Cl)cc(Cl)c2O[C@@H]1C(F)(F)F
REMARK SMILES IDX 5 1 4 2 3 3 1 4 2 5 73 7 74 8 84 9 75 10 83 11 76 12 82 13
REMARK SMILES IDX 77 14 80 15 78 16 79 17 81 18 85 19 86 20 87 21 88 22 6 23
REMARK SMILES IDX 7 24 8 25 9 27 10 28 11 29 72 30 12 31 71 32 13 33 14 34
REMARK SMILES IDX 15 35 65 36 16 37 70 38 64 39 66 40 17 41 69 42 63 43 62 44
REMARK SMILES IDX 18 46 50 47 30 48 49 49 31 50 34 51 48 52 67 53 32 54 33 55
REMARK SMILES IDX 47 57 68 58 35 59 19 60 20 61 28 62 21 63 22 64 26 65 29 66
REMARK SMILES IDX 23 67 24 68 27 69 25 70 51 71 52 72 60 73 53 74 54 75 58 76
REMARK SMILES IDX 61 77 55 78 56 79 59 80 57 81 36 82 37 83 45 84 38 85 39 86
REMARK SMILES IDX 43 87 46 88 40 89 41 90 44 91 42 92
REMARK H PARENT 3 6 7 26 66 45 34 56
REMARK Flexibility Score: inf
ROOT
ATOM      1  C   UNL A   1      31.782  28.153  27.035  1.00  0.00     0.042 C 
ENDROOT
BRANCH   1   2
ATOM      2  C   UNL A   1      31.399  26.984  26.140  1.00  0.00     0.118 C 
BRANCH   2   3
ATOM      3  N   UNL A   1      31.142  25.748  26.883  1.00  0.00    -0.352 N 
ATOM      4  O   UNL A   1      31.527  23.618  27.564  1.00  0.00    -0.270 OA
ATOM      5  C   UNL A   1      31.677  24.492  26.723  1.00  0.00     0.251 C 
ATOM      6  H   UNL A   1      30.484  25.830  27.610  1.00  0.00     0.163 HD
BRANCH   5   7
ATOM      7  C   UNL A   1      32.506  24.267  25.524  1.00  0.00     0.067 C 
ATOM      8  C   UNL A   1      33.739  24.788  25.529  1.00  0.00     0.025 C 
ATOM      9  C   UNL A   1      32.089  23.166  24.602  1.00  0.00     0.314 C 
ATOM     10  C   UNL A   1      34.773  23.818  25.137  1.00  0.00     0.020 A 
ATOM     11  O   UNL A   1      33.109  22.148  24.476  1.00  0.00    -0.474 OA
ATOM     12  C   UNL A   1      36.078  24.081  25.572  1.00  0.00     0.032 A 
ATOM     13  C   UNL A   1      34.403  22.504  24.780  1.00  0.00     0.146 A 
ATOM     14  C   UNL A   1      36.971  23.025  25.750  1.00  0.00     0.043 A 
ATOM     15  C   UNL A   1      35.329  21.462  24.934  1.00  0.00     0.085 A 
ATOM     16  Cl  UNL A   1      38.494  23.331  26.490  1.00  0.00    -0.084 Cl
ATOM     17  C   UNL A   1      36.601  21.718  25.447  1.00  0.00     0.045 A 
ATOM     18  Cl  UNL A   1      34.869  19.815  24.680  1.00  0.00    -0.080 Cl
BRANCH   9  19
ATOM     19  C   UNL A   1      31.683  23.711  23.223  1.00  0.00     0.429 C 
ATOM     20  F   UNL A   1      30.423  23.331  22.900  1.00  0.00    -0.167 F 
ATOM     21  F   UNL A   1      31.706  25.064  23.187  1.00  0.00    -0.167 F 
ATOM     22  F   UNL A   1      32.501  23.267  22.239  1.00  0.00    -0.167 F 
ENDBRANCH   9  19
ENDBRANCH   5   7
ENDBRANCH   2   3
ENDBRANCH   1   2
BRANCH   1  23
ATOM     23  C   UNL A   1      32.694  29.144  26.324  1.00  0.00     0.118 C 
BRANCH  23  24
ATOM     24  N   UNL A   1      32.401  30.545  26.623  1.00  0.00    -0.352 N 
ATOM     25  C   UNL A   1      33.172  31.516  27.236  1.00  0.00     0.251 C 
ATOM     26  H   UNL A   1      31.507  30.847  26.342  1.00  0.00     0.163 HD
ATOM     27  O   UNL A   1      32.702  32.616  27.474  1.00  0.00    -0.269 OA
BRANCH  25  28
ATOM     28  C   UNL A   1      34.558  31.198  27.653  1.00  0.00     0.039 A 
ATOM     29  C   UNL A   1      35.503  32.224  27.740  1.00  0.00     0.014 A 
ATOM     30  C   UNL A   1      34.904  29.901  28.025  1.00  0.00     0.014 A 
ATOM     31  C   UNL A   1      36.742  31.974  28.340  1.00  0.00     0.010 A 
ATOM     32  C   UNL A   1      36.072  29.688  28.738  1.00  0.00     0.010 A 
ATOM     33  C   UNL A   1      37.004  30.724  28.919  1.00  0.00    -0.014 A 
BRANCH  33  34
ATOM     34  C   UNL A   1      38.221  30.439  29.728  1.00  0.00     0.031 A 
ATOM     35  C   UNL A   1      39.267  29.507  29.179  1.00  0.00     0.074 A 
ATOM     36  C   UNL A   1      38.319  30.884  30.997  1.00  0.00     0.049 A 
ATOM     37  N   UNL A   1      40.242  28.890  29.797  1.00  0.00    -0.248 NA
ATOM     38  C   UNL A   1      39.158  29.174  27.750  1.00  0.00     0.031 C 
ATOM     39  C   UNL A   1      37.360  31.759  31.673  1.00  0.00     0.029 A 
ATOM     40  N   UNL A   1      39.270  30.635  31.958  1.00  0.00    -0.354 N 
ATOM     41  C   UNL A   1      40.814  28.051  28.849  1.00  0.00     0.074 A 
ATOM     42  C   UNL A   1      40.044  28.199  27.633  1.00  0.00     0.031 C 
ATOM     43  C   UNL A   1      37.787  32.002  32.924  1.00  0.00     0.029 A 
ATOM     44  C   UNL A   1      39.015  31.251  33.161  1.00  0.00     0.049 A 
ATOM     45  H   UNL A   1      40.060  30.070  31.800  1.00  0.00     0.167 HD
ATOM     46  C   UNL A   1      41.896  27.247  28.973  1.00  0.00     0.037 A 
ATOM     47  C   UNL A   1      39.687  31.200  34.326  1.00  0.00     0.037 A 
ATOM     48  C   UNL A   1      42.704  27.165  30.161  1.00  0.00     0.049 A 
ATOM     49  C   UNL A   1      40.914  30.335  34.429  1.00  0.00     0.074 A 
ATOM     50  C   UNL A   1      43.862  26.438  30.371  1.00  0.00     0.029 A 
ATOM     51  N   UNL A   1      42.446  27.857  31.335  1.00  0.00    -0.354 N 
ATOM     52  N   UNL A   1      41.457  29.560  33.523  1.00  0.00    -0.248 NA
ATOM     53  C   UNL A   1      41.616  30.333  35.721  1.00  0.00     0.031 C 
ATOM     54  C   UNL A   1      44.293  26.675  31.680  1.00  0.00     0.029 A 
ATOM     55  C   UNL A   1      43.424  27.577  32.273  1.00  0.00     0.049 A 
ATOM     56  H   UNL A   1      41.680  28.459  31.479  1.00  0.00     0.167 HD
ATOM     57  C   UNL A   1      42.583  29.007  34.119  1.00  0.00     0.074 A 
ATOM     58  C   UNL A   1      42.646  29.537  35.465  1.00  0.00     0.031 C 
ATOM     59  C   UNL A   1      43.484  28.141  33.597  1.00  0.00     0.037 A 
BRANCH  46  60
ATOM     60  C   UNL A   1      42.271  26.406  27.786  1.00  0.00     0.064 A 
ATOM     61  C   UNL A   1      41.717  25.134  27.579  1.00  0.00     0.173 A 
ATOM     62  C   UNL A   1      43.201  26.876  26.846  1.00  0.00     0.173 A 
ATOM     63  F   UNL A   1      40.834  24.632  28.457  1.00  0.00    -0.203 F 
ATOM     64  C   UNL A   1      42.115  24.343  26.505  1.00  0.00     0.198 A 
ATOM     65  C   UNL A   1      43.570  26.097  25.751  1.00  0.00     0.198 A 
ATOM     66  F   UNL A   1      43.757  28.088  26.990  1.00  0.00    -0.203 F 
ATOM     67  F   UNL A   1      41.625  23.103  26.371  1.00  0.00    -0.200 F 
ATOM     68  C   UNL A   1      43.037  24.827  25.589  1.00  0.00     0.200 A 
ATOM     69  F   UNL A   1      44.452  26.570  24.860  1.00  0.00    -0.200 F 
ATOM     70  F   UNL A   1      43.422  24.064  24.558  1.00  0.00    -0.200 F 
ENDBRANCH  46  60
BRANCH  47  71
ATOM     71  C   UNL A   1      39.240  32.024  35.479  1.00  0.00     0.064 A 
ATOM     72  C   UNL A   1      39.633  33.366  35.585  1.00  0.00     0.173 A 
ATOM     73  C   UNL A   1      38.416  31.503  36.487  1.00  0.00     0.173 A 
ATOM     74  F   UNL A   1      40.438  33.902  34.655  1.00  0.00    -0.203 F 
ATOM     75  C   UNL A   1      39.232  34.152  36.663  1.00  0.00     0.198 A 
ATOM     76  C   UNL A   1      37.996  32.298  37.553  1.00  0.00     0.198 A 
ATOM     77  F   UNL A   1      38.007  30.228  36.430  1.00  0.00    -0.203 F 
ATOM     78  F   UNL A   1      39.655  35.420  36.758  1.00  0.00    -0.200 F 
ATOM     79  C   UNL A   1      38.410  33.620  37.643  1.00  0.00     0.200 A 
ATOM     80  F   UNL A   1      37.190  31.784  38.493  1.00  0.00    -0.200 F 
ATOM     81  F   UNL A   1      38.021  34.376  38.678  1.00  0.00    -0.200 F 
ENDBRANCH  47  71
BRANCH  59  82
ATOM     82  C   UNL A   1      44.650  27.757  34.456  1.00  0.00     0.064 A 
ATOM     83  C   UNL A   1      44.618  26.624  35.279  1.00  0.00     0.173 A 
ATOM     84  C   UNL A   1      45.837  28.504  34.405  1.00  0.00     0.173 A 
ATOM     85  F   UNL A   1      43.500  25.889  35.373  1.00  0.00    -0.203 F 
ATOM     86  C   UNL A   1      45.731  26.258  36.032  1.00  0.00     0.198 A 
ATOM     87  C   UNL A   1      46.954  28.120  35.139  1.00  0.00     0.198 A 
ATOM     88  F   UNL A   1      45.917  29.594  33.627  1.00  0.00    -0.203 F 
ATOM     89  F   UNL A   1      45.669  25.189  36.837  1.00  0.00    -0.200 F 
ATOM     90  C   UNL A   1      46.900  27.000  35.954  1.00  0.00     0.200 A 
ATOM     91  F   UNL A   1      48.087  28.833  35.053  1.00  0.00    -0.200 F 
ATOM     92  F   UNL A   1      47.973  26.638  36.670  1.00  0.00    -0.200 F 
ENDBRANCH  59  82
ENDBRANCH  33  34
ENDBRANCH  25  28
ENDBRANCH  23  24
ENDBRANCH   1  23
TORSDOF 11
ENDMDL
MODEL 2
REMARK VINA RESULT:     -13.6      0.098      1.205
REMARK SMILES O=C(NCCCNC(=O)c1ccc(-c2c3nc(c(-c4c(F)c(F)c(F)c(F)c4F)c4ccc([nH]4)c(-c4c(F)c(F)c(F)c(F)c4F)c4nc(c(-c5c(F)c(F)c(F)c(F)c5F)c5ccc2[nH]5)C=C4)C=C3)cc1)C1=Cc2cc(Cl)cc(Cl)c2O[C@@H]1C(F)(F)F
REMARK SMILES IDX 5 1 4 2 3 3 1 4 2 5 73 7 74 8 84 9 75 10 83 11 76 12 82 13
REMARK SMILES IDX 77 14 80 15 78 16 79 17 81 18 85 19 86 20 87 21 88 22 6 23
REMARK SMILES IDX 7 24 8 25 9 27 10 28 11 29 72 30 12 31 71 32 13 33 14 34
REMARK SMILES IDX 15 35 65 36 16 37 70 38 64 39 66 40 17 41 69 42 63 43 62 44
REMARK SMILES IDX 18 46 50 47 30 48 49 49 31 50 34 51 48 52 67 53 32 54 33 55
REMARK SMILES IDX 47 57 68 58 35 59 19 60 20 61 28 62 21 63 22 64 26 65 29 66
REMARK SMILES IDX 23 67 24 68 27 69 25 70 51 71 52 72 60 73 53 74 54 75 58 76
REMARK SMILES IDX 61 77 55 78 56 79 59 80 57 81 36 82 37 83 45 84 38 85 39 86
REMARK SMILES IDX 43 87 46 88 40 89 41 90 44 91 42 92
REMARK H PARENT 3 6 7 26 66 45 34 56
REMARK Flexibility Score: inf
ROOT
ATOM      1  C   UNL A   1      31.739  28.223  27.033  1.00  0.00     0.042 C 
ENDROOT
BRANCH   1   2
ATOM      2  C   UNL A   1      31.450  27.021  26.146  1.00  0.00     0.118 C 
BRANCH   2   3
ATOM      3  N   UNL A   1      31.181  25.797  26.904  1.00  0.00    -0.352 N 
ATOM      4  O   UNL A   1      31.533  23.664  27.595  1.00  0.00    -0.270 OA
ATOM      5  C   UNL A   1      31.686  24.528  26.744  1.00  0.00     0.251 C 
ATOM      6  H   UNL A   1      30.538  25.899  27.643  1.00  0.00     0.163 HD
BRANCH   5   7
ATOM      7  C   UNL A   1      32.487  24.276  25.531  1.00  0.00     0.067 C 
ATOM      8  C   UNL A   1      33.726  24.782  25.504  1.00  0.00     0.025 C 
ATOM      9  C   UNL A   1      32.037  23.168  24.634  1.00  0.00     0.314 C 
ATOM     10  C   UNL A   1      34.739  23.793  25.105  1.00  0.00     0.020 A 
ATOM     11  O   UNL A   1      33.042  22.136  24.502  1.00  0.00    -0.474 OA
ATOM     12  C   UNL A   1      36.057  24.046  25.508  1.00  0.00     0.032 A 
ATOM     13  C   UNL A   1      34.346  22.480  24.774  1.00  0.00     0.146 A 
ATOM     14  C   UNL A   1      36.940  22.982  25.683  1.00  0.00     0.043 A 
ATOM     15  C   UNL A   1      35.262  21.428  24.924  1.00  0.00     0.085 A 
ATOM     16  Cl  UNL A   1      38.482  23.279  26.387  1.00  0.00    -0.084 Cl
ATOM     17  C   UNL A   1      36.547  21.675  25.407  1.00  0.00     0.045 A 
ATOM     18  Cl  UNL A   1      34.777  19.784  24.702  1.00  0.00    -0.080 Cl
BRANCH   9  19
ATOM     19  C   UNL A   1      31.610  23.699  23.257  1.00  0.00     0.429 C 
ATOM     20  F   UNL A   1      31.606  25.054  23.237  1.00  0.00    -0.167 F 
ATOM     21  F   UNL A   1      32.451  23.295  22.276  1.00  0.00    -0.167 F 
ATOM     22  F   UNL A   1      30.365  23.288  22.915  1.00  0.00    -0.167 F 
ENDBRANCH   9  19
ENDBRANCH   5   7
ENDBRANCH   2   3
ENDBRANCH   1   2
BRANCH   1  23
ATOM     23  C   UNL A   1      32.694  29.208  26.370  1.00  0.00     0.118 C 
BRANCH  23  24
ATOM     24  N   UNL A   1      32.415  30.609  26.679  1.00  0.00    -0.352 N 
ATOM     25  C   UNL A   1      33.197  31.568  27.298  1.00  0.00     0.251 C 
ATOM     26  H   UNL A   1      31.524  30.923  26.400  1.00  0.00     0.163 HD
ATOM     27  O   UNL A   1      32.738  32.671  27.544  1.00  0.00    -0.269 OA
BRANCH  25  28
ATOM     28  C   UNL A   1      34.579  31.232  27.712  1.00  0.00     0.039 A 
ATOM     29  C   UNL A   1      35.546  32.241  27.766  1.00  0.00     0.014 A 
ATOM     30  C   UNL A   1      34.902  29.939  28.114  1.00  0.00     0.014 A 
ATOM     31  C   UNL A   1      36.785  31.981  28.361  1.00  0.00     0.010 A 
ATOM     32  C   UNL A   1      36.072  29.721  28.824  1.00  0.00     0.010 A 
ATOM     33  C   UNL A   1      37.026  30.741  28.971  1.00  0.00    -0.014 A 
BRANCH  33  34
ATOM     34  C   UNL A   1      38.244  30.452  29.778  1.00  0.00     0.031 A 
ATOM     35  C   UNL A   1      39.290  29.525  29.222  1.00  0.00     0.074 A 
ATOM     36  C   UNL A   1      38.342  30.890  31.049  1.00  0.00     0.049 A 
ATOM     37  N   UNL A   1      40.266  28.905  29.836  1.00  0.00    -0.248 NA
ATOM     38  C   UNL A   1      39.180  29.200  27.791  1.00  0.00     0.031 C 
ATOM     39  C   UNL A   1      37.383  31.760  31.731  1.00  0.00     0.029 A 
ATOM     40  N   UNL A   1      39.294  30.636  32.008  1.00  0.00    -0.354 N 
ATOM     41  C   UNL A   1      40.838  28.072  28.882  1.00  0.00     0.074 A 
ATOM     42  C   UNL A   1      40.068  28.227  27.667  1.00  0.00     0.031 C 
ATOM     43  C   UNL A   1      37.810  31.995  32.983  1.00  0.00     0.029 A 
ATOM     44  C   UNL A   1      39.039  31.244  33.214  1.00  0.00     0.049 A 
ATOM     45  H   UNL A   1      40.084  30.073  31.846  1.00  0.00     0.167 HD
ATOM     46  C   UNL A   1      41.921  27.268  29.000  1.00  0.00     0.037 A 
ATOM     47  C   UNL A   1      39.712  31.186  34.379  1.00  0.00     0.037 A 
ATOM     48  C   UNL A   1      42.730  27.180  30.187  1.00  0.00     0.049 A 
ATOM     49  C   UNL A   1      40.939  30.321  34.476  1.00  0.00     0.074 A 
ATOM     50  C   UNL A   1      43.889  26.452  30.392  1.00  0.00     0.029 A 
ATOM     51  N   UNL A   1      42.471  27.864  31.365  1.00  0.00    -0.354 N 
ATOM     52  N   UNL A   1      41.482  29.553  33.565  1.00  0.00    -0.248 NA
ATOM     53  C   UNL A   1      41.642  30.312  35.767  1.00  0.00     0.031 C 
ATOM     54  C   UNL A   1      44.320  26.681  31.703  1.00  0.00     0.029 A 
ATOM     55  C   UNL A   1      43.451  27.579  32.301  1.00  0.00     0.049 A 
ATOM     56  H   UNL A   1      41.705  28.464  31.514  1.00  0.00     0.167 HD
ATOM     57  C   UNL A   1      42.609  28.998  34.157  1.00  0.00     0.074 A 
ATOM     58  C   UNL A   1      42.672  29.519  35.506  1.00  0.00     0.031 C 
ATOM     59  C   UNL A   1      43.510  28.135  33.629  1.00  0.00     0.037 A 
BRANCH  46  60
ATOM     60  C   UNL A   1      42.296  26.435  27.808  1.00  0.00     0.064 A 
ATOM     61  C   UNL A   1      41.759  25.155  27.605  1.00  0.00     0.173 A 
ATOM     62  C   UNL A   1      43.209  26.920  26.859  1.00  0.00     0.173 A 
ATOM     63  F   UNL A   1      40.893  24.639  28.491  1.00  0.00    -0.203 F 
ATOM     64  C   UNL A   1      42.157  24.372  26.525  1.00  0.00     0.198 A 
ATOM     65  C   UNL A   1      43.577  26.149  25.759  1.00  0.00     0.198 A 
ATOM     66  F   UNL A   1      43.749  28.140  27.000  1.00  0.00    -0.203 F 
ATOM     67  F   UNL A   1      41.685  23.125  26.394  1.00  0.00    -0.200 F 
ATOM     68  C   UNL A   1      43.062  24.871  25.601  1.00  0.00     0.200 A 
ATOM     69  F   UNL A   1      44.443  26.637  24.860  1.00  0.00    -0.200 F 
ATOM     70  F   UNL A   1      43.447  24.115  24.564  1.00  0.00    -0.200 F 
ENDBRANCH  46  60
BRANCH  47  71
ATOM     71  C   UNL A   1      39.265  32.002  35.537  1.00  0.00     0.064 A 
ATOM     72  C   UNL A   1      39.671  33.339  35.661  1.00  0.00     0.173 A 
ATOM     73  C   UNL A   1      38.427  31.481  36.534  1.00  0.00     0.173 A 
ATOM     74  F   UNL A   1      40.489  33.876  34.743  1.00  0.00    -0.203 F 
ATOM     75  C   UNL A   1      39.271  34.118  36.744  1.00  0.00     0.198 A 
ATOM     76  C   UNL A   1      38.007  32.268  37.605  1.00  0.00     0.198 A 
ATOM     77  F   UNL A   1      38.005  30.210  36.459  1.00  0.00    -0.203 F 
ATOM     78  F   UNL A   1      39.707  35.380  36.856  1.00  0.00    -0.200 F 
ATOM     79  C   UNL A   1      38.435  33.584  37.712  1.00  0.00     0.200 A 
ATOM     80  F   UNL A   1      37.189  31.754  38.533  1.00  0.00    -0.200 F 
ATOM     81  F   UNL A   1      38.046  34.334  38.752  1.00  0.00    -0.200 F 
ENDBRANCH  47  71
BRANCH  59  82
ATOM     82  C   UNL A   1      44.678  27.747  34.485  1.00  0.00     0.064 A 
ATOM     83  C   UNL A   1      45.854  28.507  34.515  1.00  0.00     0.173 A 
ATOM     84  C   UNL A   1      44.589  26.632  35.331  1.00  0.00     0.173 A 
ATOM     85  F   UNL A   1      45.991  29.573  33.712  1.00  0.00    -0.203 F 
ATOM     86  C   UNL A   1      46.908  28.157  35.355  1.00  0.00     0.198 A 
ATOM     87  C   UNL A   1      45.634  26.299  36.187  1.00  0.00     0.198 A 
ATOM     88  F   UNL A   1      43.481  25.876  35.340  1.00  0.00    -0.203 F 
ATOM     89  F   UNL A   1      48.037  28.878  35.346  1.00  0.00    -0.200 F 
ATOM     90  C   UNL A   1      46.793  27.059  36.196  1.00  0.00     0.200 A 
ATOM     91  F   UNL A   1      45.516  25.245  37.007  1.00  0.00    -0.200 F 
ATOM     92  F   UNL A   1      47.804  26.732  37.013  1.00  0.00    -0.200 F 
ENDBRANCH  59  82
ENDBRANCH  33  34
ENDBRANCH  25  28
ENDBRANCH  23  24
ENDBRANCH   1  23
TORSDOF 11
ENDMDL
MODEL 3
REMARK VINA RESULT:     -13.5      1.914      2.701
REMARK SMILES O=C(NCCCNC(=O)c1ccc(-c2c3nc(c(-c4c(F)c(F)c(F)c(F)c4F)c4ccc([nH]4)c(-c4c(F)c(F)c(F)c(F)c4F)c4nc(c(-c5c(F)c(F)c(F)c(F)c5F)c5ccc2[nH]5)C=C4)C=C3)cc1)C1=Cc2cc(Cl)cc(Cl)c2O[C@@H]1C(F)(F)F
REMARK SMILES IDX 5 1 4 2 3 3 1 4 2 5 73 7 74 8 84 9 75 10 83 11 76 12 82 13
REMARK SMILES IDX 77 14 80 15 78 16 79 17 81 18 85 19 86 20 87 21 88 22 6 23
REMARK SMILES IDX 7 24 8 25 9 27 10 28 11 29 72 30 12 31 71 32 13 33 14 34
REMARK SMILES IDX 15 35 65 36 16 37 70 38 64 39 66 40 17 41 69 42 63 43 62 44
REMARK SMILES IDX 18 46 50 47 30 48 49 49 31 50 34 51 48 52 67 53 32 54 33 55
REMARK SMILES IDX 47 57 68 58 35 59 19 60 20 61 28 62 21 63 22 64 26 65 29 66
REMARK SMILES IDX 23 67 24 68 27 69 25 70 51 71 52 72 60 73 53 74 54 75 58 76
REMARK SMILES IDX 61 77 55 78 56 79 59 80 57 81 36 82 37 83 45 84 38 85 39 86
REMARK SMILES IDX 43 87 46 88 40 89 41 90 44 91 42 92
REMARK H PARENT 3 6 7 26 66 45 34 56
REMARK Flexibility Score: inf
ROOT
ATOM      1  C   UNL A   1      31.943  28.286  26.368  1.00  0.00     0.042 C 
ENDROOT
BRANCH   1   2
ATOM      2  C   UNL A   1      32.695  26.965  26.450  1.00  0.00     0.118 C 
BRANCH   2   3
ATOM      3  N   UNL A   1      31.915  25.896  27.078  1.00  0.00    -0.352 N 
ATOM      4  O   UNL A   1      30.751  23.949  27.159  1.00  0.00    -0.270 OA
ATOM      5  C   UNL A   1      31.162  24.898  26.506  1.00  0.00     0.251 C 
ATOM      6  H   UNL A   1      31.931  25.893  28.062  1.00  0.00     0.163 HD
BRANCH   5   7
ATOM      7  C   UNL A   1      30.935  24.982  25.051  1.00  0.00     0.067 C 
ATOM      8  C   UNL A   1      29.921  25.751  24.636  1.00  0.00     0.025 C 
ATOM      9  C   UNL A   1      32.060  24.563  24.159  1.00  0.00     0.314 C 
ATOM     10  C   UNL A   1      30.309  26.685  23.568  1.00  0.00     0.020 A 
ATOM     11  O   UNL A   1      32.510  25.644  23.310  1.00  0.00    -0.474 OA
ATOM     12  C   UNL A   1      29.514  27.828  23.414  1.00  0.00     0.032 A 
ATOM     13  C   UNL A   1      31.631  26.676  23.075  1.00  0.00     0.146 A 
ATOM     14  C   UNL A   1      30.070  28.984  22.869  1.00  0.00     0.043 A 
ATOM     15  C   UNL A   1      32.158  27.841  22.499  1.00  0.00     0.085 A 
ATOM     16  Cl  UNL A   1      29.155  30.442  22.886  1.00  0.00    -0.084 Cl
ATOM     17  C   UNL A   1      31.389  29.002  22.424  1.00  0.00     0.045 A 
ATOM     18  Cl  UNL A   1      33.822  27.936  22.042  1.00  0.00    -0.080 Cl
BRANCH   9  19
ATOM     19  C   UNL A   1      31.685  23.328  23.325  1.00  0.00     0.429 C 
ATOM     20  F   UNL A   1      32.482  23.217  22.235  1.00  0.00    -0.167 F 
ATOM     21  F   UNL A   1      31.822  22.181  24.030  1.00  0.00    -0.167 F 
ATOM     22  F   UNL A   1      30.406  23.380  22.883  1.00  0.00    -0.167 F 
ENDBRANCH   9  19
ENDBRANCH   5   7
ENDBRANCH   2   3
ENDBRANCH   1   2
BRANCH   1  23
ATOM     23  C   UNL A   1      32.834  29.422  25.882  1.00  0.00     0.118 C 
BRANCH  23  24
ATOM     24  N   UNL A   1      32.474  30.734  26.419  1.00  0.00    -0.352 N 
ATOM     25  C   UNL A   1      33.181  31.598  27.234  1.00  0.00     0.251 C 
ATOM     26  H   UNL A   1      31.581  31.055  26.156  1.00  0.00     0.163 HD
ATOM     27  O   UNL A   1      32.659  32.620  27.648  1.00  0.00    -0.269 OA
BRANCH  25  28
ATOM     28  C   UNL A   1      34.560  31.252  27.650  1.00  0.00     0.039 A 
ATOM     29  C   UNL A   1      35.535  32.252  27.702  1.00  0.00     0.014 A 
ATOM     30  C   UNL A   1      34.872  29.957  28.055  1.00  0.00     0.014 A 
ATOM     31  C   UNL A   1      36.772  31.983  28.300  1.00  0.00     0.010 A 
ATOM     32  C   UNL A   1      36.040  29.730  28.767  1.00  0.00     0.010 A 
ATOM     33  C   UNL A   1      37.002  30.743  28.912  1.00  0.00    -0.014 A 
BRANCH  33  34
ATOM     34  C   UNL A   1      38.217  30.445  29.721  1.00  0.00     0.031 A 
ATOM     35  C   UNL A   1      39.253  29.503  29.171  1.00  0.00     0.074 A 
ATOM     36  C   UNL A   1      38.320  30.890  30.989  1.00  0.00     0.049 A 
ATOM     37  N   UNL A   1      40.221  28.876  29.788  1.00  0.00    -0.248 NA
ATOM     38  C   UNL A   1      39.138  29.170  27.741  1.00  0.00     0.031 C 
ATOM     39  C   UNL A   1      37.371  31.775  31.666  1.00  0.00     0.029 A 
ATOM     40  N   UNL A   1      39.269  30.631  31.950  1.00  0.00    -0.354 N 
ATOM     41  C   UNL A   1      40.783  28.030  28.840  1.00  0.00     0.074 A 
ATOM     42  C   UNL A   1      40.015  28.186  27.624  1.00  0.00     0.031 C 
ATOM     43  C   UNL A   1      37.801  32.013  32.916  1.00  0.00     0.029 A 
ATOM     44  C   UNL A   1      39.022  31.249  33.152  1.00  0.00     0.049 A 
ATOM     45  H   UNL A   1      40.053  30.058  31.791  1.00  0.00     0.167 HD
ATOM     46  C   UNL A   1      41.857  27.215  28.963  1.00  0.00     0.037 A 
ATOM     47  C   UNL A   1      39.694  31.192  34.317  1.00  0.00     0.037 A 
ATOM     48  C   UNL A   1      42.665  27.125  30.150  1.00  0.00     0.049 A 
ATOM     49  C   UNL A   1      40.911  30.314  34.419  1.00  0.00     0.074 A 
ATOM     50  C   UNL A   1      43.816  26.386  30.359  1.00  0.00     0.029 A 
ATOM     51  N   UNL A   1      42.415  27.820  31.324  1.00  0.00    -0.354 N 
ATOM     52  N   UNL A   1      41.446  29.534  33.513  1.00  0.00    -0.248 NA
ATOM     53  C   UNL A   1      41.615  30.305  35.710  1.00  0.00     0.031 C 
ATOM     54  C   UNL A   1      44.250  26.618  31.669  1.00  0.00     0.029 A 
ATOM     55  C   UNL A   1      43.392  27.530  32.261  1.00  0.00     0.049 A 
ATOM     56  H   UNL A   1      41.656  28.429  31.469  1.00  0.00     0.167 HD
ATOM     57  C   UNL A   1      42.566  28.970  34.108  1.00  0.00     0.074 A 
ATOM     58  C   UNL A   1      42.636  29.498  35.454  1.00  0.00     0.031 C 
ATOM     59  C   UNL A   1      43.458  28.094  33.585  1.00  0.00     0.037 A 
BRANCH  46  60
ATOM     60  C   UNL A   1      42.223  26.370  27.776  1.00  0.00     0.064 A 
ATOM     61  C   UNL A   1      41.628  25.119  27.550  1.00  0.00     0.173 A 
ATOM     62  C   UNL A   1      43.184  26.814  26.855  1.00  0.00     0.173 A 
ATOM     63  F   UNL A   1      40.714  24.643  28.410  1.00  0.00    -0.203 F 
ATOM     64  C   UNL A   1      42.017  24.323  26.477  1.00  0.00     0.198 A 
ATOM     65  C   UNL A   1      43.543  26.031  25.761  1.00  0.00     0.198 A 
ATOM     66  F   UNL A   1      43.780  28.005  27.017  1.00  0.00    -0.203 F 
ATOM     67  F   UNL A   1      41.486  23.101  26.326  1.00  0.00    -0.200 F 
ATOM     68  C   UNL A   1      42.970  24.781  25.580  1.00  0.00     0.200 A 
ATOM     69  F   UNL A   1      44.456  26.479  24.888  1.00  0.00    -0.200 F 
ATOM     70  F   UNL A   1      43.345  24.012  24.549  1.00  0.00    -0.200 F 
ENDBRANCH  46  60
BRANCH  47  71
ATOM     71  C   UNL A   1      39.256  32.021  35.470  1.00  0.00     0.064 A 
ATOM     72  C   UNL A   1      39.661  33.359  35.574  1.00  0.00     0.173 A 
ATOM     73  C   UNL A   1      38.429  31.509  36.480  1.00  0.00     0.173 A 
ATOM     74  F   UNL A   1      40.469  33.888  34.643  1.00  0.00    -0.203 F 
ATOM     75  C   UNL A   1      39.270  34.150  36.653  1.00  0.00     0.198 A 
ATOM     76  C   UNL A   1      38.018  32.308  37.546  1.00  0.00     0.198 A 
ATOM     77  F   UNL A   1      38.009  30.237  36.424  1.00  0.00    -0.203 F 
ATOM     78  F   UNL A   1      39.704  35.414  36.746  1.00  0.00    -0.200 F 
ATOM     79  C   UNL A   1      38.444  33.626  37.635  1.00  0.00     0.200 A 
ATOM     80  F   UNL A   1      37.209  31.802  38.488  1.00  0.00    -0.200 F 
ATOM     81  F   UNL A   1      38.064  34.386  38.670  1.00  0.00    -0.200 F 
ENDBRANCH  47  71
BRANCH  59  82
ATOM     82  C   UNL A   1      44.621  27.698  34.444  1.00  0.00     0.064 A 
ATOM     83  C   UNL A   1      44.578  26.564  35.265  1.00  0.00     0.173 A 
ATOM     84  C   UNL A   1      45.814  28.434  34.394  1.00  0.00     0.173 A 
ATOM     85  F   UNL A   1      43.454  25.838  35.358  1.00  0.00    -0.203 F 
ATOM     86  C   UNL A   1      45.688  26.186  36.017  1.00  0.00     0.198 A 
ATOM     87  C   UNL A   1      46.928  28.039  35.127  1.00  0.00     0.198 A 
ATOM     88  F   UNL A   1      45.904  29.525  33.619  1.00  0.00    -0.203 F 
ATOM     89  F   UNL A   1      45.617  25.116  36.820  1.00  0.00    -0.200 F 
ATOM     90  C   UNL A   1      46.864  26.918  35.941  1.00  0.00     0.200 A 
ATOM     91  F   UNL A   1      48.067  28.742  35.043  1.00  0.00    -0.200 F 
ATOM     92  F   UNL A   1      47.934  26.545  36.655  1.00  0.00    -0.200 F 
ENDBRANCH  59  82
ENDBRANCH  33  34
ENDBRANCH  25  28
ENDBRANCH  23  24
ENDBRANCH   1  23
TORSDOF 11
ENDMDL
