MODEL 1
REMARK VINA RESULT:     -13.8      0.000      0.000
REMARK SMILES Cc1cc(=O)c(Oc2ccc(C(=O)NCCCNC(=O)c3ccc(-c4c5nc(c(-c6c(F)c(F)c(F)c(F)c6F)c6ccc([nH]6)c(-c6c(F)c(F)c(F)c(F)c6F)c6nc(c(-c7c(F)c(F)c(F)c(F)c7F)c7ccc4[nH]7)C=C6)C=C5)cc3)cc2)c(-c2ccc(S(C)(=O)=O)cc2)o1
REMARK SMILES IDX 15 1 14 2 12 3 13 4 11 6 8 7 9 8 85 9 10 10 84 11 7 12 6 13
REMARK SMILES IDX 1 14 2 15 3 16 97 17 4 18 86 19 5 20 87 21 88 22 96 23 89 24
REMARK SMILES IDX 95 25 90 26 91 27 92 28 93 29 94 30 16 31 17 32 18 33 19 34
REMARK SMILES IDX 20 36 21 37 22 38 83 39 23 40 82 41 24 42 25 43 26 44 76 45
REMARK SMILES IDX 27 46 81 47 75 48 77 49 28 50 80 51 74 52 73 53 29 55 61 56
REMARK SMILES IDX 41 57 60 58 42 59 45 60 59 61 78 62 43 63 44 64 58 66 79 67
REMARK SMILES IDX 46 68 30 69 31 70 39 71 32 72 33 73 37 74 40 75 34 76 35 77
REMARK SMILES IDX 38 78 36 79 62 80 63 81 71 82 64 83 65 84 69 85 72 86 66 87
REMARK SMILES IDX 67 88 70 89 68 90 47 91 48 92 56 93 49 94 50 95 54 96 57 97
REMARK SMILES IDX 51 98 52 99 55 100 53 101
REMARK H PARENT 14 5 18 35 77 54 45 65
REMARK Flexibility Score: inf
ROOT
ATOM      1  C   UNL A   1      31.945  31.000  26.849  1.00  0.00     0.118 C 
ENDROOT
BRANCH   1   2
ATOM      2  N   UNL A   1      33.196  30.585  27.461  1.00  0.00    -0.352 N 
ATOM      3  C   UNL A   1      33.940  29.432  27.361  1.00  0.00     0.251 C 
ATOM      4  O   UNL A   1      35.062  29.420  27.864  1.00  0.00    -0.269 OA
ATOM      5  H   UNL A   1      33.587  31.258  28.063  1.00  0.00     0.163 HD
BRANCH   3   6
ATOM      6  C   UNL A   1      33.393  28.173  26.789  1.00  0.00     0.040 A 
ATOM      7  C   UNL A   1      32.797  25.519  26.215  1.00  0.00     0.127 A 
ATOM      8  C   UNL A   1      33.928  26.094  25.649  1.00  0.00     0.048 A 
ATOM      9  C   UNL A   1      31.847  26.326  26.836  1.00  0.00     0.048 A 
ATOM     10  C   UNL A   1      34.250  27.413  25.978  1.00  0.00     0.017 A 
ATOM     11  C   UNL A   1      32.128  27.669  27.079  1.00  0.00     0.017 A 
BRANCH   7  12
ATOM     12  O   UNL A   1      32.513  24.191  26.132  1.00  0.00    -0.449 OA
BRANCH  12  13
ATOM     13  C   UNL A   1      32.302  23.514  24.938  1.00  0.00     0.217 A 
ATOM     14  C   UNL A   1      31.752  20.912  21.529  1.00  0.00     0.088 C 
ATOM     15  C   UNL A   1      32.030  21.734  22.746  1.00  0.00     0.105 A 
ATOM     16  C   UNL A   1      32.725  21.274  23.787  1.00  0.00     0.098 A 
ATOM     17  O   UNL A   1      31.529  23.015  22.697  1.00  0.00    -0.457 OA
ATOM     18  C   UNL A   1      32.921  22.149  24.951  1.00  0.00     0.228 A 
ATOM     19  C   UNL A   1      31.690  23.880  23.778  1.00  0.00     0.180 A 
ATOM     20  O   UNL A   1      33.588  21.741  25.898  1.00  0.00    -0.285 OA
BRANCH  19  21
ATOM     21  C   UNL A   1      31.079  25.184  23.447  1.00  0.00     0.021 A 
ATOM     22  C   UNL A   1      29.823  25.517  23.987  1.00  0.00     0.013 A 
ATOM     23  C   UNL A   1      31.711  26.089  22.583  1.00  0.00     0.013 A 
ATOM     24  C   UNL A   1      29.247  26.766  23.735  1.00  0.00     0.021 A 
ATOM     25  C   UNL A   1      31.132  27.335  22.316  1.00  0.00     0.021 A 
ATOM     26  C   UNL A   1      29.909  27.671  22.902  1.00  0.00     0.067 A 
BRANCH  26  27
ATOM     27  S   UNL A   1      29.217  29.293  22.663  1.00  0.00     0.175 S 
ATOM     28  C   UNL A   1      27.477  29.039  22.875  1.00  0.00     0.163 C 
ATOM     29  O   UNL A   1      29.676  30.125  23.756  1.00  0.00    -0.224 OA
ATOM     30  O   UNL A   1      29.439  29.675  21.278  1.00  0.00    -0.224 OA
ENDBRANCH  26  27
ENDBRANCH  19  21
ENDBRANCH  12  13
ENDBRANCH   7  12
ENDBRANCH   3   6
ENDBRANCH   1   2
BRANCH   1  31
ATOM     31  C   UNL A   1      31.677  32.496  26.860  1.00  0.00     0.042 C 
BRANCH  31  32
ATOM     32  C   UNL A   1      32.860  33.374  27.224  1.00  0.00     0.118 C 
BRANCH  32  33
ATOM     33  N   UNL A   1      32.486  34.606  27.912  1.00  0.00    -0.352 N 
ATOM     34  C   UNL A   1      33.002  35.242  29.018  1.00  0.00     0.251 C 
ATOM     35  H   UNL A   1      31.719  35.071  27.506  1.00  0.00     0.163 HD
ATOM     36  O   UNL A   1      32.413  36.216  29.480  1.00  0.00    -0.269 OA
BRANCH  34  37
ATOM     37  C   UNL A   1      34.223  34.747  29.696  1.00  0.00     0.039 A 
ATOM     38  C   UNL A   1      35.472  34.821  29.090  1.00  0.00     0.014 A 
ATOM     39  C   UNL A   1      34.121  34.207  30.985  1.00  0.00     0.014 A 
ATOM     40  C   UNL A   1      36.552  34.143  29.641  1.00  0.00     0.010 A 
ATOM     41  C   UNL A   1      35.246  33.648  31.605  1.00  0.00     0.010 A 
ATOM     42  C   UNL A   1      36.460  33.550  30.910  1.00  0.00    -0.014 A 
BRANCH  42  43
ATOM     43  C   UNL A   1      37.649  32.847  31.468  1.00  0.00     0.031 A 
ATOM     44  C   UNL A   1      38.179  33.186  32.838  1.00  0.00     0.074 A 
ATOM     45  C   UNL A   1      38.200  31.832  30.770  1.00  0.00     0.049 A 
ATOM     46  N   UNL A   1      39.163  32.630  33.503  1.00  0.00    -0.248 NA
ATOM     47  C   UNL A   1      37.526  34.289  33.562  1.00  0.00     0.031 C 
ATOM     48  C   UNL A   1      37.771  31.399  29.438  1.00  0.00     0.029 A 
ATOM     49  N   UNL A   1      39.204  30.953  31.092  1.00  0.00    -0.354 N 
ATOM     50  C   UNL A   1      39.250  33.317  34.707  1.00  0.00     0.074 A 
ATOM     51  C   UNL A   1      38.250  34.360  34.671  1.00  0.00     0.031 C 
ATOM     52  C   UNL A   1      38.445  30.294  29.094  1.00  0.00     0.029 A 
ATOM     53  C   UNL A   1      39.414  29.984  30.139  1.00  0.00     0.049 A 
ATOM     54  H   UNL A   1      39.724  31.010  31.926  1.00  0.00     0.167 HD
ATOM     55  C   UNL A   1      40.073  33.083  35.758  1.00  0.00     0.037 A 
ATOM     56  C   UNL A   1      40.295  28.966  30.100  1.00  0.00     0.037 A 
ATOM     57  C   UNL A   1      41.056  32.030  35.800  1.00  0.00     0.049 A 
ATOM     58  C   UNL A   1      41.243  28.779  31.251  1.00  0.00     0.074 A 
ATOM     59  C   UNL A   1      41.935  31.716  36.823  1.00  0.00     0.029 A 
ATOM     60  N   UNL A   1      41.287  31.120  34.781  1.00  0.00    -0.354 N 
ATOM     61  N   UNL A   1      41.304  29.430  32.386  1.00  0.00    -0.248 NA
ATOM     62  C   UNL A   1      42.252  27.719  31.112  1.00  0.00     0.031 C 
ATOM     63  C   UNL A   1      42.729  30.647  36.404  1.00  0.00     0.029 A 
ATOM     64  C   UNL A   1      42.308  30.256  35.144  1.00  0.00     0.049 A 
ATOM     65  H   UNL A   1      40.798  31.091  33.926  1.00  0.00     0.167 HD
ATOM     66  C   UNL A   1      42.338  28.848  33.105  1.00  0.00     0.074 A 
ATOM     67  C   UNL A   1      42.864  27.776  32.287  1.00  0.00     0.031 C 
ATOM     68  C   UNL A   1      42.809  29.178  34.331  1.00  0.00     0.037 A 
BRANCH  55  69
ATOM     69  C   UNL A   1      39.953  33.968  36.965  1.00  0.00     0.064 A 
ATOM     70  C   UNL A   1      40.615  35.202  37.036  1.00  0.00     0.173 A 
ATOM     71  C   UNL A   1      39.084  33.630  38.015  1.00  0.00     0.173 A 
ATOM     72  F   UNL A   1      41.463  35.569  36.063  1.00  0.00    -0.203 F 
ATOM     73  C   UNL A   1      40.420  36.061  38.115  1.00  0.00     0.198 A 
ATOM     74  C   UNL A   1      38.868  34.505  39.079  1.00  0.00     0.198 A 
ATOM     75  F   UNL A   1      38.417  32.467  37.994  1.00  0.00    -0.203 F 
ATOM     76  F   UNL A   1      41.083  37.225  38.172  1.00  0.00    -0.200 F 
ATOM     77  C   UNL A   1      39.537  35.717  39.128  1.00  0.00     0.200 A 
ATOM     78  F   UNL A   1      38.000  34.180  40.046  1.00  0.00    -0.200 F 
ATOM     79  F   UNL A   1      39.330  36.558  40.151  1.00  0.00    -0.200 F 
ENDBRANCH  55  69
BRANCH  56  80
ATOM     80  C   UNL A   1      40.316  28.047  28.931  1.00  0.00     0.064 A 
ATOM     81  C   UNL A   1      41.054  28.363  27.782  1.00  0.00     0.173 A 
ATOM     82  C   UNL A   1      39.611  26.834  28.939  1.00  0.00     0.173 A 
ATOM     83  F   UNL A   1      41.730  29.519  27.715  1.00  0.00    -0.203 F 
ATOM     84  C   UNL A   1      41.073  27.506  26.682  1.00  0.00     0.198 A 
ATOM     85  C   UNL A   1      39.660  25.964  27.854  1.00  0.00     0.198 A 
ATOM     86  F   UNL A   1      38.891  26.483  30.015  1.00  0.00    -0.203 F 
ATOM     87  F   UNL A   1      41.752  27.852  25.579  1.00  0.00    -0.200 F 
ATOM     88  C   UNL A   1      40.384  26.304  26.723  1.00  0.00     0.200 A 
ATOM     89  F   UNL A   1      39.009  24.794  27.906  1.00  0.00    -0.200 F 
ATOM     90  F   UNL A   1      40.414  25.476  25.669  1.00  0.00    -0.200 F 
ENDBRANCH  56  80
BRANCH  68  91
ATOM     91  C   UNL A   1      43.931  28.355  34.894  1.00  0.00     0.064 A 
ATOM     92  C   UNL A   1      45.272  28.727  34.721  1.00  0.00     0.173 A 
ATOM     93  C   UNL A   1      43.656  27.234  35.692  1.00  0.00     0.173 A 
ATOM     94  F   UNL A   1      45.587  29.782  33.955  1.00  0.00    -0.203 F 
ATOM     95  C   UNL A   1      46.297  28.000  35.320  1.00  0.00     0.198 A 
ATOM     96  C   UNL A   1      44.681  26.530  36.315  1.00  0.00     0.198 A 
ATOM     97  F   UNL A   1      42.389  26.843  35.895  1.00  0.00    -0.203 F 
ATOM     98  F   UNL A   1      47.573  28.353  35.117  1.00  0.00    -0.200 F 
ATOM     99  C   UNL A   1      46.000  26.910  36.127  1.00  0.00     0.200 A 
ATOM    100  F   UNL A   1      44.390  25.489  37.109  1.00  0.00    -0.200 F 
ATOM    101  F   UNL A   1      46.987  26.228  36.723  1.00  0.00    -0.200 F 
ENDBRANCH  68  91
ENDBRANCH  42  43
ENDBRANCH  34  37
ENDBRANCH  32  33
ENDBRANCH  31  32
ENDBRANCH   1  31
TORSDOF 14
ENDMDL
MODEL 2
REMARK VINA RESULT:     -13.5      5.808     11.176
REMARK SMILES Cc1cc(=O)c(Oc2ccc(C(=O)NCCCNC(=O)c3ccc(-c4c5nc(c(-c6c(F)c(F)c(F)c(F)c6F)c6ccc([nH]6)c(-c6c(F)c(F)c(F)c(F)c6F)c6nc(c(-c7c(F)c(F)c(F)c(F)c7F)c7ccc4[nH]7)C=C6)C=C5)cc3)cc2)c(-c2ccc(S(C)(=O)=O)cc2)o1
REMARK SMILES IDX 15 1 14 2 12 3 13 4 11 6 8 7 9 8 85 9 10 10 84 11 7 12 6 13
REMARK SMILES IDX 1 14 2 15 3 16 97 17 4 18 86 19 5 20 87 21 88 22 96 23 89 24
REMARK SMILES IDX 95 25 90 26 91 27 92 28 93 29 94 30 16 31 17 32 18 33 19 34
REMARK SMILES IDX 20 36 21 37 22 38 83 39 23 40 82 41 24 42 25 43 26 44 76 45
REMARK SMILES IDX 27 46 81 47 75 48 77 49 28 50 80 51 74 52 73 53 29 55 61 56
REMARK SMILES IDX 41 57 60 58 42 59 45 60 59 61 78 62 43 63 44 64 58 66 79 67
REMARK SMILES IDX 46 68 30 69 31 70 39 71 32 72 33 73 37 74 40 75 34 76 35 77
REMARK SMILES IDX 38 78 36 79 62 80 63 81 71 82 64 83 65 84 69 85 72 86 66 87
REMARK SMILES IDX 67 88 70 89 68 90 47 91 48 92 56 93 49 94 50 95 54 96 57 97
REMARK SMILES IDX 51 98 52 99 55 100 53 101
REMARK H PARENT 14 5 18 35 77 54 45 65
REMARK Flexibility Score: inf
ROOT
ATOM      1  C   UNL A   1      37.823  20.839  24.806  1.00  0.00     0.118 C 
ENDROOT
BRANCH   1   2
ATOM      2  N   UNL A   1      38.334  22.052  25.423  1.00  0.00    -0.352 N 
ATOM      3  C   UNL A   1      37.746  23.260  25.719  1.00  0.00     0.251 C 
ATOM      4  O   UNL A   1      38.377  24.060  26.408  1.00  0.00    -0.269 OA
ATOM      5  H   UNL A   1      39.283  21.999  25.680  1.00  0.00     0.163 HD
BRANCH   3   6
ATOM      6  C   UNL A   1      36.446  23.683  25.134  1.00  0.00     0.040 A 
ATOM      7  C   UNL A   1      34.343  25.113  24.013  1.00  0.00     0.127 A 
ATOM      8  C   UNL A   1      34.511  25.131  25.391  1.00  0.00     0.048 A 
ATOM      9  C   UNL A   1      35.045  24.192  23.240  1.00  0.00     0.048 A 
ATOM     10  C   UNL A   1      35.597  24.451  25.947  1.00  0.00     0.017 A 
ATOM     11  C   UNL A   1      36.067  23.439  23.816  1.00  0.00     0.017 A 
BRANCH   7  12
ATOM     12  O   UNL A   1      33.454  25.910  23.358  1.00  0.00    -0.449 OA
BRANCH  12  13
ATOM     13  C   UNL A   1      32.082  25.886  23.575  1.00  0.00     0.217 A 
ATOM     14  C   UNL A   1      27.805  26.349  24.001  1.00  0.00     0.088 C 
ATOM     15  C   UNL A   1      29.294  26.311  23.876  1.00  0.00     0.105 A 
ATOM     16  C   UNL A   1      30.036  27.407  23.716  1.00  0.00     0.098 A 
ATOM     17  O   UNL A   1      29.841  25.050  23.960  1.00  0.00    -0.457 OA
ATOM     18  C   UNL A   1      31.491  27.263  23.572  1.00  0.00     0.228 A 
ATOM     19  C   UNL A   1      31.216  24.866  23.829  1.00  0.00     0.180 A 
ATOM     20  O   UNL A   1      32.181  28.272  23.458  1.00  0.00    -0.285 OA
BRANCH  19  21
ATOM     21  C   UNL A   1      31.527  23.430  23.982  1.00  0.00     0.021 A 
ATOM     22  C   UNL A   1      31.802  22.655  22.840  1.00  0.00     0.013 A 
ATOM     23  C   UNL A   1      31.528  22.812  25.240  1.00  0.00     0.013 A 
ATOM     24  C   UNL A   1      32.152  21.306  22.961  1.00  0.00     0.021 A 
ATOM     25  C   UNL A   1      31.865  21.459  25.365  1.00  0.00     0.021 A 
ATOM     26  C   UNL A   1      32.186  20.717  24.225  1.00  0.00     0.067 A 
BRANCH  26  27
ATOM     27  S   UNL A   1      32.726  19.028  24.380  1.00  0.00     0.175 S 
ATOM     28  C   UNL A   1      34.475  19.171  24.626  1.00  0.00     0.163 C 
ATOM     29  O   UNL A   1      32.153  18.501  25.600  1.00  0.00    -0.224 OA
ATOM     30  O   UNL A   1      32.515  18.372  23.101  1.00  0.00    -0.224 OA
ENDBRANCH  26  27
ENDBRANCH  19  21
ENDBRANCH  12  13
ENDBRANCH   7  12
ENDBRANCH   3   6
ENDBRANCH   1   2
BRANCH   1  31
ATOM     31  C   UNL A   1      38.535  19.556  25.201  1.00  0.00     0.042 C 
BRANCH  31  32
ATOM     32  C   UNL A   1      39.645  19.707  26.227  1.00  0.00     0.118 C 
BRANCH  32  33
ATOM     33  N   UNL A   1      40.785  18.829  25.989  1.00  0.00    -0.352 N 
ATOM     34  C   UNL A   1      42.142  19.058  25.970  1.00  0.00     0.251 C 
ATOM     35  H   UNL A   1      40.537  17.893  25.809  1.00  0.00     0.163 HD
ATOM     36  O   UNL A   1      42.899  18.160  25.610  1.00  0.00    -0.269 OA
BRANCH  34  37
ATOM     37  C   UNL A   1      42.708  20.381  26.324  1.00  0.00     0.039 A 
ATOM     38  C   UNL A   1      42.650  20.873  27.623  1.00  0.00     0.014 A 
ATOM     39  C   UNL A   1      43.331  21.149  25.332  1.00  0.00     0.014 A 
ATOM     40  C   UNL A   1      42.972  22.201  27.878  1.00  0.00     0.010 A 
ATOM     41  C   UNL A   1      43.788  22.441  25.624  1.00  0.00     0.010 A 
ATOM     42  C   UNL A   1      43.551  23.006  26.885  1.00  0.00    -0.014 A 
BRANCH  42  43
ATOM     43  C   UNL A   1      43.894  24.419  27.209  1.00  0.00     0.031 A 
ATOM     44  C   UNL A   1      45.264  24.973  26.910  1.00  0.00     0.074 A 
ATOM     45  C   UNL A   1      42.933  25.234  27.693  1.00  0.00     0.049 A 
ATOM     46  N   UNL A   1      45.711  26.196  27.067  1.00  0.00    -0.248 NA
ATOM     47  C   UNL A   1      46.266  24.043  26.364  1.00  0.00     0.031 C 
ATOM     48  C   UNL A   1      41.566  24.821  28.014  1.00  0.00     0.029 A 
ATOM     49  N   UNL A   1      42.940  26.580  27.959  1.00  0.00    -0.354 N 
ATOM     50  C   UNL A   1      47.037  26.176  26.651  1.00  0.00     0.074 A 
ATOM     51  C   UNL A   1      47.341  24.814  26.274  1.00  0.00     0.031 C 
ATOM     52  C   UNL A   1      40.847  25.899  28.352  1.00  0.00     0.029 A 
ATOM     53  C   UNL A   1      41.718  27.069  28.356  1.00  0.00     0.049 A 
ATOM     54  H   UNL A   1      43.744  27.143  27.875  1.00  0.00     0.167 HD
ATOM     55  C   UNL A   1      47.913  27.206  26.569  1.00  0.00     0.037 A 
ATOM     56  C   UNL A   1      41.338  28.315  28.698  1.00  0.00     0.037 A 
ATOM     57  C   UNL A   1      47.603  28.567  26.927  1.00  0.00     0.049 A 
ATOM     58  C   UNL A   1      42.354  29.421  28.664  1.00  0.00     0.074 A 
ATOM     59  C   UNL A   1      48.428  29.678  26.876  1.00  0.00     0.029 A 
ATOM     60  N   UNL A   1      46.374  29.002  27.396  1.00  0.00    -0.354 N 
ATOM     61  N   UNL A   1      43.599  29.387  28.258  1.00  0.00    -0.248 NA
ATOM     62  C   UNL A   1      41.915  30.739  29.145  1.00  0.00     0.031 C 
ATOM     63  C   UNL A   1      47.713  30.775  27.359  1.00  0.00     0.029 A 
ATOM     64  C   UNL A   1      46.425  30.362  27.657  1.00  0.00     0.049 A 
ATOM     65  H   UNL A   1      45.583  28.430  27.526  1.00  0.00     0.167 HD
ATOM     66  C   UNL A   1      44.085  30.678  28.412  1.00  0.00     0.074 A 
ATOM     67  C   UNL A   1      42.995  31.477  28.929  1.00  0.00     0.031 C 
ATOM     68  C   UNL A   1      45.327  31.153  28.151  1.00  0.00     0.037 A 
BRANCH  55  69
ATOM     69  C   UNL A   1      49.299  26.921  26.062  1.00  0.00     0.064 A 
ATOM     70  C   UNL A   1      50.295  26.409  26.907  1.00  0.00     0.173 A 
ATOM     71  C   UNL A   1      49.604  27.059  24.699  1.00  0.00     0.173 A 
ATOM     72  F   UNL A   1      50.058  26.266  28.220  1.00  0.00    -0.203 F 
ATOM     73  C   UNL A   1      51.546  26.055  26.408  1.00  0.00     0.198 A 
ATOM     74  C   UNL A   1      50.846  26.676  24.198  1.00  0.00     0.198 A 
ATOM     75  F   UNL A   1      48.685  27.534  23.845  1.00  0.00    -0.203 F 
ATOM     76  F   UNL A   1      52.490  25.590  27.239  1.00  0.00    -0.200 F 
ATOM     77  C   UNL A   1      51.816  26.176  25.053  1.00  0.00     0.200 A 
ATOM     78  F   UNL A   1      51.098  26.775  22.886  1.00  0.00    -0.200 F 
ATOM     79  F   UNL A   1      53.012  25.807  24.572  1.00  0.00    -0.200 F 
ENDBRANCH  55  69
BRANCH  56  80
ATOM     80  C   UNL A   1      39.930  28.579  29.097  1.00  0.00     0.064 A 
ATOM     81  C   UNL A   1      39.498  28.341  30.409  1.00  0.00     0.173 A 
ATOM     82  C   UNL A   1      38.990  29.080  28.183  1.00  0.00     0.173 A 
ATOM     83  F   UNL A   1      40.351  27.844  31.316  1.00  0.00    -0.203 F 
ATOM     84  C   UNL A   1      38.177  28.583  30.787  1.00  0.00     0.198 A 
ATOM     85  C   UNL A   1      37.682  29.355  28.571  1.00  0.00     0.198 A 
ATOM     86  F   UNL A   1      39.352  29.327  26.915  1.00  0.00    -0.203 F 
ATOM     87  F   UNL A   1      37.780  28.307  32.036  1.00  0.00    -0.200 F 
ATOM     88  C   UNL A   1      37.274  29.098  29.870  1.00  0.00     0.200 A 
ATOM     89  F   UNL A   1      36.818  29.871  27.687  1.00  0.00    -0.200 F 
ATOM     90  F   UNL A   1      36.008  29.342  30.238  1.00  0.00    -0.200 F 
ENDBRANCH  56  80
BRANCH  68  91
ATOM     91  C   UNL A   1      45.579  32.614  28.382  1.00  0.00     0.064 A 
ATOM     92  C   UNL A   1      46.167  33.078  29.568  1.00  0.00     0.173 A 
ATOM     93  C   UNL A   1      45.315  33.548  27.369  1.00  0.00     0.173 A 
ATOM     94  F   UNL A   1      46.425  32.227  30.572  1.00  0.00    -0.203 F 
ATOM     95  C   UNL A   1      46.472  34.426  29.733  1.00  0.00     0.198 A 
ATOM     96  C   UNL A   1      45.651  34.888  27.525  1.00  0.00     0.198 A 
ATOM     97  F   UNL A   1      44.762  33.152  26.212  1.00  0.00    -0.203 F 
ATOM     98  F   UNL A   1      47.004  34.854  30.886  1.00  0.00    -0.200 F 
ATOM     99  C   UNL A   1      46.226  35.328  28.707  1.00  0.00     0.200 A 
ATOM    100  F   UNL A   1      45.430  35.754  26.525  1.00  0.00    -0.200 F 
ATOM    101  F   UNL A   1      46.543  36.620  28.858  1.00  0.00    -0.200 F 
ENDBRANCH  68  91
ENDBRANCH  42  43
ENDBRANCH  34  37
ENDBRANCH  32  33
ENDBRANCH  31  32
ENDBRANCH   1  31
TORSDOF 14
ENDMDL
MODEL 3
REMARK VINA RESULT:     -13.2      6.404     10.921
REMARK SMILES Cc1cc(=O)c(Oc2ccc(C(=O)NCCCNC(=O)c3ccc(-c4c5nc(c(-c6c(F)c(F)c(F)c(F)c6F)c6ccc([nH]6)c(-c6c(F)c(F)c(F)c(F)c6F)c6nc(c(-c7c(F)c(F)c(F)c(F)c7F)c7ccc4[nH]7)C=C6)C=C5)cc3)cc2)c(-c2ccc(S(C)(=O)=O)cc2)o1
REMARK SMILES IDX 15 1 14 2 12 3 13 4 11 6 8 7 9 8 85 9 10 10 84 11 7 12 6 13
REMARK SMILES IDX 1 14 2 15 3 16 97 17 4 18 86 19 5 20 87 21 88 22 96 23 89 24
REMARK SMILES IDX 95 25 90 26 91 27 92 28 93 29 94 30 16 31 17 32 18 33 19 34
REMARK SMILES IDX 20 36 21 37 22 38 83 39 23 40 82 41 24 42 25 43 26 44 76 45
REMARK SMILES IDX 27 46 81 47 75 48 77 49 28 50 80 51 74 52 73 53 29 55 61 56
REMARK SMILES IDX 41 57 60 58 42 59 45 60 59 61 78 62 43 63 44 64 58 66 79 67
REMARK SMILES IDX 46 68 30 69 31 70 39 71 32 72 33 73 37 74 40 75 34 76 35 77
REMARK SMILES IDX 38 78 36 79 62 80 63 81 71 82 64 83 65 84 69 85 72 86 66 87
REMARK SMILES IDX 67 88 70 89 68 90 47 91 48 92 56 93 49 94 50 95 54 96 57 97
REMARK SMILES IDX 51 98 52 99 55 100 53 101
REMARK H PARENT 14 5 18 35 77 54 45 65
REMARK Flexibility Score: inf
ROOT
ATOM      1  C   UNL A   1      39.304  20.106  25.725  1.00  0.00     0.118 C 
ENDROOT
BRANCH   1   2
ATOM      2  N   UNL A   1      39.641  21.424  26.238  1.00  0.00    -0.352 N 
ATOM      3  C   UNL A   1      38.924  22.596  26.324  1.00  0.00     0.251 C 
ATOM      4  O   UNL A   1      39.407  23.524  26.971  1.00  0.00    -0.269 OA
ATOM      5  H   UNL A   1      40.557  21.492  26.592  1.00  0.00     0.163 HD
BRANCH   3   6
ATOM      6  C   UNL A   1      37.666  22.823  25.567  1.00  0.00     0.040 A 
ATOM      7  C   UNL A   1      35.620  23.882  24.010  1.00  0.00     0.127 A 
ATOM      8  C   UNL A   1      35.673  24.199  25.361  1.00  0.00     0.048 A 
ATOM      9  C   UNL A   1      36.412  22.852  23.509  1.00  0.00     0.048 A 
ATOM     10  C   UNL A   1      36.729  23.705  26.130  1.00  0.00     0.017 A 
ATOM     11  C   UNL A   1      37.405  22.288  24.308  1.00  0.00     0.017 A 
BRANCH   7  12
ATOM     12  O   UNL A   1      34.765  24.479  23.135  1.00  0.00    -0.449 OA
BRANCH  12  13
ATOM     13  C   UNL A   1      33.421  24.708  23.397  1.00  0.00     0.217 A 
ATOM     14  C   UNL A   1      29.323  25.961  23.977  1.00  0.00     0.088 C 
ATOM     15  C   UNL A   1      30.774  25.645  23.801  1.00  0.00     0.105 A 
ATOM     16  C   UNL A   1      31.707  26.585  23.650  1.00  0.00     0.098 A 
ATOM     17  O   UNL A   1      31.072  24.301  23.830  1.00  0.00    -0.457 OA
ATOM     18  C   UNL A   1      33.104  26.172  23.454  1.00  0.00     0.228 A 
ATOM     19  C   UNL A   1      32.383  23.863  23.648  1.00  0.00     0.180 A 
ATOM     20  O   UNL A   1      33.971  27.035  23.348  1.00  0.00    -0.285 OA
BRANCH  19  21
ATOM     21  C   UNL A   1      32.418  22.390  23.747  1.00  0.00     0.021 A 
ATOM     22  C   UNL A   1      32.088  21.612  22.622  1.00  0.00     0.013 A 
ATOM     23  C   UNL A   1      32.745  21.745  24.949  1.00  0.00     0.013 A 
ATOM     24  C   UNL A   1      32.165  20.216  22.673  1.00  0.00     0.021 A 
ATOM     25  C   UNL A   1      32.810  20.349  25.008  1.00  0.00     0.021 A 
ATOM     26  C   UNL A   1      32.531  19.592  23.867  1.00  0.00     0.067 A 
BRANCH  26  27
ATOM     27  S   UNL A   1      32.721  17.823  23.898  1.00  0.00     0.175 S 
ATOM     28  C   UNL A   1      34.429  17.595  24.307  1.00  0.00     0.163 C 
ATOM     29  O   UNL A   1      31.934  17.323  25.005  1.00  0.00    -0.224 OA
ATOM     30  O   UNL A   1      32.524  17.328  22.545  1.00  0.00    -0.224 OA
ENDBRANCH  26  27
ENDBRANCH  19  21
ENDBRANCH  12  13
ENDBRANCH   7  12
ENDBRANCH   3   6
ENDBRANCH   1   2
BRANCH   1  31
ATOM     31  C   UNL A   1      40.427  19.083  25.769  1.00  0.00     0.042 C 
BRANCH  31  32
ATOM     32  C   UNL A   1      41.806  19.631  26.089  1.00  0.00     0.118 C 
BRANCH  32  33
ATOM     33  N   UNL A   1      42.875  19.021  25.306  1.00  0.00    -0.352 N 
ATOM     34  C   UNL A   1      44.030  19.533  24.760  1.00  0.00     0.251 C 
ATOM     35  H   UNL A   1      42.747  18.059  25.137  1.00  0.00     0.163 HD
ATOM     36  O   UNL A   1      44.710  18.826  24.021  1.00  0.00    -0.269 OA
BRANCH  34  37
ATOM     37  C   UNL A   1      44.445  20.935  25.002  1.00  0.00     0.039 A 
ATOM     38  C   UNL A   1      45.144  21.299  26.147  1.00  0.00     0.014 A 
ATOM     39  C   UNL A   1      44.143  21.915  24.047  1.00  0.00     0.014 A 
ATOM     40  C   UNL A   1      45.312  22.642  26.460  1.00  0.00     0.010 A 
ATOM     41  C   UNL A   1      44.442  23.260  24.299  1.00  0.00     0.010 A 
ATOM     42  C   UNL A   1      44.969  23.645  25.540  1.00  0.00    -0.014 A 
BRANCH  42  43
ATOM     43  C   UNL A   1      45.183  25.072  25.913  1.00  0.00     0.031 A 
ATOM     44  C   UNL A   1      44.075  25.887  26.531  1.00  0.00     0.074 A 
ATOM     45  C   UNL A   1      46.413  25.610  25.775  1.00  0.00     0.049 A 
ATOM     46  N   UNL A   1      44.107  27.120  26.974  1.00  0.00    -0.248 NA
ATOM     47  C   UNL A   1      42.760  25.241  26.674  1.00  0.00     0.031 C 
ATOM     48  C   UNL A   1      47.571  24.922  25.201  1.00  0.00     0.029 A 
ATOM     49  N   UNL A   1      46.909  26.836  26.144  1.00  0.00    -0.354 N 
ATOM     50  C   UNL A   1      42.826  27.396  27.435  1.00  0.00     0.074 A 
ATOM     51  C   UNL A   1      42.023  26.221  27.182  1.00  0.00     0.031 C 
ATOM     52  C   UNL A   1      48.655  25.698  25.331  1.00  0.00     0.029 A 
ATOM     53  C   UNL A   1      48.259  26.973  25.919  1.00  0.00     0.049 A 
ATOM     54  H   UNL A   1      46.352  27.549  26.533  1.00  0.00     0.167 HD
ATOM     55  C   UNL A   1      42.366  28.520  28.037  1.00  0.00     0.037 A 
ATOM     56  C   UNL A   1      49.087  28.011  26.146  1.00  0.00     0.037 A 
ATOM     57  C   UNL A   1      43.172  29.684  28.306  1.00  0.00     0.049 A 
ATOM     58  C   UNL A   1      48.530  29.269  26.749  1.00  0.00     0.074 A 
ATOM     59  C   UNL A   1      42.792  30.869  28.913  1.00  0.00     0.029 A 
ATOM     60  N   UNL A   1      44.515  29.808  27.992  1.00  0.00    -0.354 N 
ATOM     61  N   UNL A   1      47.319  29.508  27.189  1.00  0.00    -0.248 NA
ATOM     62  C   UNL A   1      49.451  30.405  26.880  1.00  0.00     0.031 C 
ATOM     63  C   UNL A   1      43.894  31.727  28.922  1.00  0.00     0.029 A 
ATOM     64  C   UNL A   1      44.975  31.058  28.374  1.00  0.00     0.049 A 
ATOM     65  H   UNL A   1      45.062  29.111  27.560  1.00  0.00     0.167 HD
ATOM     66  C   UNL A   1      47.338  30.810  27.669  1.00  0.00     0.074 A 
ATOM     67  C   UNL A   1      48.687  31.304  27.485  1.00  0.00     0.031 C 
ATOM     68  C   UNL A   1      46.325  31.531  28.208  1.00  0.00     0.037 A 
BRANCH  55  69
ATOM     69  C   UNL A   1      40.926  28.559  28.464  1.00  0.00     0.064 A 
ATOM     70  C   UNL A   1      40.545  28.253  29.778  1.00  0.00     0.173 A 
ATOM     71  C   UNL A   1      39.932  29.011  27.582  1.00  0.00     0.173 A 
ATOM     72  F   UNL A   1      41.455  27.809  30.658  1.00  0.00    -0.203 F 
ATOM     73  C   UNL A   1      39.222  28.388  30.191  1.00  0.00     0.198 A 
ATOM     74  C   UNL A   1      38.614  29.173  28.006  1.00  0.00     0.198 A 
ATOM     75  F   UNL A   1      40.243  29.328  26.316  1.00  0.00    -0.203 F 
ATOM     76  F   UNL A   1      38.877  28.066  31.446  1.00  0.00    -0.200 F 
ATOM     77  C   UNL A   1      38.261  28.860  29.309  1.00  0.00     0.200 A 
ATOM     78  F   UNL A   1      37.692  29.648  27.159  1.00  0.00    -0.200 F 
ATOM     79  F   UNL A   1      36.994  29.016  29.718  1.00  0.00    -0.200 F 
ENDBRANCH  55  69
BRANCH  56  80
ATOM     80  C   UNL A   1      50.529  27.898  25.803  1.00  0.00     0.064 A 
ATOM     81  C   UNL A   1      51.487  27.649  26.796  1.00  0.00     0.173 A 
ATOM     82  C   UNL A   1      50.981  28.025  24.480  1.00  0.00     0.173 A 
ATOM     83  F   UNL A   1      51.110  27.539  28.078  1.00  0.00    -0.203 F 
ATOM     84  C   UNL A   1      52.841  27.547  26.480  1.00  0.00     0.198 A 
ATOM     85  C   UNL A   1      52.330  27.887  24.162  1.00  0.00     0.198 A 
ATOM     86  F   UNL A   1      50.106  28.261  23.492  1.00  0.00    -0.203 F 
ATOM     87  F   UNL A   1      53.740  27.352  27.454  1.00  0.00    -0.200 F 
ATOM     88  C   UNL A   1      53.260  27.656  25.162  1.00  0.00     0.200 A 
ATOM     89  F   UNL A   1      52.726  27.974  22.885  1.00  0.00    -0.200 F 
ATOM     90  F   UNL A   1      54.560  27.545  24.859  1.00  0.00    -0.200 F 
ENDBRANCH  56  80
BRANCH  68  91
ATOM     91  C   UNL A   1      46.631  32.923  28.677  1.00  0.00     0.064 A 
ATOM     92  C   UNL A   1      46.454  34.034  27.841  1.00  0.00     0.173 A 
ATOM     93  C   UNL A   1      47.015  33.154  30.007  1.00  0.00     0.173 A 
ATOM     94  F   UNL A   1      46.101  33.865  26.558  1.00  0.00    -0.203 F 
ATOM     95  C   UNL A   1      46.661  35.326  28.317  1.00  0.00     0.198 A 
ATOM     96  C   UNL A   1      47.189  34.447  30.488  1.00  0.00     0.198 A 
ATOM     97  F   UNL A   1      47.189  32.124  30.849  1.00  0.00    -0.203 F 
ATOM     98  F   UNL A   1      46.517  36.373  27.493  1.00  0.00    -0.200 F 
ATOM     99  C   UNL A   1      47.015  35.532  29.643  1.00  0.00     0.200 A 
ATOM    100  F   UNL A   1      47.513  34.644  31.774  1.00  0.00    -0.200 F 
ATOM    101  F   UNL A   1      47.188  36.777  30.106  1.00  0.00    -0.200 F 
ENDBRANCH  68  91
ENDBRANCH  42  43
ENDBRANCH  34  37
ENDBRANCH  32  33
ENDBRANCH  31  32
ENDBRANCH   1  31
TORSDOF 14
ENDMDL
