MODEL 1
REMARK VINA RESULT:     -13.6      0.000      0.000
REMARK SMILES NS(=O)(=O)c1ccc(-c2coc(=O)n2-c2ccc(C(=O)NCCCNC(=O)c3ccc(-c4c5nc(c(-c6c(F)c(F)c(F)c(F)c6F)c6ccc([nH]6)c(-c6c(F)c(F)c(F)c(F)c6F)c6nc(c(-c7c(F)c(F)c(F)c(F)c7F)c7ccc4[nH]7)C=C6)C=C5)cc3)cc2)cc1
REMARK SMILES IDX 22 1 21 2 19 3 20 4 18 6 15 7 16 8 92 9 17 10 91 11 14 12
REMARK SMILES IDX 9 13 10 14 11 15 12 16 13 17 8 18 5 19 6 20 94 21 7 22 93 23
REMARK SMILES IDX 2 24 3 25 4 26 1 27 23 30 24 31 25 32 26 33 27 35 28 36
REMARK SMILES IDX 29 37 90 38 30 39 89 40 31 41 32 42 33 43 83 44 34 45 88 46
REMARK SMILES IDX 82 47 84 48 35 49 87 50 81 51 80 52 36 54 68 55 48 56 67 57
REMARK SMILES IDX 49 58 52 59 66 60 85 61 50 62 51 63 65 65 86 66 53 67 37 68
REMARK SMILES IDX 38 69 46 70 39 71 40 72 44 73 47 74 41 75 42 76 45 77 43 78
REMARK SMILES IDX 69 79 70 80 78 81 71 82 72 83 76 84 79 85 73 86 74 87 77 88
REMARK SMILES IDX 75 89 54 90 55 91 63 92 56 93 57 94 61 95 64 96 58 97 59 98
REMARK SMILES IDX 62 99 60 100
REMARK H PARENT 21 5 1 28 1 29 25 34 84 53 52 64
REMARK Flexibility Score: inf
ROOT
ATOM      1  C   UNL A   1      39.057  21.079  25.735  1.00  0.00     0.118 C 
ENDROOT
BRANCH   1   2
ATOM      2  N   UNL A   1      39.174  22.473  26.144  1.00  0.00    -0.352 N 
ATOM      3  C   UNL A   1      38.270  23.510  26.187  1.00  0.00     0.251 C 
ATOM      4  O   UNL A   1      38.653  24.577  26.670  1.00  0.00    -0.269 OA
ATOM      5  H   UNL A   1      40.076  22.721  26.449  1.00  0.00     0.163 HD
BRANCH   3   6
ATOM      6  C   UNL A   1      36.857  23.388  25.725  1.00  0.00     0.039 A 
ATOM      7  C   UNL A   1      34.222  23.347  24.736  1.00  0.00     0.053 A 
ATOM      8  C   UNL A   1      35.295  23.291  23.847  1.00  0.00     0.028 A 
ATOM      9  C   UNL A   1      34.467  23.326  26.108  1.00  0.00     0.028 A 
ATOM     10  C   UNL A   1      36.607  23.342  24.343  1.00  0.00     0.016 A 
ATOM     11  C   UNL A   1      35.770  23.302  26.590  1.00  0.00     0.016 A 
BRANCH   7  12
ATOM     12  N   UNL A   1      32.893  23.461  24.296  1.00  0.00    -0.242 N 
ATOM     13  C   UNL A   1      32.077  22.462  23.840  1.00  0.00     0.095 A 
ATOM     14  C   UNL A   1      30.993  23.063  23.367  1.00  0.00     0.228 A 
ATOM     15  O   UNL A   1      31.012  24.453  23.484  1.00  0.00    -0.415 OA
ATOM     16  C   UNL A   1      32.245  24.677  24.100  1.00  0.00     0.424 A 
ATOM     17  O   UNL A   1      32.661  25.798  24.359  1.00  0.00    -0.223 OA
BRANCH  13  18
ATOM     18  C   UNL A   1      32.332  21.029  23.998  1.00  0.00     0.002 A 
ATOM     19  C   UNL A   1      32.908  18.305  24.336  1.00  0.00     0.082 A 
ATOM     20  C   UNL A   1      32.949  19.161  25.438  1.00  0.00     0.022 A 
ATOM     21  C   UNL A   1      32.586  18.796  23.068  1.00  0.00     0.022 A 
ATOM     22  C   UNL A   1      32.656  20.515  25.267  1.00  0.00     0.012 A 
ATOM     23  C   UNL A   1      32.293  20.156  22.904  1.00  0.00     0.012 A 
BRANCH  19  24
ATOM     24  S   UNL A   1      33.282  16.595  24.598  1.00  0.00     0.238 S 
ATOM     25  O   UNL A   1      33.704  16.026  23.350  1.00  0.00    -0.207 OA
ATOM     26  O   UNL A   1      32.227  16.023  25.414  1.00  0.00    -0.207 OA
BRANCH  24  27
ATOM     27  N   UNL A   1      34.639  16.600  25.591  1.00  0.00    -0.225 NA
ATOM     28  H   UNL A   1      35.434  16.213  25.082  1.00  0.00     0.137 HD
ATOM     29  H   UNL A   1      34.456  16.033  26.419  1.00  0.00     0.137 HD
ENDBRANCH  24  27
ENDBRANCH  19  24
ENDBRANCH  13  18
ENDBRANCH   7  12
ENDBRANCH   3   6
ENDBRANCH   1   2
BRANCH   1  30
ATOM     30  C   UNL A   1      40.288  20.254  26.138  1.00  0.00     0.042 C 
BRANCH  30  31
ATOM     31  C   UNL A   1      41.098  20.915  27.237  1.00  0.00     0.118 C 
BRANCH  31  32
ATOM     32  N   UNL A   1      42.510  21.053  26.884  1.00  0.00    -0.352 N 
ATOM     33  C   UNL A   1      43.241  22.214  26.737  1.00  0.00     0.251 C 
ATOM     34  H   UNL A   1      43.002  20.213  26.734  1.00  0.00     0.163 HD
ATOM     35  O   UNL A   1      44.283  22.222  26.093  1.00  0.00    -0.269 OA
BRANCH  33  36
ATOM     36  C   UNL A   1      42.734  23.452  27.352  1.00  0.00     0.039 A 
ATOM     37  C   UNL A   1      43.013  23.761  28.683  1.00  0.00     0.014 A 
ATOM     38  C   UNL A   1      42.015  24.338  26.553  1.00  0.00     0.014 A 
ATOM     39  C   UNL A   1      42.643  25.012  29.167  1.00  0.00     0.010 A 
ATOM     40  C   UNL A   1      41.821  25.630  26.972  1.00  0.00     0.010 A 
ATOM     41  C   UNL A   1      42.083  25.964  28.293  1.00  0.00    -0.014 A 
BRANCH  41  42
ATOM     42  C   UNL A   1      41.889  27.344  28.734  1.00  0.00     0.031 A 
ATOM     43  C   UNL A   1      42.974  28.265  28.304  1.00  0.00     0.074 A 
ATOM     44  C   UNL A   1      40.779  27.809  29.350  1.00  0.00     0.049 A 
ATOM     45  N   UNL A   1      43.881  28.793  29.054  1.00  0.00    -0.248 NA
ATOM     46  C   UNL A   1      43.185  28.496  26.865  1.00  0.00     0.031 C 
ATOM     47  C   UNL A   1      39.508  27.114  29.594  1.00  0.00     0.029 A 
ATOM     48  N   UNL A   1      40.529  29.059  29.837  1.00  0.00    -0.354 N 
ATOM     49  C   UNL A   1      44.662  29.586  28.219  1.00  0.00     0.074 A 
ATOM     50  C   UNL A   1      44.298  29.234  26.873  1.00  0.00     0.031 C 
ATOM     51  C   UNL A   1      38.562  28.004  29.967  1.00  0.00     0.029 A 
ATOM     52  C   UNL A   1      39.200  29.289  30.177  1.00  0.00     0.049 A 
ATOM     53  H   UNL A   1      41.231  29.742  29.938  1.00  0.00     0.167 HD
ATOM     54  C   UNL A   1      45.345  30.646  28.730  1.00  0.00     0.037 A 
ATOM     55  C   UNL A   1      38.660  30.448  30.624  1.00  0.00     0.037 A 
ATOM     56  C   UNL A   1      45.428  30.548  30.169  1.00  0.00     0.049 A 
ATOM     57  C   UNL A   1      39.766  31.246  31.192  1.00  0.00     0.074 A 
ATOM     58  C   UNL A   1      46.043  29.709  31.073  1.00  0.00     0.029 A 
ATOM     59  N   UNL A   1      44.435  31.202  30.849  1.00  0.00    -0.354 N 
ATOM     60  N   UNL A   1      40.410  30.920  32.277  1.00  0.00    -0.248 NA
ATOM     61  C   UNL A   1      40.419  32.233  30.348  1.00  0.00     0.031 C 
ATOM     62  C   UNL A   1      45.161  29.643  32.195  1.00  0.00     0.029 A 
ATOM     63  C   UNL A   1      44.077  30.489  31.959  1.00  0.00     0.049 A 
ATOM     64  H   UNL A   1      44.037  32.061  30.579  1.00  0.00     0.167 HD
ATOM     65  C   UNL A   1      41.716  31.296  32.025  1.00  0.00     0.074 A 
ATOM     66  C   UNL A   1      41.627  32.244  30.919  1.00  0.00     0.031 C 
ATOM     67  C   UNL A   1      42.753  30.572  32.540  1.00  0.00     0.037 A 
BRANCH  54  68
ATOM     68  C   UNL A   1      45.501  31.981  28.027  1.00  0.00     0.064 A 
ATOM     69  C   UNL A   1      44.341  32.695  27.657  1.00  0.00     0.173 A 
ATOM     70  C   UNL A   1      46.697  32.417  27.417  1.00  0.00     0.173 A 
ATOM     71  F   UNL A   1      43.143  32.357  28.155  1.00  0.00    -0.203 F 
ATOM     72  C   UNL A   1      44.369  33.705  26.689  1.00  0.00     0.198 A 
ATOM     73  C   UNL A   1      46.729  33.457  26.489  1.00  0.00     0.198 A 
ATOM     74  F   UNL A   1      47.863  31.786  27.595  1.00  0.00    -0.203 F 
ATOM     75  F   UNL A   1      43.224  34.264  26.275  1.00  0.00    -0.200 F 
ATOM     76  C   UNL A   1      45.562  34.080  26.101  1.00  0.00     0.200 A 
ATOM     77  F   UNL A   1      47.893  33.789  25.913  1.00  0.00    -0.200 F 
ATOM     78  F   UNL A   1      45.585  35.001  25.129  1.00  0.00    -0.200 F 
ENDBRANCH  54  68
BRANCH  55  79
ATOM     79  C   UNL A   1      37.316  31.021  30.390  1.00  0.00     0.064 A 
ATOM     80  C   UNL A   1      36.462  31.330  31.464  1.00  0.00     0.173 A 
ATOM     81  C   UNL A   1      36.975  31.571  29.141  1.00  0.00     0.173 A 
ATOM     82  F   UNL A   1      36.736  30.876  32.695  1.00  0.00    -0.203 F 
ATOM     83  C   UNL A   1      35.364  32.181  31.306  1.00  0.00     0.198 A 
ATOM     84  C   UNL A   1      35.876  32.418  28.984  1.00  0.00     0.198 A 
ATOM     85  F   UNL A   1      37.765  31.382  28.073  1.00  0.00    -0.203 F 
ATOM     86  F   UNL A   1      34.619  32.516  32.370  1.00  0.00    -0.200 F 
ATOM     87  C   UNL A   1      35.081  32.737  30.070  1.00  0.00     0.200 A 
ATOM     88  F   UNL A   1      35.636  32.982  27.792  1.00  0.00    -0.200 F 
ATOM     89  F   UNL A   1      34.076  33.613  29.935  1.00  0.00    -0.200 F 
ENDBRANCH  55  79
BRANCH  67  90
ATOM     90  C   UNL A   1      42.441  29.665  33.700  1.00  0.00     0.064 A 
ATOM     91  C   UNL A   1      42.005  28.334  33.587  1.00  0.00     0.173 A 
ATOM     92  C   UNL A   1      42.666  30.159  34.992  1.00  0.00     0.173 A 
ATOM     93  F   UNL A   1      41.850  27.755  32.389  1.00  0.00    -0.203 F 
ATOM     94  C   UNL A   1      41.752  27.556  34.716  1.00  0.00     0.198 A 
ATOM     95  C   UNL A   1      42.452  29.369  36.117  1.00  0.00     0.198 A 
ATOM     96  F   UNL A   1      43.126  31.408  35.163  1.00  0.00    -0.203 F 
ATOM     97  F   UNL A   1      41.306  26.298  34.584  1.00  0.00    -0.200 F 
ATOM     98  C   UNL A   1      41.981  28.074  35.981  1.00  0.00     0.200 A 
ATOM     99  F   UNL A   1      42.719  29.860  37.335  1.00  0.00    -0.200 F 
ATOM    100  F   UNL A   1      41.768  27.319  37.068  1.00  0.00    -0.200 F 
ENDBRANCH  67  90
ENDBRANCH  41  42
ENDBRANCH  33  36
ENDBRANCH  31  32
ENDBRANCH  30  31
ENDBRANCH   1  30
TORSDOF 14
ENDMDL
MODEL 2
REMARK VINA RESULT:     -13.4      3.996      9.451
REMARK SMILES NS(=O)(=O)c1ccc(-c2coc(=O)n2-c2ccc(C(=O)NCCCNC(=O)c3ccc(-c4c5nc(c(-c6c(F)c(F)c(F)c(F)c6F)c6ccc([nH]6)c(-c6c(F)c(F)c(F)c(F)c6F)c6nc(c(-c7c(F)c(F)c(F)c(F)c7F)c7ccc4[nH]7)C=C6)C=C5)cc3)cc2)cc1
REMARK SMILES IDX 22 1 21 2 19 3 20 4 18 6 15 7 16 8 92 9 17 10 91 11 14 12
REMARK SMILES IDX 9 13 10 14 11 15 12 16 13 17 8 18 5 19 6 20 94 21 7 22 93 23
REMARK SMILES IDX 2 24 3 25 4 26 1 27 23 30 24 31 25 32 26 33 27 35 28 36
REMARK SMILES IDX 29 37 90 38 30 39 89 40 31 41 32 42 33 43 83 44 34 45 88 46
REMARK SMILES IDX 82 47 84 48 35 49 87 50 81 51 80 52 36 54 68 55 48 56 67 57
REMARK SMILES IDX 49 58 52 59 66 60 85 61 50 62 51 63 65 65 86 66 53 67 37 68
REMARK SMILES IDX 38 69 46 70 39 71 40 72 44 73 47 74 41 75 42 76 45 77 43 78
REMARK SMILES IDX 69 79 70 80 78 81 71 82 72 83 76 84 79 85 73 86 74 87 77 88
REMARK SMILES IDX 75 89 54 90 55 91 63 92 56 93 57 94 61 95 64 96 58 97 59 98
REMARK SMILES IDX 62 99 60 100
REMARK H PARENT 21 5 1 28 1 29 25 34 84 53 52 64
REMARK Flexibility Score: inf
ROOT
ATOM      1  C   UNL A   1      33.375  31.440  27.504  1.00  0.00     0.118 C 
ENDROOT
BRANCH   1   2
ATOM      2  N   UNL A   1      34.555  30.621  27.748  1.00  0.00    -0.352 N 
ATOM      3  C   UNL A   1      34.923  29.367  27.318  1.00  0.00     0.251 C 
ATOM      4  O   UNL A   1      36.044  28.965  27.632  1.00  0.00    -0.269 OA
ATOM      5  H   UNL A   1      35.219  31.049  28.335  1.00  0.00     0.163 HD
BRANCH   3   6
ATOM      6  C   UNL A   1      34.056  28.504  26.464  1.00  0.00     0.039 A 
ATOM      7  C   UNL A   1      32.461  26.709  24.995  1.00  0.00     0.053 A 
ATOM      8  C   UNL A   1      32.132  27.004  26.318  1.00  0.00     0.028 A 
ATOM      9  C   UNL A   1      33.521  27.380  24.388  1.00  0.00     0.028 A 
ATOM     10  C   UNL A   1      32.946  27.877  27.056  1.00  0.00     0.016 A 
ATOM     11  C   UNL A   1      34.278  28.298  25.105  1.00  0.00     0.016 A 
BRANCH   7  12
ATOM     12  N   UNL A   1      31.781  25.725  24.258  1.00  0.00    -0.242 N 
ATOM     13  C   UNL A   1      30.609  25.864  23.567  1.00  0.00     0.095 A 
ATOM     14  C   UNL A   1      30.260  24.640  23.192  1.00  0.00     0.228 A 
ATOM     15  O   UNL A   1      31.153  23.643  23.585  1.00  0.00    -0.415 OA
ATOM     16  C   UNL A   1      32.131  24.379  24.259  1.00  0.00     0.424 A 
ATOM     17  O   UNL A   1      33.100  23.856  24.792  1.00  0.00    -0.223 OA
BRANCH  13  18
ATOM     18  C   UNL A   1      29.984  27.140  23.216  1.00  0.00     0.002 A 
ATOM     19  C   UNL A   1      28.854  29.632  22.597  1.00  0.00     0.082 A 
ATOM     20  C   UNL A   1      30.185  29.375  22.264  1.00  0.00     0.022 A 
ATOM     21  C   UNL A   1      28.083  28.658  23.239  1.00  0.00     0.022 A 
ATOM     22  C   UNL A   1      30.742  28.132  22.568  1.00  0.00     0.012 A 
ATOM     23  C   UNL A   1      28.650  27.413  23.541  1.00  0.00     0.012 A 
BRANCH  19  24
ATOM     24  S   UNL A   1      28.186  31.218  22.189  1.00  0.00     0.238 S 
ATOM     25  O   UNL A   1      27.268  31.605  23.222  1.00  0.00    -0.207 OA
ATOM     26  O   UNL A   1      27.836  31.212  20.781  1.00  0.00    -0.207 OA
BRANCH  24  27
ATOM     27  N   UNL A   1      29.489  32.275  22.304  1.00  0.00    -0.225 NA
ATOM     28  H   UNL A   1      29.145  33.231  22.397  1.00  0.00     0.137 HD
ATOM     29  H   UNL A   1      30.063  32.200  21.464  1.00  0.00     0.137 HD
ENDBRANCH  24  27
ENDBRANCH  19  24
ENDBRANCH  13  18
ENDBRANCH   7  12
ENDBRANCH   3   6
ENDBRANCH   1   2
BRANCH   1  30
ATOM     30  C   UNL A   1      33.574  32.892  27.967  1.00  0.00     0.042 C 
BRANCH  30  31
ATOM     31  C   UNL A   1      34.954  33.134  28.549  1.00  0.00     0.118 C 
BRANCH  31  32
ATOM     32  N   UNL A   1      34.926  33.302  30.001  1.00  0.00    -0.352 N 
ATOM     33  C   UNL A   1      35.572  32.546  30.958  1.00  0.00     0.251 C 
ATOM     34  H   UNL A   1      34.380  34.049  30.338  1.00  0.00     0.163 HD
ATOM     35  O   UNL A   1      35.187  32.546  32.121  1.00  0.00    -0.269 OA
BRANCH  33  36
ATOM     36  C   UNL A   1      36.721  31.720  30.551  1.00  0.00     0.039 A 
ATOM     37  C   UNL A   1      37.926  32.306  30.165  1.00  0.00     0.014 A 
ATOM     38  C   UNL A   1      36.592  30.335  30.616  1.00  0.00     0.014 A 
ATOM     39  C   UNL A   1      39.024  31.480  29.942  1.00  0.00     0.010 A 
ATOM     40  C   UNL A   1      37.712  29.544  30.580  1.00  0.00     0.010 A 
ATOM     41  C   UNL A   1      38.924  30.097  30.192  1.00  0.00    -0.014 A 
BRANCH  41  42
ATOM     42  C   UNL A   1      40.120  29.257  30.168  1.00  0.00     0.031 A 
ATOM     43  C   UNL A   1      40.719  29.034  31.511  1.00  0.00     0.074 A 
ATOM     44  C   UNL A   1      40.586  28.609  29.077  1.00  0.00     0.049 A 
ATOM     45  N   UNL A   1      41.820  29.535  31.957  1.00  0.00    -0.248 NA
ATOM     46  C   UNL A   1      39.936  28.316  32.530  1.00  0.00     0.031 C 
ATOM     47  C   UNL A   1      39.966  28.486  27.751  1.00  0.00     0.029 A 
ATOM     48  N   UNL A   1      41.710  27.847  28.948  1.00  0.00    -0.354 N 
ATOM     49  C   UNL A   1      41.977  29.038  33.247  1.00  0.00     0.074 A 
ATOM     50  C   UNL A   1      40.720  28.440  33.605  1.00  0.00     0.031 C 
ATOM     51  C   UNL A   1      40.594  27.526  27.037  1.00  0.00     0.029 A 
ATOM     52  C   UNL A   1      41.772  27.107  27.771  1.00  0.00     0.049 A 
ATOM     53  H   UNL A   1      42.419  27.822  29.631  1.00  0.00     0.167 HD
ATOM     54  C   UNL A   1      43.221  28.939  33.792  1.00  0.00     0.037 A 
ATOM     55  C   UNL A   1      42.735  26.225  27.410  1.00  0.00     0.037 A 
ATOM     56  C   UNL A   1      44.166  29.730  33.040  1.00  0.00     0.049 A 
ATOM     57  C   UNL A   1      43.944  26.568  28.187  1.00  0.00     0.074 A 
ATOM     58  C   UNL A   1      44.371  31.073  32.804  1.00  0.00     0.029 A 
ATOM     59  N   UNL A   1      44.834  29.050  32.057  1.00  0.00    -0.354 N 
ATOM     60  N   UNL A   1      44.630  27.663  28.013  1.00  0.00    -0.248 NA
ATOM     61  C   UNL A   1      44.196  25.864  29.434  1.00  0.00     0.031 C 
ATOM     62  C   UNL A   1      44.881  31.154  31.472  1.00  0.00     0.029 A 
ATOM     63  C   UNL A   1      45.025  29.859  30.971  1.00  0.00     0.049 A 
ATOM     64  H   UNL A   1      45.134  28.115  32.122  1.00  0.00     0.167 HD
ATOM     65  C   UNL A   1      45.036  28.019  29.285  1.00  0.00     0.074 A 
ATOM     66  C   UNL A   1      44.896  26.801  30.078  1.00  0.00     0.031 C 
ATOM     67  C   UNL A   1      45.155  29.335  29.627  1.00  0.00     0.037 A 
BRANCH  54  68
ATOM     68  C   UNL A   1      43.683  27.786  34.660  1.00  0.00     0.064 A 
ATOM     69  C   UNL A   1      43.669  26.480  34.123  1.00  0.00     0.173 A 
ATOM     70  C   UNL A   1      43.815  27.858  36.065  1.00  0.00     0.173 A 
ATOM     71  F   UNL A   1      43.526  26.286  32.804  1.00  0.00    -0.203 F 
ATOM     72  C   UNL A   1      43.697  25.342  34.938  1.00  0.00     0.198 A 
ATOM     73  C   UNL A   1      43.892  26.721  36.869  1.00  0.00     0.198 A 
ATOM     74  F   UNL A   1      43.754  29.015  36.731  1.00  0.00    -0.203 F 
ATOM     75  F   UNL A   1      43.548  24.128  34.392  1.00  0.00    -0.200 F 
ATOM     76  C   UNL A   1      43.802  25.465  36.310  1.00  0.00     0.200 A 
ATOM     77  F   UNL A   1      43.969  26.862  38.200  1.00  0.00    -0.200 F 
ATOM     78  F   UNL A   1      43.764  24.382  37.097  1.00  0.00    -0.200 F 
ENDBRANCH  54  68
BRANCH  55  79
ATOM     79  C   UNL A   1      42.631  24.972  26.631  1.00  0.00     0.064 A 
ATOM     80  C   UNL A   1      43.406  24.771  25.474  1.00  0.00     0.173 A 
ATOM     81  C   UNL A   1      42.018  23.831  27.180  1.00  0.00     0.173 A 
ATOM     82  F   UNL A   1      44.054  25.800  24.909  1.00  0.00    -0.203 F 
ATOM     83  C   UNL A   1      43.596  23.497  24.931  1.00  0.00     0.198 A 
ATOM     84  C   UNL A   1      42.206  22.560  26.634  1.00  0.00     0.198 A 
ATOM     85  F   UNL A   1      41.311  23.916  28.317  1.00  0.00    -0.203 F 
ATOM     86  F   UNL A   1      44.405  23.334  23.874  1.00  0.00    -0.200 F 
ATOM     87  C   UNL A   1      43.009  22.390  25.521  1.00  0.00     0.200 A 
ATOM     88  F   UNL A   1      41.666  21.492  27.237  1.00  0.00    -0.200 F 
ATOM     89  F   UNL A   1      43.254  21.160  25.048  1.00  0.00    -0.200 F 
ENDBRANCH  55  79
BRANCH  67  90
ATOM     90  C   UNL A   1      45.260  30.326  28.499  1.00  0.00     0.064 A 
ATOM     91  C   UNL A   1      44.168  30.939  27.862  1.00  0.00     0.173 A 
ATOM     92  C   UNL A   1      46.543  30.720  28.095  1.00  0.00     0.173 A 
ATOM     93  F   UNL A   1      42.911  30.687  28.247  1.00  0.00    -0.203 F 
ATOM     94  C   UNL A   1      44.355  31.860  26.831  1.00  0.00     0.198 A 
ATOM     95  C   UNL A   1      46.728  31.669  27.094  1.00  0.00     0.198 A 
ATOM     96  F   UNL A   1      47.625  30.202  28.698  1.00  0.00    -0.203 F 
ATOM     97  F   UNL A   1      43.297  32.410  26.217  1.00  0.00    -0.200 F 
ATOM     98  C   UNL A   1      45.636  32.227  26.453  1.00  0.00     0.200 A 
ATOM     99  F   UNL A   1      47.969  32.053  26.765  1.00  0.00    -0.200 F 
ATOM    100  F   UNL A   1      45.819  33.135  25.483  1.00  0.00    -0.200 F 
ENDBRANCH  67  90
ENDBRANCH  41  42
ENDBRANCH  33  36
ENDBRANCH  31  32
ENDBRANCH  30  31
ENDBRANCH   1  30
TORSDOF 14
ENDMDL
MODEL 3
REMARK VINA RESULT:     -13.3      3.969      8.714
REMARK SMILES NS(=O)(=O)c1ccc(-c2coc(=O)n2-c2ccc(C(=O)NCCCNC(=O)c3ccc(-c4c5nc(c(-c6c(F)c(F)c(F)c(F)c6F)c6ccc([nH]6)c(-c6c(F)c(F)c(F)c(F)c6F)c6nc(c(-c7c(F)c(F)c(F)c(F)c7F)c7ccc4[nH]7)C=C6)C=C5)cc3)cc2)cc1
REMARK SMILES IDX 22 1 21 2 19 3 20 4 18 6 15 7 16 8 92 9 17 10 91 11 14 12
REMARK SMILES IDX 9 13 10 14 11 15 12 16 13 17 8 18 5 19 6 20 94 21 7 22 93 23
REMARK SMILES IDX 2 24 3 25 4 26 1 27 23 30 24 31 25 32 26 33 27 35 28 36
REMARK SMILES IDX 29 37 90 38 30 39 89 40 31 41 32 42 33 43 83 44 34 45 88 46
REMARK SMILES IDX 82 47 84 48 35 49 87 50 81 51 80 52 36 54 68 55 48 56 67 57
REMARK SMILES IDX 49 58 52 59 66 60 85 61 50 62 51 63 65 65 86 66 53 67 37 68
REMARK SMILES IDX 38 69 46 70 39 71 40 72 44 73 47 74 41 75 42 76 45 77 43 78
REMARK SMILES IDX 69 79 70 80 78 81 71 82 72 83 76 84 79 85 73 86 74 87 77 88
REMARK SMILES IDX 75 89 54 90 55 91 63 92 56 93 57 94 61 95 64 96 58 97 59 98
REMARK SMILES IDX 62 99 60 100
REMARK H PARENT 21 5 1 28 1 29 25 34 84 53 52 64
REMARK Flexibility Score: inf
ROOT
ATOM      1  C   UNL A   1      32.114  31.326  26.827  1.00  0.00     0.118 C 
ENDROOT
BRANCH   1   2
ATOM      2  N   UNL A   1      33.225  30.828  27.627  1.00  0.00    -0.352 N 
ATOM      3  C   UNL A   1      33.810  29.588  27.738  1.00  0.00     0.251 C 
ATOM      4  O   UNL A   1      34.810  29.493  28.452  1.00  0.00    -0.269 OA
ATOM      5  H   UNL A   1      33.639  31.514  28.199  1.00  0.00     0.163 HD
BRANCH   3   6
ATOM      6  C   UNL A   1      33.323  28.381  27.009  1.00  0.00     0.039 A 
ATOM      7  C   UNL A   1      32.403  26.228  25.446  1.00  0.00     0.053 A 
ATOM      8  C   UNL A   1      33.630  26.821  25.153  1.00  0.00     0.028 A 
ATOM      9  C   UNL A   1      31.691  26.648  26.569  1.00  0.00     0.028 A 
ATOM     10  C   UNL A   1      34.072  27.913  25.916  1.00  0.00     0.016 A 
ATOM     11  C   UNL A   1      32.172  27.682  27.362  1.00  0.00     0.016 A 
BRANCH   7  12
ATOM     12  N   UNL A   1      31.834  25.241  24.625  1.00  0.00    -0.242 N 
ATOM     13  C   UNL A   1      30.758  25.371  23.790  1.00  0.00     0.095 A 
ATOM     14  C   UNL A   1      30.472  24.145  23.369  1.00  0.00     0.228 A 
ATOM     15  O   UNL A   1      31.319  23.156  23.871  1.00  0.00    -0.415 OA
ATOM     16  C   UNL A   1      32.195  23.898  24.667  1.00  0.00     0.424 A 
ATOM     17  O   UNL A   1      33.093  23.382  25.318  1.00  0.00    -0.223 OA
BRANCH  13  18
ATOM     18  C   UNL A   1      30.170  26.643  23.366  1.00  0.00     0.002 A 
ATOM     19  C   UNL A   1      28.976  29.029  22.502  1.00  0.00     0.082 A 
ATOM     20  C   UNL A   1      28.224  28.103  23.226  1.00  0.00     0.022 A 
ATOM     21  C   UNL A   1      30.317  28.773  22.202  1.00  0.00     0.022 A 
ATOM     22  C   UNL A   1      28.822  26.919  23.659  1.00  0.00     0.012 A 
ATOM     23  C   UNL A   1      30.912  27.583  22.641  1.00  0.00     0.012 A 
BRANCH  19  24
ATOM     24  S   UNL A   1      28.179  30.519  21.977  1.00  0.00     0.238 S 
ATOM     25  O   UNL A   1      27.214  30.893  22.971  1.00  0.00    -0.207 OA
ATOM     26  O   UNL A   1      27.855  30.384  20.569  1.00  0.00    -0.207 OA
BRANCH  24  27
ATOM     27  N   UNL A   1      29.384  31.692  22.031  1.00  0.00    -0.225 NA
ATOM     28  H   UNL A   1      30.299  31.240  22.019  1.00  0.00     0.137 HD
ATOM     29  H   UNL A   1      29.286  32.240  22.886  1.00  0.00     0.137 HD
ENDBRANCH  24  27
ENDBRANCH  19  24
ENDBRANCH  13  18
ENDBRANCH   7  12
ENDBRANCH   3   6
ENDBRANCH   1   2
BRANCH   1  30
ATOM     30  C   UNL A   1      31.861  32.824  27.058  1.00  0.00     0.042 C 
BRANCH  30  31
ATOM     31  C   UNL A   1      33.079  33.542  27.608  1.00  0.00     0.118 C 
BRANCH  31  32
ATOM     32  N   UNL A   1      32.736  34.500  28.658  1.00  0.00    -0.352 N 
ATOM     33  C   UNL A   1      33.348  34.676  29.882  1.00  0.00     0.251 C 
ATOM     34  H   UNL A   1      31.974  35.094  28.468  1.00  0.00     0.163 HD
ATOM     35  O   UNL A   1      32.760  35.231  30.803  1.00  0.00    -0.269 OA
BRANCH  33  36
ATOM     36  C   UNL A   1      34.716  34.165  30.069  1.00  0.00     0.039 A 
ATOM     37  C   UNL A   1      34.966  33.061  30.883  1.00  0.00     0.014 A 
ATOM     38  C   UNL A   1      35.750  34.778  29.365  1.00  0.00     0.014 A 
ATOM     39  C   UNL A   1      36.251  32.526  30.900  1.00  0.00     0.010 A 
ATOM     40  C   UNL A   1      36.959  34.142  29.239  1.00  0.00     0.010 A 
ATOM     41  C   UNL A   1      37.239  33.046  30.041  1.00  0.00    -0.014 A 
BRANCH  41  42
ATOM     42  C   UNL A   1      38.522  32.360  29.895  1.00  0.00     0.031 A 
ATOM     43  C   UNL A   1      38.406  30.999  29.309  1.00  0.00     0.074 A 
ATOM     44  C   UNL A   1      39.729  32.925  30.123  1.00  0.00     0.049 A 
ATOM     45  N   UNL A   1      38.567  29.877  29.926  1.00  0.00    -0.248 NA
ATOM     46  C   UNL A   1      37.895  30.854  27.936  1.00  0.00     0.031 C 
ATOM     47  C   UNL A   1      40.041  34.328  30.426  1.00  0.00     0.029 A 
ATOM     48  N   UNL A   1      40.967  32.355  30.060  1.00  0.00    -0.354 N 
ATOM     49  C   UNL A   1      38.374  28.881  28.974  1.00  0.00     0.074 A 
ATOM     50  C   UNL A   1      37.801  29.526  27.824  1.00  0.00     0.031 C 
ATOM     51  C   UNL A   1      41.368  34.542  30.295  1.00  0.00     0.029 A 
ATOM     52  C   UNL A   1      42.021  33.263  30.093  1.00  0.00     0.049 A 
ATOM     53  H   UNL A   1      41.104  31.382  29.994  1.00  0.00     0.167 HD
ATOM     54  C   UNL A   1      38.954  27.661  29.139  1.00  0.00     0.037 A 
ATOM     55  C   UNL A   1      43.342  32.986  29.986  1.00  0.00     0.037 A 
ATOM     56  C   UNL A   1      39.396  27.491  30.503  1.00  0.00     0.049 A 
ATOM     57  C   UNL A   1      43.515  31.567  30.362  1.00  0.00     0.074 A 
ATOM     58  C   UNL A   1      38.790  27.375  31.735  1.00  0.00     0.029 A 
ATOM     59  N   UNL A   1      40.699  27.845  30.735  1.00  0.00    -0.354 N 
ATOM     60  N   UNL A   1      43.334  31.112  31.570  1.00  0.00    -0.248 NA
ATOM     61  C   UNL A   1      43.531  30.564  29.311  1.00  0.00     0.031 C 
ATOM     62  C   UNL A   1      39.679  28.003  32.660  1.00  0.00     0.029 A 
ATOM     63  C   UNL A   1      40.816  28.423  31.969  1.00  0.00     0.049 A 
ATOM     64  H   UNL A   1      41.443  27.703  30.106  1.00  0.00     0.167 HD
ATOM     65  C   UNL A   1      42.768  29.865  31.385  1.00  0.00     0.074 A 
ATOM     66  C   UNL A   1      43.076  29.515  30.002  1.00  0.00     0.031 C 
ATOM     67  C   UNL A   1      41.855  29.384  32.279  1.00  0.00     0.037 A 
BRANCH  54  68
ATOM     68  C   UNL A   1      39.561  26.845  28.013  1.00  0.00     0.064 A 
ATOM     69  C   UNL A   1      39.468  25.437  28.066  1.00  0.00     0.173 A 
ATOM     70  C   UNL A   1      40.497  27.353  27.085  1.00  0.00     0.173 A 
ATOM     71  F   UNL A   1      38.630  24.839  28.925  1.00  0.00    -0.203 F 
ATOM     72  C   UNL A   1      40.307  24.609  27.311  1.00  0.00     0.198 A 
ATOM     73  C   UNL A   1      41.297  26.524  26.299  1.00  0.00     0.198 A 
ATOM     74  F   UNL A   1      40.766  28.658  26.982  1.00  0.00    -0.203 F 
ATOM     75  F   UNL A   1      40.273  23.282  27.492  1.00  0.00    -0.200 F 
ATOM     76  C   UNL A   1      41.225  25.155  26.434  1.00  0.00     0.200 A 
ATOM     77  F   UNL A   1      42.198  27.073  25.473  1.00  0.00    -0.200 F 
ATOM     78  F   UNL A   1      42.074  24.369  25.759  1.00  0.00    -0.200 F 
ENDBRANCH  54  68
BRANCH  55  79
ATOM     79  C   UNL A   1      44.430  33.772  29.362  1.00  0.00     0.064 A 
ATOM     80  C   UNL A   1      44.529  33.888  27.964  1.00  0.00     0.173 A 
ATOM     81  C   UNL A   1      45.190  34.678  30.123  1.00  0.00     0.173 A 
ATOM     82  F   UNL A   1      43.808  33.086  27.167  1.00  0.00    -0.203 F 
ATOM     83  C   UNL A   1      45.304  34.886  27.365  1.00  0.00     0.198 A 
ATOM     84  C   UNL A   1      45.966  35.673  29.522  1.00  0.00     0.198 A 
ATOM     85  F   UNL A   1      45.110  34.683  31.462  1.00  0.00    -0.203 F 
ATOM     86  F   UNL A   1      45.312  35.015  26.030  1.00  0.00    -0.200 F 
ATOM     87  C   UNL A   1      46.009  35.787  28.145  1.00  0.00     0.200 A 
ATOM     88  F   UNL A   1      46.612  36.563  30.288  1.00  0.00    -0.200 F 
ATOM     89  F   UNL A   1      46.689  36.791  27.574  1.00  0.00    -0.200 F 
ENDBRANCH  55  79
BRANCH  67  90
ATOM     90  C   UNL A   1      41.825  30.030  33.637  1.00  0.00     0.064 A 
ATOM     91  C   UNL A   1      41.021  31.127  33.990  1.00  0.00     0.173 A 
ATOM     92  C   UNL A   1      42.606  29.455  34.650  1.00  0.00     0.173 A 
ATOM     93  F   UNL A   1      40.179  31.681  33.108  1.00  0.00    -0.203 F 
ATOM     94  C   UNL A   1      41.044  31.657  35.280  1.00  0.00     0.198 A 
ATOM     95  C   UNL A   1      42.597  29.959  35.947  1.00  0.00     0.198 A 
ATOM     96  F   UNL A   1      43.360  28.376  34.385  1.00  0.00    -0.203 F 
ATOM     97  F   UNL A   1      40.291  32.724  35.585  1.00  0.00    -0.200 F 
ATOM     98  C   UNL A   1      41.828  31.068  36.258  1.00  0.00     0.200 A 
ATOM     99  F   UNL A   1      43.322  29.357  36.899  1.00  0.00    -0.200 F 
ATOM    100  F   UNL A   1      41.829  31.556  37.507  1.00  0.00    -0.200 F 
ENDBRANCH  67  90
ENDBRANCH  41  42
ENDBRANCH  33  36
ENDBRANCH  31  32
ENDBRANCH  30  31
ENDBRANCH   1  30
TORSDOF 14
ENDMDL
