MODEL 1
REMARK VINA RESULT:     -12.5      0.000      0.000
REMARK SMILES CCNC(=O)NC(=O)[C@@H](C)[NH2+][C@](C)(C(=O)NCCCNC(=O)c1ccc(-c2c3nc(c(-c4c(F)c(F)c(F)c(F)c4F)c4ccc([nH]4)c(-c4c(F)c(F)c(F)c(F)c4F)c4nc(c(-c5c(F)c(F)c(F)c(F)c5F)c5ccc2[nH]5)C=C4)C=C3)cc1)C(F)(F)F
REMARK SMILES IDX 17 1 16 2 14 3 15 4 12 6 13 7 11 8 9 11 10 12 7 13 3 14 4 15
REMARK SMILES IDX 5 17 6 18 8 20 2 21 1 22 86 23 87 24 88 25 89 26 18 27 19 28
REMARK SMILES IDX 20 29 21 30 22 32 23 33 24 34 85 35 25 36 84 37 26 38 27 39
REMARK SMILES IDX 28 40 78 41 29 42 83 43 77 44 79 45 30 46 82 47 76 48 75 49
REMARK SMILES IDX 31 51 63 52 43 53 62 54 44 55 47 56 61 57 80 58 45 59 46 60
REMARK SMILES IDX 60 62 81 63 48 64 32 65 33 66 41 67 34 68 35 69 39 70 42 71
REMARK SMILES IDX 36 72 37 73 40 74 38 75 64 76 65 77 73 78 66 79 67 80 71 81
REMARK SMILES IDX 74 82 68 83 69 84 72 85 70 86 49 87 50 88 58 89 51 90 52 91
REMARK SMILES IDX 56 92 59 93 53 94 54 95 57 96 55 97
REMARK H PARENT 16 5 11 9 11 10 3 16 6 19 20 31 79 50 47 61
REMARK Flexibility Score: inf
ROOT
ATOM      1  C   UNL A   1      37.277  20.772  24.683  1.00  0.00     0.118 C 
ENDROOT
BRANCH   1   2
ATOM      2  N   UNL A   1      36.127  20.740  25.574  1.00  0.00    -0.350 N 
ATOM      3  C   UNL A   1      35.184  21.682  25.888  1.00  0.00     0.290 C 
ATOM      4  O   UNL A   1      34.502  21.433  26.883  1.00  0.00    -0.267 OA
ATOM      5  H   UNL A   1      36.003  19.880  26.035  1.00  0.00     0.163 HD
BRANCH   3   6
ATOM      6  C   UNL A   1      34.935  22.895  24.950  1.00  0.00     0.269 C 
ATOM      7  C   UNL A   1      35.378  22.589  23.508  1.00  0.00     0.101 C 
BRANCH   6   8
ATOM      8  N   UNL A   1      33.470  23.215  25.127  1.00  0.00    -0.316 N 
ATOM      9  H   UNL A   1      33.254  23.054  26.110  1.00  0.00     0.348 HD
ATOM     10  H   UNL A   1      33.403  24.167  24.769  1.00  0.00     0.348 HD
BRANCH   8  11
ATOM     11  C   UNL A   1      32.443  22.506  24.352  1.00  0.00     0.271 C 
ATOM     12  C   UNL A   1      31.492  23.298  23.456  1.00  0.00     0.086 C 
BRANCH  11  13
ATOM     13  C   UNL A   1      31.604  21.637  25.305  1.00  0.00     0.285 C 
ATOM     14  N   UNL A   1      30.049  24.414  26.620  1.00  0.00    -0.338 N 
ATOM     15  C   UNL A   1      30.023  23.113  26.903  1.00  0.00     0.321 C 
ATOM     16  H   UNL A   1      29.420  24.936  27.170  1.00  0.00     0.165 HD
ATOM     17  O   UNL A   1      29.314  22.767  27.855  1.00  0.00    -0.248 OA
ATOM     18  N   UNL A   1      30.694  22.106  26.253  1.00  0.00    -0.273 N 
ATOM     19  H   UNL A   1      30.354  21.286  26.678  1.00  0.00     0.175 HD
ATOM     20  O   UNL A   1      31.741  20.405  25.252  1.00  0.00    -0.268 OA
BRANCH  14  21
ATOM     21  C   UNL A   1      30.784  25.226  25.695  1.00  0.00     0.114 C 
ATOM     22  C   UNL A   1      31.119  26.611  26.202  1.00  0.00     0.027 C 
ENDBRANCH  14  21
ENDBRANCH  11  13
ENDBRANCH   8  11
ENDBRANCH   6   8
BRANCH   6  23
ATOM     23  C   UNL A   1      35.921  23.993  25.474  1.00  0.00     0.453 C 
ATOM     24  F   UNL A   1      37.024  24.104  24.697  1.00  0.00    -0.164 F 
ATOM     25  F   UNL A   1      35.326  25.216  25.452  1.00  0.00    -0.164 F 
ATOM     26  F   UNL A   1      36.326  23.795  26.746  1.00  0.00    -0.164 F 
ENDBRANCH   6  23
ENDBRANCH   3   6
ENDBRANCH   1   2
BRANCH   1  27
ATOM     27  C   UNL A   1      38.217  19.610  24.976  1.00  0.00     0.042 C 
BRANCH  27  28
ATOM     28  C   UNL A   1      39.435  20.022  25.792  1.00  0.00     0.118 C 
BRANCH  28  29
ATOM     29  N   UNL A   1      40.410  18.947  25.913  1.00  0.00    -0.352 N 
ATOM     30  C   UNL A   1      41.769  19.022  26.091  1.00  0.00     0.251 C 
ATOM     31  H   UNL A   1      40.042  18.035  25.859  1.00  0.00     0.163 HD
ATOM     32  O   UNL A   1      42.467  18.020  25.955  1.00  0.00    -0.269 OA
BRANCH  30  33
ATOM     33  C   UNL A   1      42.389  20.319  26.422  1.00  0.00     0.039 A 
ATOM     34  C   UNL A   1      43.008  21.057  25.411  1.00  0.00     0.014 A 
ATOM     35  C   UNL A   1      42.337  20.814  27.726  1.00  0.00     0.014 A 
ATOM     36  C   UNL A   1      43.506  22.329  25.695  1.00  0.00     0.010 A 
ATOM     37  C   UNL A   1      42.743  22.117  27.985  1.00  0.00     0.010 A 
ATOM     38  C   UNL A   1      43.337  22.887  26.973  1.00  0.00    -0.014 A 
BRANCH  38  39
ATOM     39  C   UNL A   1      43.780  24.270  27.287  1.00  0.00     0.031 A 
ATOM     40  C   UNL A   1      42.770  25.291  27.737  1.00  0.00     0.074 A 
ATOM     41  C   UNL A   1      45.062  24.628  27.079  1.00  0.00     0.049 A 
ATOM     42  N   UNL A   1      42.922  26.576  27.930  1.00  0.00    -0.248 NA
ATOM     43  C   UNL A   1      41.398  24.809  27.969  1.00  0.00     0.031 C 
ATOM     44  C   UNL A   1      46.124  23.740  26.600  1.00  0.00     0.029 A 
ATOM     45  N   UNL A   1      45.687  25.843  27.223  1.00  0.00    -0.354 N 
ATOM     46  C   UNL A   1      41.665  27.056  28.276  1.00  0.00     0.074 A 
ATOM     47  C   UNL A   1      40.751  25.937  28.222  1.00  0.00     0.031 C 
ATOM     48  C   UNL A   1      47.267  24.436  26.498  1.00  0.00     0.029 A 
ATOM     49  C   UNL A   1      47.012  25.827  26.857  1.00  0.00     0.049 A 
ATOM     50  H   UNL A   1      45.229  26.648  27.555  1.00  0.00     0.167 HD
ATOM     51  C   UNL A   1      41.312  28.315  28.627  1.00  0.00     0.037 A 
ATOM     52  C   UNL A   1      47.912  26.828  26.795  1.00  0.00     0.037 A 
ATOM     53  C   UNL A   1      42.235  29.414  28.720  1.00  0.00     0.049 A 
ATOM     54  C   UNL A   1      47.488  28.218  27.191  1.00  0.00     0.074 A 
ATOM     55  C   UNL A   1      41.989  30.708  29.146  1.00  0.00     0.029 A 
ATOM     56  N   UNL A   1      43.577  29.350  28.378  1.00  0.00    -0.354 N 
ATOM     57  N   UNL A   1      46.316  28.644  27.593  1.00  0.00    -0.248 NA
ATOM     58  C   UNL A   1      48.516  29.268  27.132  1.00  0.00     0.031 C 
ATOM     59  C   UNL A   1      43.169  31.443  29.004  1.00  0.00     0.029 A 
ATOM     60  C   UNL A   1      44.166  30.592  28.554  1.00  0.00     0.049 A 
ATOM     61  H   UNL A   1      44.041  28.544  28.057  1.00  0.00     0.167 HD
ATOM     62  C   UNL A   1      46.472  29.996  27.866  1.00  0.00     0.074 A 
ATOM     63  C   UNL A   1      47.856  30.319  27.597  1.00  0.00     0.031 C 
ATOM     64  C   UNL A   1      45.551  30.891  28.301  1.00  0.00     0.037 A 
BRANCH  51  65
ATOM     65  C   UNL A   1      39.868  28.580  28.941  1.00  0.00     0.064 A 
ATOM     66  C   UNL A   1      39.343  28.383  30.226  1.00  0.00     0.173 A 
ATOM     67  C   UNL A   1      39.016  29.107  27.958  1.00  0.00     0.173 A 
ATOM     68  F   UNL A   1      40.111  27.871  31.200  1.00  0.00    -0.203 F 
ATOM     69  C   UNL A   1      38.014  28.687  30.512  1.00  0.00     0.198 A 
ATOM     70  C   UNL A   1      37.698  29.440  28.255  1.00  0.00     0.198 A 
ATOM     71  F   UNL A   1      39.470  29.320  26.713  1.00  0.00    -0.203 F 
ATOM     72  F   UNL A   1      37.523  28.454  31.736  1.00  0.00    -0.200 F 
ATOM     73  C   UNL A   1      37.196  29.225  29.529  1.00  0.00     0.200 A 
ATOM     74  F   UNL A   1      36.915  29.975  27.308  1.00  0.00    -0.200 F 
ATOM     75  F   UNL A   1      35.923  29.534  29.810  1.00  0.00    -0.200 F 
ENDBRANCH  51  65
BRANCH  52  76
ATOM     76  C   UNL A   1      49.301  26.562  26.333  1.00  0.00     0.064 A 
ATOM     77  C   UNL A   1      50.292  26.132  27.227  1.00  0.00     0.173 A 
ATOM     78  C   UNL A   1      49.676  26.763  24.996  1.00  0.00     0.173 A 
ATOM     79  F   UNL A   1      49.990  25.943  28.520  1.00  0.00    -0.203 F 
ATOM     80  C   UNL A   1      51.611  25.952  26.811  1.00  0.00     0.198 A 
ATOM     81  C   UNL A   1      50.986  26.548  24.573  1.00  0.00     0.198 A 
ATOM     82  F   UNL A   1      48.767  27.166  24.095  1.00  0.00    -0.203 F 
ATOM     83  F   UNL A   1      52.549  25.604  27.701  1.00  0.00    -0.200 F 
ATOM     84  C   UNL A   1      51.955  26.155  25.483  1.00  0.00     0.200 A 
ATOM     85  F   UNL A   1      51.311  26.729  23.286  1.00  0.00    -0.200 F 
ATOM     86  F   UNL A   1      53.223  25.986  25.084  1.00  0.00    -0.200 F 
ENDBRANCH  52  76
BRANCH  64  87
ATOM     87  C   UNL A   1      46.015  32.294  28.566  1.00  0.00     0.064 A 
ATOM     88  C   UNL A   1      46.524  32.681  29.815  1.00  0.00     0.173 A 
ATOM     89  C   UNL A   1      46.011  33.245  27.535  1.00  0.00     0.173 A 
ATOM     90  F   UNL A   1      46.537  31.812  30.838  1.00  0.00    -0.203 F 
ATOM     91  C   UNL A   1      46.989  33.976  30.026  1.00  0.00     0.198 A 
ATOM     92  C   UNL A   1      46.509  34.528  27.739  1.00  0.00     0.198 A 
ATOM     93  F   UNL A   1      45.543  32.922  26.319  1.00  0.00    -0.203 F 
ATOM     94  F   UNL A   1      47.429  34.338  31.240  1.00  0.00    -0.200 F 
ATOM     95  C   UNL A   1      46.992  34.895  28.987  1.00  0.00     0.200 A 
ATOM     96  F   UNL A   1      46.528  35.407  26.729  1.00  0.00    -0.200 F 
ATOM     97  F   UNL A   1      47.456  36.136  29.188  1.00  0.00    -0.200 F 
ENDBRANCH  64  87
ENDBRANCH  38  39
ENDBRANCH  30  33
ENDBRANCH  28  29
ENDBRANCH  27  28
ENDBRANCH   1  27
TORSDOF 15
ENDMDL
MODEL 2
REMARK VINA RESULT:     -12.5      6.037     11.257
REMARK SMILES CCNC(=O)NC(=O)[C@@H](C)[NH2+][C@](C)(C(=O)NCCCNC(=O)c1ccc(-c2c3nc(c(-c4c(F)c(F)c(F)c(F)c4F)c4ccc([nH]4)c(-c4c(F)c(F)c(F)c(F)c4F)c4nc(c(-c5c(F)c(F)c(F)c(F)c5F)c5ccc2[nH]5)C=C4)C=C3)cc1)C(F)(F)F
REMARK SMILES IDX 17 1 16 2 14 3 15 4 12 6 13 7 11 8 9 11 10 12 7 13 3 14 4 15
REMARK SMILES IDX 5 17 6 18 8 20 2 21 1 22 86 23 87 24 88 25 89 26 18 27 19 28
REMARK SMILES IDX 20 29 21 30 22 32 23 33 24 34 85 35 25 36 84 37 26 38 27 39
REMARK SMILES IDX 28 40 78 41 29 42 83 43 77 44 79 45 30 46 82 47 76 48 75 49
REMARK SMILES IDX 31 51 63 52 43 53 62 54 44 55 47 56 61 57 80 58 45 59 46 60
REMARK SMILES IDX 60 62 81 63 48 64 32 65 33 66 41 67 34 68 35 69 39 70 42 71
REMARK SMILES IDX 36 72 37 73 40 74 38 75 64 76 65 77 73 78 66 79 67 80 71 81
REMARK SMILES IDX 74 82 68 83 69 84 72 85 70 86 49 87 50 88 58 89 51 90 52 91
REMARK SMILES IDX 56 92 59 93 53 94 54 95 57 96 55 97
REMARK H PARENT 16 5 11 9 11 10 3 16 6 19 20 31 79 50 47 61
REMARK Flexibility Score: inf
ROOT
ATOM      1  C   UNL A   1      31.627  30.646  26.473  1.00  0.00     0.118 C 
ENDROOT
BRANCH   1   2
ATOM      2  N   UNL A   1      32.002  30.268  25.119  1.00  0.00    -0.350 N 
ATOM      3  C   UNL A   1      32.534  29.117  24.601  1.00  0.00     0.290 C 
ATOM      4  O   UNL A   1      32.989  29.214  23.461  1.00  0.00    -0.267 OA
ATOM      5  H   UNL A   1      31.841  30.971  24.450  1.00  0.00     0.163 HD
BRANCH   3   6
ATOM      6  C   UNL A   1      32.425  27.777  25.380  1.00  0.00     0.269 C 
ATOM      7  C   UNL A   1      31.304  27.829  26.432  1.00  0.00     0.101 C 
BRANCH   6   8
ATOM      8  N   UNL A   1      32.260  26.729  24.305  1.00  0.00    -0.316 N 
ATOM      9  H   UNL A   1      32.902  26.980  23.554  1.00  0.00     0.348 HD
ATOM     10  H   UNL A   1      32.428  25.860  24.811  1.00  0.00     0.348 HD
BRANCH   8  11
ATOM     11  C   UNL A   1      30.955  26.490  23.676  1.00  0.00     0.271 C 
ATOM     12  C   UNL A   1      30.347  25.088  23.703  1.00  0.00     0.086 C 
BRANCH  11  13
ATOM     13  C   UNL A   1      31.003  26.973  22.216  1.00  0.00     0.285 C 
ATOM     14  N   UNL A   1      33.067  24.364  21.324  1.00  0.00    -0.338 N 
ATOM     15  C   UNL A   1      32.592  25.434  20.688  1.00  0.00     0.321 C 
ATOM     16  H   UNL A   1      33.597  23.776  20.738  1.00  0.00     0.165 HD
ATOM     17  O   UNL A   1      32.956  25.588  19.516  1.00  0.00    -0.248 OA
ATOM     18  N   UNL A   1      31.737  26.387  21.184  1.00  0.00    -0.273 N 
ATOM     19  H   UNL A   1      31.539  26.953  20.404  1.00  0.00     0.175 HD
ATOM     20  O   UNL A   1      30.346  27.979  21.907  1.00  0.00    -0.268 OA
BRANCH  14  21
ATOM     21  C   UNL A   1      32.980  23.876  22.669  1.00  0.00     0.114 C 
ATOM     22  C   UNL A   1      34.301  23.812  23.402  1.00  0.00     0.027 C 
ENDBRANCH  14  21
ENDBRANCH  11  13
ENDBRANCH   8  11
ENDBRANCH   6   8
BRANCH   6  23
ATOM     23  C   UNL A   1      33.765  27.693  26.187  1.00  0.00     0.453 C 
ATOM     24  F   UNL A   1      34.334  26.466  26.108  1.00  0.00    -0.164 F 
ATOM     25  F   UNL A   1      34.680  28.561  25.679  1.00  0.00    -0.164 F 
ATOM     26  F   UNL A   1      33.632  28.007  27.492  1.00  0.00    -0.164 F 
ENDBRANCH   6  23
ENDBRANCH   3   6
ENDBRANCH   1   2
BRANCH   1  27
ATOM     27  C   UNL A   1      31.484  32.158  26.590  1.00  0.00     0.042 C 
BRANCH  27  28
ATOM     28  C   UNL A   1      32.619  32.803  27.376  1.00  0.00     0.118 C 
BRANCH  28  29
ATOM     29  N   UNL A   1      32.370  34.210  27.653  1.00  0.00    -0.352 N 
ATOM     30  C   UNL A   1      32.946  35.027  28.593  1.00  0.00     0.251 C 
ATOM     31  H   UNL A   1      31.690  34.638  27.084  1.00  0.00     0.163 HD
ATOM     32  O   UNL A   1      32.464  36.131  28.834  1.00  0.00    -0.269 OA
BRANCH  30  33
ATOM     33  C   UNL A   1      34.135  34.559  29.332  1.00  0.00     0.039 A 
ATOM     34  C   UNL A   1      33.978  34.036  30.617  1.00  0.00     0.014 A 
ATOM     35  C   UNL A   1      35.400  34.618  28.743  1.00  0.00     0.014 A 
ATOM     36  C   UNL A   1      35.082  33.498  31.280  1.00  0.00     0.010 A 
ATOM     37  C   UNL A   1      36.477  33.995  29.362  1.00  0.00     0.010 A 
ATOM     38  C   UNL A   1      36.331  33.433  30.640  1.00  0.00    -0.014 A 
BRANCH  38  39
ATOM     39  C   UNL A   1      37.506  32.793  31.283  1.00  0.00     0.031 A 
ATOM     40  C   UNL A   1      38.182  31.629  30.609  1.00  0.00     0.074 A 
ATOM     41  C   UNL A   1      37.904  33.194  32.506  1.00  0.00     0.049 A 
ATOM     42  N   UNL A   1      39.130  30.848  31.060  1.00  0.00    -0.248 NA
ATOM     43  C   UNL A   1      37.705  31.275  29.262  1.00  0.00     0.031 C 
ATOM     44  C   UNL A   1      37.299  34.280  33.281  1.00  0.00     0.029 A 
ATOM     45  N   UNL A   1      38.900  32.719  33.325  1.00  0.00    -0.354 N 
ATOM     46  C   UNL A   1      39.340  29.899  30.067  1.00  0.00     0.074 A 
ATOM     47  C   UNL A   1      38.392  30.171  29.011  1.00  0.00     0.031 C 
ATOM     48  C   UNL A   1      37.940  34.394  34.455  1.00  0.00     0.029 A 
ATOM     49  C   UNL A   1      38.968  33.361  34.539  1.00  0.00     0.049 A 
ATOM     50  H   UNL A   1      39.506  31.989  33.067  1.00  0.00     0.167 HD
ATOM     51  C   UNL A   1      40.258  28.905  30.034  1.00  0.00     0.037 A 
ATOM     52  C   UNL A   1      39.754  33.125  35.607  1.00  0.00     0.037 A 
ATOM     53  C   UNL A   1      41.226  28.667  31.071  1.00  0.00     0.049 A 
ATOM     54  C   UNL A   1      40.765  32.010  35.540  1.00  0.00     0.074 A 
ATOM     55  C   UNL A   1      42.250  27.736  31.092  1.00  0.00     0.029 A 
ATOM     56  N   UNL A   1      41.288  29.362  32.269  1.00  0.00    -0.354 N 
ATOM     57  N   UNL A   1      41.008  31.171  34.564  1.00  0.00    -0.248 NA
ATOM     58  C   UNL A   1      41.617  31.814  36.722  1.00  0.00     0.031 C 
ATOM     59  C   UNL A   1      42.894  27.827  32.329  1.00  0.00     0.029 A 
ATOM     60  C   UNL A   1      42.315  28.859  33.051  1.00  0.00     0.049 A 
ATOM     61  H   UNL A   1      40.692  30.102  32.525  1.00  0.00     0.167 HD
ATOM     62  C   UNL A   1      42.058  30.372  34.998  1.00  0.00     0.074 A 
ATOM     63  C   UNL A   1      42.416  30.836  36.320  1.00  0.00     0.031 C 
ATOM     64  C   UNL A   1      42.671  29.346  34.358  1.00  0.00     0.037 A 
BRANCH  51  65
ATOM     65  C   UNL A   1      40.266  27.993  28.842  1.00  0.00     0.064 A 
ATOM     66  C   UNL A   1      40.985  28.305  27.678  1.00  0.00     0.173 A 
ATOM     67  C   UNL A   1      39.603  26.757  28.892  1.00  0.00     0.173 A 
ATOM     68  F   UNL A   1      41.627  29.477  27.574  1.00  0.00    -0.203 F 
ATOM     69  C   UNL A   1      41.025  27.421  26.603  1.00  0.00     0.198 A 
ATOM     70  C   UNL A   1      39.672  25.863  27.828  1.00  0.00     0.198 A 
ATOM     71  F   UNL A   1      38.905  26.408  29.983  1.00  0.00    -0.203 F 
ATOM     72  F   UNL A   1      41.686  27.756  25.486  1.00  0.00    -0.200 F 
ATOM     73  C   UNL A   1      40.378  26.197  26.683  1.00  0.00     0.200 A 
ATOM     74  F   UNL A   1      39.060  24.674  27.914  1.00  0.00    -0.200 F 
ATOM     75  F   UNL A   1      40.433  25.339  25.654  1.00  0.00    -0.200 F 
ENDBRANCH  51  65
BRANCH  52  76
ATOM     76  C   UNL A   1      39.618  33.952  36.837  1.00  0.00     0.064 A 
ATOM     77  C   UNL A   1      38.832  33.522  37.915  1.00  0.00     0.173 A 
ATOM     78  C   UNL A   1      40.243  35.203  36.948  1.00  0.00     0.173 A 
ATOM     79  F   UNL A   1      38.197  32.342  37.852  1.00  0.00    -0.203 F 
ATOM     80  C   UNL A   1      38.644  34.327  39.038  1.00  0.00     0.198 A 
ATOM     81  C   UNL A   1      40.085  35.991  38.087  1.00  0.00     0.198 A 
ATOM     82  F   UNL A   1      41.015  35.661  35.950  1.00  0.00    -0.203 F 
ATOM     83  F   UNL A   1      37.835  33.917  40.024  1.00  0.00    -0.200 F 
ATOM     84  C   UNL A   1      39.275  35.558  39.125  1.00  0.00     0.200 A 
ATOM     85  F   UNL A   1      40.710  37.173  38.173  1.00  0.00    -0.200 F 
ATOM     86  F   UNL A   1      39.092  36.333  40.203  1.00  0.00    -0.200 F 
ENDBRANCH  52  76
BRANCH  64  87
ATOM     87  C   UNL A   1      43.827  28.686  35.051  1.00  0.00     0.064 A 
ATOM     88  C   UNL A   1      43.651  27.575  35.888  1.00  0.00     0.173 A 
ATOM     89  C   UNL A   1      45.137  29.135  34.821  1.00  0.00     0.173 A 
ATOM     90  F   UNL A   1      42.417  27.116  36.151  1.00  0.00    -0.203 F 
ATOM     91  C   UNL A   1      44.742  26.951  36.487  1.00  0.00     0.198 A 
ATOM     92  C   UNL A   1      46.228  28.487  35.393  1.00  0.00     0.198 A 
ATOM     93  F   UNL A   1      45.360  30.189  34.021  1.00  0.00    -0.203 F 
ATOM     94  F   UNL A   1      44.547  25.919  37.319  1.00  0.00    -0.200 F 
ATOM     95  C   UNL A   1      46.030  27.400  36.231  1.00  0.00     0.200 A 
ATOM     96  F   UNL A   1      47.471  28.912  35.129  1.00  0.00    -0.200 F 
ATOM     97  F   UNL A   1      47.080  26.788  36.795  1.00  0.00    -0.200 F 
ENDBRANCH  64  87
ENDBRANCH  38  39
ENDBRANCH  30  33
ENDBRANCH  28  29
ENDBRANCH  27  28
ENDBRANCH   1  27
TORSDOF 15
ENDMDL
MODEL 3
REMARK VINA RESULT:     -12.4      6.006     11.307
REMARK SMILES CCNC(=O)NC(=O)[C@@H](C)[NH2+][C@](C)(C(=O)NCCCNC(=O)c1ccc(-c2c3nc(c(-c4c(F)c(F)c(F)c(F)c4F)c4ccc([nH]4)c(-c4c(F)c(F)c(F)c(F)c4F)c4nc(c(-c5c(F)c(F)c(F)c(F)c5F)c5ccc2[nH]5)C=C4)C=C3)cc1)C(F)(F)F
REMARK SMILES IDX 17 1 16 2 14 3 15 4 12 6 13 7 11 8 9 11 10 12 7 13 3 14 4 15
REMARK SMILES IDX 5 17 6 18 8 20 2 21 1 22 86 23 87 24 88 25 89 26 18 27 19 28
REMARK SMILES IDX 20 29 21 30 22 32 23 33 24 34 85 35 25 36 84 37 26 38 27 39
REMARK SMILES IDX 28 40 78 41 29 42 83 43 77 44 79 45 30 46 82 47 76 48 75 49
REMARK SMILES IDX 31 51 63 52 43 53 62 54 44 55 47 56 61 57 80 58 45 59 46 60
REMARK SMILES IDX 60 62 81 63 48 64 32 65 33 66 41 67 34 68 35 69 39 70 42 71
REMARK SMILES IDX 36 72 37 73 40 74 38 75 64 76 65 77 73 78 66 79 67 80 71 81
REMARK SMILES IDX 74 82 68 83 69 84 72 85 70 86 49 87 50 88 58 89 51 90 52 91
REMARK SMILES IDX 56 92 59 93 53 94 54 95 57 96 55 97
REMARK H PARENT 16 5 11 9 11 10 3 16 6 19 20 31 79 50 47 61
REMARK Flexibility Score: inf
ROOT
ATOM      1  C   UNL A   1      31.422  30.680  26.545  1.00  0.00     0.118 C 
ENDROOT
BRANCH   1   2
ATOM      2  N   UNL A   1      32.129  30.103  25.413  1.00  0.00    -0.350 N 
ATOM      3  C   UNL A   1      33.193  29.244  25.336  1.00  0.00     0.290 C 
ATOM      4  O   UNL A   1      33.726  29.164  24.228  1.00  0.00    -0.267 OA
ATOM      5  H   UNL A   1      31.776  30.381  24.537  1.00  0.00     0.163 HD
BRANCH   3   6
ATOM      6  C   UNL A   1      33.579  28.354  26.549  1.00  0.00     0.269 C 
ATOM      7  C   UNL A   1      32.412  28.226  27.544  1.00  0.00     0.101 C 
BRANCH   6   8
ATOM      8  N   UNL A   1      34.053  27.060  25.932  1.00  0.00    -0.316 N 
ATOM      9  H   UNL A   1      34.819  27.301  25.304  1.00  0.00     0.348 HD
ATOM     10  H   UNL A   1      34.262  26.486  26.748  1.00  0.00     0.348 HD
BRANCH   8  11
ATOM     11  C   UNL A   1      33.135  26.209  25.164  1.00  0.00     0.271 C 
ATOM     12  C   UNL A   1      32.313  25.141  25.884  1.00  0.00     0.086 C 
BRANCH  11  13
ATOM     13  C   UNL A   1      33.912  25.536  24.019  1.00  0.00     0.285 C 
ATOM     14  N   UNL A   1      31.778  26.864  21.665  1.00  0.00    -0.338 N 
ATOM     15  C   UNL A   1      32.800  26.011  21.618  1.00  0.00     0.321 C 
ATOM     16  H   UNL A   1      31.418  27.078  20.773  1.00  0.00     0.165 HD
ATOM     17  O   UNL A   1      33.079  25.542  20.508  1.00  0.00    -0.248 OA
ATOM     18  N   UNL A   1      33.586  25.594  22.664  1.00  0.00    -0.273 N 
ATOM     19  H   UNL A   1      34.285  25.053  22.230  1.00  0.00     0.175 HD
ATOM     20  O   UNL A   1      34.918  24.866  24.304  1.00  0.00    -0.268 OA
BRANCH  14  21
ATOM     21  C   UNL A   1      31.084  27.541  22.721  1.00  0.00     0.114 C 
ATOM     22  C   UNL A   1      30.577  28.919  22.359  1.00  0.00     0.027 C 
ENDBRANCH  14  21
ENDBRANCH  11  13
ENDBRANCH   8  11
ENDBRANCH   6   8
BRANCH   6  23
ATOM     23  C   UNL A   1      34.685  29.178  27.292  1.00  0.00     0.453 C 
ATOM     24  F   UNL A   1      34.741  30.461  26.864  1.00  0.00    -0.164 F 
ATOM     25  F   UNL A   1      34.416  29.241  28.624  1.00  0.00    -0.164 F 
ATOM     26  F   UNL A   1      35.921  28.648  27.183  1.00  0.00    -0.164 F 
ENDBRANCH   6  23
ENDBRANCH   3   6
ENDBRANCH   1   2
BRANCH   1  27
ATOM     27  C   UNL A   1      31.455  32.202  26.482  1.00  0.00     0.042 C 
BRANCH  27  28
ATOM     28  C   UNL A   1      32.517  32.812  27.389  1.00  0.00     0.118 C 
BRANCH  28  29
ATOM     29  N   UNL A   1      32.289  34.229  27.633  1.00  0.00    -0.352 N 
ATOM     30  C   UNL A   1      32.880  35.059  28.552  1.00  0.00     0.251 C 
ATOM     31  H   UNL A   1      31.614  34.653  27.055  1.00  0.00     0.163 HD
ATOM     32  O   UNL A   1      32.415  36.175  28.767  1.00  0.00    -0.269 OA
BRANCH  30  33
ATOM     33  C   UNL A   1      34.064  34.592  29.299  1.00  0.00     0.039 A 
ATOM     34  C   UNL A   1      33.893  34.036  30.569  1.00  0.00     0.014 A 
ATOM     35  C   UNL A   1      35.337  34.683  28.734  1.00  0.00     0.014 A 
ATOM     36  C   UNL A   1      34.994  33.499  31.237  1.00  0.00     0.010 A 
ATOM     37  C   UNL A   1      36.412  34.062  29.356  1.00  0.00     0.010 A 
ATOM     38  C   UNL A   1      36.254  33.467  30.617  1.00  0.00    -0.014 A 
BRANCH  38  39
ATOM     39  C   UNL A   1      37.429  32.830  31.264  1.00  0.00     0.031 A 
ATOM     40  C   UNL A   1      38.098  31.655  30.603  1.00  0.00     0.074 A 
ATOM     41  C   UNL A   1      37.831  33.243  32.482  1.00  0.00     0.049 A 
ATOM     42  N   UNL A   1      39.044  30.875  31.060  1.00  0.00    -0.248 NA
ATOM     43  C   UNL A   1      37.616  31.287  29.261  1.00  0.00     0.031 C 
ATOM     44  C   UNL A   1      37.233  34.340  33.246  1.00  0.00     0.029 A 
ATOM     45  N   UNL A   1      38.826  32.773  33.304  1.00  0.00    -0.354 N 
ATOM     46  C   UNL A   1      39.247  29.914  30.078  1.00  0.00     0.074 A 
ATOM     47  C   UNL A   1      38.297  30.177  29.021  1.00  0.00     0.031 C 
ATOM     48  C   UNL A   1      37.877  34.465  34.417  1.00  0.00     0.029 A 
ATOM     49  C   UNL A   1      38.901  33.429  34.510  1.00  0.00     0.049 A 
ATOM     50  H   UNL A   1      39.429  32.037  33.053  1.00  0.00     0.167 HD
ATOM     51  C   UNL A   1      40.160  28.915  30.054  1.00  0.00     0.037 A 
ATOM     52  C   UNL A   1      39.689  33.202  35.579  1.00  0.00     0.037 A 
ATOM     53  C   UNL A   1      41.130  28.685  31.091  1.00  0.00     0.049 A 
ATOM     54  C   UNL A   1      40.694  32.082  35.523  1.00  0.00     0.074 A 
ATOM     55  C   UNL A   1      42.150  27.751  31.121  1.00  0.00     0.029 A 
ATOM     56  N   UNL A   1      41.198  29.394  32.281  1.00  0.00    -0.354 N 
ATOM     57  N   UNL A   1      40.931  31.230  34.556  1.00  0.00    -0.248 NA
ATOM     58  C   UNL A   1      41.548  31.895  36.705  1.00  0.00     0.031 C 
ATOM     59  C   UNL A   1      42.797  27.853  32.355  1.00  0.00     0.029 A 
ATOM     60  C   UNL A   1      42.225  28.895  33.066  1.00  0.00     0.049 A 
ATOM     61  H   UNL A   1      40.605  30.139  32.530  1.00  0.00     0.167 HD
ATOM     62  C   UNL A   1      41.979  30.432  34.996  1.00  0.00     0.074 A 
ATOM     63  C   UNL A   1      42.342  30.909  36.312  1.00  0.00     0.031 C 
ATOM     64  C   UNL A   1      42.586  29.396  34.366  1.00  0.00     0.037 A 
BRANCH  51  65
ATOM     65  C   UNL A   1      40.162  27.990  28.872  1.00  0.00     0.064 A 
ATOM     66  C   UNL A   1      40.867  28.292  27.698  1.00  0.00     0.173 A 
ATOM     67  C   UNL A   1      39.506  26.751  28.943  1.00  0.00     0.173 A 
ATOM     68  F   UNL A   1      41.502  29.467  27.574  1.00  0.00    -0.203 F 
ATOM     69  C   UNL A   1      40.901  27.396  26.632  1.00  0.00     0.198 A 
ATOM     70  C   UNL A   1      39.569  25.845  27.889  1.00  0.00     0.198 A 
ATOM     71  F   UNL A   1      38.820  26.411  30.045  1.00  0.00    -0.203 F 
ATOM     72  F   UNL A   1      41.549  27.722  25.505  1.00  0.00    -0.200 F 
ATOM     73  C   UNL A   1      40.262  26.169  26.733  1.00  0.00     0.200 A 
ATOM     74  F   UNL A   1      38.964  24.654  27.995  1.00  0.00    -0.200 F 
ATOM     75  F   UNL A   1      40.312  25.300  25.714  1.00  0.00    -0.200 F 
ENDBRANCH  51  65
BRANCH  52  76
ATOM     76  C   UNL A   1      39.559  34.043  36.800  1.00  0.00     0.064 A 
ATOM     77  C   UNL A   1      40.257  35.253  36.924  1.00  0.00     0.173 A 
ATOM     78  C   UNL A   1      38.762  33.640  37.882  1.00  0.00     0.173 A 
ATOM     79  F   UNL A   1      41.047  35.674  35.926  1.00  0.00    -0.203 F 
ATOM     80  C   UNL A   1      40.194  36.006  38.095  1.00  0.00     0.198 A 
ATOM     81  C   UNL A   1      38.671  34.412  39.039  1.00  0.00     0.198 A 
ATOM     82  F   UNL A   1      38.066  32.495  37.815  1.00  0.00    -0.203 F 
ATOM     83  F   UNL A   1      40.923  37.124  38.209  1.00  0.00    -0.200 F 
ATOM     84  C   UNL A   1      39.397  35.587  39.149  1.00  0.00     0.200 A 
ATOM     85  F   UNL A   1      37.886  34.012  40.048  1.00  0.00    -0.200 F 
ATOM     86  F   UNL A   1      39.339  36.310  40.277  1.00  0.00    -0.200 F 
ENDBRANCH  52  76
BRANCH  64  87
ATOM     87  C   UNL A   1      43.741  28.739  35.064  1.00  0.00     0.064 A 
ATOM     88  C   UNL A   1      45.058  29.196  34.906  1.00  0.00     0.173 A 
ATOM     89  C   UNL A   1      43.517  27.678  35.954  1.00  0.00     0.173 A 
ATOM     90  F   UNL A   1      45.328  30.200  34.056  1.00  0.00    -0.203 F 
ATOM     91  C   UNL A   1      46.109  28.599  35.597  1.00  0.00     0.198 A 
ATOM     92  C   UNL A   1      44.565  27.106  36.669  1.00  0.00     0.198 A 
ATOM     93  F   UNL A   1      42.274  27.209  36.147  1.00  0.00    -0.203 F 
ATOM     94  F   UNL A   1      47.365  29.022  35.397  1.00  0.00    -0.200 F 
ATOM     95  C   UNL A   1      45.861  27.563  36.485  1.00  0.00     0.200 A 
ATOM     96  F   UNL A   1      44.319  26.118  37.540  1.00  0.00    -0.200 F 
ATOM     97  F   UNL A   1      46.872  27.001  37.161  1.00  0.00    -0.200 F 
ENDBRANCH  64  87
ENDBRANCH  38  39
ENDBRANCH  30  33
ENDBRANCH  28  29
ENDBRANCH  27  28
ENDBRANCH   1  27
TORSDOF 15
ENDMDL
