MODEL 1
REMARK VINA RESULT:     -12.7      0.000      0.000
REMARK SMILES CCCN1CCC[C@@]2(CCN(c3ccc(C(=O)NCCCNC(=O)c4ccc(-c5c6nc(c(-c7c(F)c(F)c(F)c(F)c7F)c7ccc([nH]7)c(-c7c(F)c(F)c(F)c(F)c7F)c7nc(c(-c8c(F)c(F)c(F)c(F)c8F)c8ccc5[nH]8)C=C7)C=C6)cc4)cn3)C2)C1=O
REMARK SMILES IDX 19 1 18 2 16 3 17 4 15 6 12 7 13 8 89 9 14 10 88 11 11 12
REMARK SMILES IDX 4 13 5 14 91 15 6 16 8 17 92 18 7 19 9 20 90 21 10 22 3 23
REMARK SMILES IDX 2 24 1 25 20 26 21 27 22 28 23 29 24 31 25 32 26 33 87 34
REMARK SMILES IDX 27 35 86 36 28 37 29 38 30 39 80 40 31 41 85 42 79 43 81 44
REMARK SMILES IDX 32 45 84 46 78 47 77 48 33 50 65 51 45 52 64 53 46 54 49 55
REMARK SMILES IDX 63 56 82 57 47 58 48 59 62 61 83 62 50 63 34 64 35 65 43 66
REMARK SMILES IDX 36 67 37 68 41 69 44 70 38 71 39 72 42 73 40 74 66 75 67 76
REMARK SMILES IDX 75 77 68 78 69 79 73 80 76 81 70 82 71 83 74 84 72 85 51 86
REMARK SMILES IDX 52 87 60 88 53 89 54 90 58 91 61 92 55 93 56 94 59 95 57 96
REMARK H PARENT 18 5 22 30 81 49 49 60
REMARK Flexibility Score: inf
ROOT
ATOM      1  C   UNL A   1      36.646  20.145  24.994  1.00  0.00     0.118 C 
ENDROOT
BRANCH   1   2
ATOM      2  N   UNL A   1      35.494  19.265  24.894  1.00  0.00    -0.352 N 
ATOM      3  C   UNL A   1      34.140  19.498  24.904  1.00  0.00     0.252 C 
ATOM      4  O   UNL A   1      33.402  18.530  24.717  1.00  0.00    -0.269 OA
ATOM      5  H   UNL A   1      35.732  18.314  24.801  1.00  0.00     0.163 HD
BRANCH   3   6
ATOM      6  C   UNL A   1      33.533  20.838  25.098  1.00  0.00     0.058 A 
ATOM      7  C   UNL A   1      32.423  23.312  25.734  1.00  0.00     0.128 A 
ATOM      8  C   UNL A   1      32.358  22.824  24.433  1.00  0.00     0.048 A 
ATOM      9  N   UNL A   1      33.062  22.626  26.698  1.00  0.00    -0.239 NA
ATOM     10  C   UNL A   1      32.949  21.608  24.106  1.00  0.00     0.019 A 
ATOM     11  C   UNL A   1      33.581  21.408  26.369  1.00  0.00     0.127 A 
BRANCH   7  12
ATOM     12  N   UNL A   1      31.826  24.512  26.004  1.00  0.00    -0.356 N 
ATOM     13  N   UNL A   1      32.763  28.185  24.409  1.00  0.00    -0.342 N 
ATOM     14  C   UNL A   1      33.292  29.143  25.375  1.00  0.00     0.119 C 
ATOM     15  C   UNL A   1      31.573  27.556  24.762  1.00  0.00     0.230 C 
ATOM     16  C   UNL A   1      33.310  28.612  26.806  1.00  0.00     0.023 C 
ATOM     17  C   UNL A   1      31.615  26.878  26.130  1.00  0.00     0.069 C 
ATOM     18  O   UNL A   1      30.576  27.558  24.046  1.00  0.00    -0.274 OA
ATOM     19  C   UNL A   1      31.980  27.944  27.169  1.00  0.00     0.021 C 
ATOM     20  C   UNL A   1      30.282  26.158  26.412  1.00  0.00     0.040 C 
ATOM     21  C   UNL A   1      32.638  25.716  26.118  1.00  0.00     0.135 C 
ATOM     22  C   UNL A   1      30.453  24.821  25.675  1.00  0.00     0.119 C 
BRANCH  13  23
ATOM     23  C   UNL A   1      33.039  28.424  22.993  1.00  0.00     0.119 C 
BRANCH  23  24
ATOM     24  C   UNL A   1      33.747  27.251  22.292  1.00  0.00     0.018 C 
ATOM     25  C   UNL A   1      32.812  26.258  21.611  1.00  0.00     0.006 C 
ENDBRANCH  23  24
ENDBRANCH  13  23
ENDBRANCH   7  12
ENDBRANCH   3   6
ENDBRANCH   1   2
BRANCH   1  26
ATOM     26  C   UNL A   1      37.959  19.367  24.891  1.00  0.00     0.042 C 
BRANCH  26  27
ATOM     27  C   UNL A   1      39.061  19.912  25.796  1.00  0.00     0.118 C 
BRANCH  27  28
ATOM     28  N   UNL A   1      40.196  19.004  25.878  1.00  0.00    -0.352 N 
ATOM     29  C   UNL A   1      41.528  19.263  26.075  1.00  0.00     0.251 C 
ATOM     30  H   UNL A   1      39.970  18.051  25.776  1.00  0.00     0.163 HD
ATOM     31  O   UNL A   1      42.348  18.370  25.883  1.00  0.00    -0.269 OA
BRANCH  29  32
ATOM     32  C   UNL A   1      41.992  20.600  26.507  1.00  0.00     0.039 A 
ATOM     33  C   UNL A   1      42.373  21.524  25.527  1.00  0.00     0.014 A 
ATOM     34  C   UNL A   1      42.120  20.928  27.859  1.00  0.00     0.014 A 
ATOM     35  C   UNL A   1      42.836  22.788  25.902  1.00  0.00     0.010 A 
ATOM     36  C   UNL A   1      42.520  22.212  28.231  1.00  0.00     0.010 A 
ATOM     37  C   UNL A   1      42.889  23.151  27.256  1.00  0.00    -0.014 A 
BRANCH  37  38
ATOM     38  C   UNL A   1      43.334  24.506  27.671  1.00  0.00     0.031 A 
ATOM     39  C   UNL A   1      42.321  25.568  28.001  1.00  0.00     0.074 A 
ATOM     40  C   UNL A   1      44.650  24.793  27.703  1.00  0.00     0.049 A 
ATOM     41  N   UNL A   1      42.509  26.829  28.301  1.00  0.00    -0.248 NA
ATOM     42  C   UNL A   1      40.906  25.164  27.971  1.00  0.00     0.031 C 
ATOM     43  C   UNL A   1      45.728  23.859  27.377  1.00  0.00     0.029 A 
ATOM     44  N   UNL A   1      45.306  25.958  28.014  1.00  0.00    -0.354 N 
ATOM     45  C   UNL A   1      41.242  27.367  28.486  1.00  0.00     0.074 A 
ATOM     46  C   UNL A   1      40.291  26.312  28.216  1.00  0.00     0.031 C 
ATOM     47  C   UNL A   1      46.909  24.481  27.522  1.00  0.00     0.029 A 
ATOM     48  C   UNL A   1      46.672  25.867  27.912  1.00  0.00     0.049 A 
ATOM     49  H   UNL A   1      44.840  26.783  28.286  1.00  0.00     0.167 HD
ATOM     50  C   UNL A   1      40.905  28.621  28.870  1.00  0.00     0.037 A 
ATOM     51  C   UNL A   1      47.625  26.800  28.101  1.00  0.00     0.037 A 
ATOM     52  C   UNL A   1      41.854  29.665  29.158  1.00  0.00     0.049 A 
ATOM     53  C   UNL A   1      47.217  28.191  28.504  1.00  0.00     0.074 A 
ATOM     54  C   UNL A   1      41.612  30.962  29.577  1.00  0.00     0.029 A 
ATOM     55  N   UNL A   1      43.231  29.527  29.059  1.00  0.00    -0.354 N 
ATOM     56  N   UNL A   1      46.018  28.675  28.719  1.00  0.00    -0.248 NA
ATOM     57  C   UNL A   1      48.300  29.167  28.698  1.00  0.00     0.031 C 
ATOM     58  C   UNL A   1      42.841  31.618  29.702  1.00  0.00     0.029 A 
ATOM     59  C   UNL A   1      43.850  30.717  29.403  1.00  0.00     0.049 A 
ATOM     60  H   UNL A   1      43.698  28.705  28.787  1.00  0.00     0.167 HD
ATOM     61  C   UNL A   1      46.203  29.995  29.107  1.00  0.00     0.074 A 
ATOM     62  C   UNL A   1      47.631  30.233  29.111  1.00  0.00     0.031 C 
ATOM     63  C   UNL A   1      45.274  30.929  29.426  1.00  0.00     0.037 A 
BRANCH  50  64
ATOM     64  C   UNL A   1      39.445  28.935  29.022  1.00  0.00     0.064 A 
ATOM     65  C   UNL A   1      38.803  28.839  30.265  1.00  0.00     0.173 A 
ATOM     66  C   UNL A   1      38.693  29.396  27.930  1.00  0.00     0.173 A 
ATOM     67  F   UNL A   1      39.476  28.393  31.338  1.00  0.00    -0.203 F 
ATOM     68  C   UNL A   1      37.459  29.171  30.407  1.00  0.00     0.198 A 
ATOM     69  C   UNL A   1      37.356  29.753  28.080  1.00  0.00     0.198 A 
ATOM     70  F   UNL A   1      39.260  29.513  26.719  1.00  0.00    -0.203 F 
ATOM     71  F   UNL A   1      36.858  29.035  31.598  1.00  0.00    -0.200 F 
ATOM     72  C   UNL A   1      36.739  29.637  29.317  1.00  0.00     0.200 A 
ATOM     73  F   UNL A   1      36.665  30.216  27.029  1.00  0.00    -0.200 F 
ATOM     74  F   UNL A   1      35.448  29.970  29.458  1.00  0.00    -0.200 F 
ENDBRANCH  50  64
BRANCH  51  75
ATOM     75  C   UNL A   1      49.060  26.454  27.928  1.00  0.00     0.064 A 
ATOM     76  C   UNL A   1      49.887  26.243  29.040  1.00  0.00     0.173 A 
ATOM     77  C   UNL A   1      49.643  26.363  26.655  1.00  0.00     0.173 A 
ATOM     78  F   UNL A   1      49.381  26.340  30.279  1.00  0.00    -0.203 F 
ATOM     79  C   UNL A   1      51.249  25.988  28.888  1.00  0.00     0.198 A 
ATOM     80  C   UNL A   1      50.998  26.077  26.503  1.00  0.00     0.198 A 
ATOM     81  F   UNL A   1      48.895  26.550  25.558  1.00  0.00    -0.203 F 
ATOM     82  F   UNL A   1      52.027  25.850  29.970  1.00  0.00    -0.200 F 
ATOM     83  C   UNL A   1      51.802  25.902  27.620  1.00  0.00     0.200 A 
ATOM     84  F   UNL A   1      51.527  25.980  25.276  1.00  0.00    -0.200 F 
ATOM     85  F   UNL A   1      53.113  25.661  27.473  1.00  0.00    -0.200 F 
ENDBRANCH  51  75
BRANCH  63  86
ATOM     86  C   UNL A   1      45.774  32.275  29.859  1.00  0.00     0.064 A 
ATOM     87  C   UNL A   1      46.090  32.548  31.197  1.00  0.00     0.173 A 
ATOM     88  C   UNL A   1      45.972  33.294  28.913  1.00  0.00     0.173 A 
ATOM     89  F   UNL A   1      45.905  31.611  32.139  1.00  0.00    -0.203 F 
ATOM     90  C   UNL A   1      46.560  33.801  31.579  1.00  0.00     0.198 A 
ATOM     91  C   UNL A   1      46.469  34.536  29.295  1.00  0.00     0.198 A 
ATOM     92  F   UNL A   1      45.690  33.080  27.619  1.00  0.00    -0.203 F 
ATOM     93  F   UNL A   1      46.810  34.057  32.870  1.00  0.00    -0.200 F 
ATOM     94  C   UNL A   1      46.756  34.792  30.626  1.00  0.00     0.200 A 
ATOM     95  F   UNL A   1      46.669  35.488  28.372  1.00  0.00    -0.200 F 
ATOM     96  F   UNL A   1      47.213  35.996  30.996  1.00  0.00    -0.200 F 
ENDBRANCH  63  86
ENDBRANCH  37  38
ENDBRANCH  29  32
ENDBRANCH  27  28
ENDBRANCH  26  27
ENDBRANCH   1  26
TORSDOF 13
ENDMDL
MODEL 2
REMARK VINA RESULT:     -12.7      0.819      2.117
REMARK SMILES CCCN1CCC[C@@]2(CCN(c3ccc(C(=O)NCCCNC(=O)c4ccc(-c5c6nc(c(-c7c(F)c(F)c(F)c(F)c7F)c7ccc([nH]7)c(-c7c(F)c(F)c(F)c(F)c7F)c7nc(c(-c8c(F)c(F)c(F)c(F)c8F)c8ccc5[nH]8)C=C7)C=C6)cc4)cn3)C2)C1=O
REMARK SMILES IDX 19 1 18 2 16 3 17 4 15 6 12 7 13 8 89 9 14 10 88 11 11 12
REMARK SMILES IDX 4 13 5 14 91 15 6 16 8 17 92 18 7 19 9 20 90 21 10 22 3 23
REMARK SMILES IDX 2 24 1 25 20 26 21 27 22 28 23 29 24 31 25 32 26 33 87 34
REMARK SMILES IDX 27 35 86 36 28 37 29 38 30 39 80 40 31 41 85 42 79 43 81 44
REMARK SMILES IDX 32 45 84 46 78 47 77 48 33 50 65 51 45 52 64 53 46 54 49 55
REMARK SMILES IDX 63 56 82 57 47 58 48 59 62 61 83 62 50 63 34 64 35 65 43 66
REMARK SMILES IDX 36 67 37 68 41 69 44 70 38 71 39 72 42 73 40 74 66 75 67 76
REMARK SMILES IDX 75 77 68 78 69 79 73 80 76 81 70 82 71 83 74 84 72 85 51 86
REMARK SMILES IDX 52 87 60 88 53 89 54 90 58 91 61 92 55 93 56 94 59 95 57 96
REMARK H PARENT 18 5 22 30 81 49 49 60
REMARK Flexibility Score: inf
ROOT
ATOM      1  C   UNL A   1      36.655  20.268  24.973  1.00  0.00     0.118 C 
ENDROOT
BRANCH   1   2
ATOM      2  N   UNL A   1      35.478  19.431  24.808  1.00  0.00    -0.352 N 
ATOM      3  C   UNL A   1      34.133  19.707  24.796  1.00  0.00     0.252 C 
ATOM      4  O   UNL A   1      33.369  18.773  24.551  1.00  0.00    -0.269 OA
ATOM      5  H   UNL A   1      35.688  18.478  24.681  1.00  0.00     0.163 HD
BRANCH   3   6
ATOM      6  C   UNL A   1      33.564  21.057  25.032  1.00  0.00     0.058 A 
ATOM      7  C   UNL A   1      32.432  23.506  25.729  1.00  0.00     0.128 A 
ATOM      8  C   UNL A   1      32.774  23.238  24.408  1.00  0.00     0.048 A 
ATOM      9  N   UNL A   1      32.684  22.612  26.701  1.00  0.00    -0.239 NA
ATOM     10  C   UNL A   1      33.377  22.032  24.065  1.00  0.00     0.019 A 
ATOM     11  C   UNL A   1      33.220  21.412  26.335  1.00  0.00     0.127 A 
BRANCH   7  12
ATOM     12  N   UNL A   1      31.841  24.705  26.012  1.00  0.00    -0.356 N 
ATOM     13  N   UNL A   1      32.748  28.380  24.406  1.00  0.00    -0.342 N 
ATOM     14  C   UNL A   1      33.295  29.337  25.363  1.00  0.00     0.119 C 
ATOM     15  C   UNL A   1      31.564  27.751  24.781  1.00  0.00     0.230 C 
ATOM     16  C   UNL A   1      33.342  28.803  26.792  1.00  0.00     0.023 C 
ATOM     17  C   UNL A   1      31.633  27.071  26.147  1.00  0.00     0.069 C 
ATOM     18  O   UNL A   1      30.554  27.755  24.084  1.00  0.00    -0.274 OA
ATOM     19  C   UNL A   1      32.019  28.135  27.180  1.00  0.00     0.021 C 
ATOM     20  C   UNL A   1      30.306  26.351  26.453  1.00  0.00     0.040 C 
ATOM     21  C   UNL A   1      32.656  25.908  26.112  1.00  0.00     0.135 C 
ATOM     22  C   UNL A   1      30.462  25.015  25.711  1.00  0.00     0.119 C 
BRANCH  13  23
ATOM     23  C   UNL A   1      32.995  28.622  22.984  1.00  0.00     0.119 C 
BRANCH  23  24
ATOM     24  C   UNL A   1      33.857  27.538  22.312  1.00  0.00     0.018 C 
ATOM     25  C   UNL A   1      33.092  26.294  21.879  1.00  0.00     0.006 C 
ENDBRANCH  23  24
ENDBRANCH  13  23
ENDBRANCH   7  12
ENDBRANCH   3   6
ENDBRANCH   1   2
BRANCH   1  26
ATOM     26  C   UNL A   1      37.943  19.444  24.920  1.00  0.00     0.042 C 
BRANCH  26  27
ATOM     27  C   UNL A   1      39.091  20.062  25.713  1.00  0.00     0.118 C 
BRANCH  27  28
ATOM     28  N   UNL A   1      40.195  19.129  25.888  1.00  0.00    -0.352 N 
ATOM     29  C   UNL A   1      41.531  19.362  26.096  1.00  0.00     0.251 C 
ATOM     30  H   UNL A   1      39.942  18.179  25.850  1.00  0.00     0.163 HD
ATOM     31  O   UNL A   1      42.326  18.434  25.989  1.00  0.00    -0.269 OA
BRANCH  29  32
ATOM     32  C   UNL A   1      42.027  20.713  26.440  1.00  0.00     0.039 A 
ATOM     33  C   UNL A   1      42.291  21.612  25.401  1.00  0.00     0.014 A 
ATOM     34  C   UNL A   1      42.299  21.078  27.761  1.00  0.00     0.014 A 
ATOM     35  C   UNL A   1      42.782  22.889  25.690  1.00  0.00     0.010 A 
ATOM     36  C   UNL A   1      42.726  22.373  28.053  1.00  0.00     0.010 A 
ATOM     37  C   UNL A   1      42.978  23.289  27.021  1.00  0.00    -0.014 A 
BRANCH  37  38
ATOM     38  C   UNL A   1      43.454  24.656  27.349  1.00  0.00     0.031 A 
ATOM     39  C   UNL A   1      42.498  25.679  27.900  1.00  0.00     0.074 A 
ATOM     40  C   UNL A   1      44.736  24.992  27.105  1.00  0.00     0.049 A 
ATOM     41  N   UNL A   1      42.702  26.944  28.169  1.00  0.00    -0.248 NA
ATOM     42  C   UNL A   1      41.124  25.224  28.165  1.00  0.00     0.031 C 
ATOM     43  C   UNL A   1      45.752  24.099  26.545  1.00  0.00     0.029 A 
ATOM     44  N   UNL A   1      45.402  26.178  27.285  1.00  0.00    -0.354 N 
ATOM     45  C   UNL A   1      41.485  27.435  28.626  1.00  0.00     0.074 A 
ATOM     46  C   UNL A   1      40.535  26.347  28.550  1.00  0.00     0.031 C 
ATOM     47  C   UNL A   1      46.915  24.763  26.445  1.00  0.00     0.029 A 
ATOM     48  C   UNL A   1      46.718  26.138  26.894  1.00  0.00     0.049 A 
ATOM     49  H   UNL A   1      44.976  26.983  27.660  1.00  0.00     0.167 HD
ATOM     50  C   UNL A   1      41.194  28.673  29.090  1.00  0.00     0.037 A 
ATOM     51  C   UNL A   1      47.656  27.104  26.888  1.00  0.00     0.037 A 
ATOM     52  C   UNL A   1      42.146  29.749  29.182  1.00  0.00     0.049 A 
ATOM     53  C   UNL A   1      47.295  28.477  27.387  1.00  0.00     0.074 A 
ATOM     54  C   UNL A   1      41.953  31.034  29.660  1.00  0.00     0.029 A 
ATOM     55  N   UNL A   1      43.474  29.663  28.793  1.00  0.00    -0.354 N 
ATOM     56  N   UNL A   1      46.153  28.915  27.858  1.00  0.00    -0.248 NA
ATOM     57  C   UNL A   1      48.360  29.490  27.360  1.00  0.00     0.031 C 
ATOM     58  C   UNL A   1      43.158  31.734  29.531  1.00  0.00     0.029 A 
ATOM     59  C   UNL A   1      44.111  30.873  29.013  1.00  0.00     0.049 A 
ATOM     60  H   UNL A   1      43.901  28.860  28.417  1.00  0.00     0.167 HD
ATOM     61  C   UNL A   1      46.370  30.239  28.215  1.00  0.00     0.074 A 
ATOM     62  C   UNL A   1      47.757  30.530  27.920  1.00  0.00     0.031 C 
ATOM     63  C   UNL A   1      45.499  31.136  28.736  1.00  0.00     0.037 A 
BRANCH  50  64
ATOM     64  C   UNL A   1      39.790  28.933  29.551  1.00  0.00     0.064 A 
ATOM     65  C   UNL A   1      38.805  29.397  28.665  1.00  0.00     0.173 A 
ATOM     66  C   UNL A   1      39.406  28.659  30.873  1.00  0.00     0.173 A 
ATOM     67  F   UNL A   1      39.123  29.684  27.393  1.00  0.00    -0.203 F 
ATOM     68  C   UNL A   1      37.495  29.597  29.090  1.00  0.00     0.198 A 
ATOM     69  C   UNL A   1      38.089  28.835  31.288  1.00  0.00     0.198 A 
ATOM     70  F   UNL A   1      40.307  28.208  31.759  1.00  0.00    -0.203 F 
ATOM     71  F   UNL A   1      36.580  30.076  28.235  1.00  0.00    -0.200 F 
ATOM     72  C   UNL A   1      37.135  29.307  30.398  1.00  0.00     0.200 A 
ATOM     73  F   UNL A   1      37.739  28.541  32.548  1.00  0.00    -0.200 F 
ATOM     74  F   UNL A   1      35.870  29.487  30.802  1.00  0.00    -0.200 F 
ENDBRANCH  50  64
BRANCH  51  75
ATOM     75  C   UNL A   1      49.033  26.811  26.411  1.00  0.00     0.064 A 
ATOM     76  C   UNL A   1      49.385  27.012  25.069  1.00  0.00     0.173 A 
ATOM     77  C   UNL A   1      50.011  26.292  27.272  1.00  0.00     0.173 A 
ATOM     78  F   UNL A   1      48.478  27.486  24.202  1.00  0.00    -0.203 F 
ATOM     79  C   UNL A   1      50.652  26.674  24.597  1.00  0.00     0.198 A 
ATOM     80  C   UNL A   1      51.288  25.984  26.806  1.00  0.00     0.198 A 
ATOM     81  F   UNL A   1      49.728  26.087  28.565  1.00  0.00    -0.203 F 
ATOM     82  F   UNL A   1      50.942  26.820  23.298  1.00  0.00    -0.200 F 
ATOM     83  C   UNL A   1      51.604  26.164  25.468  1.00  0.00     0.200 A 
ATOM     84  F   UNL A   1      52.209  25.505  27.652  1.00  0.00    -0.200 F 
ATOM     85  F   UNL A   1      52.821  25.834  25.014  1.00  0.00    -0.200 F 
ENDBRANCH  51  75
BRANCH  63  86
ATOM     86  C   UNL A   1      46.033  32.498  29.070  1.00  0.00     0.064 A 
ATOM     87  C   UNL A   1      45.989  33.553  28.148  1.00  0.00     0.173 A 
ATOM     88  C   UNL A   1      46.564  32.757  30.343  1.00  0.00     0.173 A 
ATOM     89  F   UNL A   1      45.503  33.351  26.913  1.00  0.00    -0.203 F 
ATOM     90  C   UNL A   1      46.483  34.812  28.478  1.00  0.00     0.198 A 
ATOM     91  C   UNL A   1      47.030  34.024  30.679  1.00  0.00     0.198 A 
ATOM     92  F   UNL A   1      46.623  31.781  31.263  1.00  0.00    -0.203 F 
ATOM     93  F   UNL A   1      46.476  35.793  27.566  1.00  0.00    -0.200 F 
ATOM     94  C   UNL A   1      46.997  35.047  29.746  1.00  0.00     0.200 A 
ATOM     95  F   UNL A   1      47.515  34.253  31.908  1.00  0.00    -0.200 F 
ATOM     96  F   UNL A   1      47.467  36.261  30.063  1.00  0.00    -0.200 F 
ENDBRANCH  63  86
ENDBRANCH  37  38
ENDBRANCH  29  32
ENDBRANCH  27  28
ENDBRANCH  26  27
ENDBRANCH   1  26
TORSDOF 13
ENDMDL
MODEL 3
REMARK VINA RESULT:     -12.5      1.029      7.171
REMARK SMILES CCCN1CCC[C@@]2(CCN(c3ccc(C(=O)NCCCNC(=O)c4ccc(-c5c6nc(c(-c7c(F)c(F)c(F)c(F)c7F)c7ccc([nH]7)c(-c7c(F)c(F)c(F)c(F)c7F)c7nc(c(-c8c(F)c(F)c(F)c(F)c8F)c8ccc5[nH]8)C=C7)C=C6)cc4)cn3)C2)C1=O
REMARK SMILES IDX 19 1 18 2 16 3 17 4 15 6 12 7 13 8 89 9 14 10 88 11 11 12
REMARK SMILES IDX 4 13 5 14 91 15 6 16 8 17 92 18 7 19 9 20 90 21 10 22 3 23
REMARK SMILES IDX 2 24 1 25 20 26 21 27 22 28 23 29 24 31 25 32 26 33 87 34
REMARK SMILES IDX 27 35 86 36 28 37 29 38 30 39 80 40 31 41 85 42 79 43 81 44
REMARK SMILES IDX 32 45 84 46 78 47 77 48 33 50 65 51 45 52 64 53 46 54 49 55
REMARK SMILES IDX 63 56 82 57 47 58 48 59 62 61 83 62 50 63 34 64 35 65 43 66
REMARK SMILES IDX 36 67 37 68 41 69 44 70 38 71 39 72 42 73 40 74 66 75 67 76
REMARK SMILES IDX 75 77 68 78 69 79 73 80 76 81 70 82 71 83 74 84 72 85 51 86
REMARK SMILES IDX 52 87 60 88 53 89 54 90 58 91 61 92 55 93 56 94 59 95 57 96
REMARK H PARENT 18 5 22 30 81 49 49 60
REMARK Flexibility Score: inf
ROOT
ATOM      1  C   UNL A   1      36.787  20.078  24.923  1.00  0.00     0.118 C 
ENDROOT
BRANCH   1   2
ATOM      2  N   UNL A   1      35.647  19.188  24.784  1.00  0.00    -0.352 N 
ATOM      3  C   UNL A   1      34.290  19.407  24.773  1.00  0.00     0.252 C 
ATOM      4  O   UNL A   1      33.566  18.435  24.553  1.00  0.00    -0.269 OA
ATOM      5  H   UNL A   1      35.896  18.242  24.676  1.00  0.00     0.163 HD
BRANCH   3   6
ATOM      6  C   UNL A   1      33.665  20.736  24.983  1.00  0.00     0.058 A 
ATOM      7  C   UNL A   1      32.474  23.166  25.643  1.00  0.00     0.128 A 
ATOM      8  C   UNL A   1      32.636  22.799  24.312  1.00  0.00     0.048 A 
ATOM      9  N   UNL A   1      32.930  22.381  26.635  1.00  0.00    -0.239 NA
ATOM     10  C   UNL A   1      33.268  21.605  23.980  1.00  0.00     0.019 A 
ATOM     11  C   UNL A   1      33.493  21.187  26.290  1.00  0.00     0.127 A 
BRANCH   7  12
ATOM     12  N   UNL A   1      31.845  24.348  25.915  1.00  0.00    -0.356 N 
ATOM     13  N   UNL A   1      32.588  28.022  24.222  1.00  0.00    -0.342 N 
ATOM     14  C   UNL A   1      33.118  29.016  25.150  1.00  0.00     0.119 C 
ATOM     15  C   UNL A   1      31.435  27.358  24.632  1.00  0.00     0.230 C 
ATOM     16  C   UNL A   1      33.211  28.512  26.588  1.00  0.00     0.023 C 
ATOM     17  C   UNL A   1      31.554  26.708  26.009  1.00  0.00     0.069 C 
ATOM     18  O   UNL A   1      30.412  27.312  23.955  1.00  0.00    -0.274 OA
ATOM     19  C   UNL A   1      31.921  27.805  27.014  1.00  0.00     0.021 C 
ATOM     20  C   UNL A   1      30.260  25.947  26.355  1.00  0.00     0.040 C 
ATOM     21  C   UNL A   1      32.617  25.582  25.977  1.00  0.00     0.135 C 
ATOM     22  C   UNL A   1      30.450  24.603  25.635  1.00  0.00     0.119 C 
BRANCH  13  23
ATOM     23  C   UNL A   1      32.800  28.244  22.792  1.00  0.00     0.119 C 
BRANCH  23  24
ATOM     24  C   UNL A   1      33.654  27.157  22.115  1.00  0.00     0.018 C 
ATOM     25  C   UNL A   1      32.917  25.853  21.832  1.00  0.00     0.006 C 
ENDBRANCH  23  24
ENDBRANCH  13  23
ENDBRANCH   7  12
ENDBRANCH   3   6
ENDBRANCH   1   2
BRANCH   1  26
ATOM     26  C   UNL A   1      38.101  19.298  25.009  1.00  0.00     0.042 C 
BRANCH  26  27
ATOM     27  C   UNL A   1      39.203  20.049  25.751  1.00  0.00     0.118 C 
BRANCH  27  28
ATOM     28  N   UNL A   1      40.358  19.201  26.011  1.00  0.00    -0.352 N 
ATOM     29  C   UNL A   1      41.668  19.530  26.244  1.00  0.00     0.251 C 
ATOM     30  H   UNL A   1      40.166  18.235  26.022  1.00  0.00     0.163 HD
ATOM     31  O   UNL A   1      42.524  18.651  26.214  1.00  0.00    -0.269 OA
BRANCH  29  32
ATOM     32  C   UNL A   1      42.068  20.928  26.522  1.00  0.00     0.039 A 
ATOM     33  C   UNL A   1      42.268  21.794  25.441  1.00  0.00     0.014 A 
ATOM     34  C   UNL A   1      42.313  21.373  27.823  1.00  0.00     0.014 A 
ATOM     35  C   UNL A   1      42.666  23.114  25.668  1.00  0.00     0.010 A 
ATOM     36  C   UNL A   1      42.647  22.708  28.053  1.00  0.00     0.010 A 
ATOM     37  C   UNL A   1      42.833  23.589  26.978  1.00  0.00    -0.014 A 
BRANCH  37  38
ATOM     38  C   UNL A   1      43.211  25.001  27.240  1.00  0.00     0.031 A 
ATOM     39  C   UNL A   1      44.608  25.478  26.945  1.00  0.00     0.074 A 
ATOM     40  C   UNL A   1      42.312  25.840  27.789  1.00  0.00     0.049 A 
ATOM     41  N   UNL A   1      45.152  26.645  27.181  1.00  0.00    -0.248 NA
ATOM     42  C   UNL A   1      45.519  24.507  26.319  1.00  0.00     0.031 C 
ATOM     43  C   UNL A   1      40.937  25.490  28.148  1.00  0.00     0.029 A 
ATOM     44  N   UNL A   1      42.422  27.159  28.153  1.00  0.00    -0.354 N 
ATOM     45  C   UNL A   1      46.466  26.546  26.742  1.00  0.00     0.074 A 
ATOM     46  C   UNL A   1      46.653  25.191  26.271  1.00  0.00     0.031 C 
ATOM     47  C   UNL A   1      40.327  26.570  28.663  1.00  0.00     0.029 A 
ATOM     48  C   UNL A   1      41.278  27.676  28.709  1.00  0.00     0.049 A 
ATOM     49  H   UNL A   1      43.245  27.686  28.027  1.00  0.00     0.167 HD
ATOM     50  C   UNL A   1      47.421  27.505  26.710  1.00  0.00     0.037 A 
ATOM     51  C   UNL A   1      41.028  28.901  29.209  1.00  0.00     0.037 A 
ATOM     52  C   UNL A   1      47.227  28.859  27.161  1.00  0.00     0.049 A 
ATOM     53  C   UNL A   1      42.117  29.939  29.182  1.00  0.00     0.074 A 
ATOM     54  C   UNL A   1      48.126  29.911  27.149  1.00  0.00     0.029 A 
ATOM     55  N   UNL A   1      46.047  29.348  27.701  1.00  0.00    -0.354 N 
ATOM     56  N   UNL A   1      43.341  29.845  28.723  1.00  0.00    -0.248 NA
ATOM     57  C   UNL A   1      41.786  31.259  29.739  1.00  0.00     0.031 C 
ATOM     58  C   UNL A   1      47.500  31.029  27.711  1.00  0.00     0.029 A 
ATOM     59  C   UNL A   1      46.197  30.685  28.032  1.00  0.00     0.049 A 
ATOM     60  H   UNL A   1      45.224  28.823  27.829  1.00  0.00     0.167 HD
ATOM     61  C   UNL A   1      43.913  31.097  28.902  1.00  0.00     0.074 A 
ATOM     62  C   UNL A   1      42.898  31.939  29.499  1.00  0.00     0.031 C 
ATOM     63  C   UNL A   1      45.168  31.513  28.603  1.00  0.00     0.037 A 
BRANCH  50  64
ATOM     64  C   UNL A   1      48.764  27.134  26.154  1.00  0.00     0.064 A 
ATOM     65  C   UNL A   1      49.761  26.573  26.967  1.00  0.00     0.173 A 
ATOM     66  C   UNL A   1      49.041  27.282  24.786  1.00  0.00     0.173 A 
ATOM     67  F   UNL A   1      49.550  26.421  28.284  1.00  0.00    -0.203 F 
ATOM     68  C   UNL A   1      50.990  26.193  26.436  1.00  0.00     0.198 A 
ATOM     69  C   UNL A   1      50.262  26.876  24.253  1.00  0.00     0.198 A 
ATOM     70  F   UNL A   1      48.120  27.807  23.963  1.00  0.00    -0.203 F 
ATOM     71  F   UNL A   1      51.940  25.694  27.240  1.00  0.00    -0.200 F 
ATOM     72  C   UNL A   1      51.237  26.335  25.079  1.00  0.00     0.200 A 
ATOM     73  F   UNL A   1      50.493  27.001  22.939  1.00  0.00    -0.200 F 
ATOM     74  F   UNL A   1      52.416  25.957  24.567  1.00  0.00    -0.200 F 
ENDBRANCH  50  64
BRANCH  51  75
ATOM     75  C   UNL A   1      39.688  29.227  29.764  1.00  0.00     0.064 A 
ATOM     76  C   UNL A   1      39.427  29.095  31.135  1.00  0.00     0.173 A 
ATOM     77  C   UNL A   1      38.633  29.639  28.936  1.00  0.00     0.173 A 
ATOM     78  F   UNL A   1      40.398  28.683  31.965  1.00  0.00    -0.203 F 
ATOM     79  C   UNL A   1      38.155  29.330  31.654  1.00  0.00     0.198 A 
ATOM     80  C   UNL A   1      37.370  29.905  29.460  1.00  0.00     0.198 A 
ATOM     81  F   UNL A   1      38.830  29.787  27.619  1.00  0.00    -0.203 F 
ATOM     82  F   UNL A   1      37.920  29.139  32.958  1.00  0.00    -0.200 F 
ATOM     83  C   UNL A   1      37.129  29.739  30.816  1.00  0.00     0.200 A 
ATOM     84  F   UNL A   1      36.383  30.313  28.651  1.00  0.00    -0.200 F 
ATOM     85  F   UNL A   1      35.904  29.960  31.313  1.00  0.00    -0.200 F 
ENDBRANCH  51  75
BRANCH  63  86
ATOM     86  C   UNL A   1      45.495  32.953  28.867  1.00  0.00     0.064 A 
ATOM     87  C   UNL A   1      45.250  33.951  27.913  1.00  0.00     0.173 A 
ATOM     88  C   UNL A   1      46.029  33.343  30.105  1.00  0.00     0.173 A 
ATOM     89  F   UNL A   1      44.753  33.626  26.709  1.00  0.00    -0.203 F 
ATOM     90  C   UNL A   1      45.553  35.283  28.178  1.00  0.00     0.198 A 
ATOM     91  C   UNL A   1      46.304  34.679  30.376  1.00  0.00     0.198 A 
ATOM     92  F   UNL A   1      46.277  32.426  31.053  1.00  0.00    -0.203 F 
ATOM     93  F   UNL A   1      45.357  36.214  27.234  1.00  0.00    -0.200 F 
ATOM     94  C   UNL A   1      46.074  35.647  29.412  1.00  0.00     0.200 A 
ATOM     95  F   UNL A   1      46.796  35.030  31.573  1.00  0.00    -0.200 F 
ATOM     96  F   UNL A   1      46.361  36.930  29.666  1.00  0.00    -0.200 F 
ENDBRANCH  63  86
ENDBRANCH  37  38
ENDBRANCH  29  32
ENDBRANCH  27  28
ENDBRANCH  26  27
ENDBRANCH   1  26
TORSDOF 13
ENDMDL
