MODEL 1
REMARK VINA RESULT:     -10.5      0.000      0.000
REMARK SMILES CCCCCNc1cncc(C(=O)NCCCNC(=O)c2ccc(-c3c4nc(c(-c5c(F)c(F)c(F)c(F)c5F)c5ccc([nH]5)c(-c5c(F)c(F)c(F)c(F)c5F)c5nc(c(-c6c(F)c(F)c(F)c(F)c6F)c6ccc3[nH]6)C=C5)C=C4)cc2)n1
REMARK SMILES IDX 12 1 13 2 14 3 11 5 7 6 8 7 84 8 9 9 10 10 6 11 5 13 4 14
REMARK SMILES IDX 3 15 2 16 1 17 15 18 16 19 17 20 18 21 19 22 20 24 21 25
REMARK SMILES IDX 22 26 83 27 23 28 82 29 24 30 25 31 26 32 76 33 27 34 81 35
REMARK SMILES IDX 75 36 77 37 28 38 80 39 74 40 73 41 29 43 61 44 41 45 60 46
REMARK SMILES IDX 42 47 45 48 59 49 78 50 43 51 44 52 58 54 79 55 46 56 30 57
REMARK SMILES IDX 31 58 39 59 32 60 33 61 37 62 40 63 34 64 35 65 38 66 36 67
REMARK SMILES IDX 62 68 63 69 71 70 64 71 65 72 69 73 72 74 66 75 67 76 70 77
REMARK SMILES IDX 68 78 47 79 48 80 56 81 49 82 50 83 54 84 57 85 51 86 52 87
REMARK SMILES IDX 55 88 53 89
REMARK H PARENT 14 4 6 12 18 23 77 42 45 53
REMARK Flexibility Score: inf
ROOT
ATOM      1  C   UNL A   1      42.766  18.430  26.124  1.00  0.00     0.271 C 
ATOM      2  O   UNL A   1      42.363  17.349  25.689  1.00  0.00    -0.267 OA
ATOM      3  N   UNL A   1      42.043  19.009  27.144  1.00  0.00    -0.351 N 
ATOM      4  H   UNL A   1      41.251  18.494  27.420  1.00  0.00     0.163 HD
ENDROOT
BRANCH   1   5
ATOM      5  C   UNL A   1      43.991  19.041  25.533  1.00  0.00     0.148 A 
ATOM      6  C   UNL A   1      45.018  20.676  24.278  1.00  0.00     0.145 A 
ATOM      7  C   UNL A   1      46.239  20.038  24.491  1.00  0.00     0.157 A 
ATOM      8  N   UNL A   1      43.884  20.180  24.806  1.00  0.00    -0.223 NA
ATOM      9  N   UNL A   1      46.372  18.898  25.213  1.00  0.00    -0.258 NA
ATOM     10  C   UNL A   1      45.214  18.413  25.727  1.00  0.00     0.145 A 
BRANCH   6  11
ATOM     11  N   UNL A   1      44.849  21.822  23.539  1.00  0.00    -0.369 N 
ATOM     12  H   UNL A   1      44.312  21.788  22.715  1.00  0.00     0.162 HD
BRANCH  11  13
ATOM     13  C   UNL A   1      45.442  23.080  23.947  1.00  0.00     0.114 C 
BRANCH  13  14
ATOM     14  C   UNL A   1      44.792  23.567  25.247  1.00  0.00     0.021 C 
BRANCH  14  15
ATOM     15  C   UNL A   1      43.834  24.757  25.096  1.00  0.00     0.002 C 
BRANCH  15  16
ATOM     16  C   UNL A   1      44.291  26.058  25.758  1.00  0.00    -0.003 C 
ATOM     17  C   UNL A   1      43.532  27.283  25.271  1.00  0.00     0.004 C 
ENDBRANCH  15  16
ENDBRANCH  14  15
ENDBRANCH  13  14
ENDBRANCH  11  13
ENDBRANCH   6  11
ENDBRANCH   1   5
BRANCH   3  18
ATOM     18  C   UNL A   1      42.240  20.244  27.888  1.00  0.00     0.118 C 
BRANCH  18  19
ATOM     19  C   UNL A   1      41.080  21.220  27.700  1.00  0.00     0.042 C 
BRANCH  19  20
ATOM     20  C   UNL A   1      41.128  21.983  26.375  1.00  0.00     0.118 C 
BRANCH  20  21
ATOM     21  N   UNL A   1      39.800  22.231  25.822  1.00  0.00    -0.352 N 
ATOM     22  C   UNL A   1      38.924  23.266  26.019  1.00  0.00     0.251 C 
ATOM     23  H   UNL A   1      39.479  21.537  25.203  1.00  0.00     0.163 HD
ATOM     24  O   UNL A   1      37.771  23.168  25.599  1.00  0.00    -0.269 OA
BRANCH  22  25
ATOM     25  C   UNL A   1      39.334  24.493  26.733  1.00  0.00     0.039 A 
ATOM     26  C   UNL A   1      38.966  24.643  28.075  1.00  0.00     0.014 A 
ATOM     27  C   UNL A   1      40.019  25.521  26.080  1.00  0.00     0.014 A 
ATOM     28  C   UNL A   1      39.338  25.792  28.777  1.00  0.00     0.010 A 
ATOM     29  C   UNL A   1      40.447  26.637  26.799  1.00  0.00     0.010 A 
ATOM     30  C   UNL A   1      40.110  26.784  28.153  1.00  0.00    -0.014 A 
BRANCH  30  31
ATOM     31  C   UNL A   1      40.579  27.978  28.900  1.00  0.00     0.031 A 
ATOM     32  C   UNL A   1      41.996  28.053  29.397  1.00  0.00     0.074 A 
ATOM     33  C   UNL A   1      39.709  28.963  29.193  1.00  0.00     0.049 A 
ATOM     34  N   UNL A   1      42.566  28.972  30.137  1.00  0.00    -0.248 NA
ATOM     35  C   UNL A   1      42.882  26.937  29.037  1.00  0.00     0.031 C 
ATOM     36  C   UNL A   1      38.298  28.986  28.803  1.00  0.00     0.029 A 
ATOM     37  N   UNL A   1      39.879  30.128  29.897  1.00  0.00    -0.354 N 
ATOM     38  C   UNL A   1      43.866  28.532  30.349  1.00  0.00     0.074 A 
ATOM     39  C   UNL A   1      43.990  27.247  29.696  1.00  0.00     0.031 C 
ATOM     40  C   UNL A   1      37.736  30.118  29.255  1.00  0.00     0.029 A 
ATOM     41  C   UNL A   1      38.735  30.881  29.999  1.00  0.00     0.049 A 
ATOM     42  H   UNL A   1      40.739  30.399  30.293  1.00  0.00     0.167 HD
ATOM     43  C   UNL A   1      44.870  29.153  31.014  1.00  0.00     0.037 A 
ATOM     44  C   UNL A   1      38.514  32.051  30.628  1.00  0.00     0.037 A 
ATOM     45  C   UNL A   1      44.754  30.447  31.634  1.00  0.00     0.049 A 
ATOM     46  C   UNL A   1      39.646  32.721  31.356  1.00  0.00     0.074 A 
ATOM     47  C   UNL A   1      45.734  31.193  32.266  1.00  0.00     0.029 A 
ATOM     48  N   UNL A   1      43.583  31.187  31.701  1.00  0.00    -0.354 N 
ATOM     49  N   UNL A   1      40.889  32.328  31.493  1.00  0.00    -0.248 NA
ATOM     50  C   UNL A   1      39.344  33.999  32.014  1.00  0.00     0.031 C 
ATOM     51  C   UNL A   1      45.145  32.366  32.753  1.00  0.00     0.029 A 
ATOM     52  C   UNL A   1      43.810  32.371  32.385  1.00  0.00     0.049 A 
ATOM     53  H   UNL A   1      42.718  30.912  31.321  1.00  0.00     0.167 HD
ATOM     54  C   UNL A   1      41.523  33.320  32.228  1.00  0.00     0.074 A 
ATOM     55  C   UNL A   1      40.531  34.339  32.497  1.00  0.00     0.031 C 
ATOM     56  C   UNL A   1      42.813  33.380  32.641  1.00  0.00     0.037 A 
BRANCH  43  57
ATOM     57  C   UNL A   1      46.187  28.438  31.107  1.00  0.00     0.064 A 
ATOM     58  C   UNL A   1      46.459  27.526  32.139  1.00  0.00     0.173 A 
ATOM     59  C   UNL A   1      47.177  28.642  30.134  1.00  0.00     0.173 A 
ATOM     60  F   UNL A   1      45.550  27.302  33.098  1.00  0.00    -0.203 F 
ATOM     61  C   UNL A   1      47.685  26.870  32.210  1.00  0.00     0.198 A 
ATOM     62  C   UNL A   1      48.392  27.962  30.193  1.00  0.00     0.198 A 
ATOM     63  F   UNL A   1      46.966  29.496  29.122  1.00  0.00    -0.203 F 
ATOM     64  F   UNL A   1      47.941  26.042  33.232  1.00  0.00    -0.200 F 
ATOM     65  C   UNL A   1      48.647  27.084  31.235  1.00  0.00     0.200 A 
ATOM     66  F   UNL A   1      49.315  28.159  29.243  1.00  0.00    -0.200 F 
ATOM     67  F   UNL A   1      49.825  26.447  31.303  1.00  0.00    -0.200 F 
ENDBRANCH  43  57
BRANCH  44  68
ATOM     68  C   UNL A   1      37.169  32.679  30.568  1.00  0.00     0.064 A 
ATOM     69  C   UNL A   1      36.807  33.491  29.484  1.00  0.00     0.173 A 
ATOM     70  C   UNL A   1      36.220  32.476  31.579  1.00  0.00     0.173 A 
ATOM     71  F   UNL A   1      37.690  33.729  28.503  1.00  0.00    -0.203 F 
ATOM     72  C   UNL A   1      35.551  34.090  29.422  1.00  0.00     0.198 A 
ATOM     73  C   UNL A   1      34.954  33.055  31.503  1.00  0.00     0.198 A 
ATOM     74  F   UNL A   1      36.516  31.703  32.634  1.00  0.00    -0.203 F 
ATOM     75  F   UNL A   1      35.244  34.893  28.395  1.00  0.00    -0.200 F 
ATOM     76  C   UNL A   1      34.624  33.867  30.429  1.00  0.00     0.200 A 
ATOM     77  F   UNL A   1      34.057  32.826  32.470  1.00  0.00    -0.200 F 
ATOM     78  F   UNL A   1      33.413  34.437  30.365  1.00  0.00    -0.200 F 
ENDBRANCH  44  68
BRANCH  56  79
ATOM     79  C   UNL A   1      43.234  34.604  33.398  1.00  0.00     0.064 A 
ATOM     80  C   UNL A   1      43.602  35.787  32.738  1.00  0.00     0.173 A 
ATOM     81  C   UNL A   1      43.233  34.606  34.801  1.00  0.00     0.173 A 
ATOM     82  F   UNL A   1      43.634  35.829  31.399  1.00  0.00    -0.203 F 
ATOM     83  C   UNL A   1      43.976  36.919  33.457  1.00  0.00     0.198 A 
ATOM     84  C   UNL A   1      43.581  35.748  35.516  1.00  0.00     0.198 A 
ATOM     85  F   UNL A   1      42.885  33.502  35.479  1.00  0.00    -0.203 F 
ATOM     86  F   UNL A   1      44.366  38.023  32.807  1.00  0.00    -0.200 F 
ATOM     87  C   UNL A   1      43.958  36.901  34.844  1.00  0.00     0.200 A 
ATOM     88  F   UNL A   1      43.552  35.733  36.856  1.00  0.00    -0.200 F 
ATOM     89  F   UNL A   1      44.311  37.995  35.534  1.00  0.00    -0.200 F 
ENDBRANCH  56  79
ENDBRANCH  30  31
ENDBRANCH  22  25
ENDBRANCH  20  21
ENDBRANCH  19  20
ENDBRANCH  18  19
ENDBRANCH   3  18
TORSDOF 15
ENDMDL
MODEL 2
REMARK VINA RESULT:     -10.3      0.754      7.742
REMARK SMILES CCCCCNc1cncc(C(=O)NCCCNC(=O)c2ccc(-c3c4nc(c(-c5c(F)c(F)c(F)c(F)c5F)c5ccc([nH]5)c(-c5c(F)c(F)c(F)c(F)c5F)c5nc(c(-c6c(F)c(F)c(F)c(F)c6F)c6ccc3[nH]6)C=C5)C=C4)cc2)n1
REMARK SMILES IDX 12 1 13 2 14 3 11 5 7 6 8 7 84 8 9 9 10 10 6 11 5 13 4 14
REMARK SMILES IDX 3 15 2 16 1 17 15 18 16 19 17 20 18 21 19 22 20 24 21 25
REMARK SMILES IDX 22 26 83 27 23 28 82 29 24 30 25 31 26 32 76 33 27 34 81 35
REMARK SMILES IDX 75 36 77 37 28 38 80 39 74 40 73 41 29 43 61 44 41 45 60 46
REMARK SMILES IDX 42 47 45 48 59 49 78 50 43 51 44 52 58 54 79 55 46 56 30 57
REMARK SMILES IDX 31 58 39 59 32 60 33 61 37 62 40 63 34 64 35 65 38 66 36 67
REMARK SMILES IDX 62 68 63 69 71 70 64 71 65 72 69 73 72 74 66 75 67 76 70 77
REMARK SMILES IDX 68 78 47 79 48 80 56 81 49 82 50 83 54 84 57 85 51 86 52 87
REMARK SMILES IDX 55 88 53 89
REMARK H PARENT 14 4 6 12 18 23 77 42 45 53
REMARK Flexibility Score: inf
ROOT
ATOM      1  C   UNL A   1      42.673  18.512  26.118  1.00  0.00     0.271 C 
ATOM      2  O   UNL A   1      42.300  17.398  25.744  1.00  0.00    -0.267 OA
ATOM      3  N   UNL A   1      41.900  19.151  27.063  1.00  0.00    -0.351 N 
ATOM      4  H   UNL A   1      41.102  18.647  27.340  1.00  0.00     0.163 HD
ENDROOT
BRANCH   1   5
ATOM      5  C   UNL A   1      43.915  19.096  25.539  1.00  0.00     0.148 A 
ATOM      6  C   UNL A   1      45.004  20.762  24.378  1.00  0.00     0.145 A 
ATOM      7  C   UNL A   1      46.192  20.042  24.509  1.00  0.00     0.157 A 
ATOM      8  N   UNL A   1      43.856  20.291  24.901  1.00  0.00    -0.223 NA
ATOM      9  N   UNL A   1      46.276  18.845  25.141  1.00  0.00    -0.258 NA
ATOM     10  C   UNL A   1      45.105  18.388  25.651  1.00  0.00     0.145 A 
BRANCH   6  11
ATOM     11  N   UNL A   1      44.883  21.967  23.730  1.00  0.00    -0.369 N 
ATOM     12  H   UNL A   1      44.204  22.068  23.024  1.00  0.00     0.162 HD
BRANCH  11  13
ATOM     13  C   UNL A   1      45.732  23.094  24.064  1.00  0.00     0.114 C 
BRANCH  13  14
ATOM     14  C   UNL A   1      45.294  23.700  25.402  1.00  0.00     0.021 C 
BRANCH  14  15
ATOM     15  C   UNL A   1      43.840  24.190  25.456  1.00  0.00     0.002 C 
BRANCH  15  16
ATOM     16  C   UNL A   1      43.633  25.673  25.142  1.00  0.00    -0.003 C 
ATOM     17  C   UNL A   1      44.901  26.502  25.279  1.00  0.00     0.004 C 
ENDBRANCH  15  16
ENDBRANCH  14  15
ENDBRANCH  13  14
ENDBRANCH  11  13
ENDBRANCH   6  11
ENDBRANCH   1   5
BRANCH   3  18
ATOM     18  C   UNL A   1      42.051  20.438  27.726  1.00  0.00     0.118 C 
BRANCH  18  19
ATOM     19  C   UNL A   1      40.839  21.342  27.509  1.00  0.00     0.042 C 
BRANCH  19  20
ATOM     20  C   UNL A   1      40.706  21.858  26.075  1.00  0.00     0.118 C 
BRANCH  20  21
ATOM     21  N   UNL A   1      39.338  22.241  25.742  1.00  0.00    -0.352 N 
ATOM     22  C   UNL A   1      38.582  23.311  26.139  1.00  0.00     0.251 C 
ATOM     23  H   UNL A   1      38.880  21.623  25.126  1.00  0.00     0.163 HD
ATOM     24  O   UNL A   1      37.378  23.327  25.886  1.00  0.00    -0.269 OA
BRANCH  22  25
ATOM     25  C   UNL A   1      39.182  24.445  26.874  1.00  0.00     0.039 A 
ATOM     26  C   UNL A   1      39.964  25.364  26.166  1.00  0.00     0.014 A 
ATOM     27  C   UNL A   1      39.034  24.577  28.257  1.00  0.00     0.014 A 
ATOM     28  C   UNL A   1      40.545  26.446  26.832  1.00  0.00     0.010 A 
ATOM     29  C   UNL A   1      39.558  25.692  28.909  1.00  0.00     0.010 A 
ATOM     30  C   UNL A   1      40.320  26.636  28.204  1.00  0.00    -0.014 A 
BRANCH  30  31
ATOM     31  C   UNL A   1      40.865  27.818  28.917  1.00  0.00     0.031 A 
ATOM     32  C   UNL A   1      39.965  28.965  29.284  1.00  0.00     0.074 A 
ATOM     33  C   UNL A   1      42.186  27.891  29.169  1.00  0.00     0.049 A 
ATOM     34  N   UNL A   1      40.271  30.115  29.832  1.00  0.00    -0.248 NA
ATOM     35  C   UNL A   1      38.537  28.809  28.972  1.00  0.00     0.031 C 
ATOM     36  C   UNL A   1      43.169  26.863  28.825  1.00  0.00     0.029 A 
ATOM     37  N   UNL A   1      42.932  28.878  29.762  1.00  0.00    -0.354 N 
ATOM     38  C   UNL A   1      39.080  30.826  29.906  1.00  0.00     0.074 A 
ATOM     39  C   UNL A   1      38.055  29.996  29.312  1.00  0.00     0.031 C 
ATOM     40  C   UNL A   1      44.384  27.262  29.231  1.00  0.00     0.029 A 
ATOM     41  C   UNL A   1      44.273  28.590  29.828  1.00  0.00     0.049 A 
ATOM     42  H   UNL A   1      42.542  29.714  30.109  1.00  0.00     0.167 HD
ATOM     43  C   UNL A   1      38.860  32.052  30.438  1.00  0.00     0.037 A 
ATOM     44  C   UNL A   1      45.299  29.318  30.309  1.00  0.00     0.037 A 
ATOM     45  C   UNL A   1      39.875  32.862  31.059  1.00  0.00     0.049 A 
ATOM     46  C   UNL A   1      45.027  30.675  30.896  1.00  0.00     0.074 A 
ATOM     47  C   UNL A   1      39.738  34.084  31.694  1.00  0.00     0.029 A 
ATOM     48  N   UNL A   1      41.221  32.528  31.121  1.00  0.00    -0.354 N 
ATOM     49  N   UNL A   1      43.886  31.309  31.022  1.00  0.00    -0.248 NA
ATOM     50  C   UNL A   1      46.186  31.416  31.411  1.00  0.00     0.031 C 
ATOM     51  C   UNL A   1      41.007  34.510  32.102  1.00  0.00     0.029 A 
ATOM     52  C   UNL A   1      41.928  33.534  31.763  1.00  0.00     0.049 A 
ATOM     53  H   UNL A   1      41.616  31.701  30.762  1.00  0.00     0.167 HD
ATOM     54  C   UNL A   1      44.184  32.508  31.654  1.00  0.00     0.074 A 
ATOM     55  C   UNL A   1      45.612  32.509  31.896  1.00  0.00     0.031 C 
ATOM     56  C   UNL A   1      43.349  33.518  32.002  1.00  0.00     0.037 A 
BRANCH  43  57
ATOM     57  C   UNL A   1      37.462  32.597  30.371  1.00  0.00     0.064 A 
ATOM     58  C   UNL A   1      37.008  33.325  29.261  1.00  0.00     0.173 A 
ATOM     59  C   UNL A   1      36.556  32.360  31.416  1.00  0.00     0.173 A 
ATOM     60  F   UNL A   1      37.837  33.585  28.240  1.00  0.00    -0.203 F 
ATOM     61  C   UNL A   1      35.708  33.822  29.214  1.00  0.00     0.198 A 
ATOM     62  C   UNL A   1      35.248  32.835  31.352  1.00  0.00     0.198 A 
ATOM     63  F   UNL A   1      36.936  31.664  32.497  1.00  0.00    -0.203 F 
ATOM     64  F   UNL A   1      35.311  34.557  28.165  1.00  0.00    -0.200 F 
ATOM     65  C   UNL A   1      34.828  33.573  30.255  1.00  0.00     0.200 A 
ATOM     66  F   UNL A   1      34.395  32.582  32.354  1.00  0.00    -0.200 F 
ATOM     67  F   UNL A   1      33.576  34.048  30.205  1.00  0.00    -0.200 F 
ENDBRANCH  43  57
BRANCH  44  68
ATOM     68  C   UNL A   1      46.676  28.762  30.280  1.00  0.00     0.064 A 
ATOM     69  C   UNL A   1      47.154  27.984  31.345  1.00  0.00     0.173 A 
ATOM     70  C   UNL A   1      47.535  28.985  29.196  1.00  0.00     0.173 A 
ATOM     71  F   UNL A   1      46.374  27.760  32.412  1.00  0.00    -0.203 F 
ATOM     72  C   UNL A   1      48.445  27.464  31.332  1.00  0.00     0.198 A 
ATOM     73  C   UNL A   1      48.818  28.443  29.173  1.00  0.00     0.198 A 
ATOM     74  F   UNL A   1      47.123  29.719  28.152  1.00  0.00    -0.203 F 
ATOM     75  F   UNL A   1      48.891  26.756  32.378  1.00  0.00    -0.200 F 
ATOM     76  C   UNL A   1      49.274  27.689  30.243  1.00  0.00     0.200 A 
ATOM     77  F   UNL A   1      49.611  28.650  28.114  1.00  0.00    -0.200 F 
ATOM     78  F   UNL A   1      50.514  27.181  30.228  1.00  0.00    -0.200 F 
ENDBRANCH  44  68
BRANCH  56  79
ATOM     79  C   UNL A   1      43.952  34.692  32.713  1.00  0.00     0.064 A 
ATOM     80  C   UNL A   1      44.089  34.715  34.110  1.00  0.00     0.173 A 
ATOM     81  C   UNL A   1      44.433  35.792  31.987  1.00  0.00     0.173 A 
ATOM     82  F   UNL A   1      43.629  33.695  34.849  1.00  0.00    -0.203 F 
ATOM     83  C   UNL A   1      44.665  35.807  34.753  1.00  0.00     0.198 A 
ATOM     84  C   UNL A   1      45.033  36.869  32.632  1.00  0.00     0.198 A 
ATOM     85  F   UNL A   1      44.330  35.816  30.650  1.00  0.00    -0.203 F 
ATOM     86  F   UNL A   1      44.745  35.827  36.091  1.00  0.00    -0.200 F 
ATOM     87  C   UNL A   1      45.143  36.879  34.014  1.00  0.00     0.200 A 
ATOM     88  F   UNL A   1      45.504  37.899  31.915  1.00  0.00    -0.200 F 
ATOM     89  F   UNL A   1      45.703  37.926  34.635  1.00  0.00    -0.200 F 
ENDBRANCH  56  79
ENDBRANCH  30  31
ENDBRANCH  22  25
ENDBRANCH  20  21
ENDBRANCH  19  20
ENDBRANCH  18  19
ENDBRANCH   3  18
TORSDOF 15
ENDMDL
MODEL 3
REMARK VINA RESULT:     -10.1      3.890     11.779
REMARK SMILES CCCCCNc1cncc(C(=O)NCCCNC(=O)c2ccc(-c3c4nc(c(-c5c(F)c(F)c(F)c(F)c5F)c5ccc([nH]5)c(-c5c(F)c(F)c(F)c(F)c5F)c5nc(c(-c6c(F)c(F)c(F)c(F)c6F)c6ccc3[nH]6)C=C5)C=C4)cc2)n1
REMARK SMILES IDX 12 1 13 2 14 3 11 5 7 6 8 7 84 8 9 9 10 10 6 11 5 13 4 14
REMARK SMILES IDX 3 15 2 16 1 17 15 18 16 19 17 20 18 21 19 22 20 24 21 25
REMARK SMILES IDX 22 26 83 27 23 28 82 29 24 30 25 31 26 32 76 33 27 34 81 35
REMARK SMILES IDX 75 36 77 37 28 38 80 39 74 40 73 41 29 43 61 44 41 45 60 46
REMARK SMILES IDX 42 47 45 48 59 49 78 50 43 51 44 52 58 54 79 55 46 56 30 57
REMARK SMILES IDX 31 58 39 59 32 60 33 61 37 62 40 63 34 64 35 65 38 66 36 67
REMARK SMILES IDX 62 68 63 69 71 70 64 71 65 72 69 73 72 74 66 75 67 76 70 77
REMARK SMILES IDX 68 78 47 79 48 80 56 81 49 82 50 83 54 84 57 85 51 86 52 87
REMARK SMILES IDX 55 88 53 89
REMARK H PARENT 14 4 6 12 18 23 77 42 45 53
REMARK Flexibility Score: inf
ROOT
ATOM      1  C   UNL A   1      33.262  36.727  29.417  1.00  0.00     0.271 C 
ATOM      2  O   UNL A   1      33.284  37.907  29.061  1.00  0.00    -0.267 OA
ATOM      3  N   UNL A   1      33.089  35.775  28.436  1.00  0.00    -0.351 N 
ATOM      4  H   UNL A   1      32.985  36.144  27.530  1.00  0.00     0.163 HD
ENDROOT
BRANCH   1   5
ATOM      5  C   UNL A   1      33.420  36.400  30.863  1.00  0.00     0.148 A 
ATOM      6  C   UNL A   1      33.701  34.868  32.560  1.00  0.00     0.145 A 
ATOM      7  C   UNL A   1      33.664  35.915  33.479  1.00  0.00     0.157 A 
ATOM      8  N   UNL A   1      33.585  35.108  31.240  1.00  0.00    -0.223 NA
ATOM      9  N   UNL A   1      33.499  37.215  33.126  1.00  0.00    -0.258 NA
ATOM     10  C   UNL A   1      33.375  37.430  31.793  1.00  0.00     0.145 A 
BRANCH   6  11
ATOM     11  N   UNL A   1      33.850  33.542  32.886  1.00  0.00    -0.369 N 
ATOM     12  H   UNL A   1      33.339  33.171  33.641  1.00  0.00     0.162 HD
BRANCH  11  13
ATOM     13  C   UNL A   1      34.741  32.675  32.141  1.00  0.00     0.114 C 
BRANCH  13  14
ATOM     14  C   UNL A   1      36.180  32.847  32.642  1.00  0.00     0.021 C 
BRANCH  14  15
ATOM     15  C   UNL A   1      37.103  33.656  31.721  1.00  0.00     0.002 C 
BRANCH  15  16
ATOM     16  C   UNL A   1      37.697  32.883  30.541  1.00  0.00    -0.003 C 
ATOM     17  C   UNL A   1      38.177  33.781  29.412  1.00  0.00     0.004 C 
ENDBRANCH  15  16
ENDBRANCH  14  15
ENDBRANCH  13  14
ENDBRANCH  11  13
ENDBRANCH   6  11
ENDBRANCH   1   5
BRANCH   3  18
ATOM     18  C   UNL A   1      33.033  34.322  28.498  1.00  0.00     0.118 C 
BRANCH  18  19
ATOM     19  C   UNL A   1      34.332  33.677  28.017  1.00  0.00     0.042 C 
BRANCH  19  20
ATOM     20  C   UNL A   1      34.759  32.465  28.848  1.00  0.00     0.118 C 
BRANCH  20  21
ATOM     21  N   UNL A   1      34.173  31.219  28.365  1.00  0.00    -0.352 N 
ATOM     22  C   UNL A   1      34.752  30.027  28.022  1.00  0.00     0.251 C 
ATOM     23  H   UNL A   1      33.193  31.240  28.269  1.00  0.00     0.163 HD
ATOM     24  O   UNL A   1      34.079  29.171  27.449  1.00  0.00    -0.269 OA
BRANCH  22  25
ATOM     25  C   UNL A   1      36.174  29.750  28.319  1.00  0.00     0.039 A 
ATOM     26  C   UNL A   1      36.519  29.314  29.603  1.00  0.00     0.014 A 
ATOM     27  C   UNL A   1      37.173  29.974  27.368  1.00  0.00     0.014 A 
ATOM     28  C   UNL A   1      37.853  29.044  29.914  1.00  0.00     0.010 A 
ATOM     29  C   UNL A   1      38.496  29.642  27.659  1.00  0.00     0.010 A 
ATOM     30  C   UNL A   1      38.849  29.176  28.934  1.00  0.00    -0.014 A 
BRANCH  30  31
ATOM     31  C   UNL A   1      40.262  28.824  29.221  1.00  0.00     0.031 A 
ATOM     32  C   UNL A   1      41.148  29.783  29.965  1.00  0.00     0.074 A 
ATOM     33  C   UNL A   1      40.768  27.669  28.747  1.00  0.00     0.049 A 
ATOM     34  N   UNL A   1      42.426  29.691  30.236  1.00  0.00    -0.248 NA
ATOM     35  C   UNL A   1      40.521  31.023  30.446  1.00  0.00     0.031 C 
ATOM     36  C   UNL A   1      40.021  26.674  27.976  1.00  0.00     0.029 A 
ATOM     37  N   UNL A   1      42.031  27.142  28.834  1.00  0.00    -0.354 N 
ATOM     38  C   UNL A   1      42.759  30.866  30.895  1.00  0.00     0.074 A 
ATOM     39  C   UNL A   1      41.560  31.675  30.948  1.00  0.00     0.031 C 
ATOM     40  C   UNL A   1      40.834  25.649  27.677  1.00  0.00     0.029 A 
ATOM     41  C   UNL A   1      42.167  25.931  28.202  1.00  0.00     0.049 A 
ATOM     42  H   UNL A   1      42.772  27.590  29.305  1.00  0.00     0.167 HD
ATOM     43  C   UNL A   1      43.952  31.230  31.424  1.00  0.00     0.037 A 
ATOM     44  C   UNL A   1      43.247  25.139  28.055  1.00  0.00     0.037 A 
ATOM     45  C   UNL A   1      45.134  30.410  31.400  1.00  0.00     0.049 A 
ATOM     46  C   UNL A   1      44.559  25.565  28.653  1.00  0.00     0.074 A 
ATOM     47  C   UNL A   1      46.370  30.657  31.973  1.00  0.00     0.029 A 
ATOM     48  N   UNL A   1      45.228  29.180  30.764  1.00  0.00    -0.354 N 
ATOM     49  N   UNL A   1      44.845  26.649  29.333  1.00  0.00    -0.248 NA
ATOM     50  C   UNL A   1      45.697  24.656  28.466  1.00  0.00     0.031 C 
ATOM     51  C   UNL A   1      47.223  29.597  31.648  1.00  0.00     0.029 A 
ATOM     52  C   UNL A   1      46.508  28.668  30.911  1.00  0.00     0.049 A 
ATOM     53  H   UNL A   1      44.495  28.737  30.279  1.00  0.00     0.167 HD
ATOM     54  C   UNL A   1      46.185  26.540  29.678  1.00  0.00     0.074 A 
ATOM     55  C   UNL A   1      46.652  25.278  29.143  1.00  0.00     0.031 C 
ATOM     56  C   UNL A   1      46.957  27.407  30.377  1.00  0.00     0.037 A 
BRANCH  43  57
ATOM     57  C   UNL A   1      44.039  32.580  32.076  1.00  0.00     0.064 A 
ATOM     58  C   UNL A   1      43.842  32.746  33.456  1.00  0.00     0.173 A 
ATOM     59  C   UNL A   1      44.355  33.717  31.317  1.00  0.00     0.173 A 
ATOM     60  F   UNL A   1      43.529  31.693  34.224  1.00  0.00    -0.203 F 
ATOM     61  C   UNL A   1      43.928  34.005  34.045  1.00  0.00     0.198 A 
ATOM     62  C   UNL A   1      44.468  34.970  31.915  1.00  0.00     0.198 A 
ATOM     63  F   UNL A   1      44.560  33.614  29.996  1.00  0.00    -0.203 F 
ATOM     64  F   UNL A   1      43.687  34.147  35.356  1.00  0.00    -0.200 F 
ATOM     65  C   UNL A   1      44.246  35.114  33.277  1.00  0.00     0.200 A 
ATOM     66  F   UNL A   1      44.789  36.039  31.174  1.00  0.00    -0.200 F 
ATOM     67  F   UNL A   1      44.333  36.324  33.847  1.00  0.00    -0.200 F 
ENDBRANCH  43  57
BRANCH  44  68
ATOM     68  C   UNL A   1      43.123  23.847  27.333  1.00  0.00     0.064 A 
ATOM     69  C   UNL A   1      42.643  22.705  27.990  1.00  0.00     0.173 A 
ATOM     70  C   UNL A   1      43.469  23.726  25.980  1.00  0.00     0.173 A 
ATOM     71  F   UNL A   1      42.318  22.769  29.290  1.00  0.00    -0.203 F 
ATOM     72  C   UNL A   1      42.529  21.487  27.325  1.00  0.00     0.198 A 
ATOM     73  C   UNL A   1      43.331  22.513  25.309  1.00  0.00     0.198 A 
ATOM     74  F   UNL A   1      43.928  24.790  25.307  1.00  0.00    -0.203 F 
ATOM     75  F   UNL A   1      42.104  20.402  27.986  1.00  0.00    -0.200 F 
ATOM     76  C   UNL A   1      42.868  21.394  25.983  1.00  0.00     0.200 A 
ATOM     77  F   UNL A   1      43.645  22.430  24.010  1.00  0.00    -0.200 F 
ATOM     78  F   UNL A   1      42.751  20.223  25.342  1.00  0.00    -0.200 F 
ENDBRANCH  44  68
BRANCH  56  79
ATOM     79  C   UNL A   1      48.380  27.007  30.633  1.00  0.00     0.064 A 
ATOM     80  C   UNL A   1      49.424  27.428  29.795  1.00  0.00     0.173 A 
ATOM     81  C   UNL A   1      48.708  26.224  31.750  1.00  0.00     0.173 A 
ATOM     82  F   UNL A   1      49.160  28.163  28.705  1.00  0.00    -0.203 F 
ATOM     83  C   UNL A   1      50.741  27.060  30.055  1.00  0.00     0.198 A 
ATOM     84  C   UNL A   1      50.028  25.882  32.022  1.00  0.00     0.198 A 
ATOM     85  F   UNL A   1      47.746  25.801  32.584  1.00  0.00    -0.203 F 
ATOM     86  F   UNL A   1      51.717  27.435  29.217  1.00  0.00    -0.200 F 
ATOM     87  C   UNL A   1      51.043  26.294  31.171  1.00  0.00     0.200 A 
ATOM     88  F   UNL A   1      50.320  25.151  33.107  1.00  0.00    -0.200 F 
ATOM     89  F   UNL A   1      52.313  25.947  31.424  1.00  0.00    -0.200 F 
ENDBRANCH  56  79
ENDBRANCH  30  31
ENDBRANCH  22  25
ENDBRANCH  20  21
ENDBRANCH  19  20
ENDBRANCH  18  19
ENDBRANCH   3  18
TORSDOF 15
ENDMDL
