MODEL 1
REMARK VINA RESULT:     -12.9      0.000      0.000
REMARK SMILES C[NH+](C)CCc1nc(Nc2ccc(O)c(C(=O)NCCCNC(=O)c3ccc(-c4c5nc(c(-c6c(F)c(F)c(F)c(F)c6F)c6ccc([nH]6)c(-c6c(F)c(F)c(F)c(F)c6F)c6nc(c(-c7c(F)c(F)c(F)c(F)c7F)c7ccc4[nH]7)C=C6)C=C5)cc3)c2)c2ccccc2n1
REMARK SMILES IDX 16 1 17 2 18 3 15 5 10 6 11 7 88 8 12 9 13 10 9 11 8 13 6 14
REMARK SMILES IDX 7 15 95 16 94 17 89 18 93 19 90 20 92 21 91 22 5 23 4 24
REMARK SMILES IDX 2 25 1 26 3 27 14 29 19 31 20 32 21 33 22 34 23 35 24 37
REMARK SMILES IDX 25 38 26 39 87 40 27 41 86 42 28 43 29 44 30 45 80 46 31 47
REMARK SMILES IDX 85 48 79 49 81 50 32 51 84 52 78 53 77 54 33 56 65 57 45 58
REMARK SMILES IDX 64 59 46 60 49 61 63 62 82 63 47 64 48 65 62 67 83 68 50 69
REMARK SMILES IDX 34 70 35 71 43 72 36 73 37 74 41 75 44 76 38 77 39 78 42 79
REMARK SMILES IDX 40 80 66 81 67 82 75 83 68 84 69 85 73 86 76 87 70 88 71 89
REMARK SMILES IDX 74 90 72 91 51 92 52 93 60 94 53 95 54 96 58 97 61 98 55 99
REMARK SMILES IDX 56 100 59 101 57 102
REMARK H PARENT 18 4 9 12 2 28 14 30 22 36 81 55 49 66
REMARK Flexibility Score: inf
ROOT
ATOM      1  C   UNL A   1      33.198  26.613  22.161  1.00  0.00     0.255 C 
ATOM      2  O   UNL A   1      33.653  25.870  21.284  1.00  0.00    -0.269 OA
ATOM      3  N   UNL A   1      33.466  27.949  22.020  1.00  0.00    -0.352 N 
ATOM      4  H   UNL A   1      33.968  28.168  21.202  1.00  0.00     0.163 HD
ENDROOT
BRANCH   1   5
ATOM      5  C   UNL A   1      32.338  26.008  23.218  1.00  0.00     0.083 A 
ATOM      6  C   UNL A   1      32.389  24.502  25.158  1.00  0.00     0.041 A 
ATOM      7  C   UNL A   1      31.028  24.739  25.353  1.00  0.00     0.030 A 
ATOM      8  C   UNL A   1      33.024  25.133  24.087  1.00  0.00     0.043 A 
ATOM      9  C   UNL A   1      30.329  25.614  24.526  1.00  0.00     0.049 A 
ATOM     10  C   UNL A   1      30.985  26.261  23.474  1.00  0.00     0.128 A 
BRANCH   6  11
ATOM     11  N   UNL A   1      33.089  23.589  25.963  1.00  0.00    -0.340 N 
ATOM     12  H   UNL A   1      33.161  23.802  26.920  1.00  0.00     0.168 HD
BRANCH  11  13
ATOM     13  C   UNL A   1      33.699  22.394  25.527  1.00  0.00     0.142 A 
ATOM     14  C   UNL A   1      33.452  20.247  24.741  1.00  0.00     0.137 A 
ATOM     15  N   UNL A   1      32.888  21.387  25.158  1.00  0.00    -0.215 NA
ATOM     16  N   UNL A   1      34.773  20.043  24.647  1.00  0.00    -0.233 NA
ATOM     17  C   UNL A   1      35.577  21.046  25.022  1.00  0.00     0.076 A 
ATOM     18  C   UNL A   1      35.095  22.273  25.499  1.00  0.00     0.043 A 
ATOM     19  C   UNL A   1      36.951  20.857  24.951  1.00  0.00     0.029 A 
ATOM     20  C   UNL A   1      36.010  23.267  25.929  1.00  0.00     0.014 A 
ATOM     21  C   UNL A   1      37.856  21.841  25.361  1.00  0.00     0.002 A 
ATOM     22  C   UNL A   1      37.383  23.048  25.860  1.00  0.00     0.001 A 
BRANCH  14  23
ATOM     23  C   UNL A   1      32.527  19.122  24.382  1.00  0.00     0.138 C 
BRANCH  23  24
ATOM     24  C   UNL A   1      32.776  17.824  25.171  1.00  0.00     0.269 C 
BRANCH  24  25
ATOM     25  N   UNL A   1      32.957  16.537  24.471  1.00  0.00    -0.339 N 
ATOM     26  C   UNL A   1      34.031  16.580  23.484  1.00  0.00     0.332 C 
ATOM     27  C   UNL A   1      33.097  15.398  25.370  1.00  0.00     0.332 C 
ATOM     28  H   UNL A   1      32.086  16.390  23.961  1.00  0.00     0.347 HD
ENDBRANCH  24  25
ENDBRANCH  23  24
ENDBRANCH  14  23
ENDBRANCH  11  13
ENDBRANCH   6  11
BRANCH  10  29
ATOM     29  O   UNL A   1      30.261  27.168  22.763  1.00  0.00    -0.507 OA
ATOM     30  H   UNL A   1      30.340  27.203  21.830  1.00  0.00     0.293 HD
ENDBRANCH  10  29
ENDBRANCH   1   5
BRANCH   3  31
ATOM     31  C   UNL A   1      33.154  29.103  22.838  1.00  0.00     0.118 C 
BRANCH  31  32
ATOM     32  C   UNL A   1      33.884  29.032  24.182  1.00  0.00     0.042 C 
BRANCH  32  33
ATOM     33  C   UNL A   1      32.963  29.042  25.397  1.00  0.00     0.118 C 
BRANCH  33  34
ATOM     34  N   UNL A   1      32.597  30.388  25.800  1.00  0.00    -0.352 N 
ATOM     35  C   UNL A   1      33.082  31.174  26.814  1.00  0.00     0.251 C 
ATOM     36  H   UNL A   1      31.889  30.803  25.257  1.00  0.00     0.163 HD
ATOM     37  O   UNL A   1      32.487  32.211  27.097  1.00  0.00    -0.269 OA
BRANCH  35  38
ATOM     38  C   UNL A   1      34.295  30.799  27.582  1.00  0.00     0.039 A 
ATOM     39  C   UNL A   1      35.266  31.786  27.792  1.00  0.00     0.014 A 
ATOM     40  C   UNL A   1      34.534  29.495  28.026  1.00  0.00     0.014 A 
ATOM     41  C   UNL A   1      36.452  31.473  28.462  1.00  0.00     0.010 A 
ATOM     42  C   UNL A   1      35.690  29.198  28.754  1.00  0.00     0.010 A 
ATOM     43  C   UNL A   1      36.668  30.180  28.964  1.00  0.00    -0.014 A 
BRANCH  43  44
ATOM     44  C   UNL A   1      37.924  29.861  29.690  1.00  0.00     0.031 A 
ATOM     45  C   UNL A   1      38.168  30.399  31.073  1.00  0.00     0.074 A 
ATOM     46  C   UNL A   1      38.850  29.081  29.100  1.00  0.00     0.049 A 
ATOM     47  N   UNL A   1      39.182  30.186  31.877  1.00  0.00    -0.248 NA
ATOM     48  C   UNL A   1      37.151  31.309  31.622  1.00  0.00     0.031 C 
ATOM     49  C   UNL A   1      38.756  28.542  27.742  1.00  0.00     0.029 A 
ATOM     50  N   UNL A   1      40.048  28.602  29.566  1.00  0.00    -0.354 N 
ATOM     51  C   UNL A   1      38.927  30.937  33.017  1.00  0.00     0.074 A 
ATOM     52  C   UNL A   1      37.689  31.650  32.784  1.00  0.00     0.031 C 
ATOM     53  C   UNL A   1      39.832  27.776  27.498  1.00  0.00     0.029 A 
ATOM     54  C   UNL A   1      40.700  27.788  28.672  1.00  0.00     0.049 A 
ATOM     55  H   UNL A   1      40.406  28.819  30.457  1.00  0.00     0.167 HD
ATOM     56  C   UNL A   1      39.645  31.009  34.163  1.00  0.00     0.037 A 
ATOM     57  C   UNL A   1      41.859  27.115  28.792  1.00  0.00     0.037 A 
ATOM     58  C   UNL A   1      40.865  30.283  34.405  1.00  0.00     0.049 A 
ATOM     59  C   UNL A   1      42.621  27.186  30.086  1.00  0.00     0.074 A 
ATOM     60  C   UNL A   1      41.644  30.254  35.549  1.00  0.00     0.029 A 
ATOM     61  N   UNL A   1      41.483  29.451  33.483  1.00  0.00    -0.354 N 
ATOM     62  N   UNL A   1      42.334  27.847  31.181  1.00  0.00    -0.248 NA
ATOM     63  C   UNL A   1      43.861  26.402  30.166  1.00  0.00     0.031 C 
ATOM     64  C   UNL A   1      42.750  29.430  35.309  1.00  0.00     0.029 A 
ATOM     65  C   UNL A   1      42.639  28.914  34.028  1.00  0.00     0.049 A 
ATOM     66  H   UNL A   1      41.150  29.270  32.574  1.00  0.00     0.167 HD
ATOM     67  C   UNL A   1      43.343  27.545  32.084  1.00  0.00     0.074 A 
ATOM     68  C   UNL A   1      44.237  26.621  31.418  1.00  0.00     0.031 C 
ATOM     69  C   UNL A   1      43.517  27.996  33.350  1.00  0.00     0.037 A 
BRANCH  56  70
ATOM     70  C   UNL A   1      39.123  31.896  35.256  1.00  0.00     0.064 A 
ATOM     71  C   UNL A   1      38.361  31.380  36.315  1.00  0.00     0.173 A 
ATOM     72  C   UNL A   1      39.423  33.266  35.269  1.00  0.00     0.173 A 
ATOM     73  F   UNL A   1      38.038  30.078  36.342  1.00  0.00    -0.203 F 
ATOM     74  C   UNL A   1      37.898  32.208  37.334  1.00  0.00     0.198 A 
ATOM     75  C   UNL A   1      38.981  34.086  36.304  1.00  0.00     0.198 A 
ATOM     76  F   UNL A   1      40.154  33.809  34.283  1.00  0.00    -0.203 F 
ATOM     77  F   UNL A   1      37.138  31.701  38.315  1.00  0.00    -0.200 F 
ATOM     78  C   UNL A   1      38.215  33.558  37.333  1.00  0.00     0.200 A 
ATOM     79  F   UNL A   1      39.297  35.389  36.307  1.00  0.00    -0.200 F 
ATOM     80  F   UNL A   1      37.776  34.353  38.318  1.00  0.00    -0.200 F 
ENDBRANCH  56  70
BRANCH  57  81
ATOM     81  C   UNL A   1      42.348  26.274  27.669  1.00  0.00     0.064 A 
ATOM     82  C   UNL A   1      41.870  24.968  27.489  1.00  0.00     0.173 A 
ATOM     83  C   UNL A   1      43.303  26.752  26.761  1.00  0.00     0.173 A 
ATOM     84  F   UNL A   1      40.970  24.460  28.345  1.00  0.00    -0.203 F 
ATOM     85  C   UNL A   1      42.345  24.164  26.456  1.00  0.00     0.198 A 
ATOM     86  C   UNL A   1      43.760  25.956  25.714  1.00  0.00     0.198 A 
ATOM     87  F   UNL A   1      43.787  27.996  26.889  1.00  0.00    -0.203 F 
ATOM     88  F   UNL A   1      41.906  22.905  26.333  1.00  0.00    -0.200 F 
ATOM     89  C   UNL A   1      43.286  24.660  25.566  1.00  0.00     0.200 A 
ATOM     90  F   UNL A   1      44.659  26.443  24.848  1.00  0.00    -0.200 F 
ATOM     91  F   UNL A   1      43.743  23.888  24.571  1.00  0.00    -0.200 F 
ENDBRANCH  57  81
BRANCH  69  92
ATOM     92  C   UNL A   1      44.708  27.476  34.098  1.00  0.00     0.064 A 
ATOM     93  C   UNL A   1      44.640  26.297  34.856  1.00  0.00     0.173 A 
ATOM     94  C   UNL A   1      45.932  28.159  34.051  1.00  0.00     0.173 A 
ATOM     95  F   UNL A   1      43.486  25.618  34.945  1.00  0.00    -0.203 F 
ATOM     96  C   UNL A   1      45.745  25.841  35.568  1.00  0.00     0.198 A 
ATOM     97  C   UNL A   1      47.044  27.684  34.743  1.00  0.00     0.198 A 
ATOM     98  F   UNL A   1      46.051  29.287  33.335  1.00  0.00    -0.203 F 
ATOM     99  F   UNL A   1      45.642  24.743  36.330  1.00  0.00    -0.200 F 
ATOM    100  C   UNL A   1      46.947  26.531  35.508  1.00  0.00     0.200 A 
ATOM    101  F   UNL A   1      48.206  28.347  34.677  1.00  0.00    -0.200 F 
ATOM    102  F   UNL A   1      48.008  26.093  36.198  1.00  0.00    -0.200 F 
ENDBRANCH  69  92
ENDBRANCH  43  44
ENDBRANCH  35  38
ENDBRANCH  33  34
ENDBRANCH  32  33
ENDBRANCH  31  32
ENDBRANCH   3  31
TORSDOF 16
ENDMDL
MODEL 2
REMARK VINA RESULT:     -12.8      0.875      2.253
REMARK SMILES C[NH+](C)CCc1nc(Nc2ccc(O)c(C(=O)NCCCNC(=O)c3ccc(-c4c5nc(c(-c6c(F)c(F)c(F)c(F)c6F)c6ccc([nH]6)c(-c6c(F)c(F)c(F)c(F)c6F)c6nc(c(-c7c(F)c(F)c(F)c(F)c7F)c7ccc4[nH]7)C=C6)C=C5)cc3)c2)c2ccccc2n1
REMARK SMILES IDX 16 1 17 2 18 3 15 5 10 6 11 7 88 8 12 9 13 10 9 11 8 13 6 14
REMARK SMILES IDX 7 15 95 16 94 17 89 18 93 19 90 20 92 21 91 22 5 23 4 24
REMARK SMILES IDX 2 25 1 26 3 27 14 29 19 31 20 32 21 33 22 34 23 35 24 37
REMARK SMILES IDX 25 38 26 39 87 40 27 41 86 42 28 43 29 44 30 45 80 46 31 47
REMARK SMILES IDX 85 48 79 49 81 50 32 51 84 52 78 53 77 54 33 56 65 57 45 58
REMARK SMILES IDX 64 59 46 60 49 61 63 62 82 63 47 64 48 65 62 67 83 68 50 69
REMARK SMILES IDX 34 70 35 71 43 72 36 73 37 74 41 75 44 76 38 77 39 78 42 79
REMARK SMILES IDX 40 80 66 81 67 82 75 83 68 84 69 85 73 86 76 87 70 88 71 89
REMARK SMILES IDX 74 90 72 91 51 92 52 93 60 94 53 95 54 96 58 97 61 98 55 99
REMARK SMILES IDX 56 100 59 101 57 102
REMARK H PARENT 18 4 9 12 2 28 14 30 22 36 81 55 49 66
REMARK Flexibility Score: inf
ROOT
ATOM      1  C   UNL A   1      30.007  26.824  23.590  1.00  0.00     0.255 C 
ATOM      2  O   UNL A   1      28.917  26.246  23.522  1.00  0.00    -0.269 OA
ATOM      3  N   UNL A   1      29.983  28.105  24.074  1.00  0.00    -0.352 N 
ATOM      4  H   UNL A   1      29.088  28.407  24.351  1.00  0.00     0.163 HD
ENDROOT
BRANCH   1   5
ATOM      5  C   UNL A   1      31.234  26.055  23.234  1.00  0.00     0.083 A 
ATOM      6  C   UNL A   1      32.878  24.466  24.134  1.00  0.00     0.041 A 
ATOM      7  C   UNL A   1      33.507  24.443  22.889  1.00  0.00     0.030 A 
ATOM      8  C   UNL A   1      31.754  25.280  24.292  1.00  0.00     0.043 A 
ATOM      9  C   UNL A   1      33.005  25.180  21.820  1.00  0.00     0.049 A 
ATOM     10  C   UNL A   1      31.862  25.968  21.986  1.00  0.00     0.128 A 
BRANCH   6  11
ATOM     11  N   UNL A   1      33.404  23.758  25.226  1.00  0.00    -0.340 N 
ATOM     12  H   UNL A   1      33.240  24.133  26.121  1.00  0.00     0.168 HD
BRANCH  11  13
ATOM     13  C   UNL A   1      34.144  22.559  25.162  1.00  0.00     0.142 A 
ATOM     14  C   UNL A   1      34.153  20.282  24.842  1.00  0.00     0.137 A 
ATOM     15  N   UNL A   1      33.465  21.427  24.907  1.00  0.00    -0.215 NA
ATOM     16  N   UNL A   1      35.482  20.185  24.994  1.00  0.00    -0.233 NA
ATOM     17  C   UNL A   1      36.154  21.313  25.255  1.00  0.00     0.076 A 
ATOM     18  C   UNL A   1      35.530  22.563  25.371  1.00  0.00     0.043 A 
ATOM     19  C   UNL A   1      37.528  21.240  25.434  1.00  0.00     0.029 A 
ATOM     20  C   UNL A   1      36.303  23.705  25.704  1.00  0.00     0.014 A 
ATOM     21  C   UNL A   1      38.295  22.367  25.747  1.00  0.00     0.002 A 
ATOM     22  C   UNL A   1      37.679  23.602  25.892  1.00  0.00     0.001 A 
BRANCH  14  23
ATOM     23  C   UNL A   1      33.367  19.027  24.605  1.00  0.00     0.138 C 
BRANCH  23  24
ATOM     24  C   UNL A   1      34.230  17.764  24.436  1.00  0.00     0.269 C 
BRANCH  24  25
ATOM     25  N   UNL A   1      34.269  16.730  25.488  1.00  0.00    -0.339 N 
ATOM     26  C   UNL A   1      33.012  16.001  25.608  1.00  0.00     0.332 C 
ATOM     27  C   UNL A   1      35.408  15.826  25.376  1.00  0.00     0.332 C 
ATOM     28  H   UNL A   1      34.402  17.245  26.359  1.00  0.00     0.347 HD
ENDBRANCH  24  25
ENDBRANCH  23  24
ENDBRANCH  14  23
ENDBRANCH  11  13
ENDBRANCH   6  11
BRANCH  10  29
ATOM     29  O   UNL A   1      31.377  26.590  20.876  1.00  0.00    -0.507 OA
ATOM     30  H   UNL A   1      30.931  27.409  20.956  1.00  0.00     0.293 HD
ENDBRANCH  10  29
ENDBRANCH   1   5
BRANCH   3  31
ATOM     31  C   UNL A   1      31.017  29.102  24.261  1.00  0.00     0.118 C 
BRANCH  31  32
ATOM     32  C   UNL A   1      31.745  28.888  25.591  1.00  0.00     0.042 C 
BRANCH  32  33
ATOM     33  C   UNL A   1      33.025  29.703  25.743  1.00  0.00     0.118 C 
BRANCH  33  34
ATOM     34  N   UNL A   1      32.763  31.071  26.153  1.00  0.00    -0.352 N 
ATOM     35  C   UNL A   1      33.312  31.815  27.166  1.00  0.00     0.251 C 
ATOM     36  H   UNL A   1      32.083  31.539  25.617  1.00  0.00     0.163 HD
ATOM     37  O   UNL A   1      32.798  32.891  27.457  1.00  0.00    -0.269 OA
BRANCH  35  38
ATOM     38  C   UNL A   1      34.499  31.348  27.924  1.00  0.00     0.039 A 
ATOM     39  C   UNL A   1      35.555  32.250  28.106  1.00  0.00     0.014 A 
ATOM     40  C   UNL A   1      34.632  30.034  28.385  1.00  0.00     0.014 A 
ATOM     41  C   UNL A   1      36.719  31.846  28.764  1.00  0.00     0.010 A 
ATOM     42  C   UNL A   1      35.769  29.650  29.102  1.00  0.00     0.010 A 
ATOM     43  C   UNL A   1      36.831  30.547  29.283  1.00  0.00    -0.014 A 
BRANCH  43  44
ATOM     44  C   UNL A   1      38.065  30.131  29.997  1.00  0.00     0.031 A 
ATOM     45  C   UNL A   1      38.329  30.591  31.405  1.00  0.00     0.074 A 
ATOM     46  C   UNL A   1      38.954  29.333  29.374  1.00  0.00     0.049 A 
ATOM     47  N   UNL A   1      39.327  30.291  32.201  1.00  0.00    -0.248 NA
ATOM     48  C   UNL A   1      37.357  31.526  31.992  1.00  0.00     0.031 C 
ATOM     49  C   UNL A   1      38.839  28.862  27.993  1.00  0.00     0.029 A 
ATOM     50  N   UNL A   1      40.124  28.773  29.821  1.00  0.00    -0.354 N 
ATOM     51  C   UNL A   1      39.104  31.001  33.373  1.00  0.00     0.074 A 
ATOM     52  C   UNL A   1      37.906  31.786  33.170  1.00  0.00     0.031 C 
ATOM     53  C   UNL A   1      39.877  28.055  27.717  1.00  0.00     0.029 A 
ATOM     54  C   UNL A   1      40.738  27.969  28.892  1.00  0.00     0.049 A 
ATOM     55  H   UNL A   1      40.488  28.931  30.722  1.00  0.00     0.167 HD
ATOM     56  C   UNL A   1      39.820  30.983  34.524  1.00  0.00     0.037 A 
ATOM     57  C   UNL A   1      41.861  27.233  28.984  1.00  0.00     0.037 A 
ATOM     58  C   UNL A   1      41.000  30.185  34.735  1.00  0.00     0.049 A 
ATOM     59  C   UNL A   1      42.619  27.206  30.282  1.00  0.00     0.074 A 
ATOM     60  C   UNL A   1      41.771  30.065  35.878  1.00  0.00     0.029 A 
ATOM     61  N   UNL A   1      41.580  29.367  33.777  1.00  0.00    -0.354 N 
ATOM     62  N   UNL A   1      42.360  27.829  31.406  1.00  0.00    -0.248 NA
ATOM     63  C   UNL A   1      43.818  26.357  30.329  1.00  0.00     0.031 C 
ATOM     64  C   UNL A   1      42.834  29.198  35.604  1.00  0.00     0.029 A 
ATOM     65  C   UNL A   1      42.704  28.747  34.300  1.00  0.00     0.049 A 
ATOM     66  H   UNL A   1      41.243  29.245  32.860  1.00  0.00     0.167 HD
ATOM     67  C   UNL A   1      43.348  27.435  32.297  1.00  0.00     0.074 A 
ATOM     68  C   UNL A   1      44.198  26.499  31.591  1.00  0.00     0.031 C 
ATOM     69  C   UNL A   1      43.538  27.818  33.583  1.00  0.00     0.037 A 
BRANCH  56  70
ATOM     70  C   UNL A   1      39.337  31.844  35.654  1.00  0.00     0.064 A 
ATOM     71  C   UNL A   1      39.753  33.177  35.787  1.00  0.00     0.173 A 
ATOM     72  C   UNL A   1      38.417  31.346  36.589  1.00  0.00     0.173 A 
ATOM     73  F   UNL A   1      40.640  33.697  34.925  1.00  0.00    -0.203 F 
ATOM     74  C   UNL A   1      39.283  33.974  36.828  1.00  0.00     0.198 A 
ATOM     75  C   UNL A   1      37.930  32.154  37.614  1.00  0.00     0.198 A 
ATOM     76  F   UNL A   1      37.983  30.080  36.504  1.00  0.00    -0.203 F 
ATOM     77  F   UNL A   1      39.725  35.233  36.959  1.00  0.00    -0.200 F 
ATOM     78  C   UNL A   1      38.366  33.465  37.736  1.00  0.00     0.200 A 
ATOM     79  F   UNL A   1      37.035  31.664  38.484  1.00  0.00    -0.200 F 
ATOM     80  F   UNL A   1      37.909  34.235  38.732  1.00  0.00    -0.200 F 
ENDBRANCH  56  70
BRANCH  57  81
ATOM     81  C   UNL A   1      42.313  26.421  27.825  1.00  0.00     0.064 A 
ATOM     82  C   UNL A   1      43.292  26.907  26.947  1.00  0.00     0.173 A 
ATOM     83  C   UNL A   1      41.774  25.153  27.567  1.00  0.00     0.173 A 
ATOM     84  F   UNL A   1      43.822  28.123  27.142  1.00  0.00    -0.203 F 
ATOM     85  C   UNL A   1      43.699  26.164  25.841  1.00  0.00     0.198 A 
ATOM     86  C   UNL A   1      42.199  24.400  26.475  1.00  0.00     0.198 A 
ATOM     87  F   UNL A   1      40.838  24.643  28.381  1.00  0.00    -0.203 F 
ATOM     88  F   UNL A   1      44.603  26.670  24.993  1.00  0.00    -0.200 F 
ATOM     89  C   UNL A   1      43.156  24.909  25.609  1.00  0.00     0.200 A 
ATOM     90  F   UNL A   1      41.682  23.183  26.262  1.00  0.00    -0.200 F 
ATOM     91  F   UNL A   1      43.549  24.193  24.547  1.00  0.00    -0.200 F 
ENDBRANCH  57  81
BRANCH  69  92
ATOM     92  C   UNL A   1      44.698  27.204  34.309  1.00  0.00     0.064 A 
ATOM     93  C   UNL A   1      45.956  27.825  34.337  1.00  0.00     0.173 A 
ATOM     94  C   UNL A   1      44.549  25.986  34.989  1.00  0.00     0.173 A 
ATOM     95  F   UNL A   1      46.151  28.983  33.688  1.00  0.00    -0.203 F 
ATOM     96  C   UNL A   1      47.031  27.231  34.991  1.00  0.00     0.198 A 
ATOM     97  C   UNL A   1      45.621  25.409  35.665  1.00  0.00     0.198 A 
ATOM     98  F   UNL A   1      43.365  25.357  34.997  1.00  0.00    -0.203 F 
ATOM     99  F   UNL A   1      48.238  27.814  34.957  1.00  0.00    -0.200 F 
ATOM    100  C   UNL A   1      46.863  26.026  35.657  1.00  0.00     0.200 A 
ATOM    101  F   UNL A   1      45.455  24.249  36.314  1.00  0.00    -0.200 F 
ATOM    102  F   UNL A   1      47.900  25.454  36.280  1.00  0.00    -0.200 F 
ENDBRANCH  69  92
ENDBRANCH  43  44
ENDBRANCH  35  38
ENDBRANCH  33  34
ENDBRANCH  32  33
ENDBRANCH  31  32
ENDBRANCH   3  31
TORSDOF 16
ENDMDL
MODEL 3
REMARK VINA RESULT:     -12.8      4.629     10.350
REMARK SMILES C[NH+](C)CCc1nc(Nc2ccc(O)c(C(=O)NCCCNC(=O)c3ccc(-c4c5nc(c(-c6c(F)c(F)c(F)c(F)c6F)c6ccc([nH]6)c(-c6c(F)c(F)c(F)c(F)c6F)c6nc(c(-c7c(F)c(F)c(F)c(F)c7F)c7ccc4[nH]7)C=C6)C=C5)cc3)c2)c2ccccc2n1
REMARK SMILES IDX 16 1 17 2 18 3 15 5 10 6 11 7 88 8 12 9 13 10 9 11 8 13 6 14
REMARK SMILES IDX 7 15 95 16 94 17 89 18 93 19 90 20 92 21 91 22 5 23 4 24
REMARK SMILES IDX 2 25 1 26 3 27 14 29 19 31 20 32 21 33 22 34 23 35 24 37
REMARK SMILES IDX 25 38 26 39 87 40 27 41 86 42 28 43 29 44 30 45 80 46 31 47
REMARK SMILES IDX 85 48 79 49 81 50 32 51 84 52 78 53 77 54 33 56 65 57 45 58
REMARK SMILES IDX 64 59 46 60 49 61 63 62 82 63 47 64 48 65 62 67 83 68 50 69
REMARK SMILES IDX 34 70 35 71 43 72 36 73 37 74 41 75 44 76 38 77 39 78 42 79
REMARK SMILES IDX 40 80 66 81 67 82 75 83 68 84 69 85 73 86 76 87 70 88 71 89
REMARK SMILES IDX 74 90 72 91 51 92 52 93 60 94 53 95 54 96 58 97 61 98 55 99
REMARK SMILES IDX 56 100 59 101 57 102
REMARK H PARENT 18 4 9 12 2 28 14 30 22 36 81 55 49 66
REMARK Flexibility Score: inf
ROOT
ATOM      1  C   UNL A   1      36.986  23.379  25.958  1.00  0.00     0.255 C 
ATOM      2  O   UNL A   1      37.728  24.217  26.480  1.00  0.00    -0.269 OA
ATOM      3  N   UNL A   1      37.585  22.224  25.532  1.00  0.00    -0.352 N 
ATOM      4  H   UNL A   1      38.548  22.181  25.730  1.00  0.00     0.163 HD
ENDROOT
BRANCH   1   5
ATOM      5  C   UNL A   1      35.522  23.660  25.925  1.00  0.00     0.083 A 
ATOM      6  C   UNL A   1      33.815  25.022  24.799  1.00  0.00     0.041 A 
ATOM      7  C   UNL A   1      32.835  24.396  25.570  1.00  0.00     0.030 A 
ATOM      8  C   UNL A   1      35.147  24.652  24.994  1.00  0.00     0.043 A 
ATOM      9  C   UNL A   1      33.171  23.398  26.481  1.00  0.00     0.049 A 
ATOM     10  C   UNL A   1      34.507  23.019  26.645  1.00  0.00     0.128 A 
BRANCH   6  11
ATOM     11  N   UNL A   1      33.487  26.057  23.909  1.00  0.00    -0.340 N 
ATOM     12  H   UNL A   1      33.877  26.010  23.007  1.00  0.00     0.168 HD
BRANCH  11  13
ATOM     13  C   UNL A   1      32.649  27.158  24.186  1.00  0.00     0.142 A 
ATOM     14  C   UNL A   1      30.755  28.354  23.665  1.00  0.00     0.137 A 
ATOM     15  N   UNL A   1      31.560  27.315  23.414  1.00  0.00    -0.215 NA
ATOM     16  N   UNL A   1      30.948  29.243  24.650  1.00  0.00    -0.233 NA
ATOM     17  C   UNL A   1      32.037  29.088  25.412  1.00  0.00     0.076 A 
ATOM     18  C   UNL A   1      32.961  28.051  25.221  1.00  0.00     0.043 A 
ATOM     19  C   UNL A   1      32.272  30.003  26.429  1.00  0.00     0.029 A 
ATOM     20  C   UNL A   1      34.121  27.985  26.035  1.00  0.00     0.014 A 
ATOM     21  C   UNL A   1      33.407  29.932  27.243  1.00  0.00     0.002 A 
ATOM     22  C   UNL A   1      34.339  28.924  27.039  1.00  0.00     0.001 A 
BRANCH  14  23
ATOM     23  C   UNL A   1      29.574  28.535  22.759  1.00  0.00     0.138 C 
BRANCH  23  24
ATOM     24  C   UNL A   1      29.493  29.923  22.099  1.00  0.00     0.269 C 
BRANCH  24  25
ATOM     25  N   UNL A   1      28.906  31.069  22.820  1.00  0.00    -0.339 N 
ATOM     26  C   UNL A   1      28.782  32.258  21.984  1.00  0.00     0.332 C 
ATOM     27  C   UNL A   1      27.654  30.753  23.497  1.00  0.00     0.332 C 
ATOM     28  H   UNL A   1      29.577  31.288  23.556  1.00  0.00     0.347 HD
ENDBRANCH  24  25
ENDBRANCH  23  24
ENDBRANCH  14  23
ENDBRANCH  11  13
ENDBRANCH   6  11
BRANCH  10  29
ATOM     29  O   UNL A   1      34.752  21.977  27.488  1.00  0.00    -0.507 OA
ATOM     30  H   UNL A   1      34.654  21.097  27.184  1.00  0.00     0.293 HD
ENDBRANCH  10  29
ENDBRANCH   1   5
BRANCH   3  31
ATOM     31  C   UNL A   1      37.078  21.051  24.849  1.00  0.00     0.118 C 
BRANCH  31  32
ATOM     32  C   UNL A   1      38.083  19.899  24.925  1.00  0.00     0.042 C 
BRANCH  32  33
ATOM     33  C   UNL A   1      39.016  19.958  26.129  1.00  0.00     0.118 C 
BRANCH  33  34
ATOM     34  N   UNL A   1      40.234  19.196  25.921  1.00  0.00    -0.352 N 
ATOM     35  C   UNL A   1      41.544  19.602  25.912  1.00  0.00     0.251 C 
ATOM     36  H   UNL A   1      40.097  18.235  25.763  1.00  0.00     0.163 HD
ATOM     37  O   UNL A   1      42.404  18.819  25.520  1.00  0.00    -0.269 OA
BRANCH  35  38
ATOM     38  C   UNL A   1      41.945  20.962  26.352  1.00  0.00     0.039 A 
ATOM     39  C   UNL A   1      42.045  21.961  25.376  1.00  0.00     0.014 A 
ATOM     40  C   UNL A   1      42.299  21.254  27.672  1.00  0.00     0.014 A 
ATOM     41  C   UNL A   1      42.470  23.245  25.726  1.00  0.00     0.010 A 
ATOM     42  C   UNL A   1      42.661  22.555  28.034  1.00  0.00     0.010 A 
ATOM     43  C   UNL A   1      42.767  23.559  27.061  1.00  0.00    -0.014 A 
BRANCH  43  44
ATOM     44  C   UNL A   1      43.202  24.931  27.427  1.00  0.00     0.031 A 
ATOM     45  C   UNL A   1      44.607  25.390  27.151  1.00  0.00     0.074 A 
ATOM     46  C   UNL A   1      42.325  25.769  28.012  1.00  0.00     0.049 A 
ATOM     47  N   UNL A   1      45.150  26.566  27.357  1.00  0.00    -0.248 NA
ATOM     48  C   UNL A   1      45.533  24.396  26.586  1.00  0.00     0.031 C 
ATOM     49  C   UNL A   1      40.950  25.427  28.381  1.00  0.00     0.029 A 
ATOM     50  N   UNL A   1      42.455  27.081  28.393  1.00  0.00    -0.354 N 
ATOM     51  C   UNL A   1      46.473  26.449  26.954  1.00  0.00     0.074 A 
ATOM     52  C   UNL A   1      46.669  25.077  26.537  1.00  0.00     0.031 C 
ATOM     53  C   UNL A   1      40.352  26.511  28.902  1.00  0.00     0.029 A 
ATOM     54  C   UNL A   1      41.306  27.616  28.922  1.00  0.00     0.049 A 
ATOM     55  H   UNL A   1      43.292  27.591  28.296  1.00  0.00     0.167 HD
ATOM     56  C   UNL A   1      47.434  27.404  26.911  1.00  0.00     0.037 A 
ATOM     57  C   UNL A   1      41.047  28.862  29.359  1.00  0.00     0.037 A 
ATOM     58  C   UNL A   1      47.236  28.776  27.304  1.00  0.00     0.049 A 
ATOM     59  C   UNL A   1      42.121  29.911  29.272  1.00  0.00     0.074 A 
ATOM     60  C   UNL A   1      48.133  29.828  27.257  1.00  0.00     0.029 A 
ATOM     61  N   UNL A   1      46.051  29.285  27.815  1.00  0.00    -0.354 N 
ATOM     62  N   UNL A   1      43.348  29.804  28.825  1.00  0.00    -0.248 NA
ATOM     63  C   UNL A   1      41.765  31.260  29.735  1.00  0.00     0.031 C 
ATOM     64  C   UNL A   1      47.502  30.968  27.769  1.00  0.00     0.029 A 
ATOM     65  C   UNL A   1      46.198  30.634  28.098  1.00  0.00     0.049 A 
ATOM     66  H   UNL A   1      45.227  28.765  27.957  1.00  0.00     0.167 HD
ATOM     67  C   UNL A   1      43.905  31.071  28.934  1.00  0.00     0.074 A 
ATOM     68  C   UNL A   1      42.873  31.936  29.466  1.00  0.00     0.031 C 
ATOM     69  C   UNL A   1      45.160  31.480  28.626  1.00  0.00     0.037 A 
BRANCH  56  70
ATOM     70  C   UNL A   1      48.790  27.003  26.407  1.00  0.00     0.064 A 
ATOM     71  C   UNL A   1      49.760  26.468  27.267  1.00  0.00     0.173 A 
ATOM     72  C   UNL A   1      49.108  27.112  25.045  1.00  0.00     0.173 A 
ATOM     73  F   UNL A   1      49.510  26.353  28.580  1.00  0.00    -0.203 F 
ATOM     74  C   UNL A   1      51.008  26.080  26.786  1.00  0.00     0.198 A 
ATOM     75  C   UNL A   1      50.347  26.698  24.564  1.00  0.00     0.198 A 
ATOM     76  F   UNL A   1      48.213  27.611  24.179  1.00  0.00    -0.203 F 
ATOM     77  F   UNL A   1      51.935  25.609  27.633  1.00  0.00    -0.200 F 
ATOM     78  C   UNL A   1      51.298  26.187  25.435  1.00  0.00     0.200 A 
ATOM     79  F   UNL A   1      50.622  26.793  23.255  1.00  0.00    -0.200 F 
ATOM     80  F   UNL A   1      52.496  25.806  24.971  1.00  0.00    -0.200 F 
ENDBRANCH  56  70
BRANCH  57  81
ATOM     81  C   UNL A   1      39.696  29.201  29.877  1.00  0.00     0.064 A 
ATOM     82  C   UNL A   1      39.379  29.012  31.230  1.00  0.00     0.173 A 
ATOM     83  C   UNL A   1      38.698  29.710  29.035  1.00  0.00     0.173 A 
ATOM     84  F   UNL A   1      40.295  28.509  32.069  1.00  0.00    -0.203 F 
ATOM     85  C   UNL A   1      38.105  29.300  31.717  1.00  0.00     0.198 A 
ATOM     86  C   UNL A   1      37.433  30.020  29.528  1.00  0.00     0.198 A 
ATOM     87  F   UNL A   1      38.955  29.912  27.735  1.00  0.00    -0.203 F 
ATOM     88  F   UNL A   1      37.814  29.068  33.003  1.00  0.00    -0.200 F 
ATOM     89  C   UNL A   1      37.135  29.808  30.867  1.00  0.00     0.200 A 
ATOM     90  F   UNL A   1      36.502  30.524  28.707  1.00  0.00    -0.200 F 
ATOM     91  F   UNL A   1      35.910  30.087  31.334  1.00  0.00    -0.200 F 
ENDBRANCH  57  81
BRANCH  69  92
ATOM     92  C   UNL A   1      45.472  32.931  28.839  1.00  0.00     0.064 A 
ATOM     93  C   UNL A   1      45.205  33.890  27.850  1.00  0.00     0.173 A 
ATOM     94  C   UNL A   1      46.037  33.369  30.046  1.00  0.00     0.173 A 
ATOM     95  F   UNL A   1      44.680  33.517  26.673  1.00  0.00    -0.203 F 
ATOM     96  C   UNL A   1      45.525  35.230  28.049  1.00  0.00     0.198 A 
ATOM     97  C   UNL A   1      46.330  34.715  30.252  1.00  0.00     0.198 A 
ATOM     98  F   UNL A   1      46.305  32.492  31.025  1.00  0.00    -0.203 F 
ATOM     99  F   UNL A   1      45.313  36.120  27.070  1.00  0.00    -0.200 F 
ATOM    100  C   UNL A   1      46.083  35.642  29.250  1.00  0.00     0.200 A 
ATOM    101  F   UNL A   1      46.861  35.113  31.415  1.00  0.00    -0.200 F 
ATOM    102  F   UNL A   1      46.395  36.931  29.438  1.00  0.00    -0.200 F 
ENDBRANCH  69  92
ENDBRANCH  43  44
ENDBRANCH  35  38
ENDBRANCH  33  34
ENDBRANCH  32  33
ENDBRANCH  31  32
ENDBRANCH   3  31
TORSDOF 16
ENDMDL
