MODEL 1
REMARK VINA RESULT:     -13.8      0.000      0.000
REMARK SMILES O=C(NCCCNC(=O)[C@H]1Cc2[nH]cnc2CN1C(=O)NCc1nc[nH]n1)c1ccc(-c2c3nc(c(-c4c(F)c(F)c(F)c(F)c4F)c4ccc([nH]4)c(-c4c(F)c(F)c(F)c(F)c4F)c4nc(c(-c5c(F)c(F)c(F)c(F)c5F)c5ccc2[nH]5)C=C4)C=C3)cc1
REMARK SMILES IDX 5 1 4 2 3 3 1 4 2 5 28 7 29 8 90 9 30 10 89 11 31 12 32 13
REMARK SMILES IDX 33 14 83 15 34 16 88 17 82 18 84 19 35 20 87 21 81 22 80 23
REMARK SMILES IDX 36 25 68 26 48 27 67 28 49 29 52 30 66 31 85 32 50 33 51 34
REMARK SMILES IDX 65 36 86 37 53 38 37 39 38 40 46 41 39 42 40 43 44 44 47 45
REMARK SMILES IDX 41 46 42 47 45 48 43 49 69 50 70 51 78 52 71 53 72 54 76 55
REMARK SMILES IDX 79 56 73 57 74 58 77 59 75 60 54 61 55 62 63 63 56 64 57 65
REMARK SMILES IDX 61 66 64 67 58 68 59 69 62 70 60 71 6 72 7 73 8 74 9 76
REMARK SMILES IDX 10 77 11 78 18 79 12 80 17 81 13 82 16 83 14 84 15 86 19 87
REMARK SMILES IDX 20 88 21 89 22 91 23 92 24 93 27 94 25 95 26 96
REMARK H PARENT 3 6 84 24 52 35 7 75 13 85 21 90 26 97
REMARK Flexibility Score: inf
ROOT
ATOM      1  C   UNL A   1      32.288  29.498  27.110  1.00  0.00     0.042 C 
ENDROOT
BRANCH   1   2
ATOM      2  C   UNL A   1      33.629  30.217  27.038  1.00  0.00     0.118 C 
BRANCH   2   3
ATOM      3  N   UNL A   1      33.796  31.367  27.908  1.00  0.00    -0.352 N 
ATOM      4  O   UNL A   1      34.694  32.902  29.261  1.00  0.00    -0.269 OA
ATOM      5  C   UNL A   1      34.841  31.832  28.657  1.00  0.00     0.251 C 
ATOM      6  H   UNL A   1      32.991  31.930  27.970  1.00  0.00     0.163 HD
BRANCH   5   7
ATOM      7  C   UNL A   1      36.104  31.078  28.841  1.00  0.00     0.039 A 
ATOM      8  C   UNL A   1      36.192  29.687  28.829  1.00  0.00     0.014 A 
ATOM      9  C   UNL A   1      37.280  31.832  28.989  1.00  0.00     0.014 A 
ATOM     10  C   UNL A   1      37.402  29.063  29.105  1.00  0.00     0.010 A 
ATOM     11  C   UNL A   1      38.506  31.211  29.217  1.00  0.00     0.010 A 
ATOM     12  C   UNL A   1      38.559  29.824  29.314  1.00  0.00    -0.014 A 
BRANCH  12  13
ATOM     13  C   UNL A   1      39.830  29.103  29.392  1.00  0.00     0.031 A 
ATOM     14  C   UNL A   1      40.288  28.862  30.791  1.00  0.00     0.074 A 
ATOM     15  C   UNL A   1      40.515  28.593  28.349  1.00  0.00     0.049 A 
ATOM     16  N   UNL A   1      41.331  29.355  31.374  1.00  0.00    -0.248 NA
ATOM     17  C   UNL A   1      39.413  28.088  31.686  1.00  0.00     0.031 C 
ATOM     18  C   UNL A   1      40.089  28.481  26.955  1.00  0.00     0.029 A 
ATOM     19  N   UNL A   1      41.739  27.983  28.344  1.00  0.00    -0.354 N 
ATOM     20  C   UNL A   1      41.342  28.826  32.662  1.00  0.00     0.074 A 
ATOM     21  C   UNL A   1      40.074  28.169  32.842  1.00  0.00     0.031 C 
ATOM     22  C   UNL A   1      40.937  27.658  26.292  1.00  0.00     0.029 A 
ATOM     23  C   UNL A   1      42.038  27.297  27.172  1.00  0.00     0.049 A 
ATOM     24  H   UNL A   1      42.358  28.027  29.109  1.00  0.00     0.167 HD
ATOM     25  C   UNL A   1      42.487  28.794  33.398  1.00  0.00     0.037 A 
ATOM     26  C   UNL A   1      43.088  26.463  26.959  1.00  0.00     0.037 A 
ATOM     27  C   UNL A   1      43.469  29.706  32.870  1.00  0.00     0.049 A 
ATOM     28  C   UNL A   1      44.123  26.770  27.973  1.00  0.00     0.074 A 
ATOM     29  C   UNL A   1      43.539  31.073  32.687  1.00  0.00     0.029 A 
ATOM     30  N   UNL A   1      44.475  29.176  32.105  1.00  0.00    -0.354 N 
ATOM     31  N   UNL A   1      44.832  27.861  27.986  1.00  0.00    -0.248 NA
ATOM     32  C   UNL A   1      44.090  26.030  29.224  1.00  0.00     0.031 C 
ATOM     33  C   UNL A   1      44.261  31.247  31.469  1.00  0.00     0.029 A 
ATOM     34  C   UNL A   1      44.642  29.984  31.015  1.00  0.00     0.049 A 
ATOM     35  H   UNL A   1      44.987  28.358  32.305  1.00  0.00     0.167 HD
ATOM     36  C   UNL A   1      44.937  28.187  29.328  1.00  0.00     0.074 A 
ATOM     37  C   UNL A   1      44.566  26.970  30.044  1.00  0.00     0.031 C 
ATOM     38  C   UNL A   1      45.035  29.490  29.718  1.00  0.00     0.037 A 
BRANCH  25  39
ATOM     39  C   UNL A   1      42.875  27.668  34.329  1.00  0.00     0.064 A 
ATOM     40  C   UNL A   1      43.296  26.440  33.775  1.00  0.00     0.173 A 
ATOM     41  C   UNL A   1      42.532  27.631  35.697  1.00  0.00     0.173 A 
ATOM     42  F   UNL A   1      43.633  26.352  32.480  1.00  0.00    -0.203 F 
ATOM     43  C   UNL A   1      43.274  25.252  34.511  1.00  0.00     0.198 A 
ATOM     44  C   UNL A   1      42.563  26.452  36.441  1.00  0.00     0.198 A 
ATOM     45  F   UNL A   1      42.043  28.696  36.340  1.00  0.00    -0.203 F 
ATOM     46  F   UNL A   1      43.544  24.088  33.904  1.00  0.00    -0.200 F 
ATOM     47  C   UNL A   1      42.898  25.257  35.840  1.00  0.00     0.200 A 
ATOM     48  F   UNL A   1      42.175  26.475  37.724  1.00  0.00    -0.200 F 
ATOM     49  F   UNL A   1      42.807  24.112  36.529  1.00  0.00    -0.200 F 
ENDBRANCH  25  39
BRANCH  26  50
ATOM     50  C   UNL A   1      43.175  25.237  26.126  1.00  0.00     0.064 A 
ATOM     51  C   UNL A   1      44.245  25.038  25.234  1.00  0.00     0.173 A 
ATOM     52  C   UNL A   1      42.389  24.107  26.417  1.00  0.00     0.173 A 
ATOM     53  F   UNL A   1      45.073  26.050  24.934  1.00  0.00    -0.203 F 
ATOM     54  C   UNL A   1      44.532  23.778  24.698  1.00  0.00     0.198 A 
ATOM     55  C   UNL A   1      42.673  22.851  25.877  1.00  0.00     0.198 A 
ATOM     56  F   UNL A   1      41.394  24.177  27.312  1.00  0.00    -0.203 F 
ATOM     57  F   UNL A   1      45.604  23.614  23.909  1.00  0.00    -0.200 F 
ATOM     58  C   UNL A   1      43.754  22.683  25.032  1.00  0.00     0.200 A 
ATOM     59  F   UNL A   1      41.936  21.791  26.238  1.00  0.00    -0.200 F 
ATOM     60  F   UNL A   1      44.069  21.462  24.576  1.00  0.00    -0.200 F 
ENDBRANCH  26  50
BRANCH  38  61
ATOM     61  C   UNL A   1      45.372  30.512  28.670  1.00  0.00     0.064 A 
ATOM     62  C   UNL A   1      44.440  31.107  27.803  1.00  0.00     0.173 A 
ATOM     63  C   UNL A   1      46.692  30.985  28.622  1.00  0.00     0.173 A 
ATOM     64  F   UNL A   1      43.140  30.783  27.852  1.00  0.00    -0.203 F 
ATOM     65  C   UNL A   1      44.828  32.090  26.893  1.00  0.00     0.198 A 
ATOM     66  C   UNL A   1      47.066  31.996  27.744  1.00  0.00     0.198 A 
ATOM     67  F   UNL A   1      47.615  30.488  29.460  1.00  0.00    -0.203 F 
ATOM     68  F   UNL A   1      43.927  32.625  26.055  1.00  0.00    -0.200 F 
ATOM     69  C   UNL A   1      46.139  32.538  26.870  1.00  0.00     0.200 A 
ATOM     70  F   UNL A   1      48.323  32.459  27.761  1.00  0.00    -0.200 F 
ATOM     71  F   UNL A   1      46.505  33.509  26.021  1.00  0.00    -0.200 F 
ENDBRANCH  38  61
ENDBRANCH  12  13
ENDBRANCH   5   7
ENDBRANCH   2   3
ENDBRANCH   1   2
BRANCH   1  72
ATOM     72  C   UNL A   1      32.192  27.956  27.102  1.00  0.00     0.117 C 
BRANCH  72  73
ATOM     73  N   UNL A   1      32.963  27.149  26.159  1.00  0.00    -0.354 N 
ATOM     74  C   UNL A   1      33.035  27.071  24.789  1.00  0.00     0.243 C 
ATOM     75  H   UNL A   1      33.571  26.518  26.608  1.00  0.00     0.163 HD
ATOM     76  O   UNL A   1      34.046  26.582  24.274  1.00  0.00    -0.273 OA
BRANCH  74  77
ATOM     77  C   UNL A   1      31.945  27.674  23.917  1.00  0.00     0.182 C 
ATOM     78  C   UNL A   1      32.255  28.801  22.873  1.00  0.00     0.091 C 
ATOM     79  N   UNL A   1      31.099  26.680  23.249  1.00  0.00    -0.306 N 
ATOM     80  C   UNL A   1      30.910  29.236  22.345  1.00  0.00     0.042 A 
ATOM     81  C   UNL A   1      29.691  27.150  23.153  1.00  0.00     0.180 C 
ATOM     82  N   UNL A   1      30.553  30.346  21.639  1.00  0.00    -0.348 N 
ATOM     83  C   UNL A   1      29.744  28.501  22.488  1.00  0.00     0.081 A 
ATOM     84  C   UNL A   1      29.186  30.306  21.509  1.00  0.00     0.197 A 
ATOM     85  H   UNL A   1      31.157  31.041  21.290  1.00  0.00     0.167 HD
ATOM     86  N   UNL A   1      28.671  29.204  22.015  1.00  0.00    -0.240 NA
BRANCH  79  87
ATOM     87  C   UNL A   1      31.515  25.662  22.439  1.00  0.00     0.318 C 
ATOM     88  O   UNL A   1      31.750  25.871  21.243  1.00  0.00    -0.249 OA
ATOM     89  N   UNL A   1      31.565  24.359  22.799  1.00  0.00    -0.331 N 
ATOM     90  H   UNL A   1      31.319  23.779  22.043  1.00  0.00     0.165 HD
BRANCH  89  91
ATOM     91  C   UNL A   1      31.879  23.553  23.993  1.00  0.00     0.197 C 
BRANCH  91  92
ATOM     92  C   UNL A   1      30.943  23.625  25.194  1.00  0.00     0.169 A 
ATOM     93  N   UNL A   1      30.599  22.470  25.868  1.00  0.00    -0.218 NA
ATOM     94  N   UNL A   1      30.465  24.734  25.791  1.00  0.00    -0.157 NA
ATOM     95  C   UNL A   1      29.962  22.898  26.933  1.00  0.00     0.216 A 
ATOM     96  N   UNL A   1      29.887  24.249  26.899  1.00  0.00    -0.266 N 
ATOM     97  H   UNL A   1      29.462  24.801  27.595  1.00  0.00     0.191 HD
ENDBRANCH  91  92
ENDBRANCH  89  91
ENDBRANCH  79  87
ENDBRANCH  74  77
ENDBRANCH  72  73
ENDBRANCH   1  72
TORSDOF 13
ENDMDL
MODEL 2
REMARK VINA RESULT:     -13.6      3.426      8.933
REMARK SMILES O=C(NCCCNC(=O)[C@H]1Cc2[nH]cnc2CN1C(=O)NCc1nc[nH]n1)c1ccc(-c2c3nc(c(-c4c(F)c(F)c(F)c(F)c4F)c4ccc([nH]4)c(-c4c(F)c(F)c(F)c(F)c4F)c4nc(c(-c5c(F)c(F)c(F)c(F)c5F)c5ccc2[nH]5)C=C4)C=C3)cc1
REMARK SMILES IDX 5 1 4 2 3 3 1 4 2 5 28 7 29 8 90 9 30 10 89 11 31 12 32 13
REMARK SMILES IDX 33 14 83 15 34 16 88 17 82 18 84 19 35 20 87 21 81 22 80 23
REMARK SMILES IDX 36 25 68 26 48 27 67 28 49 29 52 30 66 31 85 32 50 33 51 34
REMARK SMILES IDX 65 36 86 37 53 38 37 39 38 40 46 41 39 42 40 43 44 44 47 45
REMARK SMILES IDX 41 46 42 47 45 48 43 49 69 50 70 51 78 52 71 53 72 54 76 55
REMARK SMILES IDX 79 56 73 57 74 58 77 59 75 60 54 61 55 62 63 63 56 64 57 65
REMARK SMILES IDX 61 66 64 67 58 68 59 69 62 70 60 71 6 72 7 73 8 74 9 76
REMARK SMILES IDX 10 77 11 78 18 79 12 80 17 81 13 82 16 83 14 84 15 86 19 87
REMARK SMILES IDX 20 88 21 89 22 91 23 92 24 93 27 94 25 95 26 96
REMARK H PARENT 3 6 84 24 52 35 7 75 13 85 21 90 26 97
REMARK Flexibility Score: inf
ROOT
ATOM      1  C   UNL A   1      37.284  22.123  24.456  1.00  0.00     0.042 C 
ENDROOT
BRANCH   1   2
ATOM      2  C   UNL A   1      37.962  22.373  25.797  1.00  0.00     0.118 C 
BRANCH   2   3
ATOM      3  N   UNL A   1      39.334  21.916  25.925  1.00  0.00    -0.352 N 
ATOM      4  O   UNL A   1      41.491  21.784  26.495  1.00  0.00    -0.269 OA
ATOM      5  C   UNL A   1      40.454  22.459  26.491  1.00  0.00     0.251 C 
ATOM      6  H   UNL A   1      39.491  21.032  25.522  1.00  0.00     0.163 HD
BRANCH   5   7
ATOM      7  C   UNL A   1      40.502  23.841  27.025  1.00  0.00     0.039 A 
ATOM      8  C   UNL A   1      39.619  24.854  26.653  1.00  0.00     0.014 A 
ATOM      9  C   UNL A   1      41.476  24.113  28.001  1.00  0.00     0.014 A 
ATOM     10  C   UNL A   1      39.798  26.145  27.133  1.00  0.00     0.010 A 
ATOM     11  C   UNL A   1      41.629  25.396  28.523  1.00  0.00     0.010 A 
ATOM     12  C   UNL A   1      40.812  26.422  28.059  1.00  0.00    -0.014 A 
BRANCH  12  13
ATOM     13  C   UNL A   1      40.812  27.749  28.676  1.00  0.00     0.031 A 
ATOM     14  C   UNL A   1      41.859  28.657  28.126  1.00  0.00     0.074 A 
ATOM     15  C   UNL A   1      39.920  28.199  29.581  1.00  0.00     0.049 A 
ATOM     16  N   UNL A   1      42.889  29.137  28.743  1.00  0.00    -0.248 NA
ATOM     17  C   UNL A   1      41.829  28.963  26.687  1.00  0.00     0.031 C 
ATOM     18  C   UNL A   1      38.679  27.565  30.021  1.00  0.00     0.029 A 
ATOM     19  N   UNL A   1      39.909  29.390  30.253  1.00  0.00    -0.354 N 
ATOM     20  C   UNL A   1      43.555  29.940  27.820  1.00  0.00     0.074 A 
ATOM     21  C   UNL A   1      42.939  29.687  26.543  1.00  0.00     0.031 C 
ATOM     22  C   UNL A   1      37.936  28.463  30.712  1.00  0.00     0.029 A 
ATOM     23  C   UNL A   1      38.705  29.686  30.883  1.00  0.00     0.049 A 
ATOM     24  H   UNL A   1      40.690  29.989  30.288  1.00  0.00     0.167 HD
ATOM     25  C   UNL A   1      44.420  30.908  28.229  1.00  0.00     0.037 A 
ATOM     26  C   UNL A   1      38.354  30.864  31.463  1.00  0.00     0.037 A 
ATOM     27  C   UNL A   1      44.839  30.689  29.589  1.00  0.00     0.049 A 
ATOM     28  C   UNL A   1      39.599  31.610  31.758  1.00  0.00     0.074 A 
ATOM     29  C   UNL A   1      45.526  29.692  30.255  1.00  0.00     0.029 A 
ATOM     30  N   UNL A   1      44.238  31.442  30.564  1.00  0.00    -0.354 N 
ATOM     31  N   UNL A   1      40.454  31.270  32.678  1.00  0.00    -0.248 NA
ATOM     32  C   UNL A   1      40.098  32.527  30.746  1.00  0.00     0.031 C 
ATOM     33  C   UNL A   1      44.915  29.618  31.541  1.00  0.00     0.029 A 
ATOM     34  C   UNL A   1      43.938  30.612  31.608  1.00  0.00     0.049 A 
ATOM     35  H   UNL A   1      44.055  32.409  30.519  1.00  0.00     0.167 HD
ATOM     36  C   UNL A   1      41.690  31.536  32.113  1.00  0.00     0.074 A 
ATOM     37  C   UNL A   1      41.408  32.412  30.979  1.00  0.00     0.031 C 
ATOM     38  C   UNL A   1      42.780  30.789  32.449  1.00  0.00     0.037 A 
BRANCH  25  39
ATOM     39  C   UNL A   1      44.572  32.257  27.563  1.00  0.00     0.064 A 
ATOM     40  C   UNL A   1      45.714  32.501  26.770  1.00  0.00     0.173 A 
ATOM     41  C   UNL A   1      43.839  33.402  27.939  1.00  0.00     0.173 A 
ATOM     42  F   UNL A   1      46.497  31.489  26.365  1.00  0.00    -0.203 F 
ATOM     43  C   UNL A   1      46.140  33.798  26.467  1.00  0.00     0.198 A 
ATOM     44  C   UNL A   1      44.239  34.691  27.589  1.00  0.00     0.198 A 
ATOM     45  F   UNL A   1      42.780  33.336  28.752  1.00  0.00    -0.203 F 
ATOM     46  F   UNL A   1      47.307  33.984  25.835  1.00  0.00    -0.200 F 
ATOM     47  C   UNL A   1      45.408  34.891  26.886  1.00  0.00     0.200 A 
ATOM     48  F   UNL A   1      43.525  35.739  28.022  1.00  0.00    -0.200 F 
ATOM     49  F   UNL A   1      45.849  36.136  26.660  1.00  0.00    -0.200 F 
ENDBRANCH  25  39
BRANCH  26  50
ATOM     50  C   UNL A   1      37.028  31.526  31.542  1.00  0.00     0.064 A 
ATOM     51  C   UNL A   1      36.461  31.871  32.783  1.00  0.00     0.173 A 
ATOM     52  C   UNL A   1      36.442  32.112  30.406  1.00  0.00     0.173 A 
ATOM     53  F   UNL A   1      36.984  31.394  33.922  1.00  0.00    -0.203 F 
ATOM     54  C   UNL A   1      35.400  32.778  32.881  1.00  0.00     0.198 A 
ATOM     55  C   UNL A   1      35.379  33.012  30.504  1.00  0.00     0.198 A 
ATOM     56  F   UNL A   1      36.957  31.905  29.185  1.00  0.00    -0.203 F 
ATOM     57  F   UNL A   1      34.935  33.138  34.087  1.00  0.00    -0.200 F 
ATOM     58  C   UNL A   1      34.869  33.358  31.741  1.00  0.00     0.200 A 
ATOM     59  F   UNL A   1      34.900  33.597  29.397  1.00  0.00    -0.200 F 
ATOM     60  F   UNL A   1      33.900  34.279  31.837  1.00  0.00    -0.200 F 
ENDBRANCH  26  50
BRANCH  38  61
ATOM     61  C   UNL A   1      42.686  29.924  33.674  1.00  0.00     0.064 A 
ATOM     62  C   UNL A   1      43.009  30.343  34.976  1.00  0.00     0.173 A 
ATOM     63  C   UNL A   1      42.138  28.642  33.525  1.00  0.00     0.173 A 
ATOM     64  F   UNL A   1      43.445  31.587  35.218  1.00  0.00    -0.203 F 
ATOM     65  C   UNL A   1      42.841  29.492  36.069  1.00  0.00     0.198 A 
ATOM     66  C   UNL A   1      41.931  27.812  34.622  1.00  0.00     0.198 A 
ATOM     67  F   UNL A   1      41.766  28.207  32.311  1.00  0.00    -0.203 F 
ATOM     68  F   UNL A   1      43.182  29.902  37.299  1.00  0.00    -0.200 F 
ATOM     69  C   UNL A   1      42.296  28.231  35.890  1.00  0.00     0.200 A 
ATOM     70  F   UNL A   1      41.359  26.614  34.449  1.00  0.00    -0.200 F 
ATOM     71  F   UNL A   1      42.101  27.426  36.945  1.00  0.00    -0.200 F 
ENDBRANCH  38  61
ENDBRANCH  12  13
ENDBRANCH   5   7
ENDBRANCH   2   3
ENDBRANCH   1   2
BRANCH   1  72
ATOM     72  C   UNL A   1      36.316  23.153  23.832  1.00  0.00     0.117 C 
BRANCH  72  73
ATOM     73  N   UNL A   1      35.336  23.868  24.646  1.00  0.00    -0.354 N 
ATOM     74  C   UNL A   1      34.260  23.493  25.416  1.00  0.00     0.243 C 
ATOM     75  H   UNL A   1      35.479  24.842  24.643  1.00  0.00     0.163 HD
ATOM     76  O   UNL A   1      33.860  24.264  26.292  1.00  0.00    -0.273 OA
BRANCH  74  77
ATOM     77  C   UNL A   1      33.645  22.110  25.271  1.00  0.00     0.182 C 
ATOM     78  C   UNL A   1      33.517  21.133  26.490  1.00  0.00     0.091 C 
ATOM     79  N   UNL A   1      32.359  22.101  24.566  1.00  0.00    -0.306 N 
ATOM     80  C   UNL A   1      33.021  19.833  25.908  1.00  0.00     0.042 A 
ATOM     81  C   UNL A   1      32.212  20.880  23.732  1.00  0.00     0.180 C 
ATOM     82  N   UNL A   1      32.994  18.578  26.441  1.00  0.00    -0.348 N 
ATOM     83  C   UNL A   1      32.448  19.711  24.652  1.00  0.00     0.081 A 
ATOM     84  C   UNL A   1      32.544  17.740  25.449  1.00  0.00     0.197 A 
ATOM     85  H   UNL A   1      33.248  18.322  27.357  1.00  0.00     0.167 HD
ATOM     86  N   UNL A   1      32.211  18.397  24.357  1.00  0.00    -0.240 NA
BRANCH  79  87
ATOM     87  C   UNL A   1      31.245  22.824  24.887  1.00  0.00     0.318 C 
ATOM     88  O   UNL A   1      30.609  22.569  25.916  1.00  0.00    -0.249 OA
ATOM     89  N   UNL A   1      30.663  23.743  24.082  1.00  0.00    -0.331 N 
ATOM     90  H   UNL A   1      29.684  23.716  24.175  1.00  0.00     0.165 HD
BRANCH  89  91
ATOM     91  C   UNL A   1      31.066  24.773  23.107  1.00  0.00     0.197 C 
BRANCH  91  92
ATOM     92  C   UNL A   1      32.059  25.845  23.540  1.00  0.00     0.169 A 
ATOM     93  N   UNL A   1      31.728  26.719  24.557  1.00  0.00    -0.218 NA
ATOM     94  N   UNL A   1      33.329  25.997  23.121  1.00  0.00    -0.157 NA
ATOM     95  C   UNL A   1      32.845  27.361  24.804  1.00  0.00     0.216 A 
ATOM     96  N   UNL A   1      33.809  26.929  23.957  1.00  0.00    -0.266 N 
ATOM     97  H   UNL A   1      34.737  27.257  23.956  1.00  0.00     0.191 HD
ENDBRANCH  91  92
ENDBRANCH  89  91
ENDBRANCH  79  87
ENDBRANCH  74  77
ENDBRANCH  72  73
ENDBRANCH   1  72
TORSDOF 13
ENDMDL
MODEL 3
REMARK VINA RESULT:     -13.4      1.333      2.380
REMARK SMILES O=C(NCCCNC(=O)[C@H]1Cc2[nH]cnc2CN1C(=O)NCc1nc[nH]n1)c1ccc(-c2c3nc(c(-c4c(F)c(F)c(F)c(F)c4F)c4ccc([nH]4)c(-c4c(F)c(F)c(F)c(F)c4F)c4nc(c(-c5c(F)c(F)c(F)c(F)c5F)c5ccc2[nH]5)C=C4)C=C3)cc1
REMARK SMILES IDX 5 1 4 2 3 3 1 4 2 5 28 7 29 8 90 9 30 10 89 11 31 12 32 13
REMARK SMILES IDX 33 14 83 15 34 16 88 17 82 18 84 19 35 20 87 21 81 22 80 23
REMARK SMILES IDX 36 25 68 26 48 27 67 28 49 29 52 30 66 31 85 32 50 33 51 34
REMARK SMILES IDX 65 36 86 37 53 38 37 39 38 40 46 41 39 42 40 43 44 44 47 45
REMARK SMILES IDX 41 46 42 47 45 48 43 49 69 50 70 51 78 52 71 53 72 54 76 55
REMARK SMILES IDX 79 56 73 57 74 58 77 59 75 60 54 61 55 62 63 63 56 64 57 65
REMARK SMILES IDX 61 66 64 67 58 68 59 69 62 70 60 71 6 72 7 73 8 74 9 76
REMARK SMILES IDX 10 77 11 78 18 79 12 80 17 81 13 82 16 83 14 84 15 86 19 87
REMARK SMILES IDX 20 88 21 89 22 91 23 92 24 93 27 94 25 95 26 96
REMARK H PARENT 3 6 84 24 52 35 7 75 13 85 21 90 26 97
REMARK Flexibility Score: inf
ROOT
ATOM      1  C   UNL A   1      33.218  30.117  27.194  1.00  0.00     0.042 C 
ENDROOT
BRANCH   1   2
ATOM      2  C   UNL A   1      34.261  31.186  27.496  1.00  0.00     0.118 C 
BRANCH   2   3
ATOM      3  N   UNL A   1      34.197  31.803  28.807  1.00  0.00    -0.352 N 
ATOM      4  O   UNL A   1      34.745  32.533  30.847  1.00  0.00    -0.269 OA
ATOM      5  C   UNL A   1      35.069  31.863  29.859  1.00  0.00     0.251 C 
ATOM      6  H   UNL A   1      33.351  32.277  28.975  1.00  0.00     0.163 HD
BRANCH   5   7
ATOM      7  C   UNL A   1      36.340  31.103  29.901  1.00  0.00     0.039 A 
ATOM      8  C   UNL A   1      36.419  29.720  30.059  1.00  0.00     0.014 A 
ATOM      9  C   UNL A   1      37.527  31.834  29.720  1.00  0.00     0.014 A 
ATOM     10  C   UNL A   1      37.657  29.102  30.183  1.00  0.00     0.010 A 
ATOM     11  C   UNL A   1      38.771  31.213  29.794  1.00  0.00     0.010 A 
ATOM     12  C   UNL A   1      38.836  29.849  30.064  1.00  0.00    -0.014 A 
BRANCH  12  13
ATOM     13  C   UNL A   1      40.095  29.107  29.997  1.00  0.00     0.031 A 
ATOM     14  C   UNL A   1      40.731  28.899  31.331  1.00  0.00     0.074 A 
ATOM     15  C   UNL A   1      40.628  28.554  28.889  1.00  0.00     0.049 A 
ATOM     16  N   UNL A   1      41.849  29.388  31.755  1.00  0.00    -0.248 NA
ATOM     17  C   UNL A   1      39.971  28.167  32.356  1.00  0.00     0.031 C 
ATOM     18  C   UNL A   1      40.021  28.410  27.568  1.00  0.00     0.029 A 
ATOM     19  N   UNL A   1      41.833  27.922  28.743  1.00  0.00    -0.354 N 
ATOM     20  C   UNL A   1      42.022  28.897  33.047  1.00  0.00     0.074 A 
ATOM     21  C   UNL A   1      40.779  28.269  33.412  1.00  0.00     0.031 C 
ATOM     22  C   UNL A   1      40.761  27.553  26.825  1.00  0.00     0.029 A 
ATOM     23  C   UNL A   1      41.964  27.197  27.563  1.00  0.00     0.049 A 
ATOM     24  H   UNL A   1      42.548  27.976  29.417  1.00  0.00     0.167 HD
ATOM     25  C   UNL A   1      43.254  28.865  33.626  1.00  0.00     0.037 A 
ATOM     26  C   UNL A   1      42.964  26.337  27.239  1.00  0.00     0.037 A 
ATOM     27  C   UNL A   1      44.170  29.743  32.945  1.00  0.00     0.049 A 
ATOM     28  C   UNL A   1      44.128  26.654  28.099  1.00  0.00     0.074 A 
ATOM     29  C   UNL A   1      44.236  31.102  32.712  1.00  0.00     0.029 A 
ATOM     30  N   UNL A   1      45.059  29.172  32.071  1.00  0.00    -0.354 N 
ATOM     31  N   UNL A   1      44.849  27.732  27.984  1.00  0.00    -0.248 NA
ATOM     32  C   UNL A   1      44.251  25.951  29.365  1.00  0.00     0.031 C 
ATOM     33  C   UNL A   1      44.792  31.227  31.404  1.00  0.00     0.029 A 
ATOM     34  C   UNL A   1      45.092  29.945  30.944  1.00  0.00     0.049 A 
ATOM     35  H   UNL A   1      45.580  28.351  32.228  1.00  0.00     0.167 HD
ATOM     36  C   UNL A   1      45.135  28.094  29.289  1.00  0.00     0.074 A 
ATOM     37  C   UNL A   1      44.844  26.906  30.086  1.00  0.00     0.031 C 
ATOM     38  C   UNL A   1      45.303  29.406  29.623  1.00  0.00     0.037 A 
BRANCH  25  39
ATOM     39  C   UNL A   1      43.745  27.759  34.533  1.00  0.00     0.064 A 
ATOM     40  C   UNL A   1      43.693  26.426  34.072  1.00  0.00     0.173 A 
ATOM     41  C   UNL A   1      43.937  27.914  35.922  1.00  0.00     0.173 A 
ATOM     42  F   UNL A   1      43.500  26.158  32.772  1.00  0.00    -0.203 F 
ATOM     43  C   UNL A   1      43.727  25.339  34.950  1.00  0.00     0.198 A 
ATOM     44  C   UNL A   1      44.024  26.825  36.787  1.00  0.00     0.198 A 
ATOM     45  F   UNL A   1      43.929  29.112  36.515  1.00  0.00    -0.203 F 
ATOM     46  F   UNL A   1      43.530  24.100  34.481  1.00  0.00    -0.200 F 
ATOM     47  C   UNL A   1      43.882  25.540  36.307  1.00  0.00     0.200 A 
ATOM     48  F   UNL A   1      44.154  27.041  38.104  1.00  0.00    -0.200 F 
ATOM     49  F   UNL A   1      43.844  24.507  37.159  1.00  0.00    -0.200 F 
ENDBRANCH  25  39
BRANCH  26  50
ATOM     50  C   UNL A   1      42.922  25.086  26.441  1.00  0.00     0.064 A 
ATOM     51  C   UNL A   1      43.798  24.885  25.358  1.00  0.00     0.173 A 
ATOM     52  C   UNL A   1      42.247  23.947  26.916  1.00  0.00     0.173 A 
ATOM     53  F   UNL A   1      44.516  25.907  24.870  1.00  0.00    -0.203 F 
ATOM     54  C   UNL A   1      44.013  23.615  24.811  1.00  0.00     0.198 A 
ATOM     55  C   UNL A   1      42.458  22.681  26.366  1.00  0.00     0.198 A 
ATOM     56  F   UNL A   1      41.449  24.022  27.991  1.00  0.00    -0.203 F 
ATOM     57  F   UNL A   1      44.910  23.452  23.828  1.00  0.00    -0.200 F 
ATOM     58  C   UNL A   1      43.353  22.512  25.325  1.00  0.00     0.200 A 
ATOM     59  F   UNL A   1      41.843  21.615  26.897  1.00  0.00    -0.200 F 
ATOM     60  F   UNL A   1      43.610  21.285  24.850  1.00  0.00    -0.200 F 
ENDBRANCH  26  50
BRANCH  38  61
ATOM     61  C   UNL A   1      45.514  30.391  28.508  1.00  0.00     0.064 A 
ATOM     62  C   UNL A   1      44.483  30.994  27.767  1.00  0.00     0.173 A 
ATOM     63  C   UNL A   1      46.825  30.820  28.258  1.00  0.00     0.173 A 
ATOM     64  F   UNL A   1      43.195  30.712  28.012  1.00  0.00    -0.203 F 
ATOM     65  C   UNL A   1      44.762  31.941  26.783  1.00  0.00     0.198 A 
ATOM     66  C   UNL A   1      47.096  31.798  27.306  1.00  0.00     0.198 A 
ATOM     67  F   UNL A   1      47.845  30.315  28.968  1.00  0.00    -0.203 F 
ATOM     68  F   UNL A   1      43.765  32.483  26.068  1.00  0.00    -0.200 F 
ATOM     69  C   UNL A   1      46.068  32.347  26.559  1.00  0.00     0.200 A 
ATOM     70  F   UNL A   1      48.355  32.220  27.129  1.00  0.00    -0.200 F 
ATOM     71  F   UNL A   1      46.334  33.284  25.638  1.00  0.00    -0.200 F 
ENDBRANCH  38  61
ENDBRANCH  12  13
ENDBRANCH   5   7
ENDBRANCH   2   3
ENDBRANCH   1   2
BRANCH   1  72
ATOM     72  C   UNL A   1      31.788  30.484  26.738  1.00  0.00     0.117 C 
BRANCH  72  73
ATOM     73  N   UNL A   1      31.398  30.428  25.331  1.00  0.00    -0.354 N 
ATOM     74  C   UNL A   1      31.031  29.420  24.471  1.00  0.00     0.243 C 
ATOM     75  H   UNL A   1      31.395  31.313  24.902  1.00  0.00     0.163 HD
ATOM     76  O   UNL A   1      30.384  29.709  23.460  1.00  0.00    -0.273 OA
BRANCH  74  77
ATOM     77  C   UNL A   1      31.317  27.966  24.809  1.00  0.00     0.182 C 
ATOM     78  C   UNL A   1      30.346  26.813  24.375  1.00  0.00     0.091 C 
ATOM     79  N   UNL A   1      32.680  27.535  24.484  1.00  0.00    -0.306 N 
ATOM     80  C   UNL A   1      30.887  25.569  25.035  1.00  0.00     0.042 A 
ATOM     81  C   UNL A   1      33.189  26.561  25.485  1.00  0.00     0.180 C 
ATOM     82  N   UNL A   1      30.308  24.350  25.235  1.00  0.00    -0.348 N 
ATOM     83  C   UNL A   1      32.166  25.457  25.556  1.00  0.00     0.081 A 
ATOM     84  C   UNL A   1      31.195  23.613  25.981  1.00  0.00     0.197 A 
ATOM     85  H   UNL A   1      29.427  24.057  24.909  1.00  0.00     0.167 HD
ATOM     86  N   UNL A   1      32.324  24.258  26.192  1.00  0.00    -0.240 NA
BRANCH  79  87
ATOM     87  C   UNL A   1      33.298  27.621  23.269  1.00  0.00     0.318 C 
ATOM     88  O   UNL A   1      34.193  28.452  23.080  1.00  0.00    -0.249 OA
ATOM     89  N   UNL A   1      32.915  26.949  22.159  1.00  0.00    -0.331 N 
ATOM     90  H   UNL A   1      33.040  27.504  21.356  1.00  0.00     0.165 HD
BRANCH  89  91
ATOM     91  C   UNL A   1      32.364  25.629  21.800  1.00  0.00     0.197 C 
BRANCH  91  92
ATOM     92  C   UNL A   1      33.013  24.380  22.384  1.00  0.00     0.169 A 
ATOM     93  N   UNL A   1      34.353  24.394  22.719  1.00  0.00    -0.218 NA
ATOM     94  N   UNL A   1      32.403  23.235  22.741  1.00  0.00    -0.157 NA
ATOM     95  C   UNL A   1      34.535  23.261  23.357  1.00  0.00     0.216 A 
ATOM     96  N   UNL A   1      33.373  22.568  23.383  1.00  0.00    -0.266 N 
ATOM     97  H   UNL A   1      33.258  21.691  23.815  1.00  0.00     0.191 HD
ENDBRANCH  91  92
ENDBRANCH  89  91
ENDBRANCH  79  87
ENDBRANCH  74  77
ENDBRANCH  72  73
ENDBRANCH   1  72
TORSDOF 13
ENDMDL
