MODEL 1
REMARK VINA RESULT:     -12.8      0.000      0.000
REMARK SMILES C[C@@H](C(=O)NCCCNC(=O)c1ccc(-c2c3nc(c(-c4c(F)c(F)c(F)c(F)c4F)c4ccc([nH]4)c(-c4c(F)c(F)c(F)c(F)c4F)c4nc(c(-c5c(F)c(F)c(F)c(F)c5F)c5ccc2[nH]5)C=C4)C=C3)cc1)c1ccc(C[C@@H]2CCC[C@@H]2O)cc1Br
REMARK SMILES IDX 6 1 5 2 3 3 4 4 2 6 1 7 75 8 76 9 87 10 77 11 86 12 88 13
REMARK SMILES IDX 78 14 79 15 80 16 81 17 84 18 82 19 83 20 85 21 7 23 8 24
REMARK SMILES IDX 9 25 10 26 11 28 12 29 13 30 74 31 14 32 73 33 15 34 16 35
REMARK SMILES IDX 17 36 67 37 18 38 72 39 66 40 68 41 19 42 71 43 65 44 64 45
REMARK SMILES IDX 20 47 52 48 32 49 51 50 33 51 36 52 50 53 69 54 34 55 35 56
REMARK SMILES IDX 49 58 70 59 37 60 21 61 22 62 30 63 23 64 24 65 28 66 31 67
REMARK SMILES IDX 25 68 26 69 29 70 27 71 53 72 54 73 62 74 55 75 56 76 60 77
REMARK SMILES IDX 63 78 57 79 58 80 61 81 59 82 38 83 39 84 47 85 40 86 41 87
REMARK SMILES IDX 45 88 48 89 42 90 43 91 46 92 44 93
REMARK H PARENT 5 5 85 22 9 27 68 46 36 57
REMARK Flexibility Score: inf
ROOT
ATOM      1  C   UNL A   1      36.508  20.528  25.358  1.00  0.00     0.117 C 
ENDROOT
BRANCH   1   2
ATOM      2  N   UNL A   1      36.684  21.905  25.786  1.00  0.00    -0.356 N 
ATOM      3  C   UNL A   1      36.255  23.078  25.231  1.00  0.00     0.227 C 
ATOM      4  O   UNL A   1      36.775  24.104  25.674  1.00  0.00    -0.274 OA
ATOM      5  H   UNL A   1      37.200  22.011  26.617  1.00  0.00     0.163 HD
BRANCH   3   6
ATOM      6  C   UNL A   1      35.136  23.089  24.161  1.00  0.00     0.106 C 
ATOM      7  C   UNL A   1      36.335  23.384  23.318  1.00  0.00     0.023 C 
BRANCH   6   8
ATOM      8  C   UNL A   1      33.986  24.052  24.530  1.00  0.00    -0.022 A 
ATOM      9  C   UNL A   1      33.717  25.065  23.573  1.00  0.00     0.006 A 
ATOM     10  C   UNL A   1      33.207  24.088  25.703  1.00  0.00     0.022 A 
ATOM     11  C   UNL A   1      32.740  26.049  23.762  1.00  0.00     0.004 A 
ATOM     12  C   UNL A   1      32.266  25.115  25.906  1.00  0.00     0.019 A 
ATOM     13  Br  UNL A   1      33.245  22.849  27.148  1.00  0.00    -0.051 Br
ATOM     14  C   UNL A   1      32.036  26.114  24.957  1.00  0.00    -0.047 A 
BRANCH  14  15
ATOM     15  C   UNL A   1      31.061  27.223  25.259  1.00  0.00     0.041 C 
BRANCH  15  16
ATOM     16  C   UNL A   1      31.631  28.580  25.730  1.00  0.00     0.022 C 
ATOM     17  C   UNL A   1      32.938  28.991  25.041  1.00  0.00     0.007 C 
ATOM     18  C   UNL A   1      31.969  28.740  27.218  1.00  0.00     0.117 C 
ATOM     19  C   UNL A   1      34.070  28.701  26.029  1.00  0.00     0.003 C 
ATOM     20  C   UNL A   1      33.415  28.284  27.342  1.00  0.00     0.032 C 
BRANCH  18  21
ATOM     21  O   UNL A   1      31.115  28.027  28.087  1.00  0.00    -0.393 OA
ATOM     22  H   UNL A   1      31.115  28.450  28.960  1.00  0.00     0.210 HD
ENDBRANCH  18  21
ENDBRANCH  15  16
ENDBRANCH  14  15
ENDBRANCH   6   8
ENDBRANCH   3   6
ENDBRANCH   1   2
BRANCH   1  23
ATOM     23  C   UNL A   1      37.838  19.924  24.896  1.00  0.00     0.042 C 
BRANCH  23  24
ATOM     24  C   UNL A   1      39.027  20.281  25.785  1.00  0.00     0.118 C 
BRANCH  24  25
ATOM     25  N   UNL A   1      40.034  19.232  25.815  1.00  0.00    -0.352 N 
ATOM     26  C   UNL A   1      41.385  19.310  26.039  1.00  0.00     0.251 C 
ATOM     27  H   UNL A   1      39.692  18.323  25.649  1.00  0.00     0.163 HD
ATOM     28  O   UNL A   1      42.094  18.328  25.815  1.00  0.00    -0.269 OA
BRANCH  26  29
ATOM     29  C   UNL A   1      42.006  20.564  26.517  1.00  0.00     0.039 A 
ATOM     30  C   UNL A   1      42.565  21.436  25.579  1.00  0.00     0.014 A 
ATOM     31  C   UNL A   1      42.058  20.879  27.878  1.00  0.00     0.014 A 
ATOM     32  C   UNL A   1      43.094  22.660  25.993  1.00  0.00     0.010 A 
ATOM     33  C   UNL A   1      42.525  22.130  28.285  1.00  0.00     0.010 A 
ATOM     34  C   UNL A   1      43.031  23.040  27.343  1.00  0.00    -0.014 A 
BRANCH  34  35
ATOM     35  C   UNL A   1      43.417  24.410  27.773  1.00  0.00     0.031 A 
ATOM     36  C   UNL A   1      42.372  25.442  28.092  1.00  0.00     0.074 A 
ATOM     37  C   UNL A   1      44.724  24.742  27.797  1.00  0.00     0.049 A 
ATOM     38  N   UNL A   1      42.527  26.706  28.397  1.00  0.00    -0.248 NA
ATOM     39  C   UNL A   1      40.968  25.006  28.046  1.00  0.00     0.031 C 
ATOM     40  C   UNL A   1      45.830  23.841  27.466  1.00  0.00     0.029 A 
ATOM     41  N   UNL A   1      45.346  25.931  28.095  1.00  0.00    -0.354 N 
ATOM     42  C   UNL A   1      41.248  27.217  28.566  1.00  0.00     0.074 A 
ATOM     43  C   UNL A   1      40.323  26.137  28.297  1.00  0.00     0.031 C 
ATOM     44  C   UNL A   1      46.991  24.503  27.586  1.00  0.00     0.029 A 
ATOM     45  C   UNL A   1      46.713  25.888  27.952  1.00  0.00     0.049 A 
ATOM     46  H   UNL A   1      44.859  26.736  28.382  1.00  0.00     0.167 HD
ATOM     47  C   UNL A   1      40.883  28.471  28.924  1.00  0.00     0.037 A 
ATOM     48  C   UNL A   1      45.311  27.357  27.715  1.00  0.00     0.037 A 
ATOM     49  C   UNL A   1      41.809  29.536  29.216  1.00  0.00     0.049 A 
ATOM     50  C   UNL A   1      44.555  28.627  28.006  1.00  0.00     0.074 A 
ATOM     51  C   UNL A   1      41.534  30.812  29.677  1.00  0.00     0.029 A 
ATOM     52  N   UNL A   1      43.184  29.454  29.063  1.00  0.00    -0.354 N 
ATOM     53  N   UNL A   1      43.289  28.786  28.303  1.00  0.00    -0.248 NA
ATOM     54  C   UNL A   1      48.239  29.278  28.539  1.00  0.00     0.031 C 
ATOM     55  C   UNL A   1      42.735  31.524  29.739  1.00  0.00     0.029 A 
ATOM     56  C   UNL A   1      43.766  30.673  29.374  1.00  0.00     0.049 A 
ATOM     57  H   UNL A   1      43.675  28.650  28.777  1.00  0.00     0.167 HD
ATOM     58  C   UNL A   1      43.111  30.150  28.496  1.00  0.00     0.074 A 
ATOM     59  C   UNL A   1      47.545  30.336  28.930  1.00  0.00     0.031 C 
ATOM     60  C   UNL A   1      45.176  30.954  29.301  1.00  0.00     0.037 A 
BRANCH  47  61
ATOM     61  C   UNL A   1      39.419  28.786  29.027  1.00  0.00     0.064 A 
ATOM     62  C   UNL A   1      38.729  28.693  30.244  1.00  0.00     0.173 A 
ATOM     63  C   UNL A   1      38.726  29.290  27.915  1.00  0.00     0.173 A 
ATOM     64  F   UNL A   1      39.344  28.212  31.334  1.00  0.00    -0.203 F 
ATOM     65  C   UNL A   1      37.397  29.089  30.343  1.00  0.00     0.198 A 
ATOM     66  C   UNL A   1      37.402  29.710  28.025  1.00  0.00     0.198 A 
ATOM     67  F   UNL A   1      39.342  29.407  26.730  1.00  0.00    -0.203 F 
ATOM     68  F   UNL A   1      36.751  28.973  31.512  1.00  0.00    -0.200 F 
ATOM     69  C   UNL A   1      36.739  29.607  29.237  1.00  0.00     0.200 A 
ATOM     70  F   UNL A   1      36.774  30.227  26.960  1.00  0.00    -0.200 F 
ATOM     71  F   UNL A   1      35.465  30.012  29.343  1.00  0.00    -0.200 F 
ENDBRANCH  47  61
BRANCH  48  72
ATOM     72  C   UNL A   1      49.075  26.571  27.821  1.00  0.00     0.064 A 
ATOM     73  C   UNL A   1      49.957  26.352  28.888  1.00  0.00     0.173 A 
ATOM     74  C   UNL A   1      49.621  26.644  26.531  1.00  0.00     0.173 A 
ATOM     75  F   UNL A   1      49.489  26.296  30.143  1.00  0.00    -0.203 F 
ATOM     76  C   UNL A   1      51.332  26.253  28.677  1.00  0.00     0.198 A 
ATOM     77  C   UNL A   1      50.991  26.508  26.317  1.00  0.00     0.198 A 
ATOM     78  F   UNL A   1      48.822  26.847  25.472  1.00  0.00    -0.203 F 
ATOM     79  F   UNL A   1      52.159  26.115  29.724  1.00  0.00    -0.200 F 
ATOM     80  C   UNL A   1      51.848  26.328  27.393  1.00  0.00     0.200 A 
ATOM     81  F   UNL A   1      51.482  26.563  25.072  1.00  0.00    -0.200 F 
ATOM     82  F   UNL A   1      53.169  26.240  27.192  1.00  0.00    -0.200 F 
ENDBRANCH  48  72
BRANCH  60  83
ATOM     83  C   UNL A   1      45.629  32.355  29.593  1.00  0.00     0.064 A 
ATOM     84  C   UNL A   1      45.118  33.452  28.882  1.00  0.00     0.173 A 
ATOM     85  C   UNL A   1      43.738  31.771  32.853  1.00  0.00     0.173 A 
ATOM     86  F   UNL A   1      44.248  33.261  27.880  1.00  0.00    -0.203 F 
ATOM     87  C   UNL A   1      42.233  33.803  31.710  1.00  0.00     0.198 A 
ATOM     88  C   UNL A   1      43.807  33.064  33.365  1.00  0.00     0.198 A 
ATOM     89  F   UNL A   1      44.481  30.812  33.426  1.00  0.00    -0.203 F 
ATOM     90  F   UNL A   1      41.531  34.790  31.134  1.00  0.00    -0.200 F 
ATOM     91  C   UNL A   1      43.058  34.080  32.790  1.00  0.00     0.200 A 
ATOM     92  F   UNL A   1      44.593  33.325  34.419  1.00  0.00    -0.200 F 
ATOM     93  F   UNL A   1      43.136  35.327  33.273  1.00  0.00    -0.200 F 
ENDBRANCH  60  83
ENDBRANCH  34  35
ENDBRANCH  26  29
ENDBRANCH  24  25
ENDBRANCH  23  24
ENDBRANCH   1  23
TORSDOF 14
ENDMDL
MODEL 2
REMARK VINA RESULT:     -12.7      4.295      9.715
REMARK SMILES C[C@@H](C(=O)NCCCNC(=O)c1ccc(-c2c3nc(c(-c4c(F)c(F)c(F)c(F)c4F)c4ccc([nH]4)c(-c4c(F)c(F)c(F)c(F)c4F)c4nc(c(-c5c(F)c(F)c(F)c(F)c5F)c5ccc2[nH]5)C=C4)C=C3)cc1)c1ccc(C[C@@H]2CCC[C@@H]2O)cc1Br
REMARK SMILES IDX 6 1 5 2 3 3 4 4 2 6 1 7 75 8 76 9 87 10 77 11 86 12 88 13
REMARK SMILES IDX 78 14 79 15 80 16 81 17 84 18 82 19 83 20 85 21 7 23 8 24
REMARK SMILES IDX 9 25 10 26 11 28 12 29 13 30 74 31 14 32 73 33 15 34 16 35
REMARK SMILES IDX 17 36 67 37 18 38 72 39 66 40 68 41 19 42 71 43 65 44 64 45
REMARK SMILES IDX 20 47 52 48 32 49 51 50 33 51 36 52 50 53 69 54 34 55 35 56
REMARK SMILES IDX 49 58 70 59 37 60 21 61 22 62 30 63 23 64 24 65 28 66 31 67
REMARK SMILES IDX 25 68 26 69 29 70 27 71 53 72 54 73 62 74 55 75 56 76 60 77
REMARK SMILES IDX 63 78 57 79 58 80 61 81 59 82 38 83 39 84 47 85 40 86 41 87
REMARK SMILES IDX 45 88 48 89 42 90 43 91 46 92 44 93
REMARK H PARENT 5 5 85 22 9 27 68 46 36 57
REMARK Flexibility Score: inf
ROOT
ATOM      1  C   UNL A   1      36.180  33.302  30.304  1.00  0.00     0.117 C 
ENDROOT
BRANCH   1   2
ATOM      2  N   UNL A   1      36.422  34.280  31.350  1.00  0.00    -0.356 N 
ATOM      3  C   UNL A   1      36.156  34.243  32.690  1.00  0.00     0.227 C 
ATOM      4  O   UNL A   1      36.237  35.320  33.285  1.00  0.00    -0.274 OA
ATOM      5  H   UNL A   1      36.851  35.110  31.042  1.00  0.00     0.163 HD
BRANCH   3   6
ATOM      6  C   UNL A   1      35.844  32.904  33.402  1.00  0.00     0.106 C 
ATOM      7  C   UNL A   1      35.503  33.882  34.480  1.00  0.00     0.023 C 
BRANCH   6   8
ATOM      8  C   UNL A   1      37.041  31.929  33.364  1.00  0.00    -0.022 A 
ATOM      9  C   UNL A   1      36.763  30.652  32.809  1.00  0.00     0.006 A 
ATOM     10  C   UNL A   1      38.351  32.120  33.846  1.00  0.00     0.022 A 
ATOM     11  C   UNL A   1      37.718  29.631  32.735  1.00  0.00     0.004 A 
ATOM     12  C   UNL A   1      39.286  31.068  33.815  1.00  0.00     0.019 A 
ATOM     13  Br  UNL A   1      39.087  33.718  34.574  1.00  0.00    -0.051 Br
ATOM     14  C   UNL A   1      38.980  29.813  33.285  1.00  0.00    -0.047 A 
BRANCH  14  15
ATOM     15  C   UNL A   1      40.002  28.707  33.339  1.00  0.00     0.041 C 
BRANCH  15  16
ATOM     16  C   UNL A   1      41.417  29.054  33.854  1.00  0.00     0.022 C 
ATOM     17  C   UNL A   1      42.556  28.396  33.065  1.00  0.00     0.007 C 
ATOM     18  C   UNL A   1      41.762  28.698  35.305  1.00  0.00     0.117 C 
ATOM     19  C   UNL A   1      43.049  27.213  33.902  1.00  0.00     0.003 C 
ATOM     20  C   UNL A   1      42.319  27.284  35.240  1.00  0.00     0.032 C 
BRANCH  18  21
ATOM     21  O   UNL A   1      40.675  28.796  36.200  1.00  0.00    -0.393 OA
ATOM     22  H   UNL A   1      39.861  28.516  35.753  1.00  0.00     0.210 HD
ENDBRANCH  18  21
ENDBRANCH  15  16
ENDBRANCH  14  15
ENDBRANCH   6   8
ENDBRANCH   3   6
ENDBRANCH   1   2
BRANCH   1  23
ATOM     23  C   UNL A   1      34.754  33.428  29.758  1.00  0.00     0.042 C 
BRANCH  23  24
ATOM     24  C   UNL A   1      34.634  33.162  28.259  1.00  0.00     0.118 C 
BRANCH  24  25
ATOM     25  N   UNL A   1      33.773  32.028  27.962  1.00  0.00    -0.352 N 
ATOM     26  C   UNL A   1      34.085  30.707  27.774  1.00  0.00     0.251 C 
ATOM     27  H   UNL A   1      32.815  32.244  27.883  1.00  0.00     0.163 HD
ATOM     28  O   UNL A   1      33.233  29.940  27.325  1.00  0.00    -0.269 OA
BRANCH  26  29
ATOM     29  C   UNL A   1      35.440  30.195  28.076  1.00  0.00     0.039 A 
ATOM     30  C   UNL A   1      36.410  30.231  27.071  1.00  0.00     0.014 A 
ATOM     31  C   UNL A   1      35.756  29.664  29.330  1.00  0.00     0.014 A 
ATOM     32  C   UNL A   1      37.716  29.822  27.348  1.00  0.00     0.010 A 
ATOM     33  C   UNL A   1      37.075  29.318  29.626  1.00  0.00     0.010 A 
ATOM     34  C   UNL A   1      38.072  29.412  28.642  1.00  0.00    -0.014 A 
BRANCH  34  35
ATOM     35  C   UNL A   1      39.492  29.152  29.001  1.00  0.00     0.031 A 
ATOM     36  C   UNL A   1      40.306  30.187  29.724  1.00  0.00     0.074 A 
ATOM     37  C   UNL A   1      40.066  28.000  28.597  1.00  0.00     0.049 A 
ATOM     38  N   UNL A   1      41.578  30.163  30.039  1.00  0.00    -0.248 NA
ATOM     39  C   UNL A   1      39.611  31.416  30.134  1.00  0.00     0.031 C 
ATOM     40  C   UNL A   1      39.391  26.936  27.850  1.00  0.00     0.029 A 
ATOM     41  N   UNL A   1      41.352  27.536  28.739  1.00  0.00    -0.354 N 
ATOM     42  C   UNL A   1      41.836  31.373  30.668  1.00  0.00     0.074 A 
ATOM     43  C   UNL A   1      40.599  32.125  30.663  1.00  0.00     0.031 C 
ATOM     44  C   UNL A   1      40.262  25.945  27.607  1.00  0.00     0.029 A 
ATOM     45  C   UNL A   1      41.569  26.322  28.134  1.00  0.00     0.049 A 
ATOM     46  H   UNL A   1      42.051  28.029  29.227  1.00  0.00     0.167 HD
ATOM     47  C   UNL A   1      42.999  31.808  31.210  1.00  0.00     0.037 A 
ATOM     48  C   UNL A   1      42.745  27.957  28.487  1.00  0.00     0.037 A 
ATOM     49  C   UNL A   1      44.221  31.045  31.235  1.00  0.00     0.049 A 
ATOM     50  C   UNL A   1      43.849  28.778  29.101  1.00  0.00     0.074 A 
ATOM     51  C   UNL A   1      45.422  31.366  31.843  1.00  0.00     0.029 A 
ATOM     52  N   UNL A   1      44.402  29.818  30.615  1.00  0.00    -0.354 N 
ATOM     53  N   UNL A   1      43.764  29.868  29.824  1.00  0.00    -0.248 NA
ATOM     54  C   UNL A   1      45.189  25.319  28.380  1.00  0.00     0.031 C 
ATOM     55  C   UNL A   1      46.350  30.367  31.535  1.00  0.00     0.029 A 
ATOM     56  C   UNL A   1      45.710  29.393  30.786  1.00  0.00     0.049 A 
ATOM     57  H   UNL A   1      43.705  29.323  30.127  1.00  0.00     0.167 HD
ATOM     58  C   UNL A   1      45.070  30.208  30.153  1.00  0.00     0.074 A 
ATOM     59  C   UNL A   1      46.097  26.011  29.053  1.00  0.00     0.031 C 
ATOM     60  C   UNL A   1      46.253  28.171  30.252  1.00  0.00     0.037 A 
BRANCH  47  61
ATOM     61  C   UNL A   1      43.030  33.176  31.828  1.00  0.00     0.064 A 
ATOM     62  C   UNL A   1      43.248  34.327  31.058  1.00  0.00     0.173 A 
ATOM     63  C   UNL A   1      42.729  33.342  33.189  1.00  0.00     0.173 A 
ATOM     64  F   UNL A   1      43.543  34.222  29.755  1.00  0.00    -0.203 F 
ATOM     65  C   UNL A   1      43.168  35.595  31.630  1.00  0.00     0.198 A 
ATOM     66  C   UNL A   1      42.625  34.613  33.751  1.00  0.00     0.198 A 
ATOM     67  F   UNL A   1      42.504  32.274  33.968  1.00  0.00    -0.203 F 
ATOM     68  F   UNL A   1      43.400  36.682  30.880  1.00  0.00    -0.200 F 
ATOM     69  C   UNL A   1      42.846  35.737  32.971  1.00  0.00     0.200 A 
ATOM     70  F   UNL A   1      42.296  34.748  35.043  1.00  0.00    -0.200 F 
ATOM     71  F   UNL A   1      42.744  36.959  33.512  1.00  0.00    -0.200 F 
ENDBRANCH  47  61
BRANCH  48  72
ATOM     72  C   UNL A   1      42.689  24.316  27.246  1.00  0.00     0.064 A 
ATOM     73  C   UNL A   1      42.445  23.104  27.907  1.00  0.00     0.173 A 
ATOM     74  C   UNL A   1      43.109  24.254  25.909  1.00  0.00     0.173 A 
ATOM     75  F   UNL A   1      42.063  23.107  29.192  1.00  0.00    -0.203 F 
ATOM     76  C   UNL A   1      42.653  21.882  27.270  1.00  0.00     0.198 A 
ATOM     77  C   UNL A   1      43.281  23.033  25.262  1.00  0.00     0.198 A 
ATOM     78  F   UNL A   1      43.353  25.384  25.227  1.00  0.00    -0.203 F 
ATOM     79  F   UNL A   1      42.480  20.738  27.948  1.00  0.00    -0.200 F 
ATOM     80  C   UNL A   1      43.067  21.846  25.947  1.00  0.00     0.200 A 
ATOM     81  F   UNL A   1      43.664  23.005  23.978  1.00  0.00    -0.200 F 
ATOM     82  F   UNL A   1      43.275  20.672  25.338  1.00  0.00    -0.200 F 
ENDBRANCH  48  72
BRANCH  60  83
ATOM     83  C   UNL A   1      47.716  27.904  30.460  1.00  0.00     0.064 A 
ATOM     84  C   UNL A   1      48.174  26.661  30.924  1.00  0.00     0.173 A 
ATOM     85  C   UNL A   1      47.801  28.119  26.654  1.00  0.00     0.173 A 
ATOM     86  F   UNL A   1      47.299  25.697  31.246  1.00  0.00    -0.203 F 
ATOM     87  C   UNL A   1      48.512  25.467  27.062  1.00  0.00     0.198 A 
ATOM     88  C   UNL A   1      49.117  27.710  26.453  1.00  0.00     0.198 A 
ATOM     89  F   UNL A   1      47.490  29.408  26.450  1.00  0.00    -0.203 F 
ATOM     90  F   UNL A   1      48.859  24.194  27.295  1.00  0.00    -0.200 F 
ATOM     91  C   UNL A   1      49.472  26.386  26.663  1.00  0.00     0.200 A 
ATOM     92  F   UNL A   1      50.039  28.595  26.053  1.00  0.00    -0.200 F 
ATOM     93  F   UNL A   1      50.741  25.995  26.486  1.00  0.00    -0.200 F 
ENDBRANCH  60  83
ENDBRANCH  34  35
ENDBRANCH  26  29
ENDBRANCH  24  25
ENDBRANCH  23  24
ENDBRANCH   1  23
TORSDOF 14
ENDMDL
MODEL 3
REMARK VINA RESULT:     -12.5      4.003     10.208
REMARK SMILES C[C@@H](C(=O)NCCCNC(=O)c1ccc(-c2c3nc(c(-c4c(F)c(F)c(F)c(F)c4F)c4ccc([nH]4)c(-c4c(F)c(F)c(F)c(F)c4F)c4nc(c(-c5c(F)c(F)c(F)c(F)c5F)c5ccc2[nH]5)C=C4)C=C3)cc1)c1ccc(C[C@@H]2CCC[C@@H]2O)cc1Br
REMARK SMILES IDX 6 1 5 2 3 3 4 4 2 6 1 7 75 8 76 9 87 10 77 11 86 12 88 13
REMARK SMILES IDX 78 14 79 15 80 16 81 17 84 18 82 19 83 20 85 21 7 23 8 24
REMARK SMILES IDX 9 25 10 26 11 28 12 29 13 30 74 31 14 32 73 33 15 34 16 35
REMARK SMILES IDX 17 36 67 37 18 38 72 39 66 40 68 41 19 42 71 43 65 44 64 45
REMARK SMILES IDX 20 47 52 48 32 49 51 50 33 51 36 52 50 53 69 54 34 55 35 56
REMARK SMILES IDX 49 58 70 59 37 60 21 61 22 62 30 63 23 64 24 65 28 66 31 67
REMARK SMILES IDX 25 68 26 69 29 70 27 71 53 72 54 73 62 74 55 75 56 76 60 77
REMARK SMILES IDX 63 78 57 79 58 80 61 81 59 82 38 83 39 84 47 85 40 86 41 87
REMARK SMILES IDX 45 88 48 89 42 90 43 91 46 92 44 93
REMARK H PARENT 5 5 85 22 9 27 68 46 36 57
REMARK Flexibility Score: inf
ROOT
ATOM      1  C   UNL A   1      31.642  30.823  25.787  1.00  0.00     0.117 C 
ENDROOT
BRANCH   1   2
ATOM      2  N   UNL A   1      32.830  30.067  26.143  1.00  0.00    -0.356 N 
ATOM      3  C   UNL A   1      32.989  28.749  26.469  1.00  0.00     0.227 C 
ATOM      4  O   UNL A   1      34.072  28.448  26.975  1.00  0.00    -0.274 OA
ATOM      5  H   UNL A   1      33.662  30.593  26.149  1.00  0.00     0.163 HD
BRANCH   3   6
ATOM      6  C   UNL A   1      31.886  27.712  26.147  1.00  0.00     0.106 C 
ATOM      7  C   UNL A   1      31.761  27.805  27.634  1.00  0.00     0.023 C 
BRANCH   6   8
ATOM      8  C   UNL A   1      32.426  26.523  25.323  1.00  0.00    -0.022 A 
ATOM      9  C   UNL A   1      32.120  25.238  25.844  1.00  0.00     0.006 A 
ATOM     10  C   UNL A   1      33.216  26.544  24.156  1.00  0.00     0.022 A 
ATOM     11  C   UNL A   1      32.566  24.051  25.251  1.00  0.00     0.004 A 
ATOM     12  C   UNL A   1      33.704  25.346  23.601  1.00  0.00     0.019 A 
ATOM     13  Br  UNL A   1      33.744  28.072  23.152  1.00  0.00    -0.051 Br
ATOM     14  C   UNL A   1      33.408  24.095  24.147  1.00  0.00    -0.047 A 
BRANCH  14  15
ATOM     15  C   UNL A   1      34.012  22.853  23.545  1.00  0.00     0.041 C 
BRANCH  15  16
ATOM     16  C   UNL A   1      35.192  22.188  24.288  1.00  0.00     0.022 C 
ATOM     17  C   UNL A   1      35.189  22.408  25.806  1.00  0.00     0.007 C 
ATOM     18  C   UNL A   1      36.615  22.599  23.890  1.00  0.00     0.117 C 
ATOM     19  C   UNL A   1      36.225  23.496  26.098  1.00  0.00     0.003 C 
ATOM     20  C   UNL A   1      36.945  23.785  24.784  1.00  0.00     0.032 C 
BRANCH  18  21
ATOM     21  O   UNL A   1      36.768  22.912  22.522  1.00  0.00    -0.393 OA
ATOM     22  H   UNL A   1      37.263  22.203  22.081  1.00  0.00     0.210 HD
ENDBRANCH  18  21
ENDBRANCH  15  16
ENDBRANCH  14  15
ENDBRANCH   6   8
ENDBRANCH   3   6
ENDBRANCH   1   2
BRANCH   1  23
ATOM     23  C   UNL A   1      31.378  31.938  26.805  1.00  0.00     0.042 C 
BRANCH  23  24
ATOM     24  C   UNL A   1      32.635  32.677  27.260  1.00  0.00     0.118 C 
BRANCH  24  25
ATOM     25  N   UNL A   1      32.368  34.061  27.617  1.00  0.00    -0.352 N 
ATOM     26  C   UNL A   1      32.981  34.870  28.539  1.00  0.00     0.251 C 
ATOM     27  H   UNL A   1      31.630  34.484  27.119  1.00  0.00     0.163 HD
ATOM     28  O   UNL A   1      32.467  35.949  28.837  1.00  0.00    -0.269 OA
BRANCH  26  29
ATOM     29  C   UNL A   1      34.236  34.452  29.202  1.00  0.00     0.039 A 
ATOM     30  C   UNL A   1      34.158  33.821  30.446  1.00  0.00     0.014 A 
ATOM     31  C   UNL A   1      35.484  34.693  28.619  1.00  0.00     0.014 A 
ATOM     32  C   UNL A   1      35.321  33.351  31.063  1.00  0.00     0.010 A 
ATOM     33  C   UNL A   1      36.637  34.165  29.202  1.00  0.00     0.010 A 
ATOM     34  C   UNL A   1      36.564  33.473  30.421  1.00  0.00    -0.014 A 
BRANCH  34  35
ATOM     35  C   UNL A   1      37.779  32.816  30.973  1.00  0.00     0.031 A 
ATOM     36  C   UNL A   1      38.338  31.573  30.341  1.00  0.00     0.074 A 
ATOM     37  C   UNL A   1      38.330  33.308  32.101  1.00  0.00     0.049 A 
ATOM     38  N   UNL A   1      39.335  30.823  30.739  1.00  0.00    -0.248 NA
ATOM     39  C   UNL A   1      37.685  31.097  29.112  1.00  0.00     0.031 C 
ATOM     40  C   UNL A   1      37.852  34.484  32.832  1.00  0.00     0.029 A 
ATOM     41  N   UNL A   1      39.401  32.873  32.844  1.00  0.00    -0.354 N 
ATOM     42  C   UNL A   1      39.420  29.784  29.821  1.00  0.00     0.074 A 
ATOM     43  C   UNL A   1      38.352  29.979  28.863  1.00  0.00     0.031 C 
ATOM     44  C   UNL A   1      38.627  34.681  33.909  1.00  0.00     0.029 A 
ATOM     45  C   UNL A   1      39.625  33.619  33.977  1.00  0.00     0.049 A 
ATOM     46  H   UNL A   1      39.954  32.099  32.589  1.00  0.00     0.167 HD
ATOM     47  C   UNL A   1      40.315  28.769  29.780  1.00  0.00     0.037 A 
ATOM     48  C   UNL A   1      39.906  31.650  33.501  1.00  0.00     0.037 A 
ATOM     49  C   UNL A   1      41.391  28.595  30.722  1.00  0.00     0.049 A 
ATOM     50  C   UNL A   1      40.655  30.380  33.191  1.00  0.00     0.074 A 
ATOM     51  C   UNL A   1      42.403  27.650  30.706  1.00  0.00     0.029 A 
ATOM     52  N   UNL A   1      41.588  29.371  31.853  1.00  0.00    -0.354 N 
ATOM     53  N   UNL A   1      40.644  29.659  32.098  1.00  0.00    -0.248 NA
ATOM     54  C   UNL A   1      42.411  32.144  36.035  1.00  0.00     0.031 C 
ATOM     55  C   UNL A   1      43.172  27.811  31.862  1.00  0.00     0.029 A 
ATOM     56  C   UNL A   1      42.677  28.895  32.568  1.00  0.00     0.049 A 
ATOM     57  H   UNL A   1      41.037  30.145  32.110  1.00  0.00     0.167 HD
ATOM     58  C   UNL A   1      41.521  28.607  32.326  1.00  0.00     0.074 A 
ATOM     59  C   UNL A   1      43.134  31.103  35.650  1.00  0.00     0.031 C 
ATOM     60  C   UNL A   1      43.150  29.448  33.809  1.00  0.00     0.037 A 
BRANCH  47  61
ATOM     61  C   UNL A   1      40.188  27.751  28.684  1.00  0.00     0.064 A 
ATOM     62  C   UNL A   1      40.863  27.894  27.464  1.00  0.00     0.173 A 
ATOM     63  C   UNL A   1      39.468  26.566  28.903  1.00  0.00     0.173 A 
ATOM     64  F   UNL A   1      41.560  29.010  27.204  1.00  0.00    -0.203 F 
ATOM     65  C   UNL A   1      40.818  26.890  26.500  1.00  0.00     0.198 A 
ATOM     66  C   UNL A   1      39.448  25.552  27.946  1.00  0.00     0.198 A 
ATOM     67  F   UNL A   1      38.812  26.375  30.056  1.00  0.00    -0.203 F 
ATOM     68  F   UNL A   1      41.454  27.057  25.331  1.00  0.00    -0.200 F 
ATOM     69  C   UNL A   1      40.121  25.717  26.746  1.00  0.00     0.200 A 
ATOM     70  F   UNL A   1      38.788  24.412  28.194  1.00  0.00    -0.200 F 
ATOM     71  F   UNL A   1      40.101  24.741  25.827  1.00  0.00    -0.200 F 
ENDBRANCH  47  61
BRANCH  48  72
ATOM     72  C   UNL A   1      40.533  34.383  36.134  1.00  0.00     0.064 A 
ATOM     73  C   UNL A   1      41.447  35.445  36.184  1.00  0.00     0.173 A 
ATOM     74  C   UNL A   1      39.751  34.145  37.274  1.00  0.00     0.173 A 
ATOM     75  F   UNL A   1      42.234  35.701  35.129  1.00  0.00    -0.203 F 
ATOM     76  C   UNL A   1      41.600  36.210  37.339  1.00  0.00     0.198 A 
ATOM     77  C   UNL A   1      39.878  34.933  38.416  1.00  0.00     0.198 A 
ATOM     78  F   UNL A   1      38.857  33.144  37.280  1.00  0.00    -0.203 F 
ATOM     79  F   UNL A   1      42.531  37.173  37.382  1.00  0.00    -0.200 F 
ATOM     80  C   UNL A   1      40.814  35.956  38.453  1.00  0.00     0.200 A 
ATOM     81  F   UNL A   1      39.104  34.695  39.482  1.00  0.00    -0.200 F 
ATOM     82  F   UNL A   1      40.967  36.686  39.565  1.00  0.00    -0.200 F 
ENDBRANCH  48  72
BRANCH  60  83
ATOM     83  C   UNL A   1      44.292  28.756  34.495  1.00  0.00     0.064 A 
ATOM     84  C   UNL A   1      44.231  27.394  34.825  1.00  0.00     0.173 A 
ATOM     85  C   UNL A   1      46.018  29.330  31.143  1.00  0.00     0.173 A 
ATOM     86  F   UNL A   1      43.116  26.690  34.581  1.00  0.00    -0.203 F 
ATOM     87  C   UNL A   1      45.897  26.558  31.223  1.00  0.00     0.198 A 
ATOM     88  C   UNL A   1      47.172  28.587  31.375  1.00  0.00     0.198 A 
ATOM     89  F   UNL A   1      46.109  30.668  31.113  1.00  0.00    -0.203 F 
ATOM     90  F   UNL A   1      45.829  25.221  31.296  1.00  0.00    -0.200 F 
ATOM     91  C   UNL A   1      47.109  27.202  31.420  1.00  0.00     0.200 A 
ATOM     92  F   UNL A   1      48.345  29.210  31.550  1.00  0.00    -0.200 F 
ATOM     93  F   UNL A   1      48.217  26.487  31.660  1.00  0.00    -0.200 F 
ENDBRANCH  60  83
ENDBRANCH  34  35
ENDBRANCH  26  29
ENDBRANCH  24  25
ENDBRANCH  23  24
ENDBRANCH   1  23
TORSDOF 14
ENDMDL
