MODEL 1
REMARK VINA RESULT:     -12.6      0.000      0.000
REMARK SMILES O=C(NCCCNC(=O)c1ccccc1NC[C@@H]1C[N@@H+]2CCC[C@@H]2CO1)c1ccc(-c2c3nc(c(-c4c(F)c(F)c(F)c(F)c4F)c4ccc([nH]4)c(-c4c(F)c(F)c(F)c(F)c4F)c4nc(c(-c5c(F)c(F)c(F)c(F)c5F)c5ccc2[nH]5)C=C4)C=C3)cc1
REMARK SMILES IDX 5 1 4 2 3 3 1 4 2 5 27 7 28 8 89 9 29 10 88 11 30 12 31 13
REMARK SMILES IDX 32 14 82 15 33 16 87 17 81 18 83 19 34 20 86 21 80 22 79 23
REMARK SMILES IDX 35 25 67 26 47 27 66 28 48 29 51 30 65 31 84 32 49 33 50 34
REMARK SMILES IDX 64 36 85 37 52 38 36 39 37 40 45 41 38 42 39 43 43 44 46 45
REMARK SMILES IDX 40 46 41 47 44 48 42 49 68 50 69 51 77 52 70 53 71 54 75 55
REMARK SMILES IDX 78 56 72 57 73 58 76 59 74 60 53 61 54 62 62 63 55 64 56 65
REMARK SMILES IDX 60 66 63 67 57 68 58 69 61 70 59 71 6 72 7 73 8 74 9 76
REMARK SMILES IDX 10 77 11 78 15 79 12 80 14 81 13 82 16 83 17 85 18 86 19 87
REMARK SMILES IDX 26 88 20 89 25 90 21 91 24 92 22 94 23 95
REMARK H PARENT 3 6 83 24 51 35 7 75 16 84 20 93
REMARK Flexibility Score: inf
ROOT
ATOM      1  C   UNL A   1      37.714  19.642  25.004  1.00  0.00     0.042 C 
ENDROOT
BRANCH   1   2
ATOM      2  C   UNL A   1      38.960  20.188  25.680  1.00  0.00     0.118 C 
BRANCH   2   3
ATOM      3  N   UNL A   1      40.025  19.200  25.824  1.00  0.00    -0.352 N 
ATOM      4  O   UNL A   1      42.118  18.391  26.051  1.00  0.00    -0.269 OA
ATOM      5  C   UNL A   1      41.362  19.358  26.098  1.00  0.00     0.251 C 
ATOM      6  H   UNL A   1      39.737  18.265  25.706  1.00  0.00     0.163 HD
BRANCH   5   7
ATOM      7  C   UNL A   1      41.903  20.696  26.416  1.00  0.00     0.039 A 
ATOM      8  C   UNL A   1      42.190  21.058  27.731  1.00  0.00     0.014 A 
ATOM      9  C   UNL A   1      42.125  21.609  25.379  1.00  0.00     0.014 A 
ATOM     10  C   UNL A   1      42.498  22.377  28.032  1.00  0.00     0.010 A 
ATOM     11  C   UNL A   1      42.556  22.906  25.673  1.00  0.00     0.010 A 
ATOM     12  C   UNL A   1      42.705  23.314  27.007  1.00  0.00    -0.014 A 
BRANCH  12  13
ATOM     13  C   UNL A   1      43.140  24.687  27.368  1.00  0.00     0.031 A 
ATOM     14  C   UNL A   1      44.535  25.167  27.084  1.00  0.00     0.074 A 
ATOM     15  C   UNL A   1      42.235  25.520  27.918  1.00  0.00     0.049 A 
ATOM     16  N   UNL A   1      45.064  26.343  27.316  1.00  0.00    -0.248 NA
ATOM     17  C   UNL A   1      45.463  24.206  26.470  1.00  0.00     0.031 C 
ATOM     18  C   UNL A   1      40.854  25.158  28.249  1.00  0.00     0.029 A 
ATOM     19  N   UNL A   1      42.324  26.841  28.271  1.00  0.00    -0.354 N 
ATOM     20  C   UNL A   1      46.386  26.256  26.904  1.00  0.00     0.074 A 
ATOM     21  C   UNL A   1      46.589  24.906  26.425  1.00  0.00     0.031 C 
ATOM     22  C   UNL A   1      40.209  26.244  28.694  1.00  0.00     0.029 A 
ATOM     23  C   UNL A   1      41.147  27.358  28.752  1.00  0.00     0.049 A 
ATOM     24  H   UNL A   1      43.151  27.369  28.187  1.00  0.00     0.167 HD
ATOM     25  C   UNL A   1      47.339  27.219  26.920  1.00  0.00     0.037 A 
ATOM     26  C   UNL A   1      40.855  28.589  29.210  1.00  0.00     0.037 A 
ATOM     27  C   UNL A   1      47.121  28.570  27.376  1.00  0.00     0.049 A 
ATOM     28  C   UNL A   1      41.934  29.630  29.225  1.00  0.00     0.074 A 
ATOM     29  C   UNL A   1      48.011  29.630  27.394  1.00  0.00     0.029 A 
ATOM     30  N   UNL A   1      45.924  29.046  27.893  1.00  0.00    -0.354 N 
ATOM     31  N   UNL A   1      43.174  29.539  28.814  1.00  0.00    -0.248 NA
ATOM     32  C   UNL A   1      41.574  30.942  29.779  1.00  0.00     0.031 C 
ATOM     33  C   UNL A   1      47.367  30.734  27.963  1.00  0.00     0.029 A 
ATOM     34  C   UNL A   1      46.061  30.377  28.256  1.00  0.00     0.049 A 
ATOM     35  H   UNL A   1      45.100  28.517  27.988  1.00  0.00     0.167 HD
ATOM     36  C   UNL A   1      43.744  30.781  29.052  1.00  0.00     0.074 A 
ATOM     37  C   UNL A   1      42.705  31.616  29.618  1.00  0.00     0.031 C 
ATOM     38  C   UNL A   1      45.017  31.189  28.826  1.00  0.00     0.037 A 
BRANCH  25  39
ATOM     39  C   UNL A   1      48.717  26.849  26.450  1.00  0.00     0.064 A 
ATOM     40  C   UNL A   1      49.673  26.304  27.320  1.00  0.00     0.173 A 
ATOM     41  C   UNL A   1      49.068  26.996  25.099  1.00  0.00     0.173 A 
ATOM     42  F   UNL A   1      49.392  26.151  28.623  1.00  0.00    -0.203 F 
ATOM     43  C   UNL A   1      50.937  25.941  26.859  1.00  0.00     0.198 A 
ATOM     44  C   UNL A   1      50.323  26.608  24.637  1.00  0.00     0.198 A 
ATOM     45  F   UNL A   1      48.189  27.506  24.224  1.00  0.00    -0.203 F 
ATOM     46  F   UNL A   1      51.848  25.457  27.715  1.00  0.00    -0.200 F 
ATOM     47  C   UNL A   1      51.258  26.087  25.517  1.00  0.00     0.200 A 
ATOM     48  F   UNL A   1      50.628  26.738  23.338  1.00  0.00    -0.200 F 
ATOM     49  F   UNL A   1      52.471  25.729  25.074  1.00  0.00    -0.200 F 
ENDBRANCH  25  39
BRANCH  26  50
ATOM     50  C   UNL A   1      39.484  28.884  29.694  1.00  0.00     0.064 A 
ATOM     51  C   UNL A   1      39.122  28.642  31.025  1.00  0.00     0.173 A 
ATOM     52  C   UNL A   1      38.519  29.446  28.845  1.00  0.00     0.173 A 
ATOM     53  F   UNL A   1      40.004  28.090  31.870  1.00  0.00    -0.203 F 
ATOM     54  C   UNL A   1      37.842  28.944  31.488  1.00  0.00     0.198 A 
ATOM     55  C   UNL A   1      37.251  29.776  29.316  1.00  0.00     0.198 A 
ATOM     56  F   UNL A   1      38.820  29.704  27.563  1.00  0.00    -0.203 F 
ATOM     57  F   UNL A   1      37.510  28.672  32.756  1.00  0.00    -0.200 F 
ATOM     58  C   UNL A   1      36.911  29.519  30.635  1.00  0.00     0.200 A 
ATOM     59  F   UNL A   1      36.360  30.348  28.493  1.00  0.00    -0.200 F 
ATOM     60  F   UNL A   1      35.685  29.822  31.084  1.00  0.00    -0.200 F 
ENDBRANCH  26  50
BRANCH  38  61
ATOM     61  C   UNL A   1      45.345  32.607  29.186  1.00  0.00     0.064 A 
ATOM     62  C   UNL A   1      45.864  32.941  30.446  1.00  0.00     0.173 A 
ATOM     63  C   UNL A   1      45.156  33.639  28.256  1.00  0.00     0.173 A 
ATOM     64  F   UNL A   1      46.043  31.990  31.374  1.00  0.00    -0.203 F 
ATOM     65  C   UNL A   1      46.156  34.262  30.770  1.00  0.00     0.198 A 
ATOM     66  C   UNL A   1      45.475  34.956  28.574  1.00  0.00     0.198 A 
ATOM     67  F   UNL A   1      44.665  33.370  27.036  1.00  0.00    -0.203 F 
ATOM     68  F   UNL A   1      46.605  34.565  31.996  1.00  0.00    -0.200 F 
ATOM     69  C   UNL A   1      45.968  35.267  29.833  1.00  0.00     0.200 A 
ATOM     70  F   UNL A   1      45.301  35.925  27.664  1.00  0.00    -0.200 F 
ATOM     71  F   UNL A   1      46.251  36.539  30.146  1.00  0.00    -0.200 F 
ENDBRANCH  38  61
ENDBRANCH  12  13
ENDBRANCH   5   7
ENDBRANCH   2   3
ENDBRANCH   1   2
BRANCH   1  72
ATOM     72  C   UNL A   1      36.695  20.705  24.648  1.00  0.00     0.118 C 
BRANCH  72  73
ATOM     73  N   UNL A   1      35.768  21.014  25.719  1.00  0.00    -0.352 N 
ATOM     74  C   UNL A   1      34.451  20.653  25.844  1.00  0.00     0.253 C 
ATOM     75  H   UNL A   1      36.133  21.554  26.456  1.00  0.00     0.163 HD
ATOM     76  O   UNL A   1      33.813  21.031  26.824  1.00  0.00    -0.269 OA
BRANCH  74  77
ATOM     77  C   UNL A   1      33.775  19.888  24.771  1.00  0.00     0.062 A 
ATOM     78  C   UNL A   1      34.211  18.555  24.649  1.00  0.00     0.016 A 
ATOM     79  C   UNL A   1      32.770  20.424  23.924  1.00  0.00     0.047 A 
ATOM     80  C   UNL A   1      33.637  17.713  23.706  1.00  0.00     0.001 A 
ATOM     81  C   UNL A   1      32.204  19.534  22.996  1.00  0.00     0.026 A 
ATOM     82  C   UNL A   1      32.629  18.202  22.886  1.00  0.00     0.002 A 
BRANCH  79  83
ATOM     83  N   UNL A   1      32.377  21.757  23.989  1.00  0.00    -0.382 N 
ATOM     84  H   UNL A   1      32.224  22.131  24.885  1.00  0.00     0.160 HD
BRANCH  83  85
ATOM     85  C   UNL A   1      32.170  22.659  22.847  1.00  0.00     0.151 C 
BRANCH  85  86
ATOM     86  C   UNL A   1      33.496  23.336  22.421  1.00  0.00     0.192 C 
ATOM     87  C   UNL A   1      34.457  23.639  23.592  1.00  0.00     0.296 C 
ATOM     88  O   UNL A   1      33.283  24.504  21.600  1.00  0.00    -0.364 OA
ATOM     89  N   UNL A   1      34.349  24.931  24.248  1.00  0.00    -0.328 N 
ATOM     90  C   UNL A   1      32.808  25.627  22.347  1.00  0.00     0.225 C 
ATOM     91  C   UNL A   1      33.851  24.976  25.606  1.00  0.00     0.262 C 
ATOM     92  C   UNL A   1      33.784  26.030  23.459  1.00  0.00     0.210 C 
ATOM     93  H   UNL A   1      35.352  25.098  24.324  1.00  0.00     0.348 HD
ATOM     94  C   UNL A   1      33.696  26.472  25.824  1.00  0.00     0.068 C 
ATOM     95  C   UNL A   1      33.129  26.949  24.496  1.00  0.00     0.073 C 
ENDBRANCH  85  86
ENDBRANCH  83  85
ENDBRANCH  79  83
ENDBRANCH  74  77
ENDBRANCH  72  73
ENDBRANCH   1  72
TORSDOF 13
ENDMDL
MODEL 2
REMARK VINA RESULT:     -12.5      0.085      1.595
REMARK SMILES O=C(NCCCNC(=O)c1ccccc1NC[C@@H]1C[N@@H+]2CCC[C@@H]2CO1)c1ccc(-c2c3nc(c(-c4c(F)c(F)c(F)c(F)c4F)c4ccc([nH]4)c(-c4c(F)c(F)c(F)c(F)c4F)c4nc(c(-c5c(F)c(F)c(F)c(F)c5F)c5ccc2[nH]5)C=C4)C=C3)cc1
REMARK SMILES IDX 5 1 4 2 3 3 1 4 2 5 27 7 28 8 89 9 29 10 88 11 30 12 31 13
REMARK SMILES IDX 32 14 82 15 33 16 87 17 81 18 83 19 34 20 86 21 80 22 79 23
REMARK SMILES IDX 35 25 67 26 47 27 66 28 48 29 51 30 65 31 84 32 49 33 50 34
REMARK SMILES IDX 64 36 85 37 52 38 36 39 37 40 45 41 38 42 39 43 43 44 46 45
REMARK SMILES IDX 40 46 41 47 44 48 42 49 68 50 69 51 77 52 70 53 71 54 75 55
REMARK SMILES IDX 78 56 72 57 73 58 76 59 74 60 53 61 54 62 62 63 55 64 56 65
REMARK SMILES IDX 60 66 63 67 57 68 58 69 61 70 59 71 6 72 7 73 8 74 9 76
REMARK SMILES IDX 10 77 11 78 15 79 12 80 14 81 13 82 16 83 17 85 18 86 19 87
REMARK SMILES IDX 26 88 20 89 25 90 21 91 24 92 22 94 23 95
REMARK H PARENT 3 6 83 24 51 35 7 75 16 84 20 93
REMARK Flexibility Score: inf
ROOT
ATOM      1  C   UNL A   1      37.781  19.664  25.004  1.00  0.00     0.042 C 
ENDROOT
BRANCH   1   2
ATOM      2  C   UNL A   1      39.011  20.188  25.723  1.00  0.00     0.118 C 
BRANCH   2   3
ATOM      3  N   UNL A   1      40.083  19.204  25.838  1.00  0.00    -0.352 N 
ATOM      4  O   UNL A   1      42.184  18.402  26.016  1.00  0.00    -0.269 OA
ATOM      5  C   UNL A   1      41.425  19.365  26.085  1.00  0.00     0.251 C 
ATOM      6  H   UNL A   1      39.797  18.269  25.720  1.00  0.00     0.163 HD
BRANCH   5   7
ATOM      7  C   UNL A   1      41.968  20.704  26.401  1.00  0.00     0.039 A 
ATOM      8  C   UNL A   1      42.246  21.071  27.716  1.00  0.00     0.014 A 
ATOM      9  C   UNL A   1      42.199  21.611  25.362  1.00  0.00     0.014 A 
ATOM     10  C   UNL A   1      42.555  22.391  28.013  1.00  0.00     0.010 A 
ATOM     11  C   UNL A   1      42.632  22.908  25.652  1.00  0.00     0.010 A 
ATOM     12  C   UNL A   1      42.772  23.322  26.985  1.00  0.00    -0.014 A 
BRANCH  12  13
ATOM     13  C   UNL A   1      43.208  24.696  27.343  1.00  0.00     0.031 A 
ATOM     14  C   UNL A   1      44.603  25.174  27.057  1.00  0.00     0.074 A 
ATOM     15  C   UNL A   1      42.304  25.530  27.891  1.00  0.00     0.049 A 
ATOM     16  N   UNL A   1      45.133  26.351  27.286  1.00  0.00    -0.248 NA
ATOM     17  C   UNL A   1      45.530  24.211  26.445  1.00  0.00     0.031 C 
ATOM     18  C   UNL A   1      40.922  25.171  28.224  1.00  0.00     0.029 A 
ATOM     19  N   UNL A   1      42.394  26.853  28.241  1.00  0.00    -0.354 N 
ATOM     20  C   UNL A   1      46.455  26.262  26.873  1.00  0.00     0.074 A 
ATOM     21  C   UNL A   1      46.657  24.910  26.397  1.00  0.00     0.031 C 
ATOM     22  C   UNL A   1      40.278  26.258  28.666  1.00  0.00     0.029 A 
ATOM     23  C   UNL A   1      41.217  27.371  28.722  1.00  0.00     0.049 A 
ATOM     24  H   UNL A   1      43.221  27.379  28.156  1.00  0.00     0.167 HD
ATOM     25  C   UNL A   1      47.409  27.224  26.887  1.00  0.00     0.037 A 
ATOM     26  C   UNL A   1      40.926  28.604  29.177  1.00  0.00     0.037 A 
ATOM     27  C   UNL A   1      47.192  28.576  27.340  1.00  0.00     0.049 A 
ATOM     28  C   UNL A   1      42.006  29.644  29.190  1.00  0.00     0.074 A 
ATOM     29  C   UNL A   1      48.083  29.635  27.355  1.00  0.00     0.029 A 
ATOM     30  N   UNL A   1      45.995  29.054  27.856  1.00  0.00    -0.354 N 
ATOM     31  N   UNL A   1      43.246  29.551  28.777  1.00  0.00    -0.248 NA
ATOM     32  C   UNL A   1      41.648  30.957  29.740  1.00  0.00     0.031 C 
ATOM     33  C   UNL A   1      47.439  30.742  27.922  1.00  0.00     0.029 A 
ATOM     34  C   UNL A   1      46.133  30.386  28.217  1.00  0.00     0.049 A 
ATOM     35  H   UNL A   1      45.171  28.526  27.953  1.00  0.00     0.167 HD
ATOM     36  C   UNL A   1      43.817  30.793  29.012  1.00  0.00     0.074 A 
ATOM     37  C   UNL A   1      42.779  31.630  29.578  1.00  0.00     0.031 C 
ATOM     38  C   UNL A   1      45.090  31.200  28.785  1.00  0.00     0.037 A 
BRANCH  25  39
ATOM     39  C   UNL A   1      48.786  26.852  26.418  1.00  0.00     0.064 A 
ATOM     40  C   UNL A   1      49.745  26.317  27.290  1.00  0.00     0.173 A 
ATOM     41  C   UNL A   1      49.134  26.987  25.064  1.00  0.00     0.173 A 
ATOM     42  F   UNL A   1      49.467  26.176  28.595  1.00  0.00    -0.203 F 
ATOM     43  C   UNL A   1      51.008  25.951  26.829  1.00  0.00     0.198 A 
ATOM     44  C   UNL A   1      50.388  26.597  24.602  1.00  0.00     0.198 A 
ATOM     45  F   UNL A   1      48.251  27.487  24.186  1.00  0.00    -0.203 F 
ATOM     46  F   UNL A   1      51.922  25.478  27.688  1.00  0.00    -0.200 F 
ATOM     47  C   UNL A   1      51.326  26.086  25.486  1.00  0.00     0.200 A 
ATOM     48  F   UNL A   1      50.689  26.715  23.301  1.00  0.00    -0.200 F 
ATOM     49  F   UNL A   1      52.539  25.726  25.043  1.00  0.00    -0.200 F 
ENDBRANCH  25  39
BRANCH  26  50
ATOM     50  C   UNL A   1      39.556  28.900  29.661  1.00  0.00     0.064 A 
ATOM     51  C   UNL A   1      38.584  29.424  28.799  1.00  0.00     0.173 A 
ATOM     52  C   UNL A   1      39.180  28.635  30.986  1.00  0.00     0.173 A 
ATOM     53  F   UNL A   1      38.900  29.711  27.528  1.00  0.00    -0.203 F 
ATOM     54  C   UNL A   1      37.289  29.678  29.247  1.00  0.00     0.198 A 
ATOM     55  C   UNL A   1      37.879  28.860  31.425  1.00  0.00     0.198 A 
ATOM     56  F   UNL A   1      40.074  28.126  31.849  1.00  0.00    -0.203 F 
ATOM     57  F   UNL A   1      36.386  30.210  28.412  1.00  0.00    -0.200 F 
ATOM     58  C   UNL A   1      36.935  29.387  30.556  1.00  0.00     0.200 A 
ATOM     59  F   UNL A   1      37.536  28.560  32.685  1.00  0.00    -0.200 F 
ATOM     60  F   UNL A   1      35.685  29.618  30.982  1.00  0.00    -0.200 F 
ENDBRANCH  26  50
BRANCH  38  61
ATOM     61  C   UNL A   1      45.419  32.618  29.141  1.00  0.00     0.064 A 
ATOM     62  C   UNL A   1      45.224  33.666  28.229  1.00  0.00     0.173 A 
ATOM     63  C   UNL A   1      45.918  32.936  30.413  1.00  0.00     0.173 A 
ATOM     64  F   UNL A   1      44.767  33.409  26.995  1.00  0.00    -0.203 F 
ATOM     65  C   UNL A   1      45.543  34.977  28.569  1.00  0.00     0.198 A 
ATOM     66  C   UNL A   1      46.210  34.251  30.759  1.00  0.00     0.198 A 
ATOM     67  F   UNL A   1      46.119  31.968  31.321  1.00  0.00    -0.203 F 
ATOM     68  F   UNL A   1      45.394  35.956  27.666  1.00  0.00    -0.200 F 
ATOM     69  C   UNL A   1      46.029  35.269  29.835  1.00  0.00     0.200 A 
ATOM     70  F   UNL A   1      46.671  34.534  31.985  1.00  0.00    -0.200 F 
ATOM     71  F   UNL A   1      46.334  36.533  30.162  1.00  0.00    -0.200 F 
ENDBRANCH  38  61
ENDBRANCH  12  13
ENDBRANCH   5   7
ENDBRANCH   2   3
ENDBRANCH   1   2
BRANCH   1  72
ATOM     72  C   UNL A   1      36.775  20.739  24.649  1.00  0.00     0.118 C 
BRANCH  72  73
ATOM     73  N   UNL A   1      35.856  21.064  25.722  1.00  0.00    -0.352 N 
ATOM     74  C   UNL A   1      34.541  20.703  25.864  1.00  0.00     0.253 C 
ATOM     75  H   UNL A   1      36.227  21.617  26.447  1.00  0.00     0.163 HD
ATOM     76  O   UNL A   1      33.911  21.096  26.843  1.00  0.00    -0.269 OA
BRANCH  74  77
ATOM     77  C   UNL A   1      33.857  19.919  24.810  1.00  0.00     0.062 A 
ATOM     78  C   UNL A   1      34.289  18.583  24.712  1.00  0.00     0.016 A 
ATOM     79  C   UNL A   1      32.850  20.440  23.958  1.00  0.00     0.047 A 
ATOM     80  C   UNL A   1      33.708  17.724  23.789  1.00  0.00     0.001 A 
ATOM     81  C   UNL A   1      32.276  19.535  23.051  1.00  0.00     0.026 A 
ATOM     82  C   UNL A   1      32.697  18.199  22.965  1.00  0.00     0.002 A 
BRANCH  79  83
ATOM     83  N   UNL A   1      32.460  21.775  23.999  1.00  0.00    -0.382 N 
ATOM     84  H   UNL A   1      32.327  22.172  24.889  1.00  0.00     0.160 HD
BRANCH  83  85
ATOM     85  C   UNL A   1      32.229  22.649  22.840  1.00  0.00     0.151 C 
BRANCH  85  86
ATOM     86  C   UNL A   1      33.536  23.358  22.405  1.00  0.00     0.192 C 
ATOM     87  C   UNL A   1      34.504  23.672  23.568  1.00  0.00     0.296 C 
ATOM     88  O   UNL A   1      33.289  24.529  21.597  1.00  0.00    -0.364 OA
ATOM     89  N   UNL A   1      34.376  24.956  24.236  1.00  0.00    -0.328 N 
ATOM     90  C   UNL A   1      32.799  25.635  22.359  1.00  0.00     0.225 C 
ATOM     91  C   UNL A   1      33.892  24.978  25.600  1.00  0.00     0.262 C 
ATOM     92  C   UNL A   1      33.778  26.050  23.464  1.00  0.00     0.210 C 
ATOM     93  H   UNL A   1      35.376  25.143  24.303  1.00  0.00     0.348 HD
ATOM     94  C   UNL A   1      33.708  26.469  25.833  1.00  0.00     0.068 C 
ATOM     95  C   UNL A   1      33.116  26.945  24.516  1.00  0.00     0.073 C 
ENDBRANCH  85  86
ENDBRANCH  83  85
ENDBRANCH  79  83
ENDBRANCH  74  77
ENDBRANCH  72  73
ENDBRANCH   1  72
TORSDOF 13
ENDMDL
MODEL 3
REMARK VINA RESULT:     -12.5      5.366     10.933
REMARK SMILES O=C(NCCCNC(=O)c1ccccc1NC[C@@H]1C[N@@H+]2CCC[C@@H]2CO1)c1ccc(-c2c3nc(c(-c4c(F)c(F)c(F)c(F)c4F)c4ccc([nH]4)c(-c4c(F)c(F)c(F)c(F)c4F)c4nc(c(-c5c(F)c(F)c(F)c(F)c5F)c5ccc2[nH]5)C=C4)C=C3)cc1
REMARK SMILES IDX 5 1 4 2 3 3 1 4 2 5 27 7 28 8 89 9 29 10 88 11 30 12 31 13
REMARK SMILES IDX 32 14 82 15 33 16 87 17 81 18 83 19 34 20 86 21 80 22 79 23
REMARK SMILES IDX 35 25 67 26 47 27 66 28 48 29 51 30 65 31 84 32 49 33 50 34
REMARK SMILES IDX 64 36 85 37 52 38 36 39 37 40 45 41 38 42 39 43 43 44 46 45
REMARK SMILES IDX 40 46 41 47 44 48 42 49 68 50 69 51 77 52 70 53 71 54 75 55
REMARK SMILES IDX 78 56 72 57 73 58 76 59 74 60 53 61 54 62 62 63 55 64 56 65
REMARK SMILES IDX 60 66 63 67 57 68 58 69 61 70 59 71 6 72 7 73 8 74 9 76
REMARK SMILES IDX 10 77 11 78 15 79 12 80 14 81 13 82 16 83 17 85 18 86 19 87
REMARK SMILES IDX 26 88 20 89 25 90 21 91 24 92 22 94 23 95
REMARK H PARENT 3 6 83 24 51 35 7 75 16 84 20 93
REMARK Flexibility Score: inf
ROOT
ATOM      1  C   UNL A   1      31.353  31.845  26.348  1.00  0.00     0.042 C 
ENDROOT
BRANCH   1   2
ATOM      2  C   UNL A   1      32.551  32.413  27.087  1.00  0.00     0.118 C 
BRANCH   2   3
ATOM      3  N   UNL A   1      32.387  33.810  27.478  1.00  0.00    -0.352 N 
ATOM      4  O   UNL A   1      32.673  35.701  28.674  1.00  0.00    -0.269 OA
ATOM      5  C   UNL A   1      33.058  34.564  28.410  1.00  0.00     0.251 C 
ATOM      6  H   UNL A   1      31.679  34.292  26.991  1.00  0.00     0.163 HD
BRANCH   5   7
ATOM      7  C   UNL A   1      34.221  34.000  29.126  1.00  0.00     0.039 A 
ATOM      8  C   UNL A   1      35.510  34.469  28.877  1.00  0.00     0.014 A 
ATOM      9  C   UNL A   1      34.022  32.979  30.061  1.00  0.00     0.014 A 
ATOM     10  C   UNL A   1      36.603  33.792  29.398  1.00  0.00     0.010 A 
ATOM     11  C   UNL A   1      35.120  32.379  30.683  1.00  0.00     0.010 A 
ATOM     12  C   UNL A   1      36.424  32.752  30.324  1.00  0.00    -0.014 A 
BRANCH  12  13
ATOM     13  C   UNL A   1      37.621  32.127  30.941  1.00  0.00     0.031 A 
ATOM     14  C   UNL A   1      38.050  32.470  32.340  1.00  0.00     0.074 A 
ATOM     15  C   UNL A   1      38.295  31.200  30.233  1.00  0.00     0.049 A 
ATOM     16  N   UNL A   1      39.058  31.996  33.031  1.00  0.00    -0.248 NA
ATOM     17  C   UNL A   1      37.259  33.480  33.056  1.00  0.00     0.031 C 
ATOM     18  C   UNL A   1      37.975  30.795  28.861  1.00  0.00     0.029 A 
ATOM     19  N   UNL A   1      39.365  30.412  30.568  1.00  0.00    -0.354 N 
ATOM     20  C   UNL A   1      39.037  32.666  34.246  1.00  0.00     0.074 A 
ATOM     21  C   UNL A   1      37.930  33.596  34.194  1.00  0.00     0.031 C 
ATOM     22  C   UNL A   1      38.785  29.793  28.497  1.00  0.00     0.029 A 
ATOM     23  C   UNL A   1      39.730  29.536  29.577  1.00  0.00     0.049 A 
ATOM     24  H   UNL A   1      39.828  30.469  31.436  1.00  0.00     0.167 HD
ATOM     25  C   UNL A   1      39.865  32.512  35.308  1.00  0.00     0.037 A 
ATOM     26  C   UNL A   1      40.728  28.634  29.530  1.00  0.00     0.037 A 
ATOM     27  C   UNL A   1      40.951  31.565  35.360  1.00  0.00     0.049 A 
ATOM     28  C   UNL A   1      41.634  28.495  30.716  1.00  0.00     0.074 A 
ATOM     29  C   UNL A   1      41.821  31.305  36.405  1.00  0.00     0.029 A 
ATOM     30  N   UNL A   1      41.314  30.720  34.320  1.00  0.00    -0.354 N 
ATOM     31  N   UNL A   1      41.589  29.121  31.866  1.00  0.00    -0.248 NA
ATOM     32  C   UNL A   1      42.735  27.532  30.594  1.00  0.00     0.031 C 
ATOM     33  C   UNL A   1      42.738  30.335  35.982  1.00  0.00     0.029 A 
ATOM     34  C   UNL A   1      42.410  29.957  34.690  1.00  0.00     0.049 A 
ATOM     35  H   UNL A   1      40.860  30.671  33.449  1.00  0.00     0.167 HD
ATOM     36  C   UNL A   1      42.650  28.626  32.609  1.00  0.00     0.074 A 
ATOM     37  C   UNL A   1      43.304  27.626  31.788  1.00  0.00     0.031 C 
ATOM     38  C   UNL A   1      43.051  28.972  33.856  1.00  0.00     0.037 A 
BRANCH  25  39
ATOM     39  C   UNL A   1      39.648  33.401  36.499  1.00  0.00     0.064 A 
ATOM     40  C   UNL A   1      40.271  34.652  36.612  1.00  0.00     0.173 A 
ATOM     41  C   UNL A   1      38.766  33.013  37.520  1.00  0.00     0.173 A 
ATOM     42  F   UNL A   1      41.131  35.066  35.669  1.00  0.00    -0.203 F 
ATOM     43  C   UNL A   1      40.035  35.474  37.712  1.00  0.00     0.198 A 
ATOM     44  C   UNL A   1      38.512  33.848  38.605  1.00  0.00     0.198 A 
ATOM     45  F   UNL A   1      38.139  31.829  37.458  1.00  0.00    -0.203 F 
ATOM     46  F   UNL A   1      40.669  36.650  37.817  1.00  0.00    -0.200 F 
ATOM     47  C   UNL A   1      39.151  35.074  38.704  1.00  0.00     0.200 A 
ATOM     48  F   UNL A   1      37.648  33.466  39.557  1.00  0.00    -0.200 F 
ATOM     49  F   UNL A   1      38.919  35.870  39.757  1.00  0.00    -0.200 F 
ENDBRANCH  25  39
BRANCH  26  50
ATOM     50  C   UNL A   1      40.913  27.811  28.310  1.00  0.00     0.064 A 
ATOM     51  C   UNL A   1      41.697  28.268  27.243  1.00  0.00     0.173 A 
ATOM     52  C   UNL A   1      40.339  26.536  28.200  1.00  0.00     0.173 A 
ATOM     53  F   UNL A   1      42.253  29.488  27.295  1.00  0.00    -0.203 F 
ATOM     54  C   UNL A   1      41.894  27.484  26.108  1.00  0.00     0.198 A 
ATOM     55  C   UNL A   1      40.561  25.741  27.079  1.00  0.00     0.198 A 
ATOM     56  F   UNL A   1      39.585  26.050  29.198  1.00  0.00    -0.203 F 
ATOM     57  F   UNL A   1      42.621  27.957  25.088  1.00  0.00    -0.200 F 
ATOM     58  C   UNL A   1      41.334  26.217  26.031  1.00  0.00     0.200 A 
ATOM     59  F   UNL A   1      40.033  24.510  27.017  1.00  0.00    -0.200 F 
ATOM     60  F   UNL A   1      41.535  25.457  24.946  1.00  0.00    -0.200 F 
ENDBRANCH  26  50
BRANCH  38  61
ATOM     61  C   UNL A   1      44.245  28.254  34.406  1.00  0.00     0.064 A 
ATOM     62  C   UNL A   1      44.116  27.036  35.091  1.00  0.00     0.173 A 
ATOM     63  C   UNL A   1      45.534  28.778  34.233  1.00  0.00     0.173 A 
ATOM     64  F   UNL A   1      42.901  26.506  35.299  1.00  0.00    -0.203 F 
ATOM     65  C   UNL A   1      45.232  26.383  35.606  1.00  0.00     0.198 A 
ATOM     66  C   UNL A   1      46.651  28.109  34.724  1.00  0.00     0.198 A 
ATOM     67  F   UNL A   1      45.711  29.938  33.582  1.00  0.00    -0.203 F 
ATOM     68  F   UNL A   1      45.080  25.246  36.299  1.00  0.00    -0.200 F 
ATOM     69  C   UNL A   1      46.498  26.917  35.416  1.00  0.00     0.200 A 
ATOM     70  F   UNL A   1      47.875  28.620  34.533  1.00  0.00    -0.200 F 
ATOM     71  F   UNL A   1      47.573  26.286  35.911  1.00  0.00    -0.200 F 
ENDBRANCH  38  61
ENDBRANCH  12  13
ENDBRANCH   5   7
ENDBRANCH   2   3
ENDBRANCH   1   2
BRANCH   1  72
ATOM     72  C   UNL A   1      31.403  30.342  26.163  1.00  0.00     0.118 C 
BRANCH  72  73
ATOM     73  N   UNL A   1      32.160  29.917  25.002  1.00  0.00    -0.352 N 
ATOM     74  C   UNL A   1      31.695  29.448  23.800  1.00  0.00     0.253 C 
ATOM     75  H   UNL A   1      33.139  29.973  25.088  1.00  0.00     0.163 HD
ATOM     76  O   UNL A   1      32.499  29.113  22.933  1.00  0.00    -0.269 OA
BRANCH  74  77
ATOM     77  C   UNL A   1      30.242  29.266  23.574  1.00  0.00     0.062 A 
ATOM     78  C   UNL A   1      29.514  30.468  23.498  1.00  0.00     0.016 A 
ATOM     79  C   UNL A   1      29.611  28.003  23.439  1.00  0.00     0.047 A 
ATOM     80  C   UNL A   1      28.148  30.446  23.254  1.00  0.00     0.001 A 
ATOM     81  C   UNL A   1      28.232  28.026  23.176  1.00  0.00     0.026 A 
ATOM     82  C   UNL A   1      27.510  29.225  23.085  1.00  0.00     0.002 A 
BRANCH  79  83
ATOM     83  N   UNL A   1      30.307  26.806  23.578  1.00  0.00    -0.382 N 
ATOM     84  H   UNL A   1      31.157  26.727  23.090  1.00  0.00     0.160 HD
BRANCH  83  85
ATOM     85  C   UNL A   1      29.893  25.648  24.383  1.00  0.00     0.151 C 
BRANCH  85  86
ATOM     86  C   UNL A   1      30.294  25.829  25.869  1.00  0.00     0.192 C 
ATOM     87  C   UNL A   1      31.667  26.507  26.077  1.00  0.00     0.296 C 
ATOM     88  O   UNL A   1      30.194  24.601  26.622  1.00  0.00    -0.364 OA
ATOM     89  N   UNL A   1      32.841  25.657  26.167  1.00  0.00    -0.328 N 
ATOM     90  C   UNL A   1      31.247  23.681  26.324  1.00  0.00     0.225 C 
ATOM     91  C   UNL A   1      33.806  25.696  25.088  1.00  0.00     0.262 C 
ATOM     92  C   UNL A   1      32.630  24.277  26.614  1.00  0.00     0.210 C 
ATOM     93  H   UNL A   1      33.280  26.161  26.937  1.00  0.00     0.348 HD
ATOM     94  C   UNL A   1      34.726  24.545  25.461  1.00  0.00     0.068 C 
ATOM     95  C   UNL A   1      33.754  23.480  25.944  1.00  0.00     0.073 C 
ENDBRANCH  85  86
ENDBRANCH  83  85
ENDBRANCH  79  83
ENDBRANCH  74  77
ENDBRANCH  72  73
ENDBRANCH   1  72
TORSDOF 13
ENDMDL
