MODEL 1
REMARK VINA RESULT:     -13.0      0.000      0.000
REMARK SMILES CC(C)N1C[C@@]2(CCCN(c3ccc(C(=O)NCCCNC(=O)c4ccc(-c5c6nc(c(-c7c(F)c(F)c(F)c(F)c7F)c7ccc([nH]7)c(-c7c(F)c(F)c(F)c(F)c7F)c7nc(c(-c8c(F)c(F)c(F)c(F)c8F)c8ccc5[nH]8)C=C7)C=C6)cc4)cn3)C2)CCC1=O
REMARK SMILES IDX 19 1 18 2 17 3 15 4 16 5 14 7 11 8 12 9 88 10 13 11 87 12
REMARK SMILES IDX 10 13 4 14 5 15 92 16 6 17 91 18 93 19 7 20 89 21 90 22 8 23
REMARK SMILES IDX 9 24 2 25 1 26 3 27 20 28 21 29 22 30 23 32 24 33 25 34
REMARK SMILES IDX 86 35 26 36 85 37 27 38 28 39 29 40 79 41 30 42 84 43 78 44
REMARK SMILES IDX 80 45 31 46 83 47 77 48 76 49 32 51 64 52 44 53 63 54 45 55
REMARK SMILES IDX 48 56 62 57 81 58 46 59 47 60 61 62 82 63 49 64 33 65 34 66
REMARK SMILES IDX 42 67 35 68 36 69 40 70 43 71 37 72 38 73 41 74 39 75 65 76
REMARK SMILES IDX 66 77 74 78 67 79 68 80 72 81 75 82 69 83 70 84 73 85 71 86
REMARK SMILES IDX 50 87 51 88 59 89 52 90 53 91 57 92 60 93 54 94 55 95 58 96
REMARK SMILES IDX 56 97
REMARK H PARENT 17 6 21 31 80 50 48 61
REMARK Flexibility Score: inf
ROOT
ATOM      1  C   UNL A   1      31.420  32.166  26.851  1.00  0.00     0.042 C 
ENDROOT
BRANCH   1   2
ATOM      2  C   UNL A   1      31.638  30.801  26.210  1.00  0.00     0.118 C 
BRANCH   2   3
ATOM      3  N   UNL A   1      31.526  29.693  27.152  1.00  0.00    -0.352 N 
ATOM      4  C   UNL A   1      31.752  28.347  26.957  1.00  0.00     0.252 C 
ATOM      5  O   UNL A   1      31.506  27.541  27.839  1.00  0.00    -0.269 OA
ATOM      6  H   UNL A   1      31.246  29.944  28.062  1.00  0.00     0.163 HD
BRANCH   4   7
ATOM      7  C   UNL A   1      32.236  27.880  25.649  1.00  0.00     0.058 A 
ATOM      8  C   UNL A   1      33.234  26.436  23.524  1.00  0.00     0.128 A 
ATOM      9  C   UNL A   1      31.900  26.849  23.515  1.00  0.00     0.048 A 
ATOM     10  N   UNL A   1      34.082  26.925  24.457  1.00  0.00    -0.239 NA
ATOM     11  C   UNL A   1      31.386  27.559  24.601  1.00  0.00     0.019 A 
ATOM     12  C   UNL A   1      33.583  27.645  25.491  1.00  0.00     0.127 A 
BRANCH   8  13
ATOM     13  N   UNL A   1      33.694  25.403  22.722  1.00  0.00    -0.356 N 
ATOM     14  N   UNL A   1      34.884  22.246  25.681  1.00  0.00    -0.340 N 
ATOM     15  C   UNL A   1      34.219  22.000  24.401  1.00  0.00     0.128 C 
ATOM     16  C   UNL A   1      34.269  22.961  26.700  1.00  0.00     0.222 C 
ATOM     17  C   UNL A   1      33.424  23.205  23.861  1.00  0.00     0.006 C 
ATOM     18  C   UNL A   1      33.186  23.929  26.290  1.00  0.00     0.101 C 
ATOM     19  O   UNL A   1      34.650  22.954  27.870  1.00  0.00    -0.275 OA
ATOM     20  C   UNL A   1      32.607  22.750  22.617  1.00  0.00     0.012 C 
ATOM     21  C   UNL A   1      34.417  24.327  23.423  1.00  0.00     0.127 C 
ATOM     22  C   UNL A   1      32.461  23.601  25.000  1.00  0.00     0.020 C 
ATOM     23  C   UNL A   1      31.995  23.908  21.817  1.00  0.00     0.022 C 
ATOM     24  C   UNL A   1      33.033  24.984  21.495  1.00  0.00     0.118 C 
BRANCH  14  25
ATOM     25  C   UNL A   1      36.216  21.648  25.885  1.00  0.00     0.078 C 
ATOM     26  C   UNL A   1      36.367  20.408  25.002  1.00  0.00     0.031 C 
ATOM     27  C   UNL A   1      37.385  22.616  25.700  1.00  0.00     0.031 C 
ENDBRANCH  14  25
ENDBRANCH   8  13
ENDBRANCH   4   7
ENDBRANCH   2   3
ENDBRANCH   1   2
BRANCH   1  28
ATOM     28  C   UNL A   1      32.689  32.924  27.215  1.00  0.00     0.118 C 
BRANCH  28  29
ATOM     29  N   UNL A   1      32.438  34.281  27.682  1.00  0.00    -0.352 N 
ATOM     30  C   UNL A   1      33.039  35.013  28.679  1.00  0.00     0.251 C 
ATOM     31  H   UNL A   1      31.716  34.751  27.205  1.00  0.00     0.163 HD
ATOM     32  O   UNL A   1      32.563  36.102  28.992  1.00  0.00    -0.269 OA
BRANCH  30  33
ATOM     33  C   UNL A   1      34.227  34.504  29.403  1.00  0.00     0.039 A 
ATOM     34  C   UNL A   1      34.048  33.929  30.667  1.00  0.00     0.014 A 
ATOM     35  C   UNL A   1      35.515  34.609  28.873  1.00  0.00     0.014 A 
ATOM     36  C   UNL A   1      35.140  33.392  31.355  1.00  0.00     0.010 A 
ATOM     37  C   UNL A   1      36.588  33.998  29.518  1.00  0.00     0.010 A 
ATOM     38  C   UNL A   1      36.415  33.382  30.767  1.00  0.00    -0.014 A 
BRANCH  38  39
ATOM     39  C   UNL A   1      37.573  32.728  31.434  1.00  0.00     0.031 A 
ATOM     40  C   UNL A   1      38.268  31.562  30.780  1.00  0.00     0.074 A 
ATOM     41  C   UNL A   1      37.951  33.129  32.664  1.00  0.00     0.049 A 
ATOM     42  N   UNL A   1      39.231  30.806  31.243  1.00  0.00    -0.248 NA
ATOM     43  C   UNL A   1      37.799  31.178  29.439  1.00  0.00     0.031 C 
ATOM     44  C   UNL A   1      37.329  34.212  33.429  1.00  0.00     0.029 A 
ATOM     45  N   UNL A   1      38.939  32.663  33.497  1.00  0.00    -0.354 N 
ATOM     46  C   UNL A   1      39.461  29.843  30.267  1.00  0.00     0.074 A 
ATOM     47  C   UNL A   1      38.511  30.086  29.204  1.00  0.00     0.031 C 
ATOM     48  C   UNL A   1      37.962  34.340  34.607  1.00  0.00     0.029 A 
ATOM     49  C   UNL A   1      39.004  33.323  34.701  1.00  0.00     0.049 A 
ATOM     50  H   UNL A   1      39.544  31.925  33.254  1.00  0.00     0.167 HD
ATOM     51  C   UNL A   1      40.391  28.859  30.253  1.00  0.00     0.037 A 
ATOM     52  C   UNL A   1      39.803  33.122  35.767  1.00  0.00     0.037 A 
ATOM     53  C   UNL A   1      41.365  28.648  31.291  1.00  0.00     0.049 A 
ATOM     54  C   UNL A   1      40.831  32.022  35.718  1.00  0.00     0.074 A 
ATOM     55  C   UNL A   1      42.408  27.738  31.323  1.00  0.00     0.029 A 
ATOM     56  N   UNL A   1      41.415  29.355  32.484  1.00  0.00    -0.354 N 
ATOM     57  N   UNL A   1      41.097  31.178  34.751  1.00  0.00    -0.248 NA
ATOM     58  C   UNL A   1      41.674  31.849  36.909  1.00  0.00     0.031 C 
ATOM     59  C   UNL A   1      43.055  27.856  32.556  1.00  0.00     0.029 A 
ATOM     60  C   UNL A   1      42.453  28.879  33.270  1.00  0.00     0.049 A 
ATOM     61  H   UNL A   1      40.804  30.085  32.735  1.00  0.00     0.167 HD
ATOM     62  C   UNL A   1      42.157  30.402  35.201  1.00  0.00     0.074 A 
ATOM     63  C   UNL A   1      42.496  30.885  36.523  1.00  0.00     0.031 C 
ATOM     64  C   UNL A   1      42.791  29.382  34.577  1.00  0.00     0.037 A 
BRANCH  51  65
ATOM     65  C   UNL A   1      40.410  27.926  29.077  1.00  0.00     0.064 A 
ATOM     66  C   UNL A   1      39.632  26.759  29.046  1.00  0.00     0.173 A 
ATOM     67  C   UNL A   1      41.165  28.241  27.936  1.00  0.00     0.173 A 
ATOM     68  F   UNL A   1      38.897  26.409  30.114  1.00  0.00    -0.203 F 
ATOM     69  C   UNL A   1      39.625  25.932  27.926  1.00  0.00     0.198 A 
ATOM     70  C   UNL A   1      41.134  27.426  26.807  1.00  0.00     0.198 A 
ATOM     71  F   UNL A   1      41.920  29.349  27.909  1.00  0.00    -0.203 F 
ATOM     72  F   UNL A   1      38.905  24.801  27.936  1.00  0.00    -0.200 F 
ATOM     73  C   UNL A   1      40.369  26.269  26.805  1.00  0.00     0.200 A 
ATOM     74  F   UNL A   1      41.840  27.763  25.719  1.00  0.00    -0.200 F 
ATOM     75  F   UNL A   1      40.349  25.480  25.723  1.00  0.00    -0.200 F 
ENDBRANCH  51  65
BRANCH  52  76
ATOM     76  C   UNL A   1      39.683  33.985  36.971  1.00  0.00     0.064 A 
ATOM     77  C   UNL A   1      38.897  33.589  38.063  1.00  0.00     0.173 A 
ATOM     78  C   UNL A   1      40.316  35.234  37.045  1.00  0.00     0.173 A 
ATOM     79  F   UNL A   1      38.253  32.413  38.032  1.00  0.00    -0.203 F 
ATOM     80  C   UNL A   1      38.723  34.422  39.167  1.00  0.00     0.198 A 
ATOM     81  C   UNL A   1      40.168  36.053  38.163  1.00  0.00     0.198 A 
ATOM     82  F   UNL A   1      41.083  35.660  36.031  1.00  0.00    -0.203 F 
ATOM     83  F   UNL A   1      37.917  34.044  40.169  1.00  0.00    -0.200 F 
ATOM     84  C   UNL A   1      39.362  35.651  39.218  1.00  0.00     0.200 A 
ATOM     85  F   UNL A   1      40.799  37.234  38.217  1.00  0.00    -0.200 F 
ATOM     86  F   UNL A   1      39.191  36.454  40.277  1.00  0.00    -0.200 F 
ENDBRANCH  52  76
BRANCH  64  87
ATOM     87  C   UNL A   1      43.951  28.748  35.291  1.00  0.00     0.064 A 
ATOM     88  C   UNL A   1      43.775  27.681  36.182  1.00  0.00     0.173 A 
ATOM     89  C   UNL A   1      45.260  29.193  35.047  1.00  0.00     0.173 A 
ATOM     90  F   UNL A   1      42.542  27.230  36.461  1.00  0.00    -0.203 F 
ATOM     91  C   UNL A   1      44.865  27.100  36.826  1.00  0.00     0.198 A 
ATOM     92  C   UNL A   1      46.349  28.587  35.666  1.00  0.00     0.198 A 
ATOM     93  F   UNL A   1      45.484  30.206  34.197  1.00  0.00    -0.203 F 
ATOM     94  F   UNL A   1      44.668  26.114  37.714  1.00  0.00    -0.200 F 
ATOM     95  C   UNL A   1      46.150  27.547  36.562  1.00  0.00     0.200 A 
ATOM     96  F   UNL A   1      47.592  29.011  35.398  1.00  0.00    -0.200 F 
ATOM     97  F   UNL A   1      47.198  26.980  37.175  1.00  0.00    -0.200 F 
ENDBRANCH  64  87
ENDBRANCH  38  39
ENDBRANCH  30  33
ENDBRANCH  28  29
ENDBRANCH   1  28
TORSDOF 12
ENDMDL
MODEL 2
REMARK VINA RESULT:     -13.0      0.079      1.103
REMARK SMILES CC(C)N1C[C@@]2(CCCN(c3ccc(C(=O)NCCCNC(=O)c4ccc(-c5c6nc(c(-c7c(F)c(F)c(F)c(F)c7F)c7ccc([nH]7)c(-c7c(F)c(F)c(F)c(F)c7F)c7nc(c(-c8c(F)c(F)c(F)c(F)c8F)c8ccc5[nH]8)C=C7)C=C6)cc4)cn3)C2)CCC1=O
REMARK SMILES IDX 19 1 18 2 17 3 15 4 16 5 14 7 11 8 12 9 88 10 13 11 87 12
REMARK SMILES IDX 10 13 4 14 5 15 92 16 6 17 91 18 93 19 7 20 89 21 90 22 8 23
REMARK SMILES IDX 9 24 2 25 1 26 3 27 20 28 21 29 22 30 23 32 24 33 25 34
REMARK SMILES IDX 86 35 26 36 85 37 27 38 28 39 29 40 79 41 30 42 84 43 78 44
REMARK SMILES IDX 80 45 31 46 83 47 77 48 76 49 32 51 64 52 44 53 63 54 45 55
REMARK SMILES IDX 48 56 62 57 81 58 46 59 47 60 61 62 82 63 49 64 33 65 34 66
REMARK SMILES IDX 42 67 35 68 36 69 40 70 43 71 37 72 38 73 41 74 39 75 65 76
REMARK SMILES IDX 66 77 74 78 67 79 68 80 72 81 75 82 69 83 70 84 73 85 71 86
REMARK SMILES IDX 50 87 51 88 59 89 52 90 53 91 57 92 60 93 54 94 55 95 58 96
REMARK SMILES IDX 56 97
REMARK H PARENT 17 6 21 31 80 50 48 61
REMARK Flexibility Score: inf
ROOT
ATOM      1  C   UNL A   1      31.411  32.172  26.840  1.00  0.00     0.042 C 
ENDROOT
BRANCH   1   2
ATOM      2  C   UNL A   1      31.631  30.806  26.201  1.00  0.00     0.118 C 
BRANCH   2   3
ATOM      3  N   UNL A   1      31.523  29.700  27.145  1.00  0.00    -0.352 N 
ATOM      4  C   UNL A   1      31.751  28.353  26.951  1.00  0.00     0.252 C 
ATOM      5  O   UNL A   1      31.509  27.548  27.836  1.00  0.00    -0.269 OA
ATOM      6  H   UNL A   1      31.245  29.951  28.055  1.00  0.00     0.163 HD
BRANCH   4   7
ATOM      7  C   UNL A   1      32.233  27.885  25.644  1.00  0.00     0.058 A 
ATOM      8  C   UNL A   1      33.229  26.439  23.519  1.00  0.00     0.128 A 
ATOM      9  C   UNL A   1      31.894  26.848  23.512  1.00  0.00     0.048 A 
ATOM     10  N   UNL A   1      34.078  26.932  24.449  1.00  0.00    -0.239 NA
ATOM     11  C   UNL A   1      31.381  27.560  24.598  1.00  0.00     0.019 A 
ATOM     12  C   UNL A   1      33.580  27.653  25.482  1.00  0.00     0.127 A 
BRANCH   8  13
ATOM     13  N   UNL A   1      33.690  25.406  22.717  1.00  0.00    -0.356 N 
ATOM     14  N   UNL A   1      34.874  22.249  25.679  1.00  0.00    -0.340 N 
ATOM     15  C   UNL A   1      34.211  22.003  24.399  1.00  0.00     0.128 C 
ATOM     16  C   UNL A   1      34.259  22.964  26.697  1.00  0.00     0.222 C 
ATOM     17  C   UNL A   1      33.417  23.208  23.857  1.00  0.00     0.006 C 
ATOM     18  C   UNL A   1      33.177  23.933  26.286  1.00  0.00     0.101 C 
ATOM     19  O   UNL A   1      34.638  22.958  27.867  1.00  0.00    -0.275 OA
ATOM     20  C   UNL A   1      32.602  22.753  22.612  1.00  0.00     0.012 C 
ATOM     21  C   UNL A   1      34.411  24.330  23.420  1.00  0.00     0.127 C 
ATOM     22  C   UNL A   1      32.453  23.604  24.995  1.00  0.00     0.020 C 
ATOM     23  C   UNL A   1      31.991  23.911  21.811  1.00  0.00     0.022 C 
ATOM     24  C   UNL A   1      33.030  24.987  21.490  1.00  0.00     0.118 C 
BRANCH  14  25
ATOM     25  C   UNL A   1      36.206  21.650  25.885  1.00  0.00     0.078 C 
ATOM     26  C   UNL A   1      36.357  20.410  25.002  1.00  0.00     0.031 C 
ATOM     27  C   UNL A   1      37.375  22.618  25.701  1.00  0.00     0.031 C 
ENDBRANCH  14  25
ENDBRANCH   8  13
ENDBRANCH   4   7
ENDBRANCH   2   3
ENDBRANCH   1   2
BRANCH   1  28
ATOM     28  C   UNL A   1      32.680  32.929  27.209  1.00  0.00     0.118 C 
BRANCH  28  29
ATOM     29  N   UNL A   1      32.428  34.289  27.667  1.00  0.00    -0.352 N 
ATOM     30  C   UNL A   1      33.028  35.027  28.659  1.00  0.00     0.251 C 
ATOM     31  H   UNL A   1      31.708  34.756  27.185  1.00  0.00     0.163 HD
ATOM     32  O   UNL A   1      32.552  36.118  28.964  1.00  0.00    -0.269 OA
BRANCH  30  33
ATOM     33  C   UNL A   1      34.215  34.523  29.388  1.00  0.00     0.039 A 
ATOM     34  C   UNL A   1      34.036  33.968  30.661  1.00  0.00     0.014 A 
ATOM     35  C   UNL A   1      35.502  34.613  28.854  1.00  0.00     0.014 A 
ATOM     36  C   UNL A   1      35.126  33.435  31.355  1.00  0.00     0.010 A 
ATOM     37  C   UNL A   1      36.574  34.006  29.507  1.00  0.00     0.010 A 
ATOM     38  C   UNL A   1      36.399  33.410  30.765  1.00  0.00    -0.014 A 
BRANCH  38  39
ATOM     39  C   UNL A   1      37.555  32.759  31.440  1.00  0.00     0.031 A 
ATOM     40  C   UNL A   1      38.247  31.585  30.798  1.00  0.00     0.074 A 
ATOM     41  C   UNL A   1      37.933  33.172  32.666  1.00  0.00     0.049 A 
ATOM     42  N   UNL A   1      39.208  30.831  31.269  1.00  0.00    -0.248 NA
ATOM     43  C   UNL A   1      37.778  31.188  29.461  1.00  0.00     0.031 C 
ATOM     44  C   UNL A   1      37.315  34.265  33.419  1.00  0.00     0.029 A 
ATOM     45  N   UNL A   1      38.920  32.712  33.505  1.00  0.00    -0.354 N 
ATOM     46  C   UNL A   1      39.436  29.857  30.304  1.00  0.00     0.074 A 
ATOM     47  C   UNL A   1      38.488  30.091  29.238  1.00  0.00     0.031 C 
ATOM     48  C   UNL A   1      37.947  34.403  34.596  1.00  0.00     0.029 A 
ATOM     49  C   UNL A   1      38.985  33.384  34.702  1.00  0.00     0.049 A 
ATOM     50  H   UNL A   1      39.523  31.970  33.269  1.00  0.00     0.167 HD
ATOM     51  C   UNL A   1      40.363  28.871  30.301  1.00  0.00     0.037 A 
ATOM     52  C   UNL A   1      39.784  33.192  35.769  1.00  0.00     0.037 A 
ATOM     53  C   UNL A   1      41.336  28.668  31.342  1.00  0.00     0.049 A 
ATOM     54  C   UNL A   1      40.808  32.089  35.733  1.00  0.00     0.074 A 
ATOM     55  C   UNL A   1      42.376  27.755  31.383  1.00  0.00     0.029 A 
ATOM     56  N   UNL A   1      41.387  29.386  32.527  1.00  0.00    -0.354 N 
ATOM     57  N   UNL A   1      41.073  31.234  34.775  1.00  0.00    -0.248 NA
ATOM     58  C   UNL A   1      41.650  31.926  36.926  1.00  0.00     0.031 C 
ATOM     59  C   UNL A   1      43.023  27.884  32.616  1.00  0.00     0.029 A 
ATOM     60  C   UNL A   1      42.423  28.916  33.319  1.00  0.00     0.049 A 
ATOM     61  H   UNL A   1      40.779  30.120  32.770  1.00  0.00     0.167 HD
ATOM     62  C   UNL A   1      42.131  30.460  35.234  1.00  0.00     0.074 A 
ATOM     63  C   UNL A   1      42.469  30.956  36.550  1.00  0.00     0.031 C 
ATOM     64  C   UNL A   1      42.763  29.431  34.620  1.00  0.00     0.037 A 
BRANCH  51  65
ATOM     65  C   UNL A   1      40.380  27.925  29.134  1.00  0.00     0.064 A 
ATOM     66  C   UNL A   1      39.602  26.759  29.117  1.00  0.00     0.173 A 
ATOM     67  C   UNL A   1      41.135  28.227  27.990  1.00  0.00     0.173 A 
ATOM     68  F   UNL A   1      38.868  26.420  30.188  1.00  0.00    -0.203 F 
ATOM     69  C   UNL A   1      39.594  25.919  28.006  1.00  0.00     0.198 A 
ATOM     70  C   UNL A   1      41.102  27.400  26.869  1.00  0.00     0.198 A 
ATOM     71  F   UNL A   1      41.891  29.334  27.950  1.00  0.00    -0.203 F 
ATOM     72  F   UNL A   1      38.873  24.789  28.027  1.00  0.00    -0.200 F 
ATOM     73  C   UNL A   1      40.336  26.245  26.880  1.00  0.00     0.200 A 
ATOM     74  F   UNL A   1      41.807  27.726  25.777  1.00  0.00    -0.200 F 
ATOM     75  F   UNL A   1      40.315  25.444  25.807  1.00  0.00    -0.200 F 
ENDBRANCH  51  65
BRANCH  52  76
ATOM     76  C   UNL A   1      39.665  34.068  36.965  1.00  0.00     0.064 A 
ATOM     77  C   UNL A   1      40.372  35.277  37.042  1.00  0.00     0.173 A 
ATOM     78  C   UNL A   1      38.878  33.703  38.067  1.00  0.00     0.173 A 
ATOM     79  F   UNL A   1      41.156  35.660  36.023  1.00  0.00    -0.203 F 
ATOM     80  C   UNL A   1      40.321  36.071  38.187  1.00  0.00     0.198 A 
ATOM     81  C   UNL A   1      38.803  34.514  39.198  1.00  0.00     0.198 A 
ATOM     82  F   UNL A   1      38.178  32.560  38.044  1.00  0.00    -0.203 F 
ATOM     83  F   UNL A   1      41.054  37.191  38.256  1.00  0.00    -0.200 F 
ATOM     84  C   UNL A   1      39.533  35.691  39.262  1.00  0.00     0.200 A 
ATOM     85  F   UNL A   1      38.028  34.152  40.231  1.00  0.00    -0.200 F 
ATOM     86  F   UNL A   1      39.488  36.452  40.364  1.00  0.00    -0.200 F 
ENDBRANCH  52  76
BRANCH  64  87
ATOM     87  C   UNL A   1      43.920  28.802  35.342  1.00  0.00     0.064 A 
ATOM     88  C   UNL A   1      43.741  27.744  36.244  1.00  0.00     0.173 A 
ATOM     89  C   UNL A   1      45.230  29.241  35.096  1.00  0.00     0.173 A 
ATOM     90  F   UNL A   1      42.506  27.299  36.526  1.00  0.00    -0.203 F 
ATOM     91  C   UNL A   1      44.828  27.167  36.895  1.00  0.00     0.198 A 
ATOM     92  C   UNL A   1      46.317  28.639  35.721  1.00  0.00     0.198 A 
ATOM     93  F   UNL A   1      45.457  30.245  34.235  1.00  0.00    -0.203 F 
ATOM     94  F   UNL A   1      44.628  26.191  37.792  1.00  0.00    -0.200 F 
ATOM     95  C   UNL A   1      46.115  27.608  36.627  1.00  0.00     0.200 A 
ATOM     96  F   UNL A   1      47.561  29.057  35.450  1.00  0.00    -0.200 F 
ATOM     97  F   UNL A   1      47.161  27.045  37.246  1.00  0.00    -0.200 F 
ENDBRANCH  64  87
ENDBRANCH  38  39
ENDBRANCH  30  33
ENDBRANCH  28  29
ENDBRANCH   1  28
TORSDOF 12
ENDMDL
MODEL 3
REMARK VINA RESULT:     -12.9      5.459     11.054
REMARK SMILES CC(C)N1C[C@@]2(CCCN(c3ccc(C(=O)NCCCNC(=O)c4ccc(-c5c6nc(c(-c7c(F)c(F)c(F)c(F)c7F)c7ccc([nH]7)c(-c7c(F)c(F)c(F)c(F)c7F)c7nc(c(-c8c(F)c(F)c(F)c(F)c8F)c8ccc5[nH]8)C=C7)C=C6)cc4)cn3)C2)CCC1=O
REMARK SMILES IDX 19 1 18 2 17 3 15 4 16 5 14 7 11 8 12 9 88 10 13 11 87 12
REMARK SMILES IDX 10 13 4 14 5 15 92 16 6 17 91 18 93 19 7 20 89 21 90 22 8 23
REMARK SMILES IDX 9 24 2 25 1 26 3 27 20 28 21 29 22 30 23 32 24 33 25 34
REMARK SMILES IDX 86 35 26 36 85 37 27 38 28 39 29 40 79 41 30 42 84 43 78 44
REMARK SMILES IDX 80 45 31 46 83 47 77 48 76 49 32 51 64 52 44 53 63 54 45 55
REMARK SMILES IDX 48 56 62 57 81 58 46 59 47 60 61 62 82 63 49 64 33 65 34 66
REMARK SMILES IDX 42 67 35 68 36 69 40 70 43 71 37 72 38 73 41 74 39 75 65 76
REMARK SMILES IDX 66 77 74 78 67 79 68 80 72 81 75 82 69 83 70 84 73 85 71 86
REMARK SMILES IDX 50 87 51 88 59 89 52 90 53 91 57 92 60 93 54 94 55 95 58 96
REMARK SMILES IDX 56 97
REMARK H PARENT 17 6 21 31 80 50 48 61
REMARK Flexibility Score: inf
ROOT
ATOM      1  C   UNL A   1      38.419  19.617  24.935  1.00  0.00     0.042 C 
ENDROOT
BRANCH   1   2
ATOM      2  C   UNL A   1      37.208  20.540  25.014  1.00  0.00     0.118 C 
BRANCH   2   3
ATOM      3  N   UNL A   1      37.198  21.573  23.985  1.00  0.00    -0.352 N 
ATOM      4  C   UNL A   1      36.294  22.594  23.773  1.00  0.00     0.252 C 
ATOM      5  O   UNL A   1      36.387  23.311  22.791  1.00  0.00    -0.269 OA
ATOM      6  H   UNL A   1      37.946  21.536  23.347  1.00  0.00     0.163 HD
BRANCH   4   7
ATOM      7  C   UNL A   1      35.177  22.773  24.711  1.00  0.00     0.058 A 
ATOM      8  C   UNL A   1      33.030  23.698  26.172  1.00  0.00     0.128 A 
ATOM      9  C   UNL A   1      32.858  22.627  25.291  1.00  0.00     0.048 A 
ATOM     10  N   UNL A   1      34.277  24.131  26.468  1.00  0.00    -0.239 NA
ATOM     11  C   UNL A   1      33.939  22.174  24.533  1.00  0.00     0.019 A 
ATOM     12  C   UNL A   1      35.327  23.660  25.753  1.00  0.00     0.127 A 
BRANCH   8  13
ATOM     13  N   UNL A   1      31.965  24.459  26.627  1.00  0.00    -0.356 N 
ATOM     14  N   UNL A   1      32.694  28.475  24.761  1.00  0.00    -0.340 N 
ATOM     15  C   UNL A   1      31.387  27.836  24.912  1.00  0.00     0.128 C 
ATOM     16  C   UNL A   1      33.688  27.929  23.959  1.00  0.00     0.222 C 
ATOM     17  C   UNL A   1      31.445  26.301  25.033  1.00  0.00     0.006 C 
ATOM     18  C   UNL A   1      33.616  26.442  23.710  1.00  0.00     0.101 C 
ATOM     19  O   UNL A   1      34.677  28.550  23.573  1.00  0.00    -0.275 OA
ATOM     20  C   UNL A   1      29.994  25.739  24.980  1.00  0.00     0.012 C 
ATOM     21  C   UNL A   1      32.081  25.911  26.404  1.00  0.00     0.127 C 
ATOM     22  C   UNL A   1      32.234  25.825  23.795  1.00  0.00     0.020 C 
ATOM     23  C   UNL A   1      29.887  24.258  25.369  1.00  0.00     0.022 C 
ATOM     24  C   UNL A   1      30.597  23.968  26.693  1.00  0.00     0.118 C 
BRANCH  14  25
ATOM     25  C   UNL A   1      32.906  29.767  25.439  1.00  0.00     0.078 C 
ATOM     26  C   UNL A   1      31.562  30.466  25.651  1.00  0.00     0.031 C 
ATOM     27  C   UNL A   1      33.707  29.681  26.739  1.00  0.00     0.031 C 
ENDBRANCH  14  25
ENDBRANCH   8  13
ENDBRANCH   4   7
ENDBRANCH   2   3
ENDBRANCH   1   2
BRANCH   1  28
ATOM     28  C   UNL A   1      39.476  19.838  26.008  1.00  0.00     0.118 C 
BRANCH  28  29
ATOM     29  N   UNL A   1      40.592  18.906  25.920  1.00  0.00    -0.352 N 
ATOM     30  C   UNL A   1      41.947  19.116  26.016  1.00  0.00     0.251 C 
ATOM     31  H   UNL A   1      40.332  17.969  25.764  1.00  0.00     0.163 HD
ATOM     32  O   UNL A   1      42.716  18.190  25.769  1.00  0.00    -0.269 OA
BRANCH  30  33
ATOM     33  C   UNL A   1      42.500  20.442  26.379  1.00  0.00     0.039 A 
ATOM     34  C   UNL A   1      43.082  21.225  25.376  1.00  0.00     0.014 A 
ATOM     35  C   UNL A   1      42.481  20.913  27.694  1.00  0.00     0.014 A 
ATOM     36  C   UNL A   1      43.567  22.502  25.675  1.00  0.00     0.010 A 
ATOM     37  C   UNL A   1      42.885  22.217  27.975  1.00  0.00     0.010 A 
ATOM     38  C   UNL A   1      43.433  23.028  26.969  1.00  0.00    -0.014 A 
BRANCH  38  39
ATOM     39  C   UNL A   1      43.848  24.421  27.289  1.00  0.00     0.031 A 
ATOM     40  C   UNL A   1      42.828  25.435  27.734  1.00  0.00     0.074 A 
ATOM     41  C   UNL A   1      45.130  24.795  27.103  1.00  0.00     0.049 A 
ATOM     42  N   UNL A   1      42.979  26.714  27.969  1.00  0.00    -0.248 NA
ATOM     43  C   UNL A   1      41.449  24.954  27.912  1.00  0.00     0.031 C 
ATOM     44  C   UNL A   1      46.207  23.924  26.628  1.00  0.00     0.029 A 
ATOM     45  N   UNL A   1      45.744  26.013  27.275  1.00  0.00    -0.354 N 
ATOM     46  C   UNL A   1      41.715  27.194  28.292  1.00  0.00     0.074 A 
ATOM     47  C   UNL A   1      40.801  26.078  28.184  1.00  0.00     0.031 C 
ATOM     48  C   UNL A   1      47.349  24.627  26.567  1.00  0.00     0.029 A 
ATOM     49  C   UNL A   1      47.080  26.008  26.954  1.00  0.00     0.049 A 
ATOM     50  H   UNL A   1      45.270  26.813  27.598  1.00  0.00     0.167 HD
ATOM     51  C   UNL A   1      41.355  28.446  28.660  1.00  0.00     0.037 A 
ATOM     52  C   UNL A   1      47.984  27.007  26.959  1.00  0.00     0.037 A 
ATOM     53  C   UNL A   1      42.273  29.544  28.811  1.00  0.00     0.049 A 
ATOM     54  C   UNL A   1      47.552  28.387  27.378  1.00  0.00     0.074 A 
ATOM     55  C   UNL A   1      42.017  30.824  29.271  1.00  0.00     0.029 A 
ATOM     56  N   UNL A   1      43.624  29.492  28.501  1.00  0.00    -0.354 N 
ATOM     57  N   UNL A   1      46.373  28.805  27.769  1.00  0.00    -0.248 NA
ATOM     58  C   UNL A   1      48.581  29.437  27.363  1.00  0.00     0.031 C 
ATOM     59  C   UNL A   1      43.201  31.563  29.189  1.00  0.00     0.029 A 
ATOM     60  C   UNL A   1      44.208  30.728  28.732  1.00  0.00     0.049 A 
ATOM     61  H   UNL A   1      44.098  28.697  28.167  1.00  0.00     0.167 HD
ATOM     62  C   UNL A   1      46.526  30.150  28.078  1.00  0.00     0.074 A 
ATOM     63  C   UNL A   1      47.916  30.476  27.845  1.00  0.00     0.031 C 
ATOM     64  C   UNL A   1      45.598  31.034  28.514  1.00  0.00     0.037 A 
BRANCH  51  65
ATOM     65  C   UNL A   1      39.901  28.708  28.931  1.00  0.00     0.064 A 
ATOM     66  C   UNL A   1      39.345  28.535  30.207  1.00  0.00     0.173 A 
ATOM     67  C   UNL A   1      39.070  29.205  27.915  1.00  0.00     0.173 A 
ATOM     68  F   UNL A   1      40.095  28.056  31.212  1.00  0.00    -0.203 F 
ATOM     69  C   UNL A   1      38.006  28.830  30.451  1.00  0.00     0.198 A 
ATOM     70  C   UNL A   1      37.738  29.526  28.170  1.00  0.00     0.198 A 
ATOM     71  F   UNL A   1      39.552  29.396  26.679  1.00  0.00    -0.203 F 
ATOM     72  F   UNL A   1      37.486  28.620  31.669  1.00  0.00    -0.200 F 
ATOM     73  C   UNL A   1      37.206  29.333  29.436  1.00  0.00     0.200 A 
ATOM     74  F   UNL A   1      36.973  30.027  27.191  1.00  0.00    -0.200 F 
ATOM     75  F   UNL A   1      35.923  29.631  29.676  1.00  0.00    -0.200 F 
ENDBRANCH  51  65
BRANCH  52  76
ATOM     76  C   UNL A   1      49.395  26.747  26.569  1.00  0.00     0.064 A 
ATOM     77  C   UNL A   1      49.802  26.856  25.231  1.00  0.00     0.173 A 
ATOM     78  C   UNL A   1      50.356  26.349  27.510  1.00  0.00     0.173 A 
ATOM     79  F   UNL A   1      48.916  27.212  24.289  1.00  0.00    -0.203 F 
ATOM     80  C   UNL A   1      51.106  26.547  24.846  1.00  0.00     0.198 A 
ATOM     81  C   UNL A   1      51.667  26.072  27.129  1.00  0.00     0.198 A 
ATOM     82  F   UNL A   1      50.021  26.234  28.803  1.00  0.00    -0.203 F 
ATOM     83  F   UNL A   1      51.450  26.602  23.552  1.00  0.00    -0.200 F 
ATOM     84  C   UNL A   1      52.038  26.160  25.795  1.00  0.00     0.200 A 
ATOM     85  F   UNL A   1      52.570  25.712  28.052  1.00  0.00    -0.200 F 
ATOM     86  F   UNL A   1      53.290  25.859  25.425  1.00  0.00    -0.200 F 
ENDBRANCH  52  76
BRANCH  64  87
ATOM     87  C   UNL A   1      46.063  32.430  28.819  1.00  0.00     0.064 A 
ATOM     88  C   UNL A   1      46.027  33.447  27.855  1.00  0.00     0.173 A 
ATOM     89  C   UNL A   1      46.514  32.760  30.106  1.00  0.00     0.173 A 
ATOM     90  F   UNL A   1      45.620  33.179  26.605  1.00  0.00    -0.203 F 
ATOM     91  C   UNL A   1      46.452  34.737  28.161  1.00  0.00     0.198 A 
ATOM     92  C   UNL A   1      46.906  34.058  30.418  1.00  0.00     0.198 A 
ATOM     93  F   UNL A   1      46.561  31.825  31.068  1.00  0.00    -0.203 F 
ATOM     94  F   UNL A   1      46.457  35.682  27.209  1.00  0.00    -0.200 F 
ATOM     95  C   UNL A   1      46.883  35.044  29.442  1.00  0.00     0.200 A 
ATOM     96  F   UNL A   1      47.307  34.356  31.661  1.00  0.00    -0.200 F 
ATOM     97  F   UNL A   1      47.282  36.288  29.737  1.00  0.00    -0.200 F 
ENDBRANCH  64  87
ENDBRANCH  38  39
ENDBRANCH  30  33
ENDBRANCH  28  29
ENDBRANCH   1  28
TORSDOF 12
ENDMDL
