MODEL 1
REMARK VINA RESULT:     -13.0      0.000      0.000
REMARK SMILES O=C(NCCCNC(=O)c1ccc(Cl)cc1-c1ccc(O)c(F)c1)c1ccc(-c2c3nc(c(-c4c(F)c(F)c(F)c(F)c4F)c4ccc([nH]4)c(-c4c(F)c(F)c(F)c(F)c4F)c4nc(c(-c5c(F)c(F)c(F)c(F)c5F)c5ccc2[nH]5)C=C4)C=C3)cc1
REMARK SMILES IDX 5 1 4 2 3 3 1 4 2 5 25 7 26 8 87 9 27 10 86 11 28 12 29 13
REMARK SMILES IDX 30 14 80 15 31 16 85 17 79 18 81 19 32 20 84 21 78 22 77 23
REMARK SMILES IDX 33 25 65 26 45 27 64 28 46 29 49 30 63 31 82 32 47 33 48 34
REMARK SMILES IDX 62 36 83 37 50 38 34 39 35 40 43 41 36 42 37 43 41 44 44 45
REMARK SMILES IDX 38 46 39 47 42 48 40 49 66 50 67 51 75 52 68 53 69 54 73 55
REMARK SMILES IDX 76 56 70 57 71 58 74 59 72 60 51 61 52 62 60 63 53 64 54 65
REMARK SMILES IDX 58 66 61 67 55 68 56 69 59 70 57 71 6 72 7 73 8 74 9 76
REMARK SMILES IDX 10 77 11 78 16 79 12 80 15 81 13 82 14 83 17 84 18 85 24 86
REMARK SMILES IDX 19 87 22 88 20 89 23 90 21 91
REMARK H PARENT 3 6 81 24 49 35 7 75 21 92
REMARK Flexibility Score: inf
ROOT
ATOM      1  C   UNL A   1      31.778  28.984  26.837  1.00  0.00     0.042 C 
ENDROOT
BRANCH   1   2
ATOM      2  C   UNL A   1      32.720  29.914  26.086  1.00  0.00     0.118 C 
BRANCH   2   3
ATOM      3  N   UNL A   1      32.578  31.312  26.476  1.00  0.00    -0.352 N 
ATOM      4  O   UNL A   1      32.904  33.215  27.626  1.00  0.00    -0.269 OA
ATOM      5  C   UNL A   1      33.318  32.098  27.328  1.00  0.00     0.251 C 
ATOM      6  H   UNL A   1      31.819  31.776  26.054  1.00  0.00     0.163 HD
BRANCH   5   7
ATOM      7  C   UNL A   1      34.583  31.608  27.917  1.00  0.00     0.039 A 
ATOM      8  C   UNL A   1      34.723  30.285  28.336  1.00  0.00     0.014 A 
ATOM      9  C   UNL A   1      35.667  32.486  28.029  1.00  0.00     0.014 A 
ATOM     10  C   UNL A   1      35.857  29.898  29.042  1.00  0.00     0.010 A 
ATOM     11  C   UNL A   1      36.853  32.062  28.641  1.00  0.00     0.010 A 
ATOM     12  C   UNL A   1      36.938  30.780  29.203  1.00  0.00    -0.014 A 
BRANCH  12  13
ATOM     13  C   UNL A   1      38.141  30.325  29.949  1.00  0.00     0.031 A 
ATOM     14  C   UNL A   1      38.363  30.722  31.383  1.00  0.00     0.074 A 
ATOM     15  C   UNL A   1      39.015  29.500  29.339  1.00  0.00     0.049 A 
ATOM     16  N   UNL A   1      39.324  30.369  32.201  1.00  0.00    -0.248 NA
ATOM     17  C   UNL A   1      37.387  31.647  31.979  1.00  0.00     0.031 C 
ATOM     18  C   UNL A   1      38.917  29.051  27.948  1.00  0.00     0.029 A 
ATOM     19  N   UNL A   1      40.136  28.867  29.813  1.00  0.00    -0.354 N 
ATOM     20  C   UNL A   1      39.085  31.045  33.390  1.00  0.00     0.074 A 
ATOM     21  C   UNL A   1      37.902  31.851  33.183  1.00  0.00     0.031 C 
ATOM     22  C   UNL A   1      39.897  28.169  27.700  1.00  0.00     0.029 A 
ATOM     23  C   UNL A   1      40.727  28.037  28.892  1.00  0.00     0.049 A 
ATOM     24  H   UNL A   1      40.483  28.996  30.725  1.00  0.00     0.167 HD
ATOM     25  C   UNL A   1      39.783  30.990  34.551  1.00  0.00     0.037 A 
ATOM     26  C   UNL A   1      41.819  27.256  28.993  1.00  0.00     0.037 A 
ATOM     27  C   UNL A   1      40.943  30.162  34.763  1.00  0.00     0.049 A 
ATOM     28  C   UNL A   1      42.573  27.218  30.290  1.00  0.00     0.074 A 
ATOM     29  C   UNL A   1      41.690  30.003  35.919  1.00  0.00     0.029 A 
ATOM     30  N   UNL A   1      41.526  29.355  33.798  1.00  0.00    -0.354 N 
ATOM     31  N   UNL A   1      42.310  27.829  31.419  1.00  0.00    -0.248 NA
ATOM     32  C   UNL A   1      43.778  26.378  30.327  1.00  0.00     0.031 C 
ATOM     33  C   UNL A   1      42.752  29.136  35.639  1.00  0.00     0.029 A 
ATOM     34  C   UNL A   1      42.636  28.712  34.325  1.00  0.00     0.049 A 
ATOM     35  H   UNL A   1      41.200  29.254  32.874  1.00  0.00     0.167 HD
ATOM     36  C   UNL A   1      43.297  27.428  32.308  1.00  0.00     0.074 A 
ATOM     37  C   UNL A   1      44.156  26.508  31.591  1.00  0.00     0.031 C 
ATOM     38  C   UNL A   1      43.475  27.790  33.602  1.00  0.00     0.037 A 
BRANCH  25  39
ATOM     39  C   UNL A   1      39.325  31.867  35.682  1.00  0.00     0.064 A 
ATOM     40  C   UNL A   1      38.375  31.435  36.618  1.00  0.00     0.173 A 
ATOM     41  C   UNL A   1      39.876  33.147  35.851  1.00  0.00     0.173 A 
ATOM     42  F   UNL A   1      37.808  30.225  36.496  1.00  0.00    -0.203 F 
ATOM     43  C   UNL A   1      37.973  32.261  37.666  1.00  0.00     0.198 A 
ATOM     44  C   UNL A   1      39.494  33.959  36.917  1.00  0.00     0.198 A 
ATOM     45  F   UNL A   1      40.794  33.609  34.988  1.00  0.00    -0.203 F 
ATOM     46  F   UNL A   1      37.029  31.844  38.520  1.00  0.00    -0.200 F 
ATOM     47  C   UNL A   1      38.537  33.518  37.818  1.00  0.00     0.200 A 
ATOM     48  F   UNL A   1      40.050  35.169  37.068  1.00  0.00    -0.200 F 
ATOM     49  F   UNL A   1      38.153  34.310  38.830  1.00  0.00    -0.200 F 
ENDBRANCH  25  39
BRANCH  26  50
ATOM     50  C   UNL A   1      42.248  26.433  27.834  1.00  0.00     0.064 A 
ATOM     51  C   UNL A   1      43.230  26.895  26.948  1.00  0.00     0.173 A 
ATOM     52  C   UNL A   1      41.695  25.166  27.595  1.00  0.00     0.173 A 
ATOM     53  F   UNL A   1      43.775  28.107  27.125  1.00  0.00    -0.203 F 
ATOM     54  C   UNL A   1      43.632  26.128  25.856  1.00  0.00     0.198 A 
ATOM     55  C   UNL A   1      42.120  24.387  26.521  1.00  0.00     0.198 A 
ATOM     56  F   UNL A   1      40.757  24.677  28.418  1.00  0.00    -0.203 F 
ATOM     57  F   UNL A   1      44.543  26.610  25.001  1.00  0.00    -0.200 F 
ATOM     58  C   UNL A   1      43.082  24.872  25.648  1.00  0.00     0.200 A 
ATOM     59  F   UNL A   1      41.598  23.168  26.333  1.00  0.00    -0.200 F 
ATOM     60  F   UNL A   1      43.474  24.131  24.603  1.00  0.00    -0.200 F 
ENDBRANCH  26  50
BRANCH  38  61
ATOM     61  C   UNL A   1      44.615  27.150  34.340  1.00  0.00     0.064 A 
ATOM     62  C   UNL A   1      45.883  27.746  34.402  1.00  0.00     0.173 A 
ATOM     63  C   UNL A   1      44.428  25.930  35.008  1.00  0.00     0.173 A 
ATOM     64  F   UNL A   1      46.116  28.904  33.766  1.00  0.00    -0.203 F 
ATOM     65  C   UNL A   1      46.931  27.129  35.079  1.00  0.00     0.198 A 
ATOM     66  C   UNL A   1      45.470  25.330  35.709  1.00  0.00     0.198 A 
ATOM     67  F   UNL A   1      43.233  25.321  34.983  1.00  0.00    -0.203 F 
ATOM     68  F   UNL A   1      48.149  27.688  35.079  1.00  0.00    -0.200 F 
ATOM     69  C   UNL A   1      46.723  25.925  35.736  1.00  0.00     0.200 A 
ATOM     70  F   UNL A   1      45.263  24.173  36.353  1.00  0.00    -0.200 F 
ATOM     71  F   UNL A   1      47.733  25.332  36.388  1.00  0.00    -0.200 F 
ENDBRANCH  38  61
ENDBRANCH  12  13
ENDBRANCH   5   7
ENDBRANCH   2   3
ENDBRANCH   1   2
BRANCH   1  72
ATOM     72  C   UNL A   1      31.951  27.513  26.489  1.00  0.00     0.118 C 
BRANCH  72  73
ATOM     73  N   UNL A   1      30.695  26.775  26.504  1.00  0.00    -0.352 N 
ATOM     74  C   UNL A   1      30.046  26.094  25.501  1.00  0.00     0.251 C 
ATOM     75  H   UNL A   1      30.235  26.761  27.375  1.00  0.00     0.163 HD
ATOM     76  O   UNL A   1      28.956  25.578  25.725  1.00  0.00    -0.269 OA
BRANCH  74  77
ATOM     77  C   UNL A   1      30.675  25.982  24.165  1.00  0.00     0.047 A 
ATOM     78  C   UNL A   1      31.454  24.837  23.913  1.00  0.00     0.016 A 
ATOM     79  C   UNL A   1      30.475  26.949  23.156  1.00  0.00    -0.004 A 
ATOM     80  C   UNL A   1      32.144  24.698  22.711  1.00  0.00     0.021 A 
ATOM     81  C   UNL A   1      31.192  26.787  21.951  1.00  0.00     0.030 A 
ATOM     82  C   UNL A   1      32.027  25.687  21.744  1.00  0.00     0.041 A 
ATOM     83  Cl  UNL A   1      32.903  25.544  20.271  1.00  0.00    -0.084 Cl
BRANCH  79  84
ATOM     84  C   UNL A   1      29.529  28.077  23.263  1.00  0.00    -0.014 A 
ATOM     85  C   UNL A   1      28.140  27.914  23.126  1.00  0.00     0.013 A 
ATOM     86  C   UNL A   1      30.020  29.369  23.524  1.00  0.00     0.052 A 
ATOM     87  C   UNL A   1      27.268  29.009  23.240  1.00  0.00     0.050 A 
ATOM     88  C   UNL A   1      29.152  30.451  23.644  1.00  0.00     0.165 A 
ATOM     89  C   UNL A   1      27.781  30.276  23.501  1.00  0.00     0.151 A 
ATOM     90  F   UNL A   1      29.662  31.665  23.901  1.00  0.00    -0.203 F 
BRANCH  89  91
ATOM     91  O   UNL A   1      26.959  31.359  23.622  1.00  0.00    -0.505 OA
ATOM     92  H   UNL A   1      26.161  31.398  23.132  1.00  0.00     0.293 HD
ENDBRANCH  89  91
ENDBRANCH  79  84
ENDBRANCH  74  77
ENDBRANCH  72  73
ENDBRANCH   1  72
TORSDOF 12
ENDMDL
MODEL 2
REMARK VINA RESULT:     -12.9      0.837      1.919
REMARK SMILES O=C(NCCCNC(=O)c1ccc(Cl)cc1-c1ccc(O)c(F)c1)c1ccc(-c2c3nc(c(-c4c(F)c(F)c(F)c(F)c4F)c4ccc([nH]4)c(-c4c(F)c(F)c(F)c(F)c4F)c4nc(c(-c5c(F)c(F)c(F)c(F)c5F)c5ccc2[nH]5)C=C4)C=C3)cc1
REMARK SMILES IDX 5 1 4 2 3 3 1 4 2 5 25 7 26 8 87 9 27 10 86 11 28 12 29 13
REMARK SMILES IDX 30 14 80 15 31 16 85 17 79 18 81 19 32 20 84 21 78 22 77 23
REMARK SMILES IDX 33 25 65 26 45 27 64 28 46 29 49 30 63 31 82 32 47 33 48 34
REMARK SMILES IDX 62 36 83 37 50 38 34 39 35 40 43 41 36 42 37 43 41 44 44 45
REMARK SMILES IDX 38 46 39 47 42 48 40 49 66 50 67 51 75 52 68 53 69 54 73 55
REMARK SMILES IDX 76 56 70 57 71 58 74 59 72 60 51 61 52 62 60 63 53 64 54 65
REMARK SMILES IDX 58 66 61 67 55 68 56 69 59 70 57 71 6 72 7 73 8 74 9 76
REMARK SMILES IDX 10 77 11 78 16 79 12 80 15 81 13 82 14 83 17 84 18 85 24 86
REMARK SMILES IDX 19 87 22 88 20 89 23 90 21 91
REMARK H PARENT 3 6 81 24 49 35 7 75 21 92
REMARK Flexibility Score: inf
ROOT
ATOM      1  C   UNL A   1      31.707  28.865  25.937  1.00  0.00     0.042 C 
ENDROOT
BRANCH   1   2
ATOM      2  C   UNL A   1      32.904  29.794  25.792  1.00  0.00     0.118 C 
BRANCH   2   3
ATOM      3  N   UNL A   1      32.650  31.140  26.293  1.00  0.00    -0.352 N 
ATOM      4  O   UNL A   1      32.806  32.957  27.606  1.00  0.00    -0.269 OA
ATOM      5  C   UNL A   1      33.309  31.902  27.229  1.00  0.00     0.251 C 
ATOM      6  H   UNL A   1      31.869  31.582  25.888  1.00  0.00     0.163 HD
BRANCH   5   7
ATOM      7  C   UNL A   1      34.592  31.455  27.814  1.00  0.00     0.039 A 
ATOM      8  C   UNL A   1      34.786  30.134  28.213  1.00  0.00     0.014 A 
ATOM      9  C   UNL A   1      35.639  32.375  27.940  1.00  0.00     0.014 A 
ATOM     10  C   UNL A   1      35.934  29.783  28.916  1.00  0.00     0.010 A 
ATOM     11  C   UNL A   1      36.840  31.992  28.548  1.00  0.00     0.010 A 
ATOM     12  C   UNL A   1      36.977  30.706  29.092  1.00  0.00    -0.014 A 
BRANCH  12  13
ATOM     13  C   UNL A   1      38.197  30.290  29.834  1.00  0.00     0.031 A 
ATOM     14  C   UNL A   1      38.419  30.708  31.262  1.00  0.00     0.074 A 
ATOM     15  C   UNL A   1      39.088  29.482  29.225  1.00  0.00     0.049 A 
ATOM     16  N   UNL A   1      39.394  30.387  32.076  1.00  0.00    -0.248 NA
ATOM     17  C   UNL A   1      37.423  31.612  31.856  1.00  0.00     0.031 C 
ATOM     18  C   UNL A   1      38.992  29.017  27.840  1.00  0.00     0.029 A 
ATOM     19  N   UNL A   1      40.228  28.884  29.697  1.00  0.00    -0.354 N 
ATOM     20  C   UNL A   1      39.146  31.069  33.261  1.00  0.00     0.074 A 
ATOM     21  C   UNL A   1      37.940  31.843  33.054  1.00  0.00     0.031 C 
ATOM     22  C   UNL A   1      39.993  28.158  27.594  1.00  0.00     0.029 A 
ATOM     23  C   UNL A   1      40.834  28.060  28.781  1.00  0.00     0.049 A 
ATOM     24  H   UNL A   1      40.578  29.030  30.606  1.00  0.00     0.167 HD
ATOM     25  C   UNL A   1      39.853  31.044  34.417  1.00  0.00     0.037 A 
ATOM     26  C   UNL A   1      41.946  27.309  28.882  1.00  0.00     0.037 A 
ATOM     27  C   UNL A   1      41.035  30.249  34.629  1.00  0.00     0.049 A 
ATOM     28  C   UNL A   1      42.710  27.303  30.174  1.00  0.00     0.074 A 
ATOM     29  C   UNL A   1      41.795  30.121  35.781  1.00  0.00     0.029 A 
ATOM     30  N   UNL A   1      41.633  29.448  33.668  1.00  0.00    -0.354 N 
ATOM     31  N   UNL A   1      42.439  27.919  31.299  1.00  0.00    -0.248 NA
ATOM     32  C   UNL A   1      43.937  26.495  30.211  1.00  0.00     0.031 C 
ATOM     33  C   UNL A   1      42.877  29.279  35.501  1.00  0.00     0.029 A 
ATOM     34  C   UNL A   1      42.763  28.839  34.193  1.00  0.00     0.049 A 
ATOM     35  H   UNL A   1      41.303  29.329  32.747  1.00  0.00     0.167 HD
ATOM     36  C   UNL A   1      43.442  27.552  32.184  1.00  0.00     0.074 A 
ATOM     37  C   UNL A   1      44.320  26.648  31.470  1.00  0.00     0.031 C 
ATOM     38  C   UNL A   1      43.620  27.932  33.474  1.00  0.00     0.037 A 
BRANCH  25  39
ATOM     39  C   UNL A   1      39.381  31.921  35.542  1.00  0.00     0.064 A 
ATOM     40  C   UNL A   1      38.479  31.460  36.514  1.00  0.00     0.173 A 
ATOM     41  C   UNL A   1      39.868  33.231  35.670  1.00  0.00     0.173 A 
ATOM     42  F   UNL A   1      37.974  30.220  36.432  1.00  0.00    -0.203 F 
ATOM     43  C   UNL A   1      38.063  32.287  37.555  1.00  0.00     0.198 A 
ATOM     44  C   UNL A   1      39.473  34.044  36.729  1.00  0.00     0.198 A 
ATOM     45  F   UNL A   1      40.737  33.721  34.773  1.00  0.00    -0.203 F 
ATOM     46  F   UNL A   1      37.166  31.840  38.444  1.00  0.00    -0.200 F 
ATOM     47  C   UNL A   1      38.565  33.574  37.666  1.00  0.00     0.200 A 
ATOM     48  F   UNL A   1      39.968  35.285  36.841  1.00  0.00    -0.200 F 
ATOM     49  F   UNL A   1      38.167  34.367  38.672  1.00  0.00    -0.200 F 
ENDBRANCH  25  39
BRANCH  26  50
ATOM     50  C   UNL A   1      42.389  26.485  27.728  1.00  0.00     0.064 A 
ATOM     51  C   UNL A   1      41.848  25.213  27.502  1.00  0.00     0.173 A 
ATOM     52  C   UNL A   1      43.352  26.957  26.822  1.00  0.00     0.173 A 
ATOM     53  F   UNL A   1      40.938  24.712  28.350  1.00  0.00    -0.203 F 
ATOM     54  C   UNL A   1      42.265  24.435  26.423  1.00  0.00     0.198 A 
ATOM     55  C   UNL A   1      43.744  26.191  25.727  1.00  0.00     0.198 A 
ATOM     56  F   UNL A   1      43.894  28.171  26.991  1.00  0.00    -0.203 F 
ATOM     57  F   UNL A   1      41.762  23.206  26.254  1.00  0.00    -0.200 F 
ATOM     58  C   UNL A   1      43.207  24.928  25.533  1.00  0.00     0.200 A 
ATOM     59  F   UNL A   1      44.642  26.678  24.860  1.00  0.00    -0.200 F 
ATOM     60  F   UNL A   1      43.601  24.184  24.491  1.00  0.00    -0.200 F 
ENDBRANCH  26  50
BRANCH  38  61
ATOM     61  C   UNL A   1      44.781  27.329  34.209  1.00  0.00     0.064 A 
ATOM     62  C   UNL A   1      44.665  26.122  34.914  1.00  0.00     0.173 A 
ATOM     63  C   UNL A   1      46.034  27.962  34.191  1.00  0.00     0.173 A 
ATOM     64  F   UNL A   1      43.484  25.487  34.975  1.00  0.00    -0.203 F 
ATOM     65  C   UNL A   1      45.751  25.587  35.601  1.00  0.00     0.198 A 
ATOM     66  C   UNL A   1      47.126  27.409  34.855  1.00  0.00     0.198 A 
ATOM     67  F   UNL A   1      46.199  29.115  33.527  1.00  0.00    -0.203 F 
ATOM     68  F   UNL A   1      45.603  24.463  36.315  1.00  0.00    -0.200 F 
ATOM     69  C   UNL A   1      46.981  26.228  35.567  1.00  0.00     0.200 A 
ATOM     70  F   UNL A   1      48.316  28.023  34.810  1.00  0.00    -0.200 F 
ATOM     71  F   UNL A   1      48.025  25.712  36.229  1.00  0.00    -0.200 F 
ENDBRANCH  38  61
ENDBRANCH  12  13
ENDBRANCH   5   7
ENDBRANCH   2   3
ENDBRANCH   1   2
BRANCH   1  72
ATOM     72  C   UNL A   1      32.039  27.517  26.559  1.00  0.00     0.118 C 
BRANCH  72  73
ATOM     73  N   UNL A   1      30.853  26.742  26.898  1.00  0.00    -0.352 N 
ATOM     74  C   UNL A   1      30.269  25.674  26.258  1.00  0.00     0.251 C 
ATOM     75  H   UNL A   1      30.395  27.029  27.722  1.00  0.00     0.163 HD
ATOM     76  O   UNL A   1      29.229  25.197  26.700  1.00  0.00    -0.269 OA
BRANCH  74  77
ATOM     77  C   UNL A   1      30.909  25.104  25.049  1.00  0.00     0.047 A 
ATOM     78  C   UNL A   1      31.665  23.929  25.213  1.00  0.00     0.016 A 
ATOM     79  C   UNL A   1      30.739  25.675  23.770  1.00  0.00    -0.004 A 
ATOM     80  C   UNL A   1      32.363  23.379  24.141  1.00  0.00     0.021 A 
ATOM     81  C   UNL A   1      31.464  25.103  22.703  1.00  0.00     0.030 A 
ATOM     82  C   UNL A   1      32.277  23.984  22.894  1.00  0.00     0.041 A 
ATOM     83  Cl  UNL A   1      33.164  23.334  21.571  1.00  0.00    -0.084 Cl
BRANCH  79  84
ATOM     84  C   UNL A   1      29.816  26.789  23.472  1.00  0.00    -0.014 A 
ATOM     85  C   UNL A   1      30.216  27.933  22.762  1.00  0.00     0.013 A 
ATOM     86  C   UNL A   1      28.478  26.710  23.899  1.00  0.00     0.052 A 
ATOM     87  C   UNL A   1      29.309  28.969  22.490  1.00  0.00     0.050 A 
ATOM     88  C   UNL A   1      27.580  27.736  23.622  1.00  0.00     0.165 A 
ATOM     89  C   UNL A   1      27.991  28.865  22.922  1.00  0.00     0.151 A 
ATOM     90  F   UNL A   1      26.311  27.618  24.040  1.00  0.00    -0.203 F 
BRANCH  89  91
ATOM     91  O   UNL A   1      27.085  29.854  22.671  1.00  0.00    -0.505 OA
ATOM     92  H   UNL A   1      27.204  30.422  21.935  1.00  0.00     0.293 HD
ENDBRANCH  89  91
ENDBRANCH  79  84
ENDBRANCH  74  77
ENDBRANCH  72  73
ENDBRANCH   1  72
TORSDOF 12
ENDMDL
MODEL 3
REMARK VINA RESULT:     -12.9      0.843      1.546
REMARK SMILES O=C(NCCCNC(=O)c1ccc(Cl)cc1-c1ccc(O)c(F)c1)c1ccc(-c2c3nc(c(-c4c(F)c(F)c(F)c(F)c4F)c4ccc([nH]4)c(-c4c(F)c(F)c(F)c(F)c4F)c4nc(c(-c5c(F)c(F)c(F)c(F)c5F)c5ccc2[nH]5)C=C4)C=C3)cc1
REMARK SMILES IDX 5 1 4 2 3 3 1 4 2 5 25 7 26 8 87 9 27 10 86 11 28 12 29 13
REMARK SMILES IDX 30 14 80 15 31 16 85 17 79 18 81 19 32 20 84 21 78 22 77 23
REMARK SMILES IDX 33 25 65 26 45 27 64 28 46 29 49 30 63 31 82 32 47 33 48 34
REMARK SMILES IDX 62 36 83 37 50 38 34 39 35 40 43 41 36 42 37 43 41 44 44 45
REMARK SMILES IDX 38 46 39 47 42 48 40 49 66 50 67 51 75 52 68 53 69 54 73 55
REMARK SMILES IDX 76 56 70 57 71 58 74 59 72 60 51 61 52 62 60 63 53 64 54 65
REMARK SMILES IDX 58 66 61 67 55 68 56 69 59 70 57 71 6 72 7 73 8 74 9 76
REMARK SMILES IDX 10 77 11 78 16 79 12 80 15 81 13 82 14 83 17 84 18 85 24 86
REMARK SMILES IDX 19 87 22 88 20 89 23 90 21 91
REMARK H PARENT 3 6 81 24 49 35 7 75 21 92
REMARK Flexibility Score: inf
ROOT
ATOM      1  C   UNL A   1      31.729  28.817  25.913  1.00  0.00     0.042 C 
ENDROOT
BRANCH   1   2
ATOM      2  C   UNL A   1      32.924  29.752  25.788  1.00  0.00     0.118 C 
BRANCH   2   3
ATOM      3  N   UNL A   1      32.659  31.092  26.298  1.00  0.00    -0.352 N 
ATOM      4  O   UNL A   1      32.802  32.902  27.623  1.00  0.00    -0.269 OA
ATOM      5  C   UNL A   1      33.313  31.853  27.239  1.00  0.00     0.251 C 
ATOM      6  H   UNL A   1      31.874  31.531  25.897  1.00  0.00     0.163 HD
BRANCH   5   7
ATOM      7  C   UNL A   1      34.601  31.413  27.819  1.00  0.00     0.039 A 
ATOM      8  C   UNL A   1      34.807  30.089  28.205  1.00  0.00     0.014 A 
ATOM      9  C   UNL A   1      35.639  32.341  27.953  1.00  0.00     0.014 A 
ATOM     10  C   UNL A   1      35.958  29.743  28.905  1.00  0.00     0.010 A 
ATOM     11  C   UNL A   1      36.844  31.964  28.558  1.00  0.00     0.010 A 
ATOM     12  C   UNL A   1      36.993  30.674  29.089  1.00  0.00    -0.014 A 
BRANCH  12  13
ATOM     13  C   UNL A   1      38.217  30.262  29.826  1.00  0.00     0.031 A 
ATOM     14  C   UNL A   1      38.447  30.689  31.250  1.00  0.00     0.074 A 
ATOM     15  C   UNL A   1      39.104  29.449  29.218  1.00  0.00     0.049 A 
ATOM     16  N   UNL A   1      39.428  30.374  32.061  1.00  0.00    -0.248 NA
ATOM     17  C   UNL A   1      37.455  31.598  31.844  1.00  0.00     0.031 C 
ATOM     18  C   UNL A   1      39.000  28.975  27.836  1.00  0.00     0.029 A 
ATOM     19  N   UNL A   1      40.247  28.854  29.687  1.00  0.00    -0.354 N 
ATOM     20  C   UNL A   1      39.187  31.063  33.242  1.00  0.00     0.074 A 
ATOM     21  C   UNL A   1      37.980  31.836  33.038  1.00  0.00     0.031 C 
ATOM     22  C   UNL A   1      39.999  28.115  27.590  1.00  0.00     0.029 A 
ATOM     23  C   UNL A   1      40.847  28.023  28.773  1.00  0.00     0.049 A 
ATOM     24  H   UNL A   1      40.603  29.006  30.593  1.00  0.00     0.167 HD
ATOM     25  C   UNL A   1      39.901  31.046  34.394  1.00  0.00     0.037 A 
ATOM     26  C   UNL A   1      41.960  27.273  28.872  1.00  0.00     0.037 A 
ATOM     27  C   UNL A   1      41.084  30.252  34.605  1.00  0.00     0.049 A 
ATOM     28  C   UNL A   1      42.731  27.275  30.160  1.00  0.00     0.074 A 
ATOM     29  C   UNL A   1      41.850  30.131  35.753  1.00  0.00     0.029 A 
ATOM     30  N   UNL A   1      41.675  29.444  33.646  1.00  0.00    -0.354 N 
ATOM     31  N   UNL A   1      42.467  27.898  31.282  1.00  0.00    -0.248 NA
ATOM     32  C   UNL A   1      43.958  26.467  30.195  1.00  0.00     0.031 C 
ATOM     33  C   UNL A   1      42.930  29.286  35.473  1.00  0.00     0.029 A 
ATOM     34  C   UNL A   1      42.808  28.838  34.168  1.00  0.00     0.049 A 
ATOM     35  H   UNL A   1      41.340  29.319  32.728  1.00  0.00     0.167 HD
ATOM     36  C   UNL A   1      43.475  27.537  32.164  1.00  0.00     0.074 A 
ATOM     37  C   UNL A   1      44.349  26.628  31.451  1.00  0.00     0.031 C 
ATOM     38  C   UNL A   1      43.661  27.925  33.450  1.00  0.00     0.037 A 
BRANCH  25  39
ATOM     39  C   UNL A   1      39.435  31.930  35.517  1.00  0.00     0.064 A 
ATOM     40  C   UNL A   1      39.863  33.261  35.638  1.00  0.00     0.173 A 
ATOM     41  C   UNL A   1      38.518  31.449  36.463  1.00  0.00     0.173 A 
ATOM     42  F   UNL A   1      40.748  33.768  34.767  1.00  0.00    -0.203 F 
ATOM     43  C   UNL A   1      39.409  34.067  36.680  1.00  0.00     0.198 A 
ATOM     44  C   UNL A   1      38.044  32.266  37.486  1.00  0.00     0.198 A 
ATOM     45  F   UNL A   1      38.071  30.185  36.390  1.00  0.00    -0.203 F 
ATOM     46  F   UNL A   1      39.868  35.320  36.803  1.00  0.00    -0.200 F 
ATOM     47  C   UNL A   1      38.496  33.572  37.598  1.00  0.00     0.200 A 
ATOM     48  F   UNL A   1      37.152  31.789  38.365  1.00  0.00    -0.200 F 
ATOM     49  F   UNL A   1      38.058  34.351  38.598  1.00  0.00    -0.200 F 
ENDBRANCH  25  39
BRANCH  26  50
ATOM     50  C   UNL A   1      42.395  26.441  27.721  1.00  0.00     0.064 A 
ATOM     51  C   UNL A   1      43.354  26.913  26.815  1.00  0.00     0.173 A 
ATOM     52  C   UNL A   1      41.871  25.157  27.510  1.00  0.00     0.173 A 
ATOM     53  F   UNL A   1      43.871  28.141  26.965  1.00  0.00    -0.203 F 
ATOM     54  C   UNL A   1      43.762  26.138  25.730  1.00  0.00     0.198 A 
ATOM     55  C   UNL A   1      42.302  24.372  26.443  1.00  0.00     0.198 A 
ATOM     56  F   UNL A   1      40.956  24.659  28.352  1.00  0.00    -0.203 F 
ATOM     57  F   UNL A   1      44.650  26.628  24.856  1.00  0.00    -0.200 F 
ATOM     58  C   UNL A   1      43.241  24.866  25.550  1.00  0.00     0.200 A 
ATOM     59  F   UNL A   1      41.809  23.137  26.282  1.00  0.00    -0.200 F 
ATOM     60  F   UNL A   1      43.639  24.117  24.513  1.00  0.00    -0.200 F 
ENDBRANCH  26  50
BRANCH  38  61
ATOM     61  C   UNL A   1      44.826  27.327  34.182  1.00  0.00     0.064 A 
ATOM     62  C   UNL A   1      46.080  27.955  34.215  1.00  0.00     0.173 A 
ATOM     63  C   UNL A   1      44.679  26.116  34.876  1.00  0.00     0.173 A 
ATOM     64  F   UNL A   1      46.277  29.105  33.553  1.00  0.00    -0.203 F 
ATOM     65  C   UNL A   1      47.152  27.376  34.888  1.00  0.00     0.198 A 
ATOM     66  C   UNL A   1      45.745  25.555  35.573  1.00  0.00     0.198 A 
ATOM     67  F   UNL A   1      43.499  25.479  34.880  1.00  0.00    -0.203 F 
ATOM     68  F   UNL A   1      48.356  27.964  34.859  1.00  0.00    -0.200 F 
ATOM     69  C   UNL A   1      46.983  26.179  35.571  1.00  0.00     0.200 A 
ATOM     70  F   UNL A   1      45.575  24.406  36.242  1.00  0.00    -0.200 F 
ATOM     71  F   UNL A   1      48.016  25.624  36.218  1.00  0.00    -0.200 F 
ENDBRANCH  38  61
ENDBRANCH  12  13
ENDBRANCH   5   7
ENDBRANCH   2   3
ENDBRANCH   1   2
BRANCH   1  72
ATOM     72  C   UNL A   1      32.049  27.487  26.580  1.00  0.00     0.118 C 
BRANCH  72  73
ATOM     73  N   UNL A   1      30.857  26.718  26.911  1.00  0.00    -0.352 N 
ATOM     74  C   UNL A   1      30.266  25.661  26.259  1.00  0.00     0.251 C 
ATOM     75  H   UNL A   1      30.401  27.000  27.737  1.00  0.00     0.163 HD
ATOM     76  O   UNL A   1      29.221  25.188  26.697  1.00  0.00    -0.269 OA
BRANCH  74  77
ATOM     77  C   UNL A   1      30.901  25.098  25.046  1.00  0.00     0.047 A 
ATOM     78  C   UNL A   1      31.662  23.925  25.201  1.00  0.00     0.016 A 
ATOM     79  C   UNL A   1      30.723  25.674  23.769  1.00  0.00    -0.004 A 
ATOM     80  C   UNL A   1      32.357  23.382  24.123  1.00  0.00     0.021 A 
ATOM     81  C   UNL A   1      31.445  25.108  22.697  1.00  0.00     0.030 A 
ATOM     82  C   UNL A   1      32.263  23.992  22.879  1.00  0.00     0.041 A 
ATOM     83  Cl  UNL A   1      33.145  23.351  21.549  1.00  0.00    -0.084 Cl
BRANCH  79  84
ATOM     84  C   UNL A   1      29.795  26.785  23.481  1.00  0.00    -0.014 A 
ATOM     85  C   UNL A   1      30.188  27.936  22.778  1.00  0.00     0.013 A 
ATOM     86  C   UNL A   1      28.457  26.697  23.908  1.00  0.00     0.052 A 
ATOM     87  C   UNL A   1      29.276  28.971  22.515  1.00  0.00     0.050 A 
ATOM     88  C   UNL A   1      27.554  27.721  23.640  1.00  0.00     0.165 A 
ATOM     89  C   UNL A   1      27.959  28.857  22.948  1.00  0.00     0.151 A 
ATOM     90  F   UNL A   1      26.286  27.594  24.059  1.00  0.00    -0.203 F 
BRANCH  89  91
ATOM     91  O   UNL A   1      27.048  29.843  22.705  1.00  0.00    -0.505 OA
ATOM     92  H   UNL A   1      26.807  30.438  23.388  1.00  0.00     0.293 HD
ENDBRANCH  89  91
ENDBRANCH  79  84
ENDBRANCH  74  77
ENDBRANCH  72  73
ENDBRANCH   1  72
TORSDOF 12
ENDMDL
