MODEL 1
REMARK VINA RESULT:     -14.0      0.000      0.000
REMARK SMILES Cc1noc2c1-c1c(c(C(=O)NCCCNC(=O)c3ccc(-c4c5nc(c(-c6c(F)c(F)c(F)c(F)c6F)c6ccc([nH]6)c(-c6c(F)c(F)c(F)c(F)c6F)c6nc(c(-c7c(F)c(F)c(F)c(F)c7F)c7ccc4[nH]7)C=C6)C=C5)cc3)nn1C)CC2
REMARK SMILES IDX 15 1 14 2 13 3 12 4 10 5 11 6 9 8 1 9 2 10 3 11 6 12 4 13
REMARK SMILES IDX 5 14 7 15 86 16 8 17 83 18 85 19 82 20 84 21 16 22 17 23
REMARK SMILES IDX 18 25 19 26 20 27 81 28 21 29 80 30 22 31 23 32 24 33 74 34
REMARK SMILES IDX 25 35 79 36 73 37 75 38 26 39 78 40 72 41 71 42 27 44 59 45
REMARK SMILES IDX 39 46 58 47 40 48 43 49 57 50 76 51 41 52 42 53 56 55 77 56
REMARK SMILES IDX 44 57 28 58 29 59 37 60 30 61 31 62 35 63 38 64 32 65 33 66
REMARK SMILES IDX 36 67 34 68 60 69 61 70 69 71 62 72 63 73 67 74 70 75 64 76
REMARK SMILES IDX 65 77 68 78 66 79 45 80 46 81 54 82 47 83 48 84 52 85 55 86
REMARK SMILES IDX 49 87 50 88 53 89 51 90
REMARK H PARENT 12 7 16 24 75 43 43 54
REMARK Flexibility Score: inf
ROOT
ATOM      1  C   UNL A   1      38.899  22.233  25.958  1.00  0.00     0.118 C 
ENDROOT
BRANCH   1   2
ATOM      2  C   UNL A   1      37.985  21.167  25.436  1.00  0.00     0.042 C 
BRANCH   2   3
ATOM      3  C   UNL A   1      36.549  21.642  25.407  1.00  0.00     0.118 C 
BRANCH   3   4
ATOM      4  N   UNL A   1      35.659  21.448  26.501  1.00  0.00    -0.351 N 
ATOM      5  C   UNL A   1      34.411  22.052  26.641  1.00  0.00     0.272 C 
ATOM      6  O   UNL A   1      33.715  21.582  27.548  1.00  0.00    -0.267 OA
ATOM      7  H   UNL A   1      35.949  20.838  27.217  1.00  0.00     0.163 HD
BRANCH   5   8
ATOM      8  C   UNL A   1      33.950  23.240  25.815  1.00  0.00     0.154 A 
ATOM      9  C   UNL A   1      33.543  28.187  23.205  1.00  0.00     0.071 C 
ATOM     10  C   UNL A   1      33.421  26.887  22.519  1.00  0.00     0.090 A 
ATOM     11  N   UNL A   1      33.362  26.868  21.174  1.00  0.00    -0.084 NA
ATOM     12  C   UNL A   1      33.398  25.583  23.039  1.00  0.00     0.066 A 
ATOM     13  O   UNL A   1      33.276  25.536  20.806  1.00  0.00    -0.360 OA
ATOM     14  C   UNL A   1      33.287  24.790  21.926  1.00  0.00     0.146 A 
ATOM     15  C   UNL A   1      33.494  24.900  24.349  1.00  0.00     0.077 A 
ATOM     16  C   UNL A   1      33.170  23.328  21.847  1.00  0.00     0.084 C 
ATOM     17  C   UNL A   1      33.706  23.527  24.398  1.00  0.00     0.012 A 
ATOM     18  N   UNL A   1      33.455  25.334  25.630  1.00  0.00    -0.267 N 
ATOM     19  C   UNL A   1      33.794  22.714  23.103  1.00  0.00     0.048 C 
ATOM     20  N   UNL A   1      33.720  24.372  26.521  1.00  0.00    -0.167 NA
ATOM     21  C   UNL A   1      33.116  26.642  26.131  1.00  0.00     0.174 C 
ENDBRANCH   5   8
ENDBRANCH   3   4
ENDBRANCH   2   3
ENDBRANCH   1   2
BRANCH   1  22
ATOM     22  N   UNL A   1      39.852  21.812  27.004  1.00  0.00    -0.352 N 
ATOM     23  C   UNL A   1      40.798  22.621  27.655  1.00  0.00     0.251 C 
ATOM     24  H   UNL A   1      39.822  20.865  27.274  1.00  0.00     0.163 HD
ATOM     25  O   UNL A   1      41.703  22.171  28.317  1.00  0.00    -0.269 OA
BRANCH  23  26
ATOM     26  C   UNL A   1      40.587  24.079  27.528  1.00  0.00     0.039 A 
ATOM     27  C   UNL A   1      39.342  24.708  27.440  1.00  0.00     0.014 A 
ATOM     28  C   UNL A   1      41.722  24.797  27.821  1.00  0.00     0.014 A 
ATOM     29  C   UNL A   1      39.278  26.065  27.773  1.00  0.00     0.010 A 
ATOM     30  C   UNL A   1      41.514  25.868  28.620  1.00  0.00     0.010 A 
ATOM     31  C   UNL A   1      40.394  26.632  28.394  1.00  0.00    -0.014 A 
BRANCH  31  32
ATOM     32  C   UNL A   1      40.530  27.986  28.895  1.00  0.00     0.031 A 
ATOM     33  C   UNL A   1      41.597  28.796  28.274  1.00  0.00     0.074 A 
ATOM     34  C   UNL A   1      39.551  28.543  29.652  1.00  0.00     0.049 A 
ATOM     35  N   UNL A   1      42.692  29.188  28.830  1.00  0.00    -0.248 NA
ATOM     36  C   UNL A   1      41.511  29.101  26.840  1.00  0.00     0.031 C 
ATOM     37  C   UNL A   1      38.253  27.989  30.092  1.00  0.00     0.029 A 
ATOM     38  N   UNL A   1      39.484  29.814  30.119  1.00  0.00    -0.354 N 
ATOM     39  C   UNL A   1      43.351  29.961  27.881  1.00  0.00     0.074 A 
ATOM     40  C   UNL A   1      42.679  29.714  26.630  1.00  0.00     0.031 C 
ATOM     41  C   UNL A   1      37.454  28.977  30.547  1.00  0.00     0.029 A 
ATOM     42  C   UNL A   1      38.243  30.185  30.621  1.00  0.00     0.049 A 
ATOM     43  H   UNL A   1      40.255  30.426  30.104  1.00  0.00     0.167 HD
ATOM     44  C   UNL A   1      44.247  30.914  28.262  1.00  0.00     0.037 A 
ATOM     45  C   UNL A   1      37.902  31.422  31.054  1.00  0.00     0.037 A 
ATOM     46  C   UNL A   1      44.603  30.763  29.654  1.00  0.00     0.049 A 
ATOM     47  C   UNL A   1      39.182  32.103  31.403  1.00  0.00     0.074 A 
ATOM     48  C   UNL A   1      45.183  29.746  30.390  1.00  0.00     0.029 A 
ATOM     49  N   UNL A   1      43.964  31.561  30.576  1.00  0.00    -0.354 N 
ATOM     50  N   UNL A   1      39.965  31.690  32.369  1.00  0.00    -0.248 NA
ATOM     51  C   UNL A   1      39.842  32.866  30.352  1.00  0.00     0.031 C 
ATOM     52  C   UNL A   1      44.427  29.695  31.600  1.00  0.00     0.029 A 
ATOM     53  C   UNL A   1      43.495  30.736  31.570  1.00  0.00     0.049 A 
ATOM     54  H   UNL A   1      43.863  32.540  30.531  1.00  0.00     0.167 HD
ATOM     55  C   UNL A   1      41.254  31.783  31.858  1.00  0.00     0.074 A 
ATOM     56  C   UNL A   1      41.115  32.562  30.626  1.00  0.00     0.031 C 
ATOM     57  C   UNL A   1      42.264  30.969  32.295  1.00  0.00     0.037 A 
BRANCH  44  58
ATOM     58  C   UNL A   1      44.542  32.179  27.499  1.00  0.00     0.064 A 
ATOM     59  C   UNL A   1      45.753  32.280  26.787  1.00  0.00     0.173 A 
ATOM     60  C   UNL A   1      43.832  33.385  27.670  1.00  0.00     0.173 A 
ATOM     61  F   UNL A   1      46.512  31.195  26.572  1.00  0.00    -0.203 F 
ATOM     62  C   UNL A   1      46.253  33.510  26.355  1.00  0.00     0.198 A 
ATOM     63  C   UNL A   1      44.308  34.604  27.189  1.00  0.00     0.198 A 
ATOM     64  F   UNL A   1      42.714  33.458  28.401  1.00  0.00    -0.203 F 
ATOM     65  F   UNL A   1      47.468  33.574  25.793  1.00  0.00    -0.200 F 
ATOM     66  C   UNL A   1      45.534  34.672  26.563  1.00  0.00     0.200 A 
ATOM     67  F   UNL A   1      43.602  35.721  27.414  1.00  0.00    -0.200 F 
ATOM     68  F   UNL A   1      46.040  35.860  26.207  1.00  0.00    -0.200 F 
ENDBRANCH  44  58
BRANCH  45  69
ATOM     69  C   UNL A   1      36.620  32.115  30.766  1.00  0.00     0.064 A 
ATOM     70  C   UNL A   1      35.767  32.543  31.795  1.00  0.00     0.173 A 
ATOM     71  C   UNL A   1      36.314  32.587  29.470  1.00  0.00     0.173 A 
ATOM     72  F   UNL A   1      36.012  32.182  33.063  1.00  0.00    -0.203 F 
ATOM     73  C   UNL A   1      34.685  33.396  31.545  1.00  0.00     0.198 A 
ATOM     74  C   UNL A   1      35.234  33.434  29.221  1.00  0.00     0.198 A 
ATOM     75  F   UNL A   1      37.113  32.309  28.429  1.00  0.00    -0.203 F 
ATOM     76  F   UNL A   1      33.923  33.825  32.561  1.00  0.00    -0.200 F 
ATOM     77  C   UNL A   1      34.423  33.847  30.260  1.00  0.00     0.200 A 
ATOM     78  F   UNL A   1      35.019  33.890  27.980  1.00  0.00    -0.200 F 
ATOM     79  F   UNL A   1      33.422  34.707  30.031  1.00  0.00    -0.200 F 
ENDBRANCH  45  69
BRANCH  57  80
ATOM     80  C   UNL A   1      42.000  30.062  33.472  1.00  0.00     0.064 A 
ATOM     81  C   UNL A   1      41.602  28.718  33.351  1.00  0.00     0.173 A 
ATOM     82  C   UNL A   1      42.352  30.498  34.755  1.00  0.00     0.173 A 
ATOM     83  F   UNL A   1      41.349  28.184  32.155  1.00  0.00    -0.203 F 
ATOM     84  C   UNL A   1      41.529  27.866  34.453  1.00  0.00     0.198 A 
ATOM     85  C   UNL A   1      42.309  29.639  35.854  1.00  0.00     0.198 A 
ATOM     86  F   UNL A   1      42.804  31.749  34.935  1.00  0.00    -0.203 F 
ATOM     87  F   UNL A   1      41.152  26.588  34.292  1.00  0.00    -0.200 F 
ATOM     88  C   UNL A   1      41.891  28.326  35.704  1.00  0.00     0.200 A 
ATOM     89  F   UNL A   1      42.710  30.076  37.055  1.00  0.00    -0.200 F 
ATOM     90  F   UNL A   1      41.868  27.499  36.758  1.00  0.00    -0.200 F 
ENDBRANCH  57  80
ENDBRANCH  31  32
ENDBRANCH  23  26
ENDBRANCH   1  22
TORSDOF 10
ENDMDL
MODEL 2
REMARK VINA RESULT:     -13.8      2.869      7.669
REMARK SMILES Cc1noc2c1-c1c(c(C(=O)NCCCNC(=O)c3ccc(-c4c5nc(c(-c6c(F)c(F)c(F)c(F)c6F)c6ccc([nH]6)c(-c6c(F)c(F)c(F)c(F)c6F)c6nc(c(-c7c(F)c(F)c(F)c(F)c7F)c7ccc4[nH]7)C=C6)C=C5)cc3)nn1C)CC2
REMARK SMILES IDX 15 1 14 2 13 3 12 4 10 5 11 6 9 8 1 9 2 10 3 11 6 12 4 13
REMARK SMILES IDX 5 14 7 15 86 16 8 17 83 18 85 19 82 20 84 21 16 22 17 23
REMARK SMILES IDX 18 25 19 26 20 27 81 28 21 29 80 30 22 31 23 32 24 33 74 34
REMARK SMILES IDX 25 35 79 36 73 37 75 38 26 39 78 40 72 41 71 42 27 44 59 45
REMARK SMILES IDX 39 46 58 47 40 48 43 49 57 50 76 51 41 52 42 53 56 55 77 56
REMARK SMILES IDX 44 57 28 58 29 59 37 60 30 61 31 62 35 63 38 64 32 65 33 66
REMARK SMILES IDX 36 67 34 68 60 69 61 70 69 71 62 72 63 73 67 74 70 75 64 76
REMARK SMILES IDX 65 77 68 78 66 79 45 80 46 81 54 82 47 83 48 84 52 85 55 86
REMARK SMILES IDX 49 87 50 88 53 89 51 90
REMARK H PARENT 12 7 16 24 75 43 43 54
REMARK Flexibility Score: inf
ROOT
ATOM      1  C   UNL A   1      39.086  20.938  25.752  1.00  0.00     0.118 C 
ENDROOT
BRANCH   1   2
ATOM      2  C   UNL A   1      37.760  20.885  25.058  1.00  0.00     0.042 C 
BRANCH   2   3
ATOM      3  C   UNL A   1      36.781  21.861  25.673  1.00  0.00     0.118 C 
BRANCH   3   4
ATOM      4  N   UNL A   1      35.748  21.449  26.561  1.00  0.00    -0.351 N 
ATOM      5  C   UNL A   1      34.431  21.901  26.530  1.00  0.00     0.272 C 
ATOM      6  O   UNL A   1      33.653  21.257  27.244  1.00  0.00    -0.267 OA
ATOM      7  H   UNL A   1      35.985  20.791  27.254  1.00  0.00     0.163 HD
BRANCH   5   8
ATOM      8  C   UNL A   1      33.975  23.123  25.755  1.00  0.00     0.154 A 
ATOM      9  C   UNL A   1      33.601  28.169  23.335  1.00  0.00     0.071 C 
ATOM     10  C   UNL A   1      33.454  26.897  22.603  1.00  0.00     0.090 A 
ATOM     11  N   UNL A   1      33.379  26.930  21.259  1.00  0.00    -0.084 NA
ATOM     12  C   UNL A   1      33.420  25.575  23.075  1.00  0.00     0.066 A 
ATOM     13  O   UNL A   1      33.272  25.613  20.843  1.00  0.00    -0.360 OA
ATOM     14  C   UNL A   1      33.286  24.825  21.934  1.00  0.00     0.146 A 
ATOM     15  C   UNL A   1      33.523  24.843  24.357  1.00  0.00     0.077 A 
ATOM     16  C   UNL A   1      33.150  23.369  21.802  1.00  0.00     0.084 C 
ATOM     17  C   UNL A   1      33.718  23.466  24.352  1.00  0.00     0.012 A 
ATOM     18  N   UNL A   1      33.504  25.229  25.654  1.00  0.00    -0.267 N 
ATOM     19  C   UNL A   1      33.780  22.701  23.027  1.00  0.00     0.048 C 
ATOM     20  N   UNL A   1      33.767  24.231  26.505  1.00  0.00    -0.167 NA
ATOM     21  C   UNL A   1      33.188  26.522  26.207  1.00  0.00     0.174 C 
ENDBRANCH   5   8
ENDBRANCH   3   4
ENDBRANCH   2   3
ENDBRANCH   1   2
BRANCH   1  22
ATOM     22  N   UNL A   1      39.826  19.662  25.829  1.00  0.00    -0.352 N 
ATOM     23  C   UNL A   1      41.217  19.502  25.935  1.00  0.00     0.251 C 
ATOM     24  H   UNL A   1      39.288  18.837  25.804  1.00  0.00     0.163 HD
ATOM     25  O   UNL A   1      41.773  18.445  25.750  1.00  0.00    -0.269 OA
BRANCH  23  26
ATOM     26  C   UNL A   1      41.970  20.705  26.346  1.00  0.00     0.039 A 
ATOM     27  C   UNL A   1      42.332  21.756  25.499  1.00  0.00     0.014 A 
ATOM     28  C   UNL A   1      42.015  20.852  27.712  1.00  0.00     0.014 A 
ATOM     29  C   UNL A   1      42.628  22.990  26.088  1.00  0.00     0.010 A 
ATOM     30  C   UNL A   1      41.766  22.108  28.147  1.00  0.00     0.010 A 
ATOM     31  C   UNL A   1      42.311  23.154  27.440  1.00  0.00    -0.014 A 
BRANCH  31  32
ATOM     32  C   UNL A   1      42.452  24.355  28.238  1.00  0.00     0.031 A 
ATOM     33  C   UNL A   1      41.331  25.314  28.160  1.00  0.00     0.074 A 
ATOM     34  C   UNL A   1      43.399  24.431  29.208  1.00  0.00     0.049 A 
ATOM     35  N   UNL A   1      41.346  26.478  27.607  1.00  0.00    -0.248 NA
ATOM     36  C   UNL A   1      40.005  24.893  28.632  1.00  0.00     0.031 C 
ATOM     37  C   UNL A   1      44.393  23.432  29.651  1.00  0.00     0.029 A 
ATOM     38  N   UNL A   1      43.602  25.438  30.092  1.00  0.00    -0.354 N 
ATOM     39  C   UNL A   1      40.090  27.028  27.830  1.00  0.00     0.074 A 
ATOM     40  C   UNL A   1      39.257  25.945  28.289  1.00  0.00     0.031 C 
ATOM     41  C   UNL A   1      44.915  23.790  30.843  1.00  0.00     0.029 A 
ATOM     42  C   UNL A   1      44.453  25.124  31.145  1.00  0.00     0.049 A 
ATOM     43  H   UNL A   1      43.181  26.322  29.997  1.00  0.00     0.167 HD
ATOM     44  C   UNL A   1      39.914  28.379  27.836  1.00  0.00     0.037 A 
ATOM     45  C   UNL A   1      44.735  25.925  32.200  1.00  0.00     0.037 A 
ATOM     46  C   UNL A   1      41.071  29.054  27.294  1.00  0.00     0.049 A 
ATOM     47  C   UNL A   1      44.438  27.316  31.752  1.00  0.00     0.074 A 
ATOM     48  C   UNL A   1      41.715  29.018  26.071  1.00  0.00     0.029 A 
ATOM     49  N   UNL A   1      41.992  29.569  28.176  1.00  0.00    -0.354 N 
ATOM     50  N   UNL A   1      45.099  27.906  30.787  1.00  0.00    -0.248 NA
ATOM     51  C   UNL A   1      43.090  27.819  31.981  1.00  0.00     0.031 C 
ATOM     52  C   UNL A   1      43.106  29.001  26.393  1.00  0.00     0.029 A 
ATOM     53  C   UNL A   1      43.229  29.119  27.779  1.00  0.00     0.049 A 
ATOM     54  H   UNL A   1      41.801  30.152  28.947  1.00  0.00     0.167 HD
ATOM     55  C   UNL A   1      44.132  28.561  30.032  1.00  0.00     0.074 A 
ATOM     56  C   UNL A   1      42.918  28.509  30.848  1.00  0.00     0.031 C 
ATOM     57  C   UNL A   1      44.304  28.808  28.697  1.00  0.00     0.037 A 
BRANCH  44  58
ATOM     58  C   UNL A   1      38.868  29.112  28.634  1.00  0.00     0.064 A 
ATOM     59  C   UNL A   1      38.825  28.931  30.031  1.00  0.00     0.173 A 
ATOM     60  C   UNL A   1      37.744  29.746  28.065  1.00  0.00     0.173 A 
ATOM     61  F   UNL A   1      39.837  28.333  30.674  1.00  0.00    -0.203 F 
ATOM     62  C   UNL A   1      37.702  29.284  30.785  1.00  0.00     0.198 A 
ATOM     63  C   UNL A   1      36.649  30.146  28.829  1.00  0.00     0.198 A 
ATOM     64  F   UNL A   1      37.606  29.903  26.744  1.00  0.00    -0.203 F 
ATOM     65  F   UNL A   1      37.655  28.979  32.088  1.00  0.00    -0.200 F 
ATOM     66  C   UNL A   1      36.613  29.884  30.181  1.00  0.00     0.200 A 
ATOM     67  F   UNL A   1      35.597  30.713  28.223  1.00  0.00    -0.200 F 
ATOM     68  F   UNL A   1      35.511  30.164  30.890  1.00  0.00    -0.200 F 
ENDBRANCH  44  58
BRANCH  45  69
ATOM     69  C   UNL A   1      44.823  25.487  33.617  1.00  0.00     0.064 A 
ATOM     70  C   UNL A   1      43.674  25.310  34.405  1.00  0.00     0.173 A 
ATOM     71  C   UNL A   1      46.031  25.001  34.163  1.00  0.00     0.173 A 
ATOM     72  F   UNL A   1      42.477  25.698  33.943  1.00  0.00    -0.203 F 
ATOM     73  C   UNL A   1      43.731  24.677  35.653  1.00  0.00     0.198 A 
ATOM     74  C   UNL A   1      46.088  24.375  35.409  1.00  0.00     0.198 A 
ATOM     75  F   UNL A   1      47.171  25.043  33.459  1.00  0.00    -0.203 F 
ATOM     76  F   UNL A   1      42.606  24.479  36.355  1.00  0.00    -0.200 F 
ATOM     77  C   UNL A   1      44.936  24.204  36.151  1.00  0.00     0.200 A 
ATOM     78  F   UNL A   1      47.253  23.889  35.856  1.00  0.00    -0.200 F 
ATOM     79  F   UNL A   1      44.980  23.550  37.320  1.00  0.00    -0.200 F 
ENDBRANCH  45  69
BRANCH  57  80
ATOM     80  C   UNL A   1      45.646  28.502  28.075  1.00  0.00     0.064 A 
ATOM     81  C   UNL A   1      45.946  27.296  27.414  1.00  0.00     0.173 A 
ATOM     82  C   UNL A   1      46.590  29.530  27.964  1.00  0.00     0.173 A 
ATOM     83  F   UNL A   1      45.061  26.299  27.375  1.00  0.00    -0.203 F 
ATOM     84  C   UNL A   1      47.135  27.116  26.710  1.00  0.00     0.198 A 
ATOM     85  C   UNL A   1      47.768  29.360  27.235  1.00  0.00     0.198 A 
ATOM     86  F   UNL A   1      46.341  30.728  28.514  1.00  0.00    -0.203 F 
ATOM     87  F   UNL A   1      47.379  25.952  26.087  1.00  0.00    -0.200 F 
ATOM     88  C   UNL A   1      48.044  28.152  26.614  1.00  0.00     0.200 A 
ATOM     89  F   UNL A   1      48.620  30.385  27.102  1.00  0.00    -0.200 F 
ATOM     90  F   UNL A   1      49.167  28.000  25.899  1.00  0.00    -0.200 F 
ENDBRANCH  57  80
ENDBRANCH  31  32
ENDBRANCH  23  26
ENDBRANCH   1  22
TORSDOF 10
ENDMDL
MODEL 3
REMARK VINA RESULT:     -13.7      2.978      7.594
REMARK SMILES Cc1noc2c1-c1c(c(C(=O)NCCCNC(=O)c3ccc(-c4c5nc(c(-c6c(F)c(F)c(F)c(F)c6F)c6ccc([nH]6)c(-c6c(F)c(F)c(F)c(F)c6F)c6nc(c(-c7c(F)c(F)c(F)c(F)c7F)c7ccc4[nH]7)C=C6)C=C5)cc3)nn1C)CC2
REMARK SMILES IDX 15 1 14 2 13 3 12 4 10 5 11 6 9 8 1 9 2 10 3 11 6 12 4 13
REMARK SMILES IDX 5 14 7 15 86 16 8 17 83 18 85 19 82 20 84 21 16 22 17 23
REMARK SMILES IDX 18 25 19 26 20 27 81 28 21 29 80 30 22 31 23 32 24 33 74 34
REMARK SMILES IDX 25 35 79 36 73 37 75 38 26 39 78 40 72 41 71 42 27 44 59 45
REMARK SMILES IDX 39 46 58 47 40 48 43 49 57 50 76 51 41 52 42 53 56 55 77 56
REMARK SMILES IDX 44 57 28 58 29 59 37 60 30 61 31 62 35 63 38 64 32 65 33 66
REMARK SMILES IDX 36 67 34 68 60 69 61 70 69 71 62 72 63 73 67 74 70 75 64 76
REMARK SMILES IDX 65 77 68 78 66 79 45 80 46 81 54 82 47 83 48 84 52 85 55 86
REMARK SMILES IDX 49 87 50 88 53 89 51 90
REMARK H PARENT 12 7 16 24 75 43 43 54
REMARK Flexibility Score: inf
ROOT
ATOM      1  C   UNL A   1      33.212  31.859  27.481  1.00  0.00     0.118 C 
ENDROOT
BRANCH   1   2
ATOM      2  C   UNL A   1      32.323  30.868  26.796  1.00  0.00     0.042 C 
BRANCH   2   3
ATOM      3  C   UNL A   1      33.133  29.803  26.090  1.00  0.00     0.118 C 
BRANCH   3   4
ATOM      4  N   UNL A   1      33.343  29.812  24.682  1.00  0.00    -0.351 N 
ATOM      5  C   UNL A   1      33.182  28.716  23.837  1.00  0.00     0.272 C 
ATOM      6  O   UNL A   1      33.202  28.992  22.631  1.00  0.00    -0.267 OA
ATOM      7  H   UNL A   1      33.625  30.661  24.273  1.00  0.00     0.163 HD
BRANCH   5   8
ATOM      8  C   UNL A   1      33.067  27.283  24.324  1.00  0.00     0.154 A 
ATOM      9  C   UNL A   1      33.710  22.425  27.052  1.00  0.00     0.071 C 
ATOM     10  C   UNL A   1      32.420  23.128  26.925  1.00  0.00     0.090 A 
ATOM     11  N   UNL A   1      31.364  22.672  27.624  1.00  0.00    -0.084 NA
ATOM     12  C   UNL A   1      32.080  24.281  26.200  1.00  0.00     0.066 A 
ATOM     13  O   UNL A   1      30.310  23.524  27.338  1.00  0.00    -0.360 OA
ATOM     14  C   UNL A   1      30.751  24.464  26.482  1.00  0.00     0.146 A 
ATOM     15  C   UNL A   1      32.729  25.283  25.324  1.00  0.00     0.077 A 
ATOM     16  C   UNL A   1      29.835  25.491  25.970  1.00  0.00     0.084 C 
ATOM     17  C   UNL A   1      32.067  26.467  25.020  1.00  0.00     0.012 A 
ATOM     18  N   UNL A   1      33.938  25.345  24.718  1.00  0.00    -0.267 N 
ATOM     19  C   UNL A   1      30.652  26.716  25.550  1.00  0.00     0.048 C 
ATOM     20  N   UNL A   1      34.165  26.518  24.116  1.00  0.00    -0.167 NA
ATOM     21  C   UNL A   1      34.942  24.319  24.597  1.00  0.00     0.174 C 
ENDBRANCH   5   8
ENDBRANCH   3   4
ENDBRANCH   2   3
ENDBRANCH   1   2
BRANCH   1  22
ATOM     22  N   UNL A   1      32.717  33.250  27.524  1.00  0.00    -0.352 N 
ATOM     23  C   UNL A   1      33.108  34.254  28.425  1.00  0.00     0.251 C 
ATOM     24  H   UNL A   1      32.043  33.500  26.852  1.00  0.00     0.163 HD
ATOM     25  O   UNL A   1      32.496  35.287  28.563  1.00  0.00    -0.269 OA
BRANCH  23  26
ATOM     26  C   UNL A   1      34.361  33.996  29.166  1.00  0.00     0.039 A 
ATOM     27  C   UNL A   1      34.457  33.272  30.357  1.00  0.00     0.014 A 
ATOM     28  C   UNL A   1      35.478  34.268  28.413  1.00  0.00     0.014 A 
ATOM     29  C   UNL A   1      35.705  32.738  30.691  1.00  0.00     0.010 A 
ATOM     30  C   UNL A   1      36.443  33.322  28.483  1.00  0.00     0.010 A 
ATOM     31  C   UNL A   1      36.700  32.756  29.710  1.00  0.00    -0.014 A 
BRANCH  31  32
ATOM     32  C   UNL A   1      38.035  32.197  29.797  1.00  0.00     0.031 A 
ATOM     33  C   UNL A   1      38.189  30.820  29.287  1.00  0.00     0.074 A 
ATOM     34  C   UNL A   1      39.103  32.997  30.045  1.00  0.00     0.049 A 
ATOM     35  N   UNL A   1      38.417  29.759  29.982  1.00  0.00    -0.248 NA
ATOM     36  C   UNL A   1      37.937  30.559  27.863  1.00  0.00     0.031 C 
ATOM     37  C   UNL A   1      39.173  34.460  30.249  1.00  0.00     0.029 A 
ATOM     38  N   UNL A   1      40.413  32.649  30.070  1.00  0.00    -0.354 N 
ATOM     39  C   UNL A   1      38.537  28.718  29.069  1.00  0.00     0.074 A 
ATOM     40  C   UNL A   1      38.045  29.229  27.815  1.00  0.00     0.031 C 
ATOM     41  C   UNL A   1      40.449  34.885  30.142  1.00  0.00     0.029 A 
ATOM     42  C   UNL A   1      41.299  33.720  30.068  1.00  0.00     0.049 A 
ATOM     43  H   UNL A   1      40.713  31.713  30.088  1.00  0.00     0.167 HD
ATOM     44  C   UNL A   1      39.249  27.599  29.381  1.00  0.00     0.037 A 
ATOM     45  C   UNL A   1      42.648  33.630  29.994  1.00  0.00     0.037 A 
ATOM     46  C   UNL A   1      39.540  27.548  30.795  1.00  0.00     0.049 A 
ATOM     47  C   UNL A   1      42.995  32.258  30.466  1.00  0.00     0.074 A 
ATOM     48  C   UNL A   1      38.757  27.518  31.935  1.00  0.00     0.029 A 
ATOM     49  N   UNL A   1      40.780  27.972  31.216  1.00  0.00    -0.354 N 
ATOM     50  N   UNL A   1      42.768  31.852  31.691  1.00  0.00    -0.248 NA
ATOM     51  C   UNL A   1      43.066  31.204  29.464  1.00  0.00     0.031 C 
ATOM     52  C   UNL A   1      39.399  28.416  32.841  1.00  0.00     0.029 A 
ATOM     53  C   UNL A   1      40.576  28.867  32.239  1.00  0.00     0.049 A 
ATOM     54  H   UNL A   1      41.650  27.687  30.853  1.00  0.00     0.167 HD
ATOM     55  C   UNL A   1      42.271  30.560  31.559  1.00  0.00     0.074 A 
ATOM     56  C   UNL A   1      42.524  30.200  30.162  1.00  0.00     0.031 C 
ATOM     57  C   UNL A   1      41.423  30.015  32.485  1.00  0.00     0.037 A 
BRANCH  44  58
ATOM     58  C   UNL A   1      39.977  26.732  28.388  1.00  0.00     0.064 A 
ATOM     59  C   UNL A   1      39.691  25.353  28.346  1.00  0.00     0.173 A 
ATOM     60  C   UNL A   1      41.132  27.138  27.687  1.00  0.00     0.173 A 
ATOM     61  F   UNL A   1      38.621  24.858  28.984  1.00  0.00    -0.203 F 
ATOM     62  C   UNL A   1      40.546  24.442  27.720  1.00  0.00     0.198 A 
ATOM     63  C   UNL A   1      41.953  26.232  27.017  1.00  0.00     0.198 A 
ATOM     64  F   UNL A   1      41.577  28.399  27.713  1.00  0.00    -0.203 F 
ATOM     65  F   UNL A   1      40.300  23.129  27.814  1.00  0.00    -0.200 F 
ATOM     66  C   UNL A   1      41.680  24.882  27.063  1.00  0.00     0.200 A 
ATOM     67  F   UNL A   1      43.055  26.676  26.398  1.00  0.00    -0.200 F 
ATOM     68  F   UNL A   1      42.533  24.005  26.518  1.00  0.00    -0.200 F 
ENDBRANCH  44  58
BRANCH  45  69
ATOM     69  C   UNL A   1      43.527  34.492  29.164  1.00  0.00     0.064 A 
ATOM     70  C   UNL A   1      43.749  34.224  27.804  1.00  0.00     0.173 A 
ATOM     71  C   UNL A   1      43.983  35.745  29.631  1.00  0.00     0.173 A 
ATOM     72  F   UNL A   1      43.306  33.079  27.265  1.00  0.00    -0.203 F 
ATOM     73  C   UNL A   1      44.378  35.153  26.965  1.00  0.00     0.198 A 
ATOM     74  C   UNL A   1      44.613  36.668  28.796  1.00  0.00     0.198 A 
ATOM     75  F   UNL A   1      43.746  36.138  30.891  1.00  0.00    -0.203 F 
ATOM     76  F   UNL A   1      44.527  34.883  25.661  1.00  0.00    -0.200 F 
ATOM     77  C   UNL A   1      44.802  36.377  27.459  1.00  0.00     0.200 A 
ATOM     78  F   UNL A   1      44.981  37.861  29.282  1.00  0.00    -0.200 F 
ATOM     79  F   UNL A   1      45.353  37.287  26.645  1.00  0.00    -0.200 F 
ENDBRANCH  45  69
BRANCH  57  80
ATOM     80  C   UNL A   1      41.156  30.783  33.757  1.00  0.00     0.064 A 
ATOM     81  C   UNL A   1      40.041  31.620  33.946  1.00  0.00     0.173 A 
ATOM     82  C   UNL A   1      41.935  30.510  34.888  1.00  0.00     0.173 A 
ATOM     83  F   UNL A   1      39.182  31.851  32.953  1.00  0.00    -0.203 F 
ATOM     84  C   UNL A   1      39.739  32.180  35.187  1.00  0.00     0.198 A 
ATOM     85  C   UNL A   1      41.618  31.046  36.136  1.00  0.00     0.198 A 
ATOM     86  F   UNL A   1      42.976  29.668  34.796  1.00  0.00    -0.203 F 
ATOM     87  F   UNL A   1      38.661  32.968  35.326  1.00  0.00    -0.200 F 
ATOM     88  C   UNL A   1      40.525  31.886  36.285  1.00  0.00     0.200 A 
ATOM     89  F   UNL A   1      42.351  30.715  37.207  1.00  0.00    -0.200 F 
ATOM     90  F   UNL A   1      40.213  32.383  37.490  1.00  0.00    -0.200 F 
ENDBRANCH  57  80
ENDBRANCH  31  32
ENDBRANCH  23  26
ENDBRANCH   1  22
TORSDOF 10
ENDMDL
