MODEL 1
REMARK VINA RESULT:     -12.4      0.000      0.000
REMARK SMILES CC(C)c1nc(OCC(=O)NCCCNC(=O)c2ccc(-c3c4nc(c(-c5c(F)c(F)c(F)c(F)c5F)c5ccc([nH]5)c(-c5c(F)c(F)c(F)c(F)c5F)c5nc(c(-c6c(F)c(F)c(F)c(F)c6F)c6ccc3[nH]6)C=C5)C=C4)cc2)cc(-c2ccccn2)n1
REMARK SMILES IDX 12 1 11 2 9 3 10 4 8 6 7 7 6 8 4 9 5 10 89 11 82 12 81 13
REMARK SMILES IDX 2 14 1 15 3 16 83 17 84 18 88 19 85 20 87 21 86 22 13 23
REMARK SMILES IDX 14 24 15 25 16 26 17 28 18 29 19 30 80 31 20 32 79 33 21 34
REMARK SMILES IDX 22 35 23 36 73 37 24 38 78 39 72 40 74 41 25 42 77 43 71 44
REMARK SMILES IDX 70 45 26 47 58 48 38 49 57 50 39 51 42 52 56 53 75 54 40 55
REMARK SMILES IDX 41 56 55 58 76 59 43 60 27 61 28 62 36 63 29 64 30 65 34 66
REMARK SMILES IDX 37 67 31 68 32 69 35 70 33 71 59 72 60 73 68 74 61 75 62 76
REMARK SMILES IDX 66 77 69 78 63 79 64 80 67 81 65 82 44 83 45 84 53 85 46 86
REMARK SMILES IDX 47 87 51 88 54 89 48 90 49 91 52 92 50 93
REMARK H PARENT 11 5 15 27 74 46 42 57
REMARK Flexibility Score: inf
ROOT
ATOM      1  C   UNL A   1      37.761  21.104  24.621  1.00  0.00     0.117 C 
ENDROOT
BRANCH   1   2
ATOM      2  N   UNL A   1      38.304  22.218  25.375  1.00  0.00    -0.353 N 
ATOM      3  C   UNL A   1      37.682  23.374  25.745  1.00  0.00     0.258 C 
ATOM      4  O   UNL A   1      38.328  24.219  26.368  1.00  0.00    -0.271 OA
ATOM      5  H   UNL A   1      39.243  22.127  25.657  1.00  0.00     0.163 HD
BRANCH   3   6
ATOM      6  C   UNL A   1      36.209  23.594  25.387  1.00  0.00     0.331 C 
BRANCH   6   7
ATOM      7  O   UNL A   1      35.273  23.179  26.365  1.00  0.00    -0.467 OA
BRANCH   7   8
ATOM      8  C   UNL A   1      34.274  22.330  25.980  1.00  0.00     0.217 A 
ATOM      9  C   UNL A   1      32.007  22.186  25.619  1.00  0.00     0.135 A 
ATOM     10  N   UNL A   1      33.072  22.926  25.978  1.00  0.00    -0.198 NA
ATOM     11  N   UNL A   1      32.070  20.869  25.362  1.00  0.00    -0.231 NA
ATOM     12  C   UNL A   1      33.292  20.295  25.368  1.00  0.00     0.096 A 
ATOM     13  C   UNL A   1      34.439  21.011  25.646  1.00  0.00     0.099 A 
BRANCH   9  14
ATOM     14  C   UNL A   1      30.644  22.855  25.587  1.00  0.00     0.051 C 
ATOM     15  C   UNL A   1      29.956  22.844  26.958  1.00  0.00     0.016 C 
ATOM     16  C   UNL A   1      30.728  24.302  25.085  1.00  0.00     0.016 C 
ENDBRANCH   9  14
BRANCH  12  17
ATOM     17  C   UNL A   1      33.364  18.851  25.106  1.00  0.00     0.089 A 
ATOM     18  C   UNL A   1      34.333  18.321  24.250  1.00  0.00     0.030 A 
ATOM     19  N   UNL A   1      32.402  18.078  25.672  1.00  0.00    -0.255 NA
ATOM     20  C   UNL A   1      34.315  16.959  23.963  1.00  0.00     0.004 A 
ATOM     21  C   UNL A   1      32.413  16.759  25.379  1.00  0.00     0.112 A 
ATOM     22  C   UNL A   1      33.335  16.161  24.537  1.00  0.00     0.020 A 
ENDBRANCH  12  17
ENDBRANCH   7   8
ENDBRANCH   6   7
ENDBRANCH   3   6
ENDBRANCH   1   2
BRANCH   1  23
ATOM     23  C   UNL A   1      38.398  19.773  25.004  1.00  0.00     0.042 C 
BRANCH  23  24
ATOM     24  C   UNL A   1      39.368  19.844  26.181  1.00  0.00     0.118 C 
BRANCH  24  25
ATOM     25  N   UNL A   1      40.505  18.943  26.044  1.00  0.00    -0.352 N 
ATOM     26  C   UNL A   1      41.852  19.199  26.034  1.00  0.00     0.251 C 
ATOM     27  H   UNL A   1      40.267  17.993  25.943  1.00  0.00     0.163 HD
ATOM     28  O   UNL A   1      42.636  18.290  25.758  1.00  0.00    -0.269 OA
BRANCH  26  29
ATOM     29  C   UNL A   1      42.380  20.550  26.327  1.00  0.00     0.039 A 
ATOM     30  C   UNL A   1      42.773  21.361  25.257  1.00  0.00     0.014 A 
ATOM     31  C   UNL A   1      42.529  21.007  27.638  1.00  0.00     0.014 A 
ATOM     32  C   UNL A   1      43.251  22.651  25.499  1.00  0.00     0.010 A 
ATOM     33  C   UNL A   1      42.937  22.318  27.875  1.00  0.00     0.010 A 
ATOM     34  C   UNL A   1      43.304  23.154  26.809  1.00  0.00    -0.014 A 
BRANCH  34  35
ATOM     35  C   UNL A   1      43.740  24.546  27.082  1.00  0.00     0.031 A 
ATOM     36  C   UNL A   1      42.759  25.562  27.597  1.00  0.00     0.074 A 
ATOM     37  C   UNL A   1      45.006  24.915  26.806  1.00  0.00     0.049 A 
ATOM     38  N   UNL A   1      42.932  26.840  27.830  1.00  0.00    -0.248 NA
ATOM     39  C   UNL A   1      41.395  25.083  27.860  1.00  0.00     0.031 C 
ATOM     40  C   UNL A   1      46.044  24.035  26.271  1.00  0.00     0.029 A 
ATOM     41  N   UNL A   1      45.631  26.131  26.932  1.00  0.00    -0.354 N 
ATOM     42  C   UNL A   1      41.699  27.317  28.252  1.00  0.00     0.074 A 
ATOM     43  C   UNL A   1      40.773  26.205  28.190  1.00  0.00     0.031 C 
ATOM     44  C   UNL A   1      47.185  24.730  26.142  1.00  0.00     0.029 A 
ATOM     45  C   UNL A   1      46.949  26.112  26.548  1.00  0.00     0.049 A 
ATOM     46  H   UNL A   1      45.178  26.939  27.266  1.00  0.00     0.167 HD
ATOM     47  C   UNL A   1      41.370  28.563  28.673  1.00  0.00     0.037 A 
ATOM     48  C   UNL A   1      47.864  27.100  26.525  1.00  0.00     0.037 A 
ATOM     49  C   UNL A   1      42.296  29.663  28.750  1.00  0.00     0.049 A 
ATOM     50  C   UNL A   1      47.471  28.481  26.975  1.00  0.00     0.074 A 
ATOM     51  C   UNL A   1      42.075  30.949  29.211  1.00  0.00     0.029 A 
ATOM     52  N   UNL A   1      43.624  29.606  28.350  1.00  0.00    -0.354 N 
ATOM     53  N   UNL A   1      46.317  28.907  27.426  1.00  0.00    -0.248 NA
ATOM     54  C   UNL A   1      48.513  29.515  26.914  1.00  0.00     0.031 C 
ATOM     55  C   UNL A   1      43.255  31.683  29.051  1.00  0.00     0.029 A 
ATOM     56  C   UNL A   1      44.227  30.841  28.534  1.00  0.00     0.049 A 
ATOM     57  H   UNL A   1      44.070  28.808  27.989  1.00  0.00     0.167 HD
ATOM     58  C   UNL A   1      46.500  30.249  27.732  1.00  0.00     0.074 A 
ATOM     59  C   UNL A   1      47.879  30.563  27.422  1.00  0.00     0.031 C 
ATOM     60  C   UNL A   1      45.604  31.138  28.228  1.00  0.00     0.037 A 
BRANCH  47  61
ATOM     61  C   UNL A   1      39.943  28.795  29.080  1.00  0.00     0.064 A 
ATOM     62  C   UNL A   1      38.977  29.229  28.159  1.00  0.00     0.173 A 
ATOM     63  C   UNL A   1      39.535  28.578  30.405  1.00  0.00     0.173 A 
ATOM     64  F   UNL A   1      39.317  29.461  26.883  1.00  0.00    -0.203 F 
ATOM     65  C   UNL A   1      37.667  29.480  28.559  1.00  0.00     0.198 A 
ATOM     66  C   UNL A   1      38.216  28.799  30.794  1.00  0.00     0.198 A 
ATOM     67  F   UNL A   1      40.415  28.155  31.325  1.00  0.00    -0.203 F 
ATOM     68  F   UNL A   1      36.779  29.956  27.676  1.00  0.00    -0.200 F 
ATOM     69  C   UNL A   1      37.286  29.260  29.875  1.00  0.00     0.200 A 
ATOM     70  F   UNL A   1      37.846  28.575  32.062  1.00  0.00    -0.200 F 
ATOM     71  F   UNL A   1      36.026  29.506  30.258  1.00  0.00    -0.200 F 
ENDBRANCH  47  61
BRANCH  48  72
ATOM     72  C   UNL A   1      49.256  26.804  26.101  1.00  0.00     0.064 A 
ATOM     73  C   UNL A   1      49.645  26.978  24.766  1.00  0.00     0.173 A 
ATOM     74  C   UNL A   1      50.224  26.360  27.013  1.00  0.00     0.173 A 
ATOM     75  F   UNL A   1      48.747  27.381  23.854  1.00  0.00    -0.203 F 
ATOM     76  C   UNL A   1      50.949  26.710  24.355  1.00  0.00     0.198 A 
ATOM     77  C   UNL A   1      51.534  26.115  26.606  1.00  0.00     0.198 A 
ATOM     78  F   UNL A   1      49.901  26.181  28.302  1.00  0.00    -0.203 F 
ATOM     79  F   UNL A   1      51.285  26.853  23.067  1.00  0.00    -0.200 F 
ATOM     80  C   UNL A   1      51.894  26.286  25.277  1.00  0.00     0.200 A 
ATOM     81  F   UNL A   1      52.448  25.717  27.501  1.00  0.00    -0.200 F 
ATOM     82  F   UNL A   1      53.150  26.037  24.884  1.00  0.00    -0.200 F 
ENDBRANCH  48  72
BRANCH  60  83
ATOM     83  C   UNL A   1      46.100  32.527  28.507  1.00  0.00     0.064 A 
ATOM     84  C   UNL A   1      46.677  32.871  29.739  1.00  0.00     0.173 A 
ATOM     85  C   UNL A   1      46.027  33.518  27.516  1.00  0.00     0.173 A 
ATOM     86  F   UNL A   1      46.755  31.964  30.724  1.00  0.00    -0.203 F 
ATOM     87  C   UNL A   1      47.140  34.163  29.976  1.00  0.00     0.198 A 
ATOM     88  C   UNL A   1      46.517  34.800  27.747  1.00  0.00     0.198 A 
ATOM     89  F   UNL A   1      45.489  33.239  26.319  1.00  0.00    -0.203 F 
ATOM     90  F   UNL A   1      47.645  34.481  31.175  1.00  0.00    -0.200 F 
ATOM     91  C   UNL A   1      47.066  35.123  28.978  1.00  0.00     0.200 A 
ATOM     92  F   UNL A   1      46.455  35.724  26.778  1.00  0.00    -0.200 F 
ATOM     93  F   UNL A   1      47.518  36.365  29.207  1.00  0.00    -0.200 F 
ENDBRANCH  60  83
ENDBRANCH  34  35
ENDBRANCH  26  29
ENDBRANCH  24  25
ENDBRANCH  23  24
ENDBRANCH   1  23
TORSDOF 14
ENDMDL
MODEL 2
REMARK VINA RESULT:     -12.3      6.317     11.710
REMARK SMILES CC(C)c1nc(OCC(=O)NCCCNC(=O)c2ccc(-c3c4nc(c(-c5c(F)c(F)c(F)c(F)c5F)c5ccc([nH]5)c(-c5c(F)c(F)c(F)c(F)c5F)c5nc(c(-c6c(F)c(F)c(F)c(F)c6F)c6ccc3[nH]6)C=C5)C=C4)cc2)cc(-c2ccccn2)n1
REMARK SMILES IDX 12 1 11 2 9 3 10 4 8 6 7 7 6 8 4 9 5 10 89 11 82 12 81 13
REMARK SMILES IDX 2 14 1 15 3 16 83 17 84 18 88 19 85 20 87 21 86 22 13 23
REMARK SMILES IDX 14 24 15 25 16 26 17 28 18 29 19 30 80 31 20 32 79 33 21 34
REMARK SMILES IDX 22 35 23 36 73 37 24 38 78 39 72 40 74 41 25 42 77 43 71 44
REMARK SMILES IDX 70 45 26 47 58 48 38 49 57 50 39 51 42 52 56 53 75 54 40 55
REMARK SMILES IDX 41 56 55 58 76 59 43 60 27 61 28 62 36 63 29 64 30 65 34 66
REMARK SMILES IDX 37 67 31 68 32 69 35 70 33 71 59 72 60 73 68 74 61 75 62 76
REMARK SMILES IDX 66 77 69 78 63 79 64 80 67 81 65 82 44 83 45 84 53 85 46 86
REMARK SMILES IDX 47 87 51 88 54 89 48 90 49 91 52 92 50 93
REMARK H PARENT 11 5 15 27 74 46 42 57
REMARK Flexibility Score: inf
ROOT
ATOM      1  C   UNL A   1      31.890  30.489  27.093  1.00  0.00     0.117 C 
ENDROOT
BRANCH   1   2
ATOM      2  N   UNL A   1      33.244  30.273  27.566  1.00  0.00    -0.353 N 
ATOM      3  C   UNL A   1      34.097  29.255  27.259  1.00  0.00     0.258 C 
ATOM      4  O   UNL A   1      35.209  29.234  27.789  1.00  0.00    -0.271 OA
ATOM      5  H   UNL A   1      33.594  30.950  28.190  1.00  0.00     0.163 HD
BRANCH   3   6
ATOM      6  C   UNL A   1      33.662  28.170  26.267  1.00  0.00     0.331 C 
BRANCH   6   7
ATOM      7  O   UNL A   1      33.808  28.499  24.897  1.00  0.00    -0.467 OA
BRANCH   7   8
ATOM      8  C   UNL A   1      32.725  28.344  24.080  1.00  0.00     0.217 A 
ATOM      9  C   UNL A   1      31.730  26.911  22.580  1.00  0.00     0.135 A 
ATOM     10  N   UNL A   1      32.746  27.175  23.423  1.00  0.00    -0.198 NA
ATOM     11  N   UNL A   1      30.757  27.790  22.292  1.00  0.00    -0.231 NA
ATOM     12  C   UNL A   1      30.757  28.957  22.970  1.00  0.00     0.096 A 
ATOM     13  C   UNL A   1      31.721  29.263  23.909  1.00  0.00     0.099 A 
BRANCH   9  14
ATOM     14  C   UNL A   1      31.729  25.580  21.850  1.00  0.00     0.051 C 
ATOM     15  C   UNL A   1      32.609  25.603  20.593  1.00  0.00     0.016 C 
ATOM     16  C   UNL A   1      32.186  24.429  22.755  1.00  0.00     0.016 C 
ENDBRANCH   9  14
BRANCH  12  17
ATOM     17  C   UNL A   1      29.704  29.931  22.645  1.00  0.00     0.089 A 
ATOM     18  C   UNL A   1      29.139  30.739  23.635  1.00  0.00     0.030 A 
ATOM     19  N   UNL A   1      29.263  29.947  21.361  1.00  0.00    -0.255 NA
ATOM     20  C   UNL A   1      28.087  31.588  23.300  1.00  0.00     0.004 A 
ATOM     21  C   UNL A   1      28.245  30.785  21.066  1.00  0.00     0.112 A 
ATOM     22  C   UNL A   1      27.628  31.611  21.990  1.00  0.00     0.020 A 
ENDBRANCH  12  17
ENDBRANCH   7   8
ENDBRANCH   6   7
ENDBRANCH   3   6
ENDBRANCH   1   2
BRANCH   1  23
ATOM     23  C   UNL A   1      31.565  31.967  26.905  1.00  0.00     0.042 C 
BRANCH  23  24
ATOM     24  C   UNL A   1      32.772  32.900  26.972  1.00  0.00     0.118 C 
BRANCH  24  25
ATOM     25  N   UNL A   1      32.462  34.200  27.554  1.00  0.00    -0.352 N 
ATOM     26  C   UNL A   1      32.998  34.845  28.638  1.00  0.00     0.251 C 
ATOM     27  H   UNL A   1      31.750  34.698  27.090  1.00  0.00     0.163 HD
ATOM     28  O   UNL A   1      32.477  35.887  29.038  1.00  0.00    -0.269 OA
BRANCH  26  29
ATOM     29  C   UNL A   1      34.178  34.304  29.348  1.00  0.00     0.039 A 
ATOM     30  C   UNL A   1      33.969  33.484  30.463  1.00  0.00     0.014 A 
ATOM     31  C   UNL A   1      35.478  34.625  28.955  1.00  0.00     0.014 A 
ATOM     32  C   UNL A   1      35.061  32.936  31.140  1.00  0.00     0.010 A 
ATOM     33  C   UNL A   1      36.564  34.021  29.586  1.00  0.00     0.010 A 
ATOM     34  C   UNL A   1      36.368  33.172  30.685  1.00  0.00    -0.014 A 
BRANCH  34  35
ATOM     35  C   UNL A   1      37.538  32.540  31.346  1.00  0.00     0.031 A 
ATOM     36  C   UNL A   1      38.270  31.411  30.677  1.00  0.00     0.074 A 
ATOM     37  C   UNL A   1      37.905  32.941  32.578  1.00  0.00     0.049 A 
ATOM     38  N   UNL A   1      39.269  30.689  31.121  1.00  0.00    -0.248 NA
ATOM     39  C   UNL A   1      37.801  31.025  29.338  1.00  0.00     0.031 C 
ATOM     40  C   UNL A   1      37.255  34.000  33.349  1.00  0.00     0.029 A 
ATOM     41  N   UNL A   1      38.909  32.497  33.401  1.00  0.00    -0.354 N 
ATOM     42  C   UNL A   1      39.535  29.758  30.127  1.00  0.00     0.074 A 
ATOM     43  C   UNL A   1      38.558  29.970  29.079  1.00  0.00     0.031 C 
ATOM     44  C   UNL A   1      37.896  34.146  34.520  1.00  0.00     0.029 A 
ATOM     45  C   UNL A   1      38.974  33.166  34.599  1.00  0.00     0.049 A 
ATOM     46  H   UNL A   1      39.526  31.769  33.157  1.00  0.00     0.167 HD
ATOM     47  C   UNL A   1      40.516  28.825  30.080  1.00  0.00     0.037 A 
ATOM     48  C   UNL A   1      39.809  33.005  35.642  1.00  0.00     0.037 A 
ATOM     49  C   UNL A   1      41.497  28.626  31.115  1.00  0.00     0.049 A 
ATOM     50  C   UNL A   1      40.876  31.947  35.578  1.00  0.00     0.074 A 
ATOM     51  C   UNL A   1      42.562  27.743  31.141  1.00  0.00     0.029 A 
ATOM     52  N   UNL A   1      41.529  29.322  32.316  1.00  0.00    -0.354 N 
ATOM     53  N   UNL A   1      41.154  31.110  34.609  1.00  0.00    -0.248 NA
ATOM     54  C   UNL A   1      41.746  31.816  36.755  1.00  0.00     0.031 C 
ATOM     55  C   UNL A   1      43.213  27.873  32.372  1.00  0.00     0.029 A 
ATOM     56  C   UNL A   1      42.583  28.873  33.097  1.00  0.00     0.049 A 
ATOM     57  H   UNL A   1      40.897  30.030  32.574  1.00  0.00     0.167 HD
ATOM     58  C   UNL A   1      42.249  30.375  35.043  1.00  0.00     0.074 A 
ATOM     59  C   UNL A   1      42.588  30.870  36.361  1.00  0.00     0.031 C 
ATOM     60  C   UNL A   1      42.913  29.380  34.404  1.00  0.00     0.037 A 
BRANCH  47  61
ATOM     61  C   UNL A   1      40.569  27.946  28.863  1.00  0.00     0.064 A 
ATOM     62  C   UNL A   1      41.339  28.290  27.740  1.00  0.00     0.173 A 
ATOM     63  C   UNL A   1      39.846  26.745  28.818  1.00  0.00     0.173 A 
ATOM     64  F   UNL A   1      42.041  29.432  27.728  1.00  0.00    -0.203 F 
ATOM     65  C   UNL A   1      41.347  27.487  26.603  1.00  0.00     0.198 A 
ATOM     66  C   UNL A   1      39.882  25.928  27.690  1.00  0.00     0.198 A 
ATOM     67  F   UNL A   1      39.100  26.364  29.866  1.00  0.00    -0.203 F 
ATOM     68  F   UNL A   1      42.038  27.869  25.520  1.00  0.00    -0.200 F 
ATOM     69  C   UNL A   1      40.622  26.304  26.580  1.00  0.00     0.200 A 
ATOM     70  F   UNL A   1      39.190  24.780  27.674  1.00  0.00    -0.200 F 
ATOM     71  F   UNL A   1      40.627  25.535  25.484  1.00  0.00    -0.200 F 
ENDBRANCH  47  61
BRANCH  48  72
ATOM     72  C   UNL A   1      39.695  33.902  36.821  1.00  0.00     0.064 A 
ATOM     73  C   UNL A   1      38.888  33.546  37.910  1.00  0.00     0.173 A 
ATOM     74  C   UNL A   1      40.393  35.115  36.892  1.00  0.00     0.173 A 
ATOM     75  F   UNL A   1      38.185  32.404  37.878  1.00  0.00    -0.203 F 
ATOM     76  C   UNL A   1      38.777  34.374  39.024  1.00  0.00     0.198 A 
ATOM     77  C   UNL A   1      40.301  35.932  38.017  1.00  0.00     0.198 A 
ATOM     78  F   UNL A   1      41.180  35.498  35.876  1.00  0.00    -0.203 F 
ATOM     79  F   UNL A   1      37.974  34.025  40.038  1.00  0.00    -0.200 F 
ATOM     80  C   UNL A   1      39.489  35.563  39.080  1.00  0.00     0.200 A 
ATOM     81  F   UNL A   1      40.998  37.074  38.073  1.00  0.00    -0.200 F 
ATOM     82  F   UNL A   1      39.388  36.356  40.155  1.00  0.00    -0.200 F 
ENDBRANCH  48  72
BRANCH  60  83
ATOM     83  C   UNL A   1      44.102  28.790  35.105  1.00  0.00     0.064 A 
ATOM     84  C   UNL A   1      43.983  27.672  35.946  1.00  0.00     0.173 A 
ATOM     85  C   UNL A   1      45.383  29.328  34.906  1.00  0.00     0.173 A 
ATOM     86  F   UNL A   1      42.778  27.131  36.181  1.00  0.00    -0.203 F 
ATOM     87  C   UNL A   1      45.099  27.131  36.579  1.00  0.00     0.198 A 
ATOM     88  C   UNL A   1      46.499  28.768  35.519  1.00  0.00     0.198 A 
ATOM     89  F   UNL A   1      45.551  30.393  34.109  1.00  0.00    -0.203 F 
ATOM     90  F   UNL A   1      44.955  26.094  37.414  1.00  0.00    -0.200 F 
ATOM     91  C   UNL A   1      46.356  27.675  36.360  1.00  0.00     0.200 A 
ATOM     92  F   UNL A   1      47.715  29.286  35.297  1.00  0.00    -0.200 F 
ATOM     93  F   UNL A   1      47.429  27.149  36.968  1.00  0.00    -0.200 F 
ENDBRANCH  60  83
ENDBRANCH  34  35
ENDBRANCH  26  29
ENDBRANCH  24  25
ENDBRANCH  23  24
ENDBRANCH   1  23
TORSDOF 14
ENDMDL
MODEL 3
REMARK VINA RESULT:     -12.2      3.707      7.967
REMARK SMILES CC(C)c1nc(OCC(=O)NCCCNC(=O)c2ccc(-c3c4nc(c(-c5c(F)c(F)c(F)c(F)c5F)c5ccc([nH]5)c(-c5c(F)c(F)c(F)c(F)c5F)c5nc(c(-c6c(F)c(F)c(F)c(F)c6F)c6ccc3[nH]6)C=C5)C=C4)cc2)cc(-c2ccccn2)n1
REMARK SMILES IDX 12 1 11 2 9 3 10 4 8 6 7 7 6 8 4 9 5 10 89 11 82 12 81 13
REMARK SMILES IDX 2 14 1 15 3 16 83 17 84 18 88 19 85 20 87 21 86 22 13 23
REMARK SMILES IDX 14 24 15 25 16 26 17 28 18 29 19 30 80 31 20 32 79 33 21 34
REMARK SMILES IDX 22 35 23 36 73 37 24 38 78 39 72 40 74 41 25 42 77 43 71 44
REMARK SMILES IDX 70 45 26 47 58 48 38 49 57 50 39 51 42 52 56 53 75 54 40 55
REMARK SMILES IDX 41 56 55 58 76 59 43 60 27 61 28 62 36 63 29 64 30 65 34 66
REMARK SMILES IDX 37 67 31 68 32 69 35 70 33 71 59 72 60 73 68 74 61 75 62 76
REMARK SMILES IDX 66 77 69 78 63 79 64 80 67 81 65 82 44 83 45 84 53 85 46 86
REMARK SMILES IDX 47 87 51 88 54 89 48 90 49 91 52 92 50 93
REMARK H PARENT 11 5 15 27 74 46 42 57
REMARK Flexibility Score: inf
ROOT
ATOM      1  C   UNL A   1      32.404  26.235  26.201  1.00  0.00     0.117 C 
ENDROOT
BRANCH   1   2
ATOM      2  N   UNL A   1      31.385  25.451  26.874  1.00  0.00    -0.353 N 
ATOM      3  C   UNL A   1      30.842  24.260  26.491  1.00  0.00     0.258 C 
ATOM      4  O   UNL A   1      29.961  23.760  27.193  1.00  0.00    -0.271 OA
ATOM      5  H   UNL A   1      31.041  25.827  27.716  1.00  0.00     0.163 HD
BRANCH   3   6
ATOM      6  C   UNL A   1      31.338  23.572  25.215  1.00  0.00     0.331 C 
BRANCH   6   7
ATOM      7  O   UNL A   1      31.375  22.157  25.256  1.00  0.00    -0.467 OA
BRANCH   7   8
ATOM      8  C   UNL A   1      32.585  21.542  25.104  1.00  0.00     0.217 A 
ATOM      9  C   UNL A   1      33.587  19.526  24.630  1.00  0.00     0.135 A 
ATOM     10  N   UNL A   1      32.459  20.241  24.799  1.00  0.00    -0.198 NA
ATOM     11  N   UNL A   1      34.817  20.017  24.844  1.00  0.00    -0.231 NA
ATOM     12  C   UNL A   1      34.916  21.329  25.146  1.00  0.00     0.096 A 
ATOM     13  C   UNL A   1      33.807  22.144  25.256  1.00  0.00     0.099 A 
BRANCH   9  14
ATOM     14  C   UNL A   1      33.458  18.059  24.259  1.00  0.00     0.051 C 
ATOM     15  C   UNL A   1      32.849  17.859  22.866  1.00  0.00     0.016 C 
ATOM     16  C   UNL A   1      34.807  17.331  24.322  1.00  0.00     0.016 C 
ENDBRANCH   9  14
BRANCH  12  17
ATOM     17  C   UNL A   1      36.259  21.869  25.400  1.00  0.00     0.089 A 
ATOM     18  C   UNL A   1      37.392  21.055  25.313  1.00  0.00     0.030 A 
ATOM     19  N   UNL A   1      36.332  23.166  25.796  1.00  0.00    -0.255 NA
ATOM     20  C   UNL A   1      38.636  21.585  25.643  1.00  0.00     0.004 A 
ATOM     21  C   UNL A   1      37.554  23.652  26.104  1.00  0.00     0.112 A 
ATOM     22  C   UNL A   1      38.721  22.909  26.049  1.00  0.00     0.020 A 
ENDBRANCH  12  17
ENDBRANCH   7   8
ENDBRANCH   6   7
ENDBRANCH   3   6
ENDBRANCH   1   2
BRANCH   1  23
ATOM     23  C   UNL A   1      32.349  27.711  26.579  1.00  0.00     0.042 C 
BRANCH  23  24
ATOM     24  C   UNL A   1      33.694  28.323  26.963  1.00  0.00     0.118 C 
BRANCH  24  25
ATOM     25  N   UNL A   1      33.592  29.712  27.393  1.00  0.00    -0.352 N 
ATOM     26  C   UNL A   1      34.474  30.501  28.084  1.00  0.00     0.251 C 
ATOM     27  H   UNL A   1      32.749  30.158  27.145  1.00  0.00     0.163 HD
ATOM     28  O   UNL A   1      34.115  31.615  28.467  1.00  0.00    -0.269 OA
BRANCH  26  29
ATOM     29  C   UNL A   1      35.843  30.032  28.395  1.00  0.00     0.039 A 
ATOM     30  C   UNL A   1      36.832  30.157  27.413  1.00  0.00     0.014 A 
ATOM     31  C   UNL A   1      36.150  29.437  29.620  1.00  0.00     0.014 A 
ATOM     32  C   UNL A   1      38.139  29.747  27.684  1.00  0.00     0.010 A 
ATOM     33  C   UNL A   1      37.469  29.096  29.916  1.00  0.00     0.010 A 
ATOM     34  C   UNL A   1      38.477  29.246  28.951  1.00  0.00    -0.014 A 
BRANCH  34  35
ATOM     35  C   UNL A   1      39.875  28.873  29.284  1.00  0.00     0.031 A 
ATOM     36  C   UNL A   1      40.729  29.791  30.114  1.00  0.00     0.074 A 
ATOM     37  C   UNL A   1      40.399  27.736  28.787  1.00  0.00     0.049 A 
ATOM     38  N   UNL A   1      41.989  29.674  30.452  1.00  0.00    -0.248 NA
ATOM     39  C   UNL A   1      40.087  31.017  30.608  1.00  0.00     0.031 C 
ATOM     40  C   UNL A   1      39.687  26.779  27.941  1.00  0.00     0.029 A 
ATOM     41  N   UNL A   1      41.655  27.199  28.916  1.00  0.00    -0.354 N 
ATOM     42  C   UNL A   1      42.292  30.814  31.183  1.00  0.00     0.074 A 
ATOM     43  C   UNL A   1      41.101  31.637  31.193  1.00  0.00     0.031 C 
ATOM     44  C   UNL A   1      40.506  25.756  27.652  1.00  0.00     0.029 A 
ATOM     45  C   UNL A   1      41.811  26.004  28.257  1.00  0.00     0.049 A 
ATOM     46  H   UNL A   1      42.375  27.628  29.432  1.00  0.00     0.167 HD
ATOM     47  C   UNL A   1      43.450  31.138  31.808  1.00  0.00     0.037 A 
ATOM     48  C   UNL A   1      42.887  25.201  28.153  1.00  0.00     0.037 A 
ATOM     49  C   UNL A   1      44.629  30.310  31.811  1.00  0.00     0.049 A 
ATOM     50  C   UNL A   1      44.169  25.592  28.835  1.00  0.00     0.074 A 
ATOM     51  C   UNL A   1      45.835  30.524  32.455  1.00  0.00     0.029 A 
ATOM     52  N   UNL A   1      44.750  29.107  31.129  1.00  0.00    -0.354 N 
ATOM     53  N   UNL A   1      44.427  26.645  29.570  1.00  0.00    -0.248 NA
ATOM     54  C   UNL A   1      45.307  24.678  28.672  1.00  0.00     0.031 C 
ATOM     55  C   UNL A   1      46.699  29.474  32.130  1.00  0.00     0.029 A 
ATOM     56  C   UNL A   1      46.017  28.579  31.321  1.00  0.00     0.049 A 
ATOM     57  H   UNL A   1      44.040  28.691  30.590  1.00  0.00     0.167 HD
ATOM     58  C   UNL A   1      45.745  26.506  29.985  1.00  0.00     0.074 A 
ATOM     59  C   UNL A   1      46.230  25.262  29.423  1.00  0.00     0.031 C 
ATOM     60  C   UNL A   1      46.484  27.335  30.762  1.00  0.00     0.037 A 
BRANCH  47  61
ATOM     61  C   UNL A   1      43.492  32.450  32.537  1.00  0.00     0.064 A 
ATOM     62  C   UNL A   1      43.127  32.551  33.889  1.00  0.00     0.173 A 
ATOM     63  C   UNL A   1      43.905  33.619  31.880  1.00  0.00     0.173 A 
ATOM     64  F   UNL A   1      42.716  31.466  34.561  1.00  0.00    -0.203 F 
ATOM     65  C   UNL A   1      43.131  33.781  34.542  1.00  0.00     0.198 A 
ATOM     66  C   UNL A   1      43.939  34.842  32.546  1.00  0.00     0.198 A 
ATOM     67  F   UNL A   1      44.272  33.577  30.591  1.00  0.00    -0.203 F 
ATOM     68  F   UNL A   1      42.717  33.863  35.814  1.00  0.00    -0.200 F 
ATOM     69  C   UNL A   1      43.542  34.924  33.872  1.00  0.00     0.200 A 
ATOM     70  F   UNL A   1      44.346  35.943  31.901  1.00  0.00    -0.200 F 
ATOM     71  F   UNL A   1      43.541  36.107  34.501  1.00  0.00    -0.200 F 
ENDBRANCH  47  61
BRANCH  48  72
ATOM     72  C   UNL A   1      42.780  23.922  27.406  1.00  0.00     0.064 A 
ATOM     73  C   UNL A   1      42.323  22.761  28.046  1.00  0.00     0.173 A 
ATOM     74  C   UNL A   1      43.113  23.832  26.047  1.00  0.00     0.173 A 
ATOM     75  F   UNL A   1      42.013  22.794  29.350  1.00  0.00    -0.203 F 
ATOM     76  C   UNL A   1      42.212  21.556  27.357  1.00  0.00     0.198 A 
ATOM     77  C   UNL A   1      42.979  22.632  25.353  1.00  0.00     0.198 A 
ATOM     78  F   UNL A   1      43.552  24.916  25.391  1.00  0.00    -0.203 F 
ATOM     79  F   UNL A   1      41.804  20.454  28.000  1.00  0.00    -0.200 F 
ATOM     80  C   UNL A   1      42.533  21.494  26.009  1.00  0.00     0.200 A 
ATOM     81  F   UNL A   1      43.279  22.578  24.048  1.00  0.00    -0.200 F 
ATOM     82  F   UNL A   1      42.418  20.336  25.344  1.00  0.00    -0.200 F 
ENDBRANCH  48  72
BRANCH  60  83
ATOM     83  C   UNL A   1      47.885  26.903  31.088  1.00  0.00     0.064 A 
ATOM     84  C   UNL A   1      48.985  27.340  30.335  1.00  0.00     0.173 A 
ATOM     85  C   UNL A   1      48.131  26.068  32.188  1.00  0.00     0.173 A 
ATOM     86  F   UNL A   1      48.800  28.127  29.264  1.00  0.00    -0.203 F 
ATOM     87  C   UNL A   1      50.278  26.937  30.659  1.00  0.00     0.198 A 
ATOM     88  C   UNL A   1      49.427  25.689  32.524  1.00  0.00     0.198 A 
ATOM     89  F   UNL A   1      47.114  25.625  32.942  1.00  0.00    -0.203 F 
ATOM     90  F   UNL A   1      51.309  27.329  29.898  1.00  0.00    -0.200 F 
ATOM     91  C   UNL A   1      50.499  26.118  31.756  1.00  0.00     0.200 A 
ATOM     92  F   UNL A   1      49.640  24.908  33.592  1.00  0.00    -0.200 F 
ATOM     93  F   UNL A   1      51.745  25.735  32.068  1.00  0.00    -0.200 F 
ENDBRANCH  60  83
ENDBRANCH  34  35
ENDBRANCH  26  29
ENDBRANCH  24  25
ENDBRANCH  23  24
ENDBRANCH   1  23
TORSDOF 14
ENDMDL
