MODEL 1
REMARK VINA RESULT:     -13.5      0.000      0.000
REMARK SMILES CC1=C(CC(=O)NCCCNC(=O)c2ccc(-c3c4nc(c(-c5c(F)c(F)c(F)c(F)c5F)c5ccc([nH]5)c(-c5c(F)c(F)c(F)c(F)c5F)c5nc(c(-c6c(F)c(F)c(F)c(F)c6F)c6ccc3[nH]6)C=C5)C=C4)cc2)c2cc(F)ccc2/C1=C\c1ccc([S@@+](C)[O-])cc1
REMARK SMILES IDX 8 1 7 2 5 3 6 4 4 6 3 7 1 8 2 9 84 10 77 11 83 12 85 13
REMARK SMILES IDX 78 14 82 15 79 16 81 17 80 18 86 19 87 20 94 21 88 22 93 23
REMARK SMILES IDX 89 24 90 25 91 26 92 27 9 28 10 29 11 30 12 31 13 33 14 34
REMARK SMILES IDX 15 35 76 36 16 37 75 38 17 39 18 40 19 41 69 42 20 43 74 44
REMARK SMILES IDX 68 45 70 46 21 47 73 48 67 49 66 50 22 52 54 53 34 54 53 55
REMARK SMILES IDX 35 56 38 57 52 58 71 59 36 60 37 61 51 63 72 64 39 65 23 66
REMARK SMILES IDX 24 67 32 68 25 69 26 70 30 71 33 72 27 73 28 74 31 75 29 76
REMARK SMILES IDX 55 77 56 78 64 79 57 80 58 81 62 82 65 83 59 84 60 85 63 86
REMARK SMILES IDX 61 87 40 88 41 89 49 90 42 91 43 92 47 93 50 94 44 95 45 96
REMARK SMILES IDX 48 97 46 98
REMARK H PARENT 7 5 11 32 70 51 38 62
REMARK Flexibility Score: inf
ROOT
ATOM      1  C   UNL A   1      36.805  20.795  24.893  1.00  0.00     0.117 C 
ENDROOT
BRANCH   1   2
ATOM      2  N   UNL A   1      35.466  20.265  25.053  1.00  0.00    -0.356 N 
ATOM      3  C   UNL A   1      34.461  20.694  25.867  1.00  0.00     0.224 C 
ATOM      4  O   UNL A   1      33.411  20.047  25.878  1.00  0.00    -0.275 OA
ATOM      5  H   UNL A   1      35.251  19.485  24.492  1.00  0.00     0.163 HD
BRANCH   3   6
ATOM      6  C   UNL A   1      34.626  21.957  26.705  1.00  0.00     0.136 C 
BRANCH   6   7
ATOM      7  C   UNL A   1      34.034  23.183  26.087  1.00  0.00    -0.027 C 
ATOM      8  C   UNL A   1      36.015  24.117  24.761  1.00  0.00     0.045 C 
ATOM      9  C   UNL A   1      34.613  24.102  25.275  1.00  0.00    -0.039 C 
ATOM     10  C   UNL A   1      33.626  25.133  24.908  1.00  0.00    -0.014 C 
ATOM     11  C   UNL A   1      32.609  23.538  26.220  1.00  0.00    -0.011 A 
ATOM     12  C   UNL A   1      32.331  24.692  25.464  1.00  0.00    -0.010 A 
ATOM     13  C   UNL A   1      33.916  26.269  24.239  1.00  0.00     0.017 C 
ATOM     14  C   UNL A   1      31.595  22.888  26.914  1.00  0.00     0.048 A 
ATOM     15  C   UNL A   1      31.027  25.160  25.349  1.00  0.00     0.012 A 
ATOM     16  C   UNL A   1      30.305  23.402  26.837  1.00  0.00     0.123 A 
ATOM     17  C   UNL A   1      30.011  24.518  26.057  1.00  0.00     0.040 A 
ATOM     18  F   UNL A   1      29.316  22.801  27.513  1.00  0.00    -0.207 F 
BRANCH  13  19
ATOM     19  C   UNL A   1      32.948  27.313  23.892  1.00  0.00    -0.025 A 
ATOM     20  C   UNL A   1      32.592  28.306  24.813  1.00  0.00     0.013 A 
ATOM     21  C   UNL A   1      32.265  27.225  22.677  1.00  0.00     0.013 A 
ATOM     22  C   UNL A   1      31.467  29.108  24.582  1.00  0.00     0.061 A 
ATOM     23  C   UNL A   1      31.155  28.039  22.440  1.00  0.00     0.061 A 
ATOM     24  C   UNL A   1      30.716  28.948  23.411  1.00  0.00     0.152 A 
BRANCH  24  25
ATOM     25  S   UNL A   1      29.082  29.710  23.230  1.00  0.00    -0.018 S 
ATOM     26  C   UNL A   1      29.281  30.529  21.640  1.00  0.00     0.346 C 
ATOM     27  O   UNL A   1      28.046  28.543  23.051  1.00  0.00    -0.612 OA
ENDBRANCH  24  25
ENDBRANCH  13  19
ENDBRANCH   6   7
ENDBRANCH   3   6
ENDBRANCH   1   2
BRANCH   1  28
ATOM     28  C   UNL A   1      37.872  19.722  25.078  1.00  0.00     0.042 C 
BRANCH  28  29
ATOM     29  C   UNL A   1      39.120  20.216  25.802  1.00  0.00     0.118 C 
BRANCH  29  30
ATOM     30  N   UNL A   1      40.167  19.205  25.869  1.00  0.00    -0.352 N 
ATOM     31  C   UNL A   1      41.518  19.341  26.076  1.00  0.00     0.251 C 
ATOM     32  H   UNL A   1      39.858  18.278  25.747  1.00  0.00     0.163 HD
ATOM     33  O   UNL A   1      42.260  18.376  25.915  1.00  0.00    -0.269 OA
BRANCH  31  34
ATOM     34  C   UNL A   1      42.088  20.648  26.465  1.00  0.00     0.039 A 
ATOM     35  C   UNL A   1      42.197  21.015  27.808  1.00  0.00     0.014 A 
ATOM     36  C   UNL A   1      42.537  21.516  25.463  1.00  0.00     0.014 A 
ATOM     37  C   UNL A   1      42.602  22.304  28.142  1.00  0.00     0.010 A 
ATOM     38  C   UNL A   1      43.018  22.782  25.805  1.00  0.00     0.010 A 
ATOM     39  C   UNL A   1      43.013  23.202  27.144  1.00  0.00    -0.014 A 
BRANCH  39  40
ATOM     40  C   UNL A   1      43.438  24.576  27.516  1.00  0.00     0.031 A 
ATOM     41  C   UNL A   1      42.419  25.608  27.913  1.00  0.00     0.074 A 
ATOM     42  C   UNL A   1      44.749  24.879  27.534  1.00  0.00     0.049 A 
ATOM     43  N   UNL A   1      42.599  26.864  28.237  1.00  0.00    -0.248 NA
ATOM     44  C   UNL A   1      41.013  25.176  27.952  1.00  0.00     0.031 C 
ATOM     45  C   UNL A   1      45.831  23.952  27.199  1.00  0.00     0.029 A 
ATOM     46  N   UNL A   1      45.397  26.042  27.863  1.00  0.00    -0.354 N 
ATOM     47  C   UNL A   1      41.334  27.376  28.495  1.00  0.00     0.074 A 
ATOM     48  C   UNL A   1      40.391  26.302  28.276  1.00  0.00     0.031 C 
ATOM     49  C   UNL A   1      47.009  24.567  27.381  1.00  0.00     0.029 A 
ATOM     50  C   UNL A   1      46.764  25.949  27.783  1.00  0.00     0.049 A 
ATOM     51  H   UNL A   1      44.927  26.864  28.133  1.00  0.00     0.167 HD
ATOM     52  C   UNL A   1      40.996  28.628  28.885  1.00  0.00     0.037 A 
ATOM     53  C   UNL A   1      47.716  26.878  27.990  1.00  0.00     0.037 A 
ATOM     54  C   UNL A   1      41.940  29.691  29.113  1.00  0.00     0.049 A 
ATOM     55  C   UNL A   1      47.308  28.270  28.380  1.00  0.00     0.074 A 
ATOM     56  C   UNL A   1      41.692  30.997  29.501  1.00  0.00     0.029 A 
ATOM     57  N   UNL A   1      43.315  29.572  28.975  1.00  0.00    -0.354 N 
ATOM     58  N   UNL A   1      46.108  28.747  28.598  1.00  0.00    -0.248 NA
ATOM     59  C   UNL A   1      48.387  29.253  28.543  1.00  0.00     0.031 C 
ATOM     60  C   UNL A   1      42.914  31.676  29.565  1.00  0.00     0.029 A 
ATOM     61  C   UNL A   1      43.928  30.781  29.264  1.00  0.00     0.049 A 
ATOM     62  H   UNL A   1      43.787  28.748  28.711  1.00  0.00     0.167 HD
ATOM     63  C   UNL A   1      46.285  30.081  28.939  1.00  0.00     0.074 A 
ATOM     64  C   UNL A   1      47.712  30.332  28.916  1.00  0.00     0.031 C 
ATOM     65  C   UNL A   1      45.349  31.013  29.241  1.00  0.00     0.037 A 
BRANCH  52  66
ATOM     66  C   UNL A   1      39.539  28.929  29.079  1.00  0.00     0.064 A 
ATOM     67  C   UNL A   1      38.928  28.823  30.337  1.00  0.00     0.173 A 
ATOM     68  C   UNL A   1      38.758  29.393  28.008  1.00  0.00     0.173 A 
ATOM     69  F   UNL A   1      39.626  28.372  31.391  1.00  0.00    -0.203 F 
ATOM     70  C   UNL A   1      37.587  29.156  30.511  1.00  0.00     0.198 A 
ATOM     71  C   UNL A   1      37.426  29.753  28.193  1.00  0.00     0.198 A 
ATOM     72  F   UNL A   1      39.296  29.515  26.785  1.00  0.00    -0.203 F 
ATOM     73  F   UNL A   1      37.013  29.012  31.712  1.00  0.00    -0.200 F 
ATOM     74  C   UNL A   1      36.841  29.631  29.443  1.00  0.00     0.200 A 
ATOM     75  F   UNL A   1      36.710  30.220  27.161  1.00  0.00    -0.200 F 
ATOM     76  F   UNL A   1      35.556  29.970  29.620  1.00  0.00    -0.200 F 
ENDBRANCH  52  66
BRANCH  53  77
ATOM     77  C   UNL A   1      49.146  26.508  27.835  1.00  0.00     0.064 A 
ATOM     78  C   UNL A   1      49.726  26.402  26.565  1.00  0.00     0.173 A 
ATOM     79  C   UNL A   1      49.967  26.290  28.951  1.00  0.00     0.173 A 
ATOM     80  F   UNL A   1      48.975  26.581  25.468  1.00  0.00    -0.203 F 
ATOM     81  C   UNL A   1      51.076  26.090  26.416  1.00  0.00     0.198 A 
ATOM     82  C   UNL A   1      51.322  26.006  28.801  1.00  0.00     0.198 A 
ATOM     83  F   UNL A   1      49.457  26.384  30.188  1.00  0.00    -0.203 F 
ATOM     84  F   UNL A   1      51.601  25.967  25.189  1.00  0.00    -0.200 F 
ATOM     85  C   UNL A   1      51.875  25.902  27.534  1.00  0.00     0.200 A 
ATOM     86  F   UNL A   1      52.093  25.841  29.885  1.00  0.00    -0.200 F 
ATOM     87  F   UNL A   1      53.176  25.619  27.391  1.00  0.00    -0.200 F 
ENDBRANCH  53  77
BRANCH  65  88
ATOM     88  C   UNL A   1      45.837  32.384  29.602  1.00  0.00     0.064 A 
ATOM     89  C   UNL A   1      45.983  33.390  28.635  1.00  0.00     0.173 A 
ATOM     90  C   UNL A   1      46.119  32.707  30.937  1.00  0.00     0.173 A 
ATOM     91  F   UNL A   1      45.739  33.124  27.343  1.00  0.00    -0.203 F 
ATOM     92  C   UNL A   1      46.415  34.664  28.991  1.00  0.00     0.198 A 
ATOM     93  C   UNL A   1      46.526  33.990  31.292  1.00  0.00     0.198 A 
ATOM     94  F   UNL A   1      45.987  31.782  31.899  1.00  0.00    -0.203 F 
ATOM     95  F   UNL A   1      46.588  35.599  28.046  1.00  0.00    -0.200 F 
ATOM     96  C   UNL A   1      46.680  34.965  30.319  1.00  0.00     0.200 A 
ATOM     97  F   UNL A   1      46.769  34.282  32.577  1.00  0.00    -0.200 F 
ATOM     98  F   UNL A   1      47.089  36.195  30.660  1.00  0.00    -0.200 F 
ENDBRANCH  65  88
ENDBRANCH  39  40
ENDBRANCH  31  34
ENDBRANCH  29  30
ENDBRANCH  28  29
ENDBRANCH   1  28
TORSDOF 13
ENDMDL
MODEL 2
REMARK VINA RESULT:     -13.5      0.751      7.085
REMARK SMILES CC1=C(CC(=O)NCCCNC(=O)c2ccc(-c3c4nc(c(-c5c(F)c(F)c(F)c(F)c5F)c5ccc([nH]5)c(-c5c(F)c(F)c(F)c(F)c5F)c5nc(c(-c6c(F)c(F)c(F)c(F)c6F)c6ccc3[nH]6)C=C5)C=C4)cc2)c2cc(F)ccc2/C1=C\c1ccc([S@@+](C)[O-])cc1
REMARK SMILES IDX 8 1 7 2 5 3 6 4 4 6 3 7 1 8 2 9 84 10 77 11 83 12 85 13
REMARK SMILES IDX 78 14 82 15 79 16 81 17 80 18 86 19 87 20 94 21 88 22 93 23
REMARK SMILES IDX 89 24 90 25 91 26 92 27 9 28 10 29 11 30 12 31 13 33 14 34
REMARK SMILES IDX 15 35 76 36 16 37 75 38 17 39 18 40 19 41 69 42 20 43 74 44
REMARK SMILES IDX 68 45 70 46 21 47 73 48 67 49 66 50 22 52 54 53 34 54 53 55
REMARK SMILES IDX 35 56 38 57 52 58 71 59 36 60 37 61 51 63 72 64 39 65 23 66
REMARK SMILES IDX 24 67 32 68 25 69 26 70 30 71 33 72 27 73 28 74 31 75 29 76
REMARK SMILES IDX 55 77 56 78 64 79 57 80 58 81 62 82 65 83 59 84 60 85 63 86
REMARK SMILES IDX 61 87 40 88 41 89 49 90 42 91 43 92 47 93 50 94 44 95 45 96
REMARK SMILES IDX 48 97 46 98
REMARK H PARENT 7 5 11 32 70 51 38 62
REMARK Flexibility Score: inf
ROOT
ATOM      1  C   UNL A   1      36.751  20.796  24.812  1.00  0.00     0.117 C 
ENDROOT
BRANCH   1   2
ATOM      2  N   UNL A   1      35.420  20.259  25.006  1.00  0.00    -0.356 N 
ATOM      3  C   UNL A   1      34.433  20.682  25.846  1.00  0.00     0.224 C 
ATOM      4  O   UNL A   1      33.389  20.028  25.883  1.00  0.00    -0.275 OA
ATOM      5  H   UNL A   1      35.195  19.477  24.451  1.00  0.00     0.163 HD
BRANCH   3   6
ATOM      6  C   UNL A   1      34.613  21.945  26.680  1.00  0.00     0.136 C 
BRANCH   6   7
ATOM      7  C   UNL A   1      34.018  23.172  26.067  1.00  0.00    -0.027 C 
ATOM      8  C   UNL A   1      35.991  24.104  24.727  1.00  0.00     0.045 C 
ATOM      9  C   UNL A   1      34.592  24.091  25.251  1.00  0.00    -0.039 C 
ATOM     10  C   UNL A   1      33.604  25.123  24.892  1.00  0.00    -0.014 C 
ATOM     11  C   UNL A   1      32.594  23.529  26.210  1.00  0.00    -0.011 A 
ATOM     12  C   UNL A   1      32.313  24.684  25.458  1.00  0.00    -0.010 A 
ATOM     13  C   UNL A   1      33.891  26.259  24.222  1.00  0.00     0.017 C 
ATOM     14  C   UNL A   1      31.585  22.880  26.912  1.00  0.00     0.048 A 
ATOM     15  C   UNL A   1      31.009  25.153  25.352  1.00  0.00     0.012 A 
ATOM     16  C   UNL A   1      30.295  23.396  26.845  1.00  0.00     0.123 A 
ATOM     17  C   UNL A   1      29.997  24.513  26.067  1.00  0.00     0.040 A 
ATOM     18  F   UNL A   1      29.310  22.796  27.528  1.00  0.00    -0.207 F 
BRANCH  13  19
ATOM     19  C   UNL A   1      32.922  27.305  23.883  1.00  0.00    -0.025 A 
ATOM     20  C   UNL A   1      32.554  28.283  24.815  1.00  0.00     0.013 A 
ATOM     21  C   UNL A   1      32.249  27.233  22.660  1.00  0.00     0.013 A 
ATOM     22  C   UNL A   1      31.428  29.084  24.586  1.00  0.00     0.061 A 
ATOM     23  C   UNL A   1      31.138  28.046  22.426  1.00  0.00     0.061 A 
ATOM     24  C   UNL A   1      30.688  28.939  23.407  1.00  0.00     0.152 A 
BRANCH  24  25
ATOM     25  S   UNL A   1      29.053  29.697  23.224  1.00  0.00    -0.018 S 
ATOM     26  C   UNL A   1      29.238  30.482  21.614  1.00  0.00     0.346 C 
ATOM     27  O   UNL A   1      28.015  28.527  23.080  1.00  0.00    -0.612 OA
ENDBRANCH  24  25
ENDBRANCH  13  19
ENDBRANCH   6   7
ENDBRANCH   3   6
ENDBRANCH   1   2
BRANCH   1  28
ATOM     28  C   UNL A   1      37.830  19.733  24.986  1.00  0.00     0.042 C 
BRANCH  28  29
ATOM     29  C   UNL A   1      38.991  20.175  25.872  1.00  0.00     0.118 C 
BRANCH  29  30
ATOM     30  N   UNL A   1      40.072  19.199  25.909  1.00  0.00    -0.352 N 
ATOM     31  C   UNL A   1      41.426  19.382  26.049  1.00  0.00     0.251 C 
ATOM     32  H   UNL A   1      39.787  18.261  25.821  1.00  0.00     0.163 HD
ATOM     33  O   UNL A   1      42.190  18.438  25.873  1.00  0.00    -0.269 OA
BRANCH  31  34
ATOM     34  C   UNL A   1      41.971  20.715  26.383  1.00  0.00     0.039 A 
ATOM     35  C   UNL A   1      42.226  21.077  27.708  1.00  0.00     0.014 A 
ATOM     36  C   UNL A   1      42.248  21.613  25.346  1.00  0.00     0.014 A 
ATOM     37  C   UNL A   1      42.601  22.383  28.008  1.00  0.00     0.010 A 
ATOM     38  C   UNL A   1      42.701  22.900  25.645  1.00  0.00     0.010 A 
ATOM     39  C   UNL A   1      42.839  23.309  26.980  1.00  0.00    -0.014 A 
BRANCH  39  40
ATOM     40  C   UNL A   1      43.235  24.701  27.316  1.00  0.00     0.031 A 
ATOM     41  C   UNL A   1      44.628  25.188  27.030  1.00  0.00     0.074 A 
ATOM     42  C   UNL A   1      42.322  25.536  27.846  1.00  0.00     0.049 A 
ATOM     43  N   UNL A   1      45.163  26.356  27.283  1.00  0.00    -0.248 NA
ATOM     44  C   UNL A   1      45.542  24.242  26.371  1.00  0.00     0.031 C 
ATOM     45  C   UNL A   1      40.932  25.186  28.141  1.00  0.00     0.029 A 
ATOM     46  N   UNL A   1      42.419  26.854  28.214  1.00  0.00    -0.354 N 
ATOM     47  C   UNL A   1      46.476  26.278  26.838  1.00  0.00     0.074 A 
ATOM     48  C   UNL A   1      46.666  24.945  26.312  1.00  0.00     0.031 C 
ATOM     49  C   UNL A   1      40.294  26.271  28.602  1.00  0.00     0.029 A 
ATOM     50  C   UNL A   1      41.244  27.375  28.697  1.00  0.00     0.049 A 
ATOM     51  H   UNL A   1      43.250  27.377  28.137  1.00  0.00     0.167 HD
ATOM     52  C   UNL A   1      47.431  27.238  26.863  1.00  0.00     0.037 A 
ATOM     53  C   UNL A   1      40.966  28.600  29.181  1.00  0.00     0.037 A 
ATOM     54  C   UNL A   1      47.235  28.569  27.378  1.00  0.00     0.049 A 
ATOM     55  C   UNL A   1      42.058  29.630  29.236  1.00  0.00     0.074 A 
ATOM     56  C   UNL A   1      48.146  29.608  27.455  1.00  0.00     0.029 A 
ATOM     57  N   UNL A   1      46.042  29.045  27.903  1.00  0.00    -0.354 N 
ATOM     58  N   UNL A   1      43.301  29.538  28.834  1.00  0.00    -0.248 NA
ATOM     59  C   UNL A   1      41.709  30.932  29.820  1.00  0.00     0.031 C 
ATOM     60  C   UNL A   1      47.515  30.702  28.056  1.00  0.00     0.029 A 
ATOM     61  C   UNL A   1      46.196  30.361  28.311  1.00  0.00     0.049 A 
ATOM     62  H   UNL A   1      45.209  28.526  27.975  1.00  0.00     0.167 HD
ATOM     63  C   UNL A   1      43.881  30.770  29.102  1.00  0.00     0.074 A 
ATOM     64  C   UNL A   1      42.846  31.600  29.685  1.00  0.00     0.031 C 
ATOM     65  C   UNL A   1      45.156  31.175  28.885  1.00  0.00     0.037 A 
BRANCH  52  66
ATOM     66  C   UNL A   1      48.789  26.885  26.331  1.00  0.00     0.064 A 
ATOM     67  C   UNL A   1      49.756  26.267  27.138  1.00  0.00     0.173 A 
ATOM     68  C   UNL A   1      49.106  27.107  24.982  1.00  0.00     0.173 A 
ATOM     69  F   UNL A   1      49.508  26.043  28.438  1.00  0.00    -0.203 F 
ATOM     70  C   UNL A   1      50.993  25.898  26.616  1.00  0.00     0.198 A 
ATOM     71  C   UNL A   1      50.334  26.710  24.457  1.00  0.00     0.198 A 
ATOM     72  F   UNL A   1      48.215  27.693  24.167  1.00  0.00    -0.203 F 
ATOM     73  F   UNL A   1      51.915  25.342  27.412  1.00  0.00    -0.200 F 
ATOM     74  C   UNL A   1      51.276  26.108  25.275  1.00  0.00     0.200 A 
ATOM     75  F   UNL A   1      50.601  26.907  23.159  1.00  0.00    -0.200 F 
ATOM     76  F   UNL A   1      52.461  25.733  24.772  1.00  0.00    -0.200 F 
ENDBRANCH  52  66
BRANCH  53  77
ATOM     77  C   UNL A   1      39.590  28.909  29.644  1.00  0.00     0.064 A 
ATOM     78  C   UNL A   1      38.630  29.413  28.756  1.00  0.00     0.173 A 
ATOM     79  C   UNL A   1      39.197  28.674  30.969  1.00  0.00     0.173 A 
ATOM     80  F   UNL A   1      38.966  29.674  27.484  1.00  0.00    -0.203 F 
ATOM     81  C   UNL A   1      37.328  29.672  29.178  1.00  0.00     0.198 A 
ATOM     82  C   UNL A   1      37.887  28.907  31.383  1.00  0.00     0.198 A 
ATOM     83  F   UNL A   1      40.079  28.190  31.855  1.00  0.00    -0.203 F 
ATOM     84  F   UNL A   1      36.436  30.179  28.316  1.00  0.00    -0.200 F 
ATOM     85  C   UNL A   1      36.955  29.409  30.488  1.00  0.00     0.200 A 
ATOM     86  F   UNL A   1      37.527  28.637  32.645  1.00  0.00    -0.200 F 
ATOM     87  F   UNL A   1      35.698  29.642  30.888  1.00  0.00    -0.200 F 
ENDBRANCH  53  77
BRANCH  65  88
ATOM     88  C   UNL A   1      45.498  32.587  29.252  1.00  0.00     0.064 A 
ATOM     89  C   UNL A   1      46.028  32.912  30.509  1.00  0.00     0.173 A 
ATOM     90  C   UNL A   1      45.337  33.621  28.318  1.00  0.00     0.173 A 
ATOM     91  F   UNL A   1      46.187  31.960  31.440  1.00  0.00    -0.203 F 
ATOM     92  C   UNL A   1      46.362  34.226  30.825  1.00  0.00     0.198 A 
ATOM     93  C   UNL A   1      45.696  34.929  28.628  1.00  0.00     0.198 A 
ATOM     94  F   UNL A   1      44.841  33.359  27.099  1.00  0.00    -0.203 F 
ATOM     95  F   UNL A   1      46.828  34.522  32.047  1.00  0.00    -0.200 F 
ATOM     96  C   UNL A   1      46.203  35.231  29.883  1.00  0.00     0.200 A 
ATOM     97  F   UNL A   1      45.554  35.897  27.712  1.00  0.00    -0.200 F 
ATOM     98  F   UNL A   1      46.533  36.495  30.186  1.00  0.00    -0.200 F 
ENDBRANCH  65  88
ENDBRANCH  39  40
ENDBRANCH  31  34
ENDBRANCH  29  30
ENDBRANCH  28  29
ENDBRANCH   1  28
TORSDOF 13
ENDMDL
MODEL 3
REMARK VINA RESULT:     -13.5      5.523     10.657
REMARK SMILES CC1=C(CC(=O)NCCCNC(=O)c2ccc(-c3c4nc(c(-c5c(F)c(F)c(F)c(F)c5F)c5ccc([nH]5)c(-c5c(F)c(F)c(F)c(F)c5F)c5nc(c(-c6c(F)c(F)c(F)c(F)c6F)c6ccc3[nH]6)C=C5)C=C4)cc2)c2cc(F)ccc2/C1=C\c1ccc([S@@+](C)[O-])cc1
REMARK SMILES IDX 8 1 7 2 5 3 6 4 4 6 3 7 1 8 2 9 84 10 77 11 83 12 85 13
REMARK SMILES IDX 78 14 82 15 79 16 81 17 80 18 86 19 87 20 94 21 88 22 93 23
REMARK SMILES IDX 89 24 90 25 91 26 92 27 9 28 10 29 11 30 12 31 13 33 14 34
REMARK SMILES IDX 15 35 76 36 16 37 75 38 17 39 18 40 19 41 69 42 20 43 74 44
REMARK SMILES IDX 68 45 70 46 21 47 73 48 67 49 66 50 22 52 54 53 34 54 53 55
REMARK SMILES IDX 35 56 38 57 52 58 71 59 36 60 37 61 51 63 72 64 39 65 23 66
REMARK SMILES IDX 24 67 32 68 25 69 26 70 30 71 33 72 27 73 28 74 31 75 29 76
REMARK SMILES IDX 55 77 56 78 64 79 57 80 58 81 62 82 65 83 59 84 60 85 63 86
REMARK SMILES IDX 61 87 40 88 41 89 49 90 42 91 43 92 47 93 50 94 44 95 45 96
REMARK SMILES IDX 48 97 46 98
REMARK H PARENT 7 5 11 32 70 51 38 62
REMARK Flexibility Score: inf
ROOT
ATOM      1  C   UNL A   1      31.770  30.458  26.142  1.00  0.00     0.117 C 
ENDROOT
BRANCH   1   2
ATOM      2  N   UNL A   1      31.166  30.101  24.874  1.00  0.00    -0.356 N 
ATOM      3  C   UNL A   1      31.721  29.469  23.802  1.00  0.00     0.224 C 
ATOM      4  O   UNL A   1      31.024  29.319  22.796  1.00  0.00    -0.275 OA
ATOM      5  H   UNL A   1      30.218  30.349  24.774  1.00  0.00     0.163 HD
BRANCH   3   6
ATOM      6  C   UNL A   1      33.148  28.935  23.868  1.00  0.00     0.136 C 
BRANCH   6   7
ATOM      7  C   UNL A   1      33.241  27.476  24.180  1.00  0.00    -0.027 C 
ATOM      8  C   UNL A   1      33.407  27.489  26.735  1.00  0.00     0.045 C 
ATOM      9  C   UNL A   1      33.360  26.858  25.382  1.00  0.00    -0.039 C 
ATOM     10  C   UNL A   1      33.404  25.398  25.188  1.00  0.00    -0.014 C 
ATOM     11  C   UNL A   1      33.123  26.428  23.149  1.00  0.00    -0.011 A 
ATOM     12  C   UNL A   1      33.166  25.157  23.751  1.00  0.00    -0.010 A 
ATOM     13  C   UNL A   1      33.671  24.504  26.163  1.00  0.00     0.017 C 
ATOM     14  C   UNL A   1      32.947  26.553  21.776  1.00  0.00     0.048 A 
ATOM     15  C   UNL A   1      32.967  24.012  22.990  1.00  0.00     0.012 A 
ATOM     16  C   UNL A   1      32.809  25.395  21.018  1.00  0.00     0.123 A 
ATOM     17  C   UNL A   1      32.805  24.134  21.610  1.00  0.00     0.040 A 
ATOM     18  F   UNL A   1      32.656  25.492  19.690  1.00  0.00    -0.207 F 
BRANCH  13  19
ATOM     19  C   UNL A   1      33.745  23.052  25.976  1.00  0.00    -0.025 A 
ATOM     20  C   UNL A   1      34.902  22.443  25.475  1.00  0.00     0.013 A 
ATOM     21  C   UNL A   1      32.592  22.286  26.166  1.00  0.00     0.013 A 
ATOM     22  C   UNL A   1      34.860  21.116  25.028  1.00  0.00     0.061 A 
ATOM     23  C   UNL A   1      32.558  20.958  25.737  1.00  0.00     0.061 A 
ATOM     24  C   UNL A   1      33.673  20.379  25.118  1.00  0.00     0.152 A 
BRANCH  24  25
ATOM     25  S   UNL A   1      33.479  18.800  24.251  1.00  0.00    -0.018 S 
ATOM     26  C   UNL A   1      32.745  17.802  25.557  1.00  0.00     0.346 C 
ATOM     27  O   UNL A   1      32.396  19.016  23.135  1.00  0.00    -0.612 OA
ENDBRANCH  24  25
ENDBRANCH  13  19
ENDBRANCH   6   7
ENDBRANCH   3   6
ENDBRANCH   1   2
BRANCH   1  28
ATOM     28  C   UNL A   1      31.573  31.932  26.476  1.00  0.00     0.042 C 
BRANCH  28  29
ATOM     29  C   UNL A   1      32.764  32.565  27.188  1.00  0.00     0.118 C 
BRANCH  29  30
ATOM     30  N   UNL A   1      32.511  33.943  27.588  1.00  0.00    -0.352 N 
ATOM     31  C   UNL A   1      33.071  34.690  28.596  1.00  0.00     0.251 C 
ATOM     32  H   UNL A   1      31.833  34.414  27.052  1.00  0.00     0.163 HD
ATOM     33  O   UNL A   1      32.589  35.780  28.888  1.00  0.00    -0.269 OA
BRANCH  31  34
ATOM     34  C   UNL A   1      34.233  34.176  29.352  1.00  0.00     0.039 A 
ATOM     35  C   UNL A   1      35.538  34.469  28.951  1.00  0.00     0.014 A 
ATOM     36  C   UNL A   1      34.009  33.399  30.493  1.00  0.00     0.014 A 
ATOM     37  C   UNL A   1      36.612  33.858  29.591  1.00  0.00     0.010 A 
ATOM     38  C   UNL A   1      35.092  32.850  31.183  1.00  0.00     0.010 A 
ATOM     39  C   UNL A   1      36.400  33.039  30.712  1.00  0.00    -0.014 A 
BRANCH  39  40
ATOM     40  C   UNL A   1      37.556  32.390  31.381  1.00  0.00     0.031 A 
ATOM     41  C   UNL A   1      38.338  31.314  30.680  1.00  0.00     0.074 A 
ATOM     42  C   UNL A   1      37.924  32.801  32.609  1.00  0.00     0.049 A 
ATOM     43  N   UNL A   1      39.354  30.613  31.118  1.00  0.00    -0.248 NA
ATOM     44  C   UNL A   1      37.928  30.980  29.307  1.00  0.00     0.031 C 
ATOM     45  C   UNL A   1      37.260  33.856  33.376  1.00  0.00     0.029 A 
ATOM     46  N   UNL A   1      38.952  32.396  33.421  1.00  0.00    -0.354 N 
ATOM     47  C   UNL A   1      39.689  29.744  30.088  1.00  0.00     0.074 A 
ATOM     48  C   UNL A   1      38.760  29.991  29.007  1.00  0.00     0.031 C 
ATOM     49  C   UNL A   1      37.923  34.047  34.526  1.00  0.00     0.029 A 
ATOM     50  C   UNL A   1      39.018  33.084  34.606  1.00  0.00     0.049 A 
ATOM     51  H   UNL A   1      39.584  31.682  33.176  1.00  0.00     0.167 HD
ATOM     52  C   UNL A   1      40.686  28.828  30.050  1.00  0.00     0.037 A 
ATOM     53  C   UNL A   1      39.853  32.944  35.653  1.00  0.00     0.037 A 
ATOM     54  C   UNL A   1      41.615  28.592  31.125  1.00  0.00     0.049 A 
ATOM     55  C   UNL A   1      40.922  31.890  35.600  1.00  0.00     0.074 A 
ATOM     56  C   UNL A   1      42.654  27.678  31.184  1.00  0.00     0.029 A 
ATOM     57  N   UNL A   1      41.620  29.278  32.331  1.00  0.00    -0.354 N 
ATOM     58  N   UNL A   1      41.214  31.059  34.630  1.00  0.00    -0.248 NA
ATOM     59  C   UNL A   1      41.771  31.750  36.790  1.00  0.00     0.031 C 
ATOM     60  C   UNL A   1      43.265  27.788  32.437  1.00  0.00     0.029 A 
ATOM     61  C   UNL A   1      42.639  28.803  33.142  1.00  0.00     0.049 A 
ATOM     62  H   UNL A   1      40.992  29.997  32.575  1.00  0.00     0.167 HD
ATOM     63  C   UNL A   1      42.288  30.306  35.084  1.00  0.00     0.074 A 
ATOM     64  C   UNL A   1      42.608  30.793  36.411  1.00  0.00     0.031 C 
ATOM     65  C   UNL A   1      42.947  29.301  34.458  1.00  0.00     0.037 A 
BRANCH  52  66
ATOM     66  C   UNL A   1      40.821  27.993  28.810  1.00  0.00     0.064 A 
ATOM     67  C   UNL A   1      40.076  26.819  28.631  1.00  0.00     0.173 A 
ATOM     68  C   UNL A   1      41.656  28.407  27.760  1.00  0.00     0.173 A 
ATOM     69  F   UNL A   1      39.272  26.373  29.609  1.00  0.00    -0.203 F 
ATOM     70  C   UNL A   1      40.172  26.084  27.452  1.00  0.00     0.198 A 
ATOM     71  C   UNL A   1      41.727  27.684  26.572  1.00  0.00     0.198 A 
ATOM     72  F   UNL A   1      42.388  29.525  27.880  1.00  0.00    -0.203 F 
ATOM     73  F   UNL A   1      39.480  24.946  27.317  1.00  0.00    -0.200 F 
ATOM     74  C   UNL A   1      40.988  26.522  26.420  1.00  0.00     0.200 A 
ATOM     75  F   UNL A   1      42.509  28.115  25.573  1.00  0.00    -0.200 F 
ATOM     76  F   UNL A   1      41.063  25.822  25.280  1.00  0.00    -0.200 F 
ENDBRANCH  52  66
BRANCH  53  77
ATOM     77  C   UNL A   1      39.706  33.834  36.832  1.00  0.00     0.064 A 
ATOM     78  C   UNL A   1      40.344  35.081  36.874  1.00  0.00     0.173 A 
ATOM     79  C   UNL A   1      38.899  33.474  37.921  1.00  0.00     0.173 A 
ATOM     80  F   UNL A   1      41.143  35.458  35.865  1.00  0.00    -0.203 F 
ATOM     81  C   UNL A   1      40.181  35.934  37.963  1.00  0.00     0.198 A 
ATOM     82  C   UNL A   1      38.715  34.340  38.996  1.00  0.00     0.198 A 
ATOM     83  F   UNL A   1      38.265  32.292  37.925  1.00  0.00    -0.203 F 
ATOM     84  F   UNL A   1      40.823  37.110  37.991  1.00  0.00    -0.200 F 
ATOM     85  C   UNL A   1      39.359  35.568  39.018  1.00  0.00     0.200 A 
ATOM     86  F   UNL A   1      37.906  33.989  40.005  1.00  0.00    -0.200 F 
ATOM     87  F   UNL A   1      39.189  36.396  40.056  1.00  0.00    -0.200 F 
ENDBRANCH  53  77
BRANCH  65  88
ATOM     88  C   UNL A   1      44.101  28.680  35.186  1.00  0.00     0.064 A 
ATOM     89  C   UNL A   1      43.937  27.536  35.981  1.00  0.00     0.173 A 
ATOM     90  C   UNL A   1      45.393  29.208  35.049  1.00  0.00     0.173 A 
ATOM     91  F   UNL A   1      42.718  27.003  36.153  1.00  0.00    -0.203 F 
ATOM     92  C   UNL A   1      45.023  26.958  36.632  1.00  0.00     0.198 A 
ATOM     93  C   UNL A   1      46.480  28.612  35.681  1.00  0.00     0.198 A 
ATOM     94  F   UNL A   1      45.602  30.297  34.294  1.00  0.00    -0.203 F 
ATOM     95  F   UNL A   1      44.838  25.889  37.420  1.00  0.00    -0.200 F 
ATOM     96  C   UNL A   1      46.294  27.491  36.476  1.00  0.00     0.200 A 
ATOM     97  F   UNL A   1      47.709  29.121  35.519  1.00  0.00    -0.200 F 
ATOM     98  F   UNL A   1      47.340  26.928  37.097  1.00  0.00    -0.200 F 
ENDBRANCH  65  88
ENDBRANCH  39  40
ENDBRANCH  31  34
ENDBRANCH  29  30
ENDBRANCH  28  29
ENDBRANCH   1  28
TORSDOF 13
ENDMDL
