MODEL 1
REMARK VINA RESULT:     -13.2      0.000      0.000
REMARK SMILES O=C(COc1ccc(/C=C/C(=O)c2ccc(F)cc2F)cc1[N+](=O)[O-])NCCCNC(=O)c1ccc(-c2c3nc(c(-c4c(F)c(F)c(F)c(F)c4F)c4ccc([nH]4)c(-c4c(F)c(F)c(F)c(F)c4F)c4nc(c(-c5c(F)c(F)c(F)c(F)c5F)c5ccc2[nH]5)C=C4)C=C3)cc1
REMARK SMILES IDX 1 1 2 2 26 3 3 5 4 6 5 7 6 8 22 9 7 10 21 11 8 12 23 13
REMARK SMILES IDX 24 14 25 15 9 16 10 17 11 18 12 19 13 20 14 21 19 22 15 23
REMARK SMILES IDX 18 24 20 25 16 26 17 27 27 28 28 29 29 30 30 31 31 32 32 34
REMARK SMILES IDX 33 35 34 36 95 37 35 38 94 39 36 40 37 41 38 42 88 43 39 44
REMARK SMILES IDX 93 45 87 46 89 47 40 48 92 49 86 50 85 51 41 53 73 54 53 55
REMARK SMILES IDX 72 56 54 57 57 58 71 59 90 60 55 61 56 62 70 64 91 65 58 66
REMARK SMILES IDX 42 67 43 68 51 69 44 70 45 71 49 72 52 73 46 74 47 75 50 76
REMARK SMILES IDX 48 77 74 78 75 79 83 80 76 81 77 82 81 83 84 84 78 85 79 86
REMARK SMILES IDX 82 87 80 88 59 89 60 90 68 91 61 92 62 93 66 94 69 95 63 96
REMARK SMILES IDX 64 97 67 98 65 99
REMARK H PARENT 26 4 30 33 89 52 57 63
REMARK Flexibility Score: inf
ROOT
ATOM      1  O   UNL A   1      34.581  22.031  23.923  1.00  0.00    -0.271 OA
ATOM      2  C   UNL A   1      34.789  21.574  25.042  1.00  0.00     0.257 C 
ATOM      3  N   UNL A   1      36.046  21.258  25.517  1.00  0.00    -0.353 N 
ATOM      4  H   UNL A   1      36.177  21.172  26.489  1.00  0.00     0.163 HD
ENDROOT
BRANCH   2   5
ATOM      5  C   UNL A   1      33.660  21.259  26.033  1.00  0.00     0.329 C 
BRANCH   5   6
ATOM      6  O   UNL A   1      33.372  22.333  26.926  1.00  0.00    -0.477 OA
BRANCH   6   7
ATOM      7  C   UNL A   1      32.740  23.458  26.477  1.00  0.00     0.197 A 
ATOM      8  C   UNL A   1      33.636  24.496  26.183  1.00  0.00     0.054 A 
ATOM      9  C   UNL A   1      31.381  23.770  26.433  1.00  0.00     0.311 A 
ATOM     10  C   UNL A   1      33.193  25.796  25.884  1.00  0.00     0.012 A 
ATOM     11  C   UNL A   1      30.928  25.071  26.151  1.00  0.00     0.098 A 
ATOM     12  C   UNL A   1      31.831  26.105  25.894  1.00  0.00    -0.018 A 
BRANCH   9  13
ATOM     13  N   UNL A   1      30.328  22.836  26.747  1.00  0.00     0.066 N 
ATOM     14  O   UNL A   1      29.564  23.146  27.672  1.00  0.00    -0.258 OA
ATOM     15  O   UNL A   1      30.219  21.846  26.015  1.00  0.00    -0.258 OA
ENDBRANCH   9  13
BRANCH  12  16
ATOM     16  C   UNL A   1      31.269  27.448  25.685  1.00  0.00     0.012 C 
ATOM     17  C   UNL A   1      31.847  28.463  25.024  1.00  0.00     0.053 C 
BRANCH  17  18
ATOM     18  C   UNL A   1      31.216  29.807  24.910  1.00  0.00     0.188 C 
ATOM     19  O   UNL A   1      31.516  30.688  25.709  1.00  0.00    -0.289 OA
BRANCH  18  20
ATOM     20  C   UNL A   1      30.253  30.097  23.827  1.00  0.00     0.058 A 
ATOM     21  C   UNL A   1      30.230  29.257  22.706  1.00  0.00     0.018 A 
ATOM     22  C   UNL A   1      29.397  31.201  23.879  1.00  0.00     0.137 A 
ATOM     23  C   UNL A   1      29.324  29.505  21.672  1.00  0.00     0.040 A 
ATOM     24  C   UNL A   1      28.494  31.453  22.850  1.00  0.00     0.079 A 
ATOM     25  F   UNL A   1      29.429  32.049  24.918  1.00  0.00    -0.206 F 
ATOM     26  C   UNL A   1      28.464  30.597  21.757  1.00  0.00     0.126 A 
ATOM     27  F   UNL A   1      27.596  30.830  20.764  1.00  0.00    -0.207 F 
ENDBRANCH  18  20
ENDBRANCH  17  18
ENDBRANCH  12  16
ENDBRANCH   6   7
ENDBRANCH   5   6
ENDBRANCH   2   5
BRANCH   3  28
ATOM     28  C   UNL A   1      37.178  21.049  24.639  1.00  0.00     0.117 C 
BRANCH  28  29
ATOM     29  C   UNL A   1      38.041  19.853  24.998  1.00  0.00     0.042 C 
BRANCH  29  30
ATOM     30  C   UNL A   1      39.265  20.192  25.838  1.00  0.00     0.118 C 
BRANCH  30  31
ATOM     31  N   UNL A   1      40.253  19.121  25.894  1.00  0.00    -0.352 N 
ATOM     32  C   UNL A   1      41.605  19.159  26.133  1.00  0.00     0.251 C 
ATOM     33  H   UNL A   1      39.891  18.219  25.732  1.00  0.00     0.163 HD
ATOM     34  O   UNL A   1      42.270  18.130  26.033  1.00  0.00    -0.269 OA
BRANCH  32  35
ATOM     35  C   UNL A   1      42.278  20.432  26.472  1.00  0.00     0.039 A 
ATOM     36  C   UNL A   1      42.832  21.192  25.437  1.00  0.00     0.014 A 
ATOM     37  C   UNL A   1      42.361  20.884  27.790  1.00  0.00     0.014 A 
ATOM     38  C   UNL A   1      43.376  22.449  25.712  1.00  0.00     0.010 A 
ATOM     39  C   UNL A   1      42.830  22.167  28.053  1.00  0.00     0.010 A 
ATOM     40  C   UNL A   1      43.328  22.970  27.014  1.00  0.00    -0.014 A 
BRANCH  40  41
ATOM     41  C   UNL A   1      43.757  24.359  27.311  1.00  0.00     0.031 A 
ATOM     42  C   UNL A   1      42.761  25.373  27.797  1.00  0.00     0.074 A 
ATOM     43  C   UNL A   1      45.025  24.731  27.051  1.00  0.00     0.049 A 
ATOM     44  N   UNL A   1      42.916  26.659  27.989  1.00  0.00    -0.248 NA
ATOM     45  C   UNL A   1      41.404  24.882  28.077  1.00  0.00     0.031 C 
ATOM     46  C   UNL A   1      46.075  23.853  26.531  1.00  0.00     0.029 A 
ATOM     47  N   UNL A   1      45.643  25.951  27.168  1.00  0.00    -0.354 N 
ATOM     48  C   UNL A   1      41.673  27.132  28.390  1.00  0.00     0.074 A 
ATOM     49  C   UNL A   1      40.767  26.004  28.377  1.00  0.00     0.031 C 
ATOM     50  C   UNL A   1      47.208  24.558  26.387  1.00  0.00     0.029 A 
ATOM     51  C   UNL A   1      46.955  25.944  26.764  1.00  0.00     0.049 A 
ATOM     52  H   UNL A   1      45.187  26.755  27.509  1.00  0.00     0.167 HD
ATOM     53  C   UNL A   1      41.327  28.391  28.751  1.00  0.00     0.037 A 
ATOM     54  C   UNL A   1      47.851  26.948  26.691  1.00  0.00     0.037 A 
ATOM     55  C   UNL A   1      42.238  29.504  28.795  1.00  0.00     0.049 A 
ATOM     56  C   UNL A   1      47.440  28.334  27.100  1.00  0.00     0.074 A 
ATOM     57  C   UNL A   1      41.999  30.799  29.224  1.00  0.00     0.029 A 
ATOM     58  N   UNL A   1      43.565  29.454  28.397  1.00  0.00    -0.354 N 
ATOM     59  N   UNL A   1      46.278  28.757  27.533  1.00  0.00    -0.248 NA
ATOM     60  C   UNL A   1      48.465  29.383  27.006  1.00  0.00     0.031 C 
ATOM     61  C   UNL A   1      43.172  31.542  29.050  1.00  0.00     0.029 A 
ATOM     62  C   UNL A   1      44.152  30.700  28.548  1.00  0.00     0.049 A 
ATOM     63  H   UNL A   1      44.023  28.651  28.057  1.00  0.00     0.167 HD
ATOM     64  C   UNL A   1      46.435  30.114  27.779  1.00  0.00     0.074 A 
ATOM     65  C   UNL A   1      47.810  30.441  27.462  1.00  0.00     0.031 C 
ATOM     66  C   UNL A   1      45.521  31.009  28.225  1.00  0.00     0.037 A 
BRANCH  53  67
ATOM     67  C   UNL A   1      39.898  28.630  29.134  1.00  0.00     0.064 A 
ATOM     68  C   UNL A   1      39.439  28.394  30.438  1.00  0.00     0.173 A 
ATOM     69  C   UNL A   1      38.986  29.139  28.197  1.00  0.00     0.173 A 
ATOM     70  F   UNL A   1      40.271  27.897  31.366  1.00  0.00    -0.203 F 
ATOM     71  C   UNL A   1      38.112  28.634  30.784  1.00  0.00     0.198 A 
ATOM     72  C   UNL A   1      37.666  29.401  28.554  1.00  0.00     0.198 A 
ATOM     73  F   UNL A   1      39.375  29.386  26.938  1.00  0.00    -0.203 F 
ATOM     74  F   UNL A   1      37.685  28.361  32.025  1.00  0.00    -0.200 F 
ATOM     75  C   UNL A   1      37.229  29.143  29.845  1.00  0.00     0.200 A 
ATOM     76  F   UNL A   1      36.815  29.902  27.648  1.00  0.00    -0.200 F 
ATOM     77  F   UNL A   1      35.953  29.379  30.182  1.00  0.00    -0.200 F 
ENDBRANCH  53  67
BRANCH  54  78
ATOM     78  C   UNL A   1      49.232  26.672  26.221  1.00  0.00     0.064 A 
ATOM     79  C   UNL A   1      50.204  26.188  27.107  1.00  0.00     0.173 A 
ATOM     80  C   UNL A   1      49.606  26.882  24.887  1.00  0.00     0.173 A 
ATOM     81  F   UNL A   1      49.898  25.993  28.397  1.00  0.00    -0.203 F 
ATOM     82  C   UNL A   1      51.505  25.937  26.677  1.00  0.00     0.198 A 
ATOM     83  C   UNL A   1      50.901  26.610  24.453  1.00  0.00     0.198 A 
ATOM     84  F   UNL A   1      48.709  27.344  24.003  1.00  0.00    -0.203 F 
ATOM     85  F   UNL A   1      52.427  25.510  27.550  1.00  0.00    -0.200 F 
ATOM     86  C   UNL A   1      51.851  26.143  25.350  1.00  0.00     0.200 A 
ATOM     87  F   UNL A   1      51.230  26.800  23.168  1.00  0.00    -0.200 F 
ATOM     88  F   UNL A   1      53.102  25.899  24.936  1.00  0.00    -0.200 F 
ENDBRANCH  54  78
BRANCH  66  89
ATOM     89  C   UNL A   1      45.983  32.423  28.411  1.00  0.00     0.064 A 
ATOM     90  C   UNL A   1      46.610  32.836  29.595  1.00  0.00     0.173 A 
ATOM     91  C   UNL A   1      45.830  33.363  27.382  1.00  0.00     0.173 A 
ATOM     92  F   UNL A   1      46.762  31.976  30.613  1.00  0.00    -0.203 F 
ATOM     93  C   UNL A   1      47.050  34.147  29.750  1.00  0.00     0.198 A 
ATOM     94  C   UNL A   1      46.293  34.668  27.532  1.00  0.00     0.198 A 
ATOM     95  F   UNL A   1      45.241  33.014  26.229  1.00  0.00    -0.203 F 
ATOM     96  F   UNL A   1      47.610  34.532  30.905  1.00  0.00    -0.200 F 
ATOM     97  C   UNL A   1      46.897  35.060  28.717  1.00  0.00     0.200 A 
ATOM     98  F   UNL A   1      46.152  35.545  26.528  1.00  0.00    -0.200 F 
ATOM     99  F   UNL A   1      47.326  36.320  28.865  1.00  0.00    -0.200 F 
ENDBRANCH  66  89
ENDBRANCH  40  41
ENDBRANCH  32  35
ENDBRANCH  30  31
ENDBRANCH  29  30
ENDBRANCH  28  29
ENDBRANCH   3  28
TORSDOF 16
ENDMDL
MODEL 2
REMARK VINA RESULT:     -13.0      4.625      9.639
REMARK SMILES O=C(COc1ccc(/C=C/C(=O)c2ccc(F)cc2F)cc1[N+](=O)[O-])NCCCNC(=O)c1ccc(-c2c3nc(c(-c4c(F)c(F)c(F)c(F)c4F)c4ccc([nH]4)c(-c4c(F)c(F)c(F)c(F)c4F)c4nc(c(-c5c(F)c(F)c(F)c(F)c5F)c5ccc2[nH]5)C=C4)C=C3)cc1
REMARK SMILES IDX 1 1 2 2 26 3 3 5 4 6 5 7 6 8 22 9 7 10 21 11 8 12 23 13
REMARK SMILES IDX 24 14 25 15 9 16 10 17 11 18 12 19 13 20 14 21 19 22 15 23
REMARK SMILES IDX 18 24 20 25 16 26 17 27 27 28 28 29 29 30 30 31 31 32 32 34
REMARK SMILES IDX 33 35 34 36 95 37 35 38 94 39 36 40 37 41 38 42 88 43 39 44
REMARK SMILES IDX 93 45 87 46 89 47 40 48 92 49 86 50 85 51 41 53 73 54 53 55
REMARK SMILES IDX 72 56 54 57 57 58 71 59 90 60 55 61 56 62 70 64 91 65 58 66
REMARK SMILES IDX 42 67 43 68 51 69 44 70 45 71 49 72 52 73 46 74 47 75 50 76
REMARK SMILES IDX 48 77 74 78 75 79 83 80 76 81 77 82 81 83 84 84 78 85 79 86
REMARK SMILES IDX 82 87 80 88 59 89 60 90 68 91 61 92 62 93 66 94 69 95 63 96
REMARK SMILES IDX 64 97 67 98 65 99
REMARK H PARENT 26 4 30 33 89 52 57 63
REMARK Flexibility Score: inf
ROOT
ATOM      1  O   UNL A   1      33.816  24.051  26.451  1.00  0.00    -0.271 OA
ATOM      2  C   UNL A   1      34.255  24.869  25.650  1.00  0.00     0.257 C 
ATOM      3  N   UNL A   1      34.018  26.226  25.736  1.00  0.00    -0.353 N 
ATOM      4  H   UNL A   1      34.613  26.843  25.251  1.00  0.00     0.163 HD
ENDROOT
BRANCH   2   5
ATOM      5  C   UNL A   1      35.089  24.468  24.425  1.00  0.00     0.329 C 
BRANCH   5   6
ATOM      6  O   UNL A   1      34.301  24.184  23.271  1.00  0.00    -0.477 OA
BRANCH   6   7
ATOM      7  C   UNL A   1      33.200  24.938  22.980  1.00  0.00     0.197 A 
ATOM      8  C   UNL A   1      33.530  26.166  22.388  1.00  0.00     0.054 A 
ATOM      9  C   UNL A   1      31.862  24.748  23.328  1.00  0.00     0.311 A 
ATOM     10  C   UNL A   1      32.569  27.169  22.175  1.00  0.00     0.012 A 
ATOM     11  C   UNL A   1      30.896  25.752  23.135  1.00  0.00     0.098 A 
ATOM     12  C   UNL A   1      31.244  26.983  22.576  1.00  0.00    -0.018 A 
BRANCH   9  13
ATOM     13  N   UNL A   1      31.358  23.566  23.981  1.00  0.00     0.066 N 
ATOM     14  O   UNL A   1      31.657  22.477  23.472  1.00  0.00    -0.258 OA
ATOM     15  O   UNL A   1      30.745  23.728  25.042  1.00  0.00    -0.258 OA
ENDBRANCH   9  13
BRANCH  12  16
ATOM     16  C   UNL A   1      30.184  28.000  22.482  1.00  0.00     0.012 C 
ATOM     17  C   UNL A   1      29.020  28.006  23.149  1.00  0.00     0.053 C 
BRANCH  17  18
ATOM     18  C   UNL A   1      27.986  29.058  22.946  1.00  0.00     0.188 C 
ATOM     19  O   UNL A   1      26.814  28.734  22.784  1.00  0.00    -0.289 OA
BRANCH  18  20
ATOM     20  C   UNL A   1      28.355  30.490  22.965  1.00  0.00     0.058 A 
ATOM     21  C   UNL A   1      28.926  31.021  24.129  1.00  0.00     0.018 A 
ATOM     22  C   UNL A   1      28.116  31.326  21.871  1.00  0.00     0.137 A 
ATOM     23  C   UNL A   1      29.289  32.369  24.170  1.00  0.00     0.040 A 
ATOM     24  C   UNL A   1      28.475  32.670  21.908  1.00  0.00     0.079 A 
ATOM     25  F   UNL A   1      27.528  30.856  20.760  1.00  0.00    -0.206 F 
ATOM     26  C   UNL A   1      29.064  33.177  23.059  1.00  0.00     0.126 A 
ATOM     27  F   UNL A   1      29.417  34.469  23.102  1.00  0.00    -0.207 F 
ENDBRANCH  18  20
ENDBRANCH  17  18
ENDBRANCH  12  16
ENDBRANCH   6   7
ENDBRANCH   5   6
ENDBRANCH   2   5
BRANCH   3  28
ATOM     28  C   UNL A   1      32.929  26.777  26.514  1.00  0.00     0.117 C 
BRANCH  28  29
ATOM     29  C   UNL A   1      32.214  27.945  25.860  1.00  0.00     0.042 C 
BRANCH  29  30
ATOM     30  C   UNL A   1      33.119  29.118  25.510  1.00  0.00     0.118 C 
BRANCH  30  31
ATOM     31  N   UNL A   1      32.683  30.387  26.084  1.00  0.00    -0.352 N 
ATOM     32  C   UNL A   1      33.271  31.193  27.028  1.00  0.00     0.251 C 
ATOM     33  H   UNL A   1      31.824  30.720  25.736  1.00  0.00     0.163 HD
ATOM     34  O   UNL A   1      32.670  32.181  27.442  1.00  0.00    -0.269 OA
BRANCH  32  35
ATOM     35  C   UNL A   1      34.601  30.862  27.582  1.00  0.00     0.039 A 
ATOM     36  C   UNL A   1      35.530  31.894  27.755  1.00  0.00     0.014 A 
ATOM     37  C   UNL A   1      34.939  29.556  27.937  1.00  0.00     0.014 A 
ATOM     38  C   UNL A   1      36.753  31.632  28.377  1.00  0.00     0.010 A 
ATOM     39  C   UNL A   1      36.122  29.309  28.627  1.00  0.00     0.010 A 
ATOM     40  C   UNL A   1      37.035  30.348  28.868  1.00  0.00    -0.014 A 
BRANCH  40  41
ATOM     41  C   UNL A   1      38.255  30.072  29.667  1.00  0.00     0.031 A 
ATOM     42  C   UNL A   1      39.308  29.138  29.146  1.00  0.00     0.074 A 
ATOM     43  C   UNL A   1      38.366  30.592  30.905  1.00  0.00     0.049 A 
ATOM     44  N   UNL A   1      40.377  28.677  29.746  1.00  0.00    -0.248 NA
ATOM     45  C   UNL A   1      39.121  28.631  27.778  1.00  0.00     0.031 C 
ATOM     46  C   UNL A   1      37.389  31.474  31.544  1.00  0.00     0.029 A 
ATOM     47  N   UNL A   1      39.344  30.436  31.856  1.00  0.00    -0.354 N 
ATOM     48  C   UNL A   1      40.975  27.811  28.840  1.00  0.00     0.074 A 
ATOM     49  C   UNL A   1      40.132  27.782  27.664  1.00  0.00     0.031 C 
ATOM     50  C   UNL A   1      37.821  31.791  32.775  1.00  0.00     0.029 A 
ATOM     51  C   UNL A   1      39.083  31.104  33.027  1.00  0.00     0.049 A 
ATOM     52  H   UNL A   1      40.155  29.894  31.713  1.00  0.00     0.167 HD
ATOM     53  C   UNL A   1      42.131  27.119  28.973  1.00  0.00     0.037 A 
ATOM     54  C   UNL A   1      39.776  31.146  34.181  1.00  0.00     0.037 A 
ATOM     55  C   UNL A   1      42.985  27.176  30.130  1.00  0.00     0.049 A 
ATOM     56  C   UNL A   1      41.057  30.369  34.300  1.00  0.00     0.074 A 
ATOM     57  C   UNL A   1      44.216  26.572  30.325  1.00  0.00     0.029 A 
ATOM     58  N   UNL A   1      42.697  27.881  31.289  1.00  0.00    -0.354 N 
ATOM     59  N   UNL A   1      41.643  29.601  33.415  1.00  0.00    -0.248 NA
ATOM     60  C   UNL A   1      41.771  30.463  35.582  1.00  0.00     0.031 C 
ATOM     61  C   UNL A   1      44.655  26.882  31.617  1.00  0.00     0.029 A 
ATOM     62  C   UNL A   1      43.716  27.708  32.213  1.00  0.00     0.049 A 
ATOM     63  H   UNL A   1      41.888  28.423  31.435  1.00  0.00     0.167 HD
ATOM     64  C   UNL A   1      42.800  29.134  34.023  1.00  0.00     0.074 A 
ATOM     65  C   UNL A   1      42.842  29.718  35.348  1.00  0.00     0.031 C 
ATOM     66  C   UNL A   1      43.741  28.294  33.528  1.00  0.00     0.037 A 
BRANCH  53  67
ATOM     67  C   UNL A   1      42.545  26.240  27.831  1.00  0.00     0.064 A 
ATOM     68  C   UNL A   1      43.443  26.687  26.851  1.00  0.00     0.173 A 
ATOM     69  C   UNL A   1      42.067  24.925  27.737  1.00  0.00     0.173 A 
ATOM     70  F   UNL A   1      43.919  27.940  26.892  1.00  0.00    -0.203 F 
ATOM     71  C   UNL A   1      43.830  25.855  25.803  1.00  0.00     0.198 A 
ATOM     72  C   UNL A   1      42.475  24.088  26.701  1.00  0.00     0.198 A 
ATOM     73  F   UNL A   1      41.209  24.449  28.650  1.00  0.00    -0.203 F 
ATOM     74  F   UNL A   1      44.657  26.316  24.855  1.00  0.00    -0.200 F 
ATOM     75  C   UNL A   1      43.351  24.556  25.733  1.00  0.00     0.200 A 
ATOM     76  F   UNL A   1      42.019  22.830  26.639  1.00  0.00    -0.200 F 
ATOM     77  F   UNL A   1      43.729  23.755  24.726  1.00  0.00    -0.200 F 
ENDBRANCH  53  67
BRANCH  54  78
ATOM     78  C   UNL A   1      39.276  31.965  35.313  1.00  0.00     0.064 A 
ATOM     79  C   UNL A   1      39.581  33.331  35.397  1.00  0.00     0.173 A 
ATOM     80  C   UNL A   1      38.486  31.406  36.328  1.00  0.00     0.173 A 
ATOM     81  F   UNL A   1      40.352  33.903  34.462  1.00  0.00    -0.203 F 
ATOM     82  C   UNL A   1      39.126  34.104  36.463  1.00  0.00     0.198 A 
ATOM     83  C   UNL A   1      38.013  32.185  37.380  1.00  0.00     0.198 A 
ATOM     84  F   UNL A   1      38.168  30.104  36.290  1.00  0.00    -0.203 F 
ATOM     85  F   UNL A   1      39.462  35.398  36.541  1.00  0.00    -0.200 F 
ATOM     86  C   UNL A   1      38.337  33.532  37.450  1.00  0.00     0.200 A 
ATOM     87  F   UNL A   1      37.242  31.632  38.327  1.00  0.00    -0.200 F 
ATOM     88  F   UNL A   1      37.897  34.277  38.473  1.00  0.00    -0.200 F 
ENDBRANCH  54  78
BRANCH  66  89
ATOM     89  C   UNL A   1      44.903  27.970  34.418  1.00  0.00     0.064 A 
ATOM     90  C   UNL A   1      46.066  28.752  34.412  1.00  0.00     0.173 A 
ATOM     91  C   UNL A   1      44.838  26.889  35.309  1.00  0.00     0.173 A 
ATOM     92  F   UNL A   1      46.180  29.786  33.565  1.00  0.00    -0.203 F 
ATOM     93  C   UNL A   1      47.133  28.452  35.255  1.00  0.00     0.198 A 
ATOM     94  C   UNL A   1      45.897  26.606  36.167  1.00  0.00     0.198 A 
ATOM     95  F   UNL A   1      43.743  26.114  35.353  1.00  0.00    -0.203 F 
ATOM     96  F   UNL A   1      48.251  29.188  35.206  1.00  0.00    -0.200 F 
ATOM     97  C   UNL A   1      47.045  27.383  36.136  1.00  0.00     0.200 A 
ATOM     98  F   UNL A   1      45.806  25.579  37.023  1.00  0.00    -0.200 F 
ATOM     99  F   UNL A   1      48.070  27.098  36.950  1.00  0.00    -0.200 F 
ENDBRANCH  66  89
ENDBRANCH  40  41
ENDBRANCH  32  35
ENDBRANCH  30  31
ENDBRANCH  29  30
ENDBRANCH  28  29
ENDBRANCH   3  28
TORSDOF 16
ENDMDL
MODEL 3
REMARK VINA RESULT:     -13.0      1.277      2.544
REMARK SMILES O=C(COc1ccc(/C=C/C(=O)c2ccc(F)cc2F)cc1[N+](=O)[O-])NCCCNC(=O)c1ccc(-c2c3nc(c(-c4c(F)c(F)c(F)c(F)c4F)c4ccc([nH]4)c(-c4c(F)c(F)c(F)c(F)c4F)c4nc(c(-c5c(F)c(F)c(F)c(F)c5F)c5ccc2[nH]5)C=C4)C=C3)cc1
REMARK SMILES IDX 1 1 2 2 26 3 3 5 4 6 5 7 6 8 22 9 7 10 21 11 8 12 23 13
REMARK SMILES IDX 24 14 25 15 9 16 10 17 11 18 12 19 13 20 14 21 19 22 15 23
REMARK SMILES IDX 18 24 20 25 16 26 17 27 27 28 28 29 29 30 30 31 31 32 32 34
REMARK SMILES IDX 33 35 34 36 95 37 35 38 94 39 36 40 37 41 38 42 88 43 39 44
REMARK SMILES IDX 93 45 87 46 89 47 40 48 92 49 86 50 85 51 41 53 73 54 53 55
REMARK SMILES IDX 72 56 54 57 57 58 71 59 90 60 55 61 56 62 70 64 91 65 58 66
REMARK SMILES IDX 42 67 43 68 51 69 44 70 45 71 49 72 52 73 46 74 47 75 50 76
REMARK SMILES IDX 48 77 74 78 75 79 83 80 76 81 77 82 81 83 84 84 78 85 79 86
REMARK SMILES IDX 82 87 80 88 59 89 60 90 68 91 61 92 62 93 66 94 69 95 63 96
REMARK SMILES IDX 64 97 67 98 65 99
REMARK H PARENT 26 4 30 33 89 52 57 63
REMARK Flexibility Score: inf
ROOT
ATOM      1  O   UNL A   1      36.519  22.987  26.281  1.00  0.00    -0.271 OA
ATOM      2  C   UNL A   1      36.168  22.810  25.119  1.00  0.00     0.257 C 
ATOM      3  N   UNL A   1      36.010  21.562  24.551  1.00  0.00    -0.353 N 
ATOM      4  H   UNL A   1      35.466  21.479  23.734  1.00  0.00     0.163 HD
ENDROOT
BRANCH   2   5
ATOM      5  C   UNL A   1      35.905  23.967  24.145  1.00  0.00     0.329 C 
BRANCH   5   6
ATOM      6  O   UNL A   1      34.972  23.643  23.117  1.00  0.00    -0.477 OA
BRANCH   6   7
ATOM      7  C   UNL A   1      33.726  24.201  23.110  1.00  0.00     0.197 A 
ATOM      8  C   UNL A   1      33.678  25.398  22.380  1.00  0.00     0.054 A 
ATOM      9  C   UNL A   1      32.582  23.861  23.834  1.00  0.00     0.311 A 
ATOM     10  C   UNL A   1      32.545  26.230  22.394  1.00  0.00     0.012 A 
ATOM     11  C   UNL A   1      31.451  24.694  23.867  1.00  0.00     0.098 A 
ATOM     12  C   UNL A   1      31.427  25.900  23.164  1.00  0.00    -0.018 A 
BRANCH   9  13
ATOM     13  N   UNL A   1      32.476  22.690  24.669  1.00  0.00     0.066 N 
ATOM     14  O   UNL A   1      31.908  22.834  25.761  1.00  0.00    -0.258 OA
ATOM     15  O   UNL A   1      32.879  21.623  24.194  1.00  0.00    -0.258 OA
ENDBRANCH   9  13
BRANCH  12  16
ATOM     16  C   UNL A   1      30.232  26.743  23.319  1.00  0.00     0.012 C 
ATOM     17  C   UNL A   1      29.943  27.856  22.628  1.00  0.00     0.053 C 
BRANCH  17  18
ATOM     18  C   UNL A   1      28.726  28.671  22.895  1.00  0.00     0.188 C 
ATOM     19  O   UNL A   1      27.652  28.112  23.095  1.00  0.00    -0.289 OA
BRANCH  18  20
ATOM     20  C   UNL A   1      28.804  30.147  22.947  1.00  0.00     0.058 A 
ATOM     21  C   UNL A   1      29.390  30.749  24.068  1.00  0.00     0.018 A 
ATOM     22  C   UNL A   1      28.278  30.948  21.930  1.00  0.00     0.137 A 
ATOM     23  C   UNL A   1      29.482  32.141  24.139  1.00  0.00     0.040 A 
ATOM     24  C   UNL A   1      28.368  32.336  21.997  1.00  0.00     0.079 A 
ATOM     25  F   UNL A   1      27.670  30.402  20.866  1.00  0.00    -0.206 F 
ATOM     26  C   UNL A   1      28.974  32.918  23.101  1.00  0.00     0.126 A 
ATOM     27  F   UNL A   1      29.068  34.253  23.173  1.00  0.00    -0.207 F 
ENDBRANCH  18  20
ENDBRANCH  17  18
ENDBRANCH  12  16
ENDBRANCH   6   7
ENDBRANCH   5   6
ENDBRANCH   2   5
BRANCH   3  28
ATOM     28  C   UNL A   1      36.612  20.371  25.111  1.00  0.00     0.117 C 
BRANCH  28  29
ATOM     29  C   UNL A   1      38.037  20.112  24.657  1.00  0.00     0.042 C 
BRANCH  29  30
ATOM     30  C   UNL A   1      39.088  20.316  25.740  1.00  0.00     0.118 C 
BRANCH  30  31
ATOM     31  N   UNL A   1      40.045  19.220  25.842  1.00  0.00    -0.352 N 
ATOM     32  C   UNL A   1      41.391  19.228  26.113  1.00  0.00     0.251 C 
ATOM     33  H   UNL A   1      39.662  18.325  25.692  1.00  0.00     0.163 HD
ATOM     34  O   UNL A   1      42.031  18.180  26.050  1.00  0.00    -0.269 OA
BRANCH  32  35
ATOM     35  C   UNL A   1      42.090  20.490  26.440  1.00  0.00     0.039 A 
ATOM     36  C   UNL A   1      42.555  21.289  25.390  1.00  0.00     0.014 A 
ATOM     37  C   UNL A   1      42.284  20.894  27.761  1.00  0.00     0.014 A 
ATOM     38  C   UNL A   1      43.121  22.537  25.664  1.00  0.00     0.010 A 
ATOM     39  C   UNL A   1      42.774  22.169  28.031  1.00  0.00     0.010 A 
ATOM     40  C   UNL A   1      43.183  23.010  26.984  1.00  0.00    -0.014 A 
BRANCH  40  41
ATOM     41  C   UNL A   1      43.634  24.389  27.295  1.00  0.00     0.031 A 
ATOM     42  C   UNL A   1      42.660  25.408  27.810  1.00  0.00     0.074 A 
ATOM     43  C   UNL A   1      44.904  24.747  27.019  1.00  0.00     0.049 A 
ATOM     44  N   UNL A   1      42.835  26.690  28.019  1.00  0.00    -0.248 NA
ATOM     45  C   UNL A   1      41.301  24.931  28.105  1.00  0.00     0.031 C 
ATOM     46  C   UNL A   1      45.933  23.863  26.470  1.00  0.00     0.029 A 
ATOM     47  N   UNL A   1      45.539  25.957  27.145  1.00  0.00    -0.354 N 
ATOM     48  C   UNL A   1      41.606  27.173  28.446  1.00  0.00     0.074 A 
ATOM     49  C   UNL A   1      40.684  26.058  28.432  1.00  0.00     0.031 C 
ATOM     50  C   UNL A   1      47.073  24.555  26.318  1.00  0.00     0.029 A 
ATOM     51  C   UNL A   1      46.845  25.939  26.720  1.00  0.00     0.049 A 
ATOM     52  H   UNL A   1      45.100  26.763  27.505  1.00  0.00     0.167 HD
ATOM     53  C   UNL A   1      41.282  28.431  28.831  1.00  0.00     0.037 A 
ATOM     54  C   UNL A   1      47.753  26.931  26.647  1.00  0.00     0.037 A 
ATOM     55  C   UNL A   1      42.209  29.531  28.877  1.00  0.00     0.049 A 
ATOM     56  C   UNL A   1      47.367  28.317  27.083  1.00  0.00     0.074 A 
ATOM     57  C   UNL A   1      41.994  30.822  29.328  1.00  0.00     0.029 A 
ATOM     58  N   UNL A   1      43.529  29.469  28.457  1.00  0.00    -0.354 N 
ATOM     59  N   UNL A   1      46.219  28.749  27.541  1.00  0.00    -0.248 NA
ATOM     60  C   UNL A   1      48.405  29.353  26.988  1.00  0.00     0.031 C 
ATOM     61  C   UNL A   1      43.174  31.552  29.147  1.00  0.00     0.029 A 
ATOM     62  C   UNL A   1      44.135  30.705  28.617  1.00  0.00     0.049 A 
ATOM     63  H   UNL A   1      43.970  28.665  28.098  1.00  0.00     0.167 HD
ATOM     64  C   UNL A   1      46.398  30.100  27.804  1.00  0.00     0.074 A 
ATOM     65  C   UNL A   1      47.772  30.413  27.469  1.00  0.00     0.031 C 
ATOM     66  C   UNL A   1      45.503  31.000  28.277  1.00  0.00     0.037 A 
BRANCH  53  67
ATOM     67  C   UNL A   1      39.863  28.684  29.240  1.00  0.00     0.064 A 
ATOM     68  C   UNL A   1      38.907  29.145  28.324  1.00  0.00     0.173 A 
ATOM     69  C   UNL A   1      39.445  28.426  30.555  1.00  0.00     0.173 A 
ATOM     70  F   UNL A   1      39.260  29.416  27.059  1.00  0.00    -0.203 F 
ATOM     71  C   UNL A   1      37.588  29.362  28.715  1.00  0.00     0.198 A 
ATOM     72  C   UNL A   1      38.120  28.621  30.935  1.00  0.00     0.198 A 
ATOM     73  F   UNL A   1      40.320  27.981  31.468  1.00  0.00    -0.203 F 
ATOM     74  F   UNL A   1      36.700  29.843  27.833  1.00  0.00    -0.200 F 
ATOM     75  C   UNL A   1      37.195  29.095  30.017  1.00  0.00     0.200 A 
ATOM     76  F   UNL A   1      37.739  28.354  32.192  1.00  0.00    -0.200 F 
ATOM     77  F   UNL A   1      35.924  29.300  30.390  1.00  0.00    -0.200 F 
ENDBRANCH  53  67
BRANCH  54  78
ATOM     78  C   UNL A   1      49.123  26.644  26.152  1.00  0.00     0.064 A 
ATOM     79  C   UNL A   1      49.477  26.925  24.826  1.00  0.00     0.173 A 
ATOM     80  C   UNL A   1      50.100  26.087  26.989  1.00  0.00     0.173 A 
ATOM     81  F   UNL A   1      48.568  27.436  23.984  1.00  0.00    -0.203 F 
ATOM     82  C   UNL A   1      50.756  26.648  24.350  1.00  0.00     0.198 A 
ATOM     83  C   UNL A   1      51.386  25.831  26.518  1.00  0.00     0.198 A 
ATOM     84  F   UNL A   1      49.808  25.802  28.266  1.00  0.00    -0.203 F 
ATOM     85  F   UNL A   1      51.060  26.891  23.068  1.00  0.00    -0.200 F 
ATOM     86  C   UNL A   1      51.711  26.106  25.198  1.00  0.00     0.200 A 
ATOM     87  F   UNL A   1      52.310  25.318  27.342  1.00  0.00    -0.200 F 
ATOM     88  F   UNL A   1      52.943  25.843  24.741  1.00  0.00    -0.200 F 
ENDBRANCH  54  78
BRANCH  66  89
ATOM     89  C   UNL A   1      45.987  32.405  28.476  1.00  0.00     0.064 A 
ATOM     90  C   UNL A   1      45.956  33.342  27.435  1.00  0.00     0.173 A 
ATOM     91  C   UNL A   1      46.453  32.826  29.730  1.00  0.00     0.173 A 
ATOM     92  F   UNL A   1      45.534  32.981  26.214  1.00  0.00    -0.203 F 
ATOM     93  C   UNL A   1      46.392  34.649  27.636  1.00  0.00     0.198 A 
ATOM     94  C   UNL A   1      46.867  34.139  29.935  1.00  0.00     0.198 A 
ATOM     95  F   UNL A   1      46.498  31.966  30.759  1.00  0.00    -0.203 F 
ATOM     96  F   UNL A   1      46.392  35.518  26.617  1.00  0.00    -0.200 F 
ATOM     97  C   UNL A   1      46.842  35.047  28.887  1.00  0.00     0.200 A 
ATOM     98  F   UNL A   1      47.292  34.525  31.146  1.00  0.00    -0.200 F 
ATOM     99  F   UNL A   1      47.257  36.307  29.081  1.00  0.00    -0.200 F 
ENDBRANCH  66  89
ENDBRANCH  40  41
ENDBRANCH  32  35
ENDBRANCH  30  31
ENDBRANCH  29  30
ENDBRANCH  28  29
ENDBRANCH   3  28
TORSDOF 16
ENDMDL
