MODEL 1
REMARK VINA RESULT:     -10.7      0.000      0.000
REMARK SMILES CC(C)(C)C[C@@H](O)[C@@H](F)C(=O)NCCCNC(=O)c1ccc(-c2c3nc(c(-c4c(F)c(F)c(F)c(F)c4F)c4ccc([nH]4)c(-c4c(F)c(F)c(F)c(F)c4F)c4nc(c(-c5c(F)c(F)c(F)c(F)c5F)c5ccc2[nH]5)C=C4)C=C3)cc1
REMARK SMILES IDX 13 1 12 2 10 3 11 4 8 6 9 7 6 8 5 9 2 10 1 11 3 12 4 13 7 14
REMARK SMILES IDX 14 16 15 17 16 18 17 19 18 21 19 22 20 23 81 24 21 25 80 26
REMARK SMILES IDX 22 27 23 28 24 29 74 30 25 31 79 32 73 33 75 34 26 35 78 36
REMARK SMILES IDX 72 37 71 38 27 40 59 41 39 42 58 43 40 44 43 45 57 46 76 47
REMARK SMILES IDX 41 48 42 49 56 51 77 52 44 53 28 54 29 55 37 56 30 57 31 58
REMARK SMILES IDX 35 59 38 60 32 61 33 62 36 63 34 64 60 65 61 66 69 67 62 68
REMARK SMILES IDX 63 69 67 70 70 71 64 72 65 73 68 74 66 75 45 76 46 77 54 78
REMARK SMILES IDX 47 79 48 80 52 81 55 82 49 83 50 84 53 85 51 86
REMARK H PARENT 12 5 7 15 16 20 75 39 43 50
REMARK Flexibility Score: inf
ROOT
ATOM      1  C   UNL A   1      33.381  28.883  24.836  1.00  0.00     0.117 C 
ENDROOT
BRANCH   1   2
ATOM      2  N   UNL A   1      33.538  28.179  23.574  1.00  0.00    -0.353 N 
ATOM      3  C   UNL A   1      32.591  27.649  22.742  1.00  0.00     0.257 C 
ATOM      4  O   UNL A   1      32.991  27.050  21.740  1.00  0.00    -0.272 OA
ATOM      5  H   UNL A   1      34.467  28.066  23.272  1.00  0.00     0.163 HD
BRANCH   3   6
ATOM      6  C   UNL A   1      31.104  27.728  23.081  1.00  0.00     0.283 C 
ATOM      7  F   UNL A   1      30.468  26.556  22.781  1.00  0.00    -0.234 F 
BRANCH   6   8
ATOM      8  C   UNL A   1      30.441  28.895  22.329  1.00  0.00     0.159 C 
BRANCH   8   9
ATOM      9  C   UNL A   1      29.637  29.793  23.289  1.00  0.00     0.041 C 
BRANCH   9  10
ATOM     10  C   UNL A   1      28.194  30.170  22.840  1.00  0.00    -0.036 C 
ATOM     11  C   UNL A   1      27.640  31.387  23.596  1.00  0.00     0.011 C 
ATOM     12  C   UNL A   1      27.279  28.962  23.130  1.00  0.00     0.011 C 
ATOM     13  C   UNL A   1      28.146  30.455  21.327  1.00  0.00     0.011 C 
ENDBRANCH   9  10
ENDBRANCH   8   9
BRANCH   8  14
ATOM     14  O   UNL A   1      31.432  29.706  21.689  1.00  0.00    -0.390 OA
ATOM     15  H   UNL A   1      32.278  29.608  22.151  1.00  0.00     0.211 HD
ENDBRANCH   8  14
ENDBRANCH   6   8
ENDBRANCH   3   6
ENDBRANCH   1   2
BRANCH   1  16
ATOM     16  C   UNL A   1      33.901  28.072  26.022  1.00  0.00     0.042 C 
BRANCH  16  17
ATOM     17  C   UNL A   1      33.445  28.567  27.390  1.00  0.00     0.118 C 
BRANCH  17  18
ATOM     18  N   UNL A   1      33.475  30.015  27.505  1.00  0.00    -0.352 N 
ATOM     19  C   UNL A   1      34.450  30.848  27.990  1.00  0.00     0.251 C 
ATOM     20  H   UNL A   1      32.665  30.471  27.181  1.00  0.00     0.163 HD
ATOM     21  O   UNL A   1      34.195  32.041  28.136  1.00  0.00    -0.269 OA
BRANCH  19  22
ATOM     22  C   UNL A   1      35.795  30.343  28.358  1.00  0.00     0.039 A 
ATOM     23  C   UNL A   1      35.957  29.751  29.616  1.00  0.00     0.014 A 
ATOM     24  C   UNL A   1      36.905  30.505  27.525  1.00  0.00     0.014 A 
ATOM     25  C   UNL A   1      37.214  29.296  30.022  1.00  0.00     0.010 A 
ATOM     26  C   UNL A   1      38.146  29.989  27.901  1.00  0.00     0.010 A 
ATOM     27  C   UNL A   1      38.318  29.395  29.161  1.00  0.00    -0.014 A 
BRANCH  27  28
ATOM     28  C   UNL A   1      39.660  28.919  29.584  1.00  0.00     0.031 A 
ATOM     29  C   UNL A   1      40.485  29.734  30.542  1.00  0.00     0.074 A 
ATOM     30  C   UNL A   1      40.154  27.771  29.082  1.00  0.00     0.049 A 
ATOM     31  N   UNL A   1      41.693  29.509  30.996  1.00  0.00    -0.248 NA
ATOM     32  C   UNL A   1      39.885  30.984  31.034  1.00  0.00     0.031 C 
ATOM     33  C   UNL A   1      39.475  26.910  28.115  1.00  0.00     0.029 A 
ATOM     34  N   UNL A   1      41.348  27.135  29.314  1.00  0.00    -0.354 N 
ATOM     35  C   UNL A   1      42.000  30.591  31.809  1.00  0.00     0.074 A 
ATOM     36  C   UNL A   1      40.873  31.496  31.752  1.00  0.00     0.031 C 
ATOM     37  C   UNL A   1      40.253  25.849  27.848  1.00  0.00     0.029 A 
ATOM     38  C   UNL A   1      41.496  25.967  28.607  1.00  0.00     0.049 A 
ATOM     39  H   UNL A   1      42.034  27.483  29.928  1.00  0.00     0.167 HD
ATOM     40  C   UNL A   1      43.112  30.803  32.554  1.00  0.00     0.037 A 
ATOM     41  C   UNL A   1      42.516  25.089  28.577  1.00  0.00     0.037 A 
ATOM     42  C   UNL A   1      44.219  29.889  32.642  1.00  0.00     0.049 A 
ATOM     43  C   UNL A   1      43.725  25.329  29.439  1.00  0.00     0.074 A 
ATOM     44  C   UNL A   1      45.368  29.992  33.409  1.00  0.00     0.029 A 
ATOM     45  N   UNL A   1      44.312  28.694  31.943  1.00  0.00    -0.354 N 
ATOM     46  N   UNL A   1      43.979  26.331  30.246  1.00  0.00    -0.248 NA
ATOM     47  C   UNL A   1      44.781  24.308  29.398  1.00  0.00     0.031 C 
ATOM     48  C   UNL A   1      46.168  28.872  33.152  1.00  0.00     0.029 A 
ATOM     49  C   UNL A   1      45.501  28.055  32.254  1.00  0.00     0.049 A 
ATOM     50  H   UNL A   1      43.633  28.351  31.318  1.00  0.00     0.167 HD
ATOM     51  C   UNL A   1      45.209  26.051  30.825  1.00  0.00     0.074 A 
ATOM     52  C   UNL A   1      45.644  24.778  30.288  1.00  0.00     0.031 C 
ATOM     53  C   UNL A   1      45.913  26.783  31.721  1.00  0.00     0.037 A 
BRANCH  40  54
ATOM     54  C   UNL A   1      43.183  32.079  33.342  1.00  0.00     0.064 A 
ATOM     55  C   UNL A   1      43.747  33.244  32.801  1.00  0.00     0.173 A 
ATOM     56  C   UNL A   1      42.653  32.145  34.639  1.00  0.00     0.173 A 
ATOM     57  F   UNL A   1      44.278  33.227  31.569  1.00  0.00    -0.203 F 
ATOM     58  C   UNL A   1      43.806  34.421  33.541  1.00  0.00     0.198 A 
ATOM     59  C   UNL A   1      42.689  33.333  35.366  1.00  0.00     0.198 A 
ATOM     60  F   UNL A   1      42.097  31.062  35.200  1.00  0.00    -0.203 F 
ATOM     61  F   UNL A   1      44.392  35.509  33.021  1.00  0.00    -0.200 F 
ATOM     62  C   UNL A   1      43.271  34.467  34.820  1.00  0.00     0.200 A 
ATOM     63  F   UNL A   1      42.164  33.378  36.598  1.00  0.00    -0.200 F 
ATOM     64  F   UNL A   1      43.325  35.603  35.530  1.00  0.00    -0.200 F 
ENDBRANCH  40  54
BRANCH  41  65
ATOM     65  C   UNL A   1      42.422  23.877  27.724  1.00  0.00     0.064 A 
ATOM     66  C   UNL A   1      42.814  23.913  26.380  1.00  0.00     0.173 A 
ATOM     67  C   UNL A   1      41.943  22.663  28.235  1.00  0.00     0.173 A 
ATOM     68  F   UNL A   1      43.258  25.059  25.842  1.00  0.00    -0.203 F 
ATOM     69  C   UNL A   1      42.715  22.783  25.571  1.00  0.00     0.198 A 
ATOM     70  C   UNL A   1      41.868  21.526  27.432  1.00  0.00     0.198 A 
ATOM     71  F   UNL A   1      41.561  22.578  29.517  1.00  0.00    -0.203 F 
ATOM     72  F   UNL A   1      43.061  22.854  24.279  1.00  0.00    -0.200 F 
ATOM     73  C   UNL A   1      42.248  21.589  26.099  1.00  0.00     0.200 A 
ATOM     74  F   UNL A   1      41.426  20.372  27.950  1.00  0.00    -0.200 F 
ATOM     75  F   UNL A   1      42.157  20.501  25.324  1.00  0.00    -0.200 F 
ENDBRANCH  41  65
BRANCH  53  76
ATOM     76  C   UNL A   1      47.213  26.210  32.204  1.00  0.00     0.064 A 
ATOM     77  C   UNL A   1      47.273  25.367  33.322  1.00  0.00     0.173 A 
ATOM     78  C   UNL A   1      48.407  26.483  31.519  1.00  0.00     0.173 A 
ATOM     79  F   UNL A   1      46.159  25.089  34.017  1.00  0.00    -0.203 F 
ATOM     80  C   UNL A   1      48.486  24.835  33.751  1.00  0.00     0.198 A 
ATOM     81  C   UNL A   1      49.613  25.931  31.937  1.00  0.00     0.198 A 
ATOM     82  F   UNL A   1      48.400  27.281  30.441  1.00  0.00    -0.203 F 
ATOM     83  F   UNL A   1      48.526  24.065  34.848  1.00  0.00    -0.200 F 
ATOM     84  C   UNL A   1      49.654  25.113  33.056  1.00  0.00     0.200 A 
ATOM     85  F   UNL A   1      50.740  26.193  31.259  1.00  0.00    -0.200 F 
ATOM     86  F   UNL A   1      50.819  24.598  33.470  1.00  0.00    -0.200 F 
ENDBRANCH  53  76
ENDBRANCH  27  28
ENDBRANCH  19  22
ENDBRANCH  17  18
ENDBRANCH  16  17
ENDBRANCH   1  16
TORSDOF 14
ENDMDL
MODEL 2
REMARK VINA RESULT:     -10.6      0.098      1.672
REMARK SMILES CC(C)(C)C[C@@H](O)[C@@H](F)C(=O)NCCCNC(=O)c1ccc(-c2c3nc(c(-c4c(F)c(F)c(F)c(F)c4F)c4ccc([nH]4)c(-c4c(F)c(F)c(F)c(F)c4F)c4nc(c(-c5c(F)c(F)c(F)c(F)c5F)c5ccc2[nH]5)C=C4)C=C3)cc1
REMARK SMILES IDX 13 1 12 2 10 3 11 4 8 6 9 7 6 8 5 9 2 10 1 11 3 12 4 13 7 14
REMARK SMILES IDX 14 16 15 17 16 18 17 19 18 21 19 22 20 23 81 24 21 25 80 26
REMARK SMILES IDX 22 27 23 28 24 29 74 30 25 31 79 32 73 33 75 34 26 35 78 36
REMARK SMILES IDX 72 37 71 38 27 40 59 41 39 42 58 43 40 44 43 45 57 46 76 47
REMARK SMILES IDX 41 48 42 49 56 51 77 52 44 53 28 54 29 55 37 56 30 57 31 58
REMARK SMILES IDX 35 59 38 60 32 61 33 62 36 63 34 64 60 65 61 66 69 67 62 68
REMARK SMILES IDX 63 69 67 70 70 71 64 72 65 73 68 74 66 75 45 76 46 77 54 78
REMARK SMILES IDX 47 79 48 80 52 81 55 82 49 83 50 84 53 85 51 86
REMARK H PARENT 12 5 7 15 16 20 75 39 43 50
REMARK Flexibility Score: inf
ROOT
ATOM      1  C   UNL A   1      33.362  28.950  24.822  1.00  0.00     0.117 C 
ENDROOT
BRANCH   1   2
ATOM      2  N   UNL A   1      33.571  28.315  23.531  1.00  0.00    -0.353 N 
ATOM      3  C   UNL A   1      32.664  27.778  22.661  1.00  0.00     0.257 C 
ATOM      4  O   UNL A   1      33.106  27.248  21.638  1.00  0.00    -0.272 OA
ATOM      5  H   UNL A   1      34.509  28.264  23.238  1.00  0.00     0.163 HD
BRANCH   3   6
ATOM      6  C   UNL A   1      31.170  27.763  22.982  1.00  0.00     0.283 C 
ATOM      7  F   UNL A   1      30.603  26.571  22.630  1.00  0.00    -0.234 F 
BRANCH   6   8
ATOM      8  C   UNL A   1      30.454  28.920  22.263  1.00  0.00     0.159 C 
BRANCH   8   9
ATOM      9  C   UNL A   1      29.632  29.769  23.251  1.00  0.00     0.041 C 
BRANCH   9  10
ATOM     10  C   UNL A   1      28.188  30.150  22.804  1.00  0.00    -0.036 C 
ATOM     11  C   UNL A   1      27.652  31.388  23.537  1.00  0.00     0.011 C 
ATOM     12  C   UNL A   1      27.264  28.957  23.126  1.00  0.00     0.011 C 
ATOM     13  C   UNL A   1      28.134  30.403  21.285  1.00  0.00     0.011 C 
ENDBRANCH   9  10
ENDBRANCH   8   9
BRANCH   8  14
ATOM     14  O   UNL A   1      31.405  29.780  21.626  1.00  0.00    -0.390 OA
ATOM     15  H   UNL A   1      31.565  30.556  22.185  1.00  0.00     0.211 HD
ENDBRANCH   8  14
ENDBRANCH   6   8
ENDBRANCH   3   6
ENDBRANCH   1   2
BRANCH   1  16
ATOM     16  C   UNL A   1      33.845  28.080  25.981  1.00  0.00     0.042 C 
BRANCH  16  17
ATOM     17  C   UNL A   1      33.402  28.546  27.364  1.00  0.00     0.118 C 
BRANCH  17  18
ATOM     18  N   UNL A   1      33.415  29.992  27.503  1.00  0.00    -0.352 N 
ATOM     19  C   UNL A   1      34.382  30.828  28.000  1.00  0.00     0.251 C 
ATOM     20  H   UNL A   1      32.599  30.443  27.189  1.00  0.00     0.163 HD
ATOM     21  O   UNL A   1      34.113  32.016  28.166  1.00  0.00    -0.269 OA
BRANCH  19  22
ATOM     22  C   UNL A   1      35.734  30.333  28.355  1.00  0.00     0.039 A 
ATOM     23  C   UNL A   1      35.904  29.711  29.598  1.00  0.00     0.014 A 
ATOM     24  C   UNL A   1      36.842  30.534  27.528  1.00  0.00     0.014 A 
ATOM     25  C   UNL A   1      37.167  29.264  29.992  1.00  0.00     0.010 A 
ATOM     26  C   UNL A   1      38.090  30.026  27.892  1.00  0.00     0.010 A 
ATOM     27  C   UNL A   1      38.270  29.401  29.135  1.00  0.00    -0.014 A 
BRANCH  27  28
ATOM     28  C   UNL A   1      39.618  28.934  29.547  1.00  0.00     0.031 A 
ATOM     29  C   UNL A   1      40.450  29.758  30.491  1.00  0.00     0.074 A 
ATOM     30  C   UNL A   1      40.112  27.785  29.047  1.00  0.00     0.049 A 
ATOM     31  N   UNL A   1      41.664  29.541  30.935  1.00  0.00    -0.248 NA
ATOM     32  C   UNL A   1      39.849  31.008  30.983  1.00  0.00     0.031 C 
ATOM     33  C   UNL A   1      39.427  26.915  28.092  1.00  0.00     0.029 A 
ATOM     34  N   UNL A   1      41.312  27.156  29.269  1.00  0.00    -0.354 N 
ATOM     35  C   UNL A   1      41.974  30.630  31.738  1.00  0.00     0.074 A 
ATOM     36  C   UNL A   1      40.842  31.529  31.687  1.00  0.00     0.031 C 
ATOM     37  C   UNL A   1      40.207  25.856  27.823  1.00  0.00     0.029 A 
ATOM     38  C   UNL A   1      41.457  25.984  28.568  1.00  0.00     0.049 A 
ATOM     39  H   UNL A   1      42.002  27.511  29.875  1.00  0.00     0.167 HD
ATOM     40  C   UNL A   1      43.093  30.851  32.470  1.00  0.00     0.037 A 
ATOM     41  C   UNL A   1      42.481  25.111  28.532  1.00  0.00     0.037 A 
ATOM     42  C   UNL A   1      44.205  29.942  32.552  1.00  0.00     0.049 A 
ATOM     43  C   UNL A   1      43.698  25.362  29.381  1.00  0.00     0.074 A 
ATOM     44  C   UNL A   1      45.361  30.055  33.306  1.00  0.00     0.029 A 
ATOM     45  N   UNL A   1      44.296  28.744  31.858  1.00  0.00    -0.354 N 
ATOM     46  N   UNL A   1      43.956  26.369  30.179  1.00  0.00    -0.248 NA
ATOM     47  C   UNL A   1      44.758  24.345  29.335  1.00  0.00     0.031 C 
ATOM     48  C   UNL A   1      46.163  28.937  33.047  1.00  0.00     0.029 A 
ATOM     49  C   UNL A   1      45.491  28.112  32.161  1.00  0.00     0.049 A 
ATOM     50  H   UNL A   1      43.612  28.394  31.242  1.00  0.00     0.167 HD
ATOM     51  C   UNL A   1      45.193  26.098  30.747  1.00  0.00     0.074 A 
ATOM     52  C   UNL A   1      45.628  24.824  30.213  1.00  0.00     0.031 C 
ATOM     53  C   UNL A   1      45.903  26.839  31.630  1.00  0.00     0.037 A 
BRANCH  40  54
ATOM     54  C   UNL A   1      43.165  32.131  33.250  1.00  0.00     0.064 A 
ATOM     55  C   UNL A   1      43.727  33.294  32.699  1.00  0.00     0.173 A 
ATOM     56  C   UNL A   1      42.642  32.205  34.549  1.00  0.00     0.173 A 
ATOM     57  F   UNL A   1      44.252  33.269  31.464  1.00  0.00    -0.203 F 
ATOM     58  C   UNL A   1      43.787  34.475  33.431  1.00  0.00     0.198 A 
ATOM     59  C   UNL A   1      42.680  33.397  35.268  1.00  0.00     0.198 A 
ATOM     60  F   UNL A   1      42.089  31.125  35.119  1.00  0.00    -0.203 F 
ATOM     61  F   UNL A   1      44.370  35.560  32.902  1.00  0.00    -0.200 F 
ATOM     62  C   UNL A   1      43.258  34.529  34.712  1.00  0.00     0.200 A 
ATOM     63  F   UNL A   1      42.160  33.450  36.502  1.00  0.00    -0.200 F 
ATOM     64  F   UNL A   1      43.315  35.669  35.415  1.00  0.00    -0.200 F 
ENDBRANCH  40  54
BRANCH  41  65
ATOM     65  C   UNL A   1      42.383  23.894  27.687  1.00  0.00     0.064 A 
ATOM     66  C   UNL A   1      41.893  22.692  28.214  1.00  0.00     0.173 A 
ATOM     67  C   UNL A   1      42.773  23.908  26.341  1.00  0.00     0.173 A 
ATOM     68  F   UNL A   1      41.528  22.625  29.503  1.00  0.00    -0.203 F 
ATOM     69  C   UNL A   1      41.812  21.543  27.431  1.00  0.00     0.198 A 
ATOM     70  C   UNL A   1      42.669  22.765  25.551  1.00  0.00     0.198 A 
ATOM     71  F   UNL A   1      43.244  25.037  25.790  1.00  0.00    -0.203 F 
ATOM     72  F   UNL A   1      41.375  20.396  27.969  1.00  0.00    -0.200 F 
ATOM     73  C   UNL A   1      42.195  21.582  26.098  1.00  0.00     0.200 A 
ATOM     74  F   UNL A   1      43.030  22.810  24.261  1.00  0.00    -0.200 F 
ATOM     75  F   UNL A   1      42.112  20.479  25.343  1.00  0.00    -0.200 F 
ENDBRANCH  41  65
BRANCH  53  76
ATOM     76  C   UNL A   1      47.210  26.274  32.103  1.00  0.00     0.064 A 
ATOM     77  C   UNL A   1      48.414  26.556  31.443  1.00  0.00     0.173 A 
ATOM     78  C   UNL A   1      47.261  25.468  33.251  1.00  0.00     0.173 A 
ATOM     79  F   UNL A   1      48.413  27.311  30.333  1.00  0.00    -0.203 F 
ATOM     80  C   UNL A   1      49.620  26.032  31.900  1.00  0.00     0.198 A 
ATOM     81  C   UNL A   1      48.471  24.965  33.718  1.00  0.00     0.198 A 
ATOM     82  F   UNL A   1      46.137  25.173  33.919  1.00  0.00    -0.203 F 
ATOM     83  F   UNL A   1      50.754  26.281  31.229  1.00  0.00    -0.200 F 
ATOM     84  C   UNL A   1      49.649  25.243  33.041  1.00  0.00     0.200 A 
ATOM     85  F   UNL A   1      48.499  24.210  34.825  1.00  0.00    -0.200 F 
ATOM     86  F   UNL A   1      50.811  24.742  33.480  1.00  0.00    -0.200 F 
ENDBRANCH  53  76
ENDBRANCH  27  28
ENDBRANCH  19  22
ENDBRANCH  17  18
ENDBRANCH  16  17
ENDBRANCH   1  16
TORSDOF 14
ENDMDL
MODEL 3
REMARK VINA RESULT:     -10.5      3.205      5.616
REMARK SMILES CC(C)(C)C[C@@H](O)[C@@H](F)C(=O)NCCCNC(=O)c1ccc(-c2c3nc(c(-c4c(F)c(F)c(F)c(F)c4F)c4ccc([nH]4)c(-c4c(F)c(F)c(F)c(F)c4F)c4nc(c(-c5c(F)c(F)c(F)c(F)c5F)c5ccc2[nH]5)C=C4)C=C3)cc1
REMARK SMILES IDX 13 1 12 2 10 3 11 4 8 6 9 7 6 8 5 9 2 10 1 11 3 12 4 13 7 14
REMARK SMILES IDX 14 16 15 17 16 18 17 19 18 21 19 22 20 23 81 24 21 25 80 26
REMARK SMILES IDX 22 27 23 28 24 29 74 30 25 31 79 32 73 33 75 34 26 35 78 36
REMARK SMILES IDX 72 37 71 38 27 40 59 41 39 42 58 43 40 44 43 45 57 46 76 47
REMARK SMILES IDX 41 48 42 49 56 51 77 52 44 53 28 54 29 55 37 56 30 57 31 58
REMARK SMILES IDX 35 59 38 60 32 61 33 62 36 63 34 64 60 65 61 66 69 67 62 68
REMARK SMILES IDX 63 69 67 70 70 71 64 72 65 73 68 74 66 75 45 76 46 77 54 78
REMARK SMILES IDX 47 79 48 80 52 81 55 82 49 83 50 84 53 85 51 86
REMARK H PARENT 12 5 7 15 16 20 75 39 43 50
REMARK Flexibility Score: inf
ROOT
ATOM      1  C   UNL A   1      33.790  35.303  29.853  1.00  0.00     0.117 C 
ENDROOT
BRANCH   1   2
ATOM      2  N   UNL A   1      32.632  35.604  30.678  1.00  0.00    -0.353 N 
ATOM      3  C   UNL A   1      32.525  35.705  32.037  1.00  0.00     0.257 C 
ATOM      4  O   UNL A   1      31.403  35.926  32.501  1.00  0.00    -0.272 OA
ATOM      5  H   UNL A   1      31.796  35.760  30.182  1.00  0.00     0.163 HD
BRANCH   3   6
ATOM      6  C   UNL A   1      33.730  35.472  32.946  1.00  0.00     0.283 C 
ATOM      7  F   UNL A   1      34.829  36.142  32.486  1.00  0.00    -0.234 F 
BRANCH   6   8
ATOM      8  C   UNL A   1      34.038  33.969  33.058  1.00  0.00     0.159 C 
BRANCH   8   9
ATOM      9  C   UNL A   1      35.226  33.710  34.004  1.00  0.00     0.041 C 
BRANCH   9  10
ATOM     10  C   UNL A   1      36.482  33.040  33.371  1.00  0.00    -0.036 C 
ATOM     11  C   UNL A   1      37.372  34.045  32.624  1.00  0.00     0.011 C 
ATOM     12  C   UNL A   1      35.995  31.980  32.363  1.00  0.00     0.011 C 
ATOM     13  C   UNL A   1      37.324  32.328  34.447  1.00  0.00     0.011 C 
ENDBRANCH   9  10
ENDBRANCH   8   9
BRANCH   8  14
ATOM     14  O   UNL A   1      32.903  33.262  33.569  1.00  0.00    -0.390 OA
ATOM     15  H   UNL A   1      33.192  32.638  34.253  1.00  0.00     0.211 HD
ENDBRANCH   8  14
ENDBRANCH   6   8
ENDBRANCH   3   6
ENDBRANCH   1   2
BRANCH   1  16
ATOM     16  C   UNL A   1      33.491  34.239  28.798  1.00  0.00     0.042 C 
BRANCH  16  17
ATOM     17  C   UNL A   1      34.307  32.957  28.927  1.00  0.00     0.118 C 
BRANCH  17  18
ATOM     18  N   UNL A   1      33.852  31.906  28.034  1.00  0.00    -0.352 N 
ATOM     19  C   UNL A   1      34.472  30.752  27.629  1.00  0.00     0.251 C 
ATOM     20  H   UNL A   1      32.952  32.045  27.659  1.00  0.00     0.163 HD
ATOM     21  O   UNL A   1      33.958  30.079  26.739  1.00  0.00    -0.269 OA
BRANCH  19  22
ATOM     22  C   UNL A   1      35.754  30.305  28.228  1.00  0.00     0.039 A 
ATOM     23  C   UNL A   1      36.931  30.513  27.499  1.00  0.00     0.014 A 
ATOM     24  C   UNL A   1      35.810  29.627  29.448  1.00  0.00     0.014 A 
ATOM     25  C   UNL A   1      38.157  30.074  28.004  1.00  0.00     0.010 A 
ATOM     26  C   UNL A   1      37.042  29.249  29.985  1.00  0.00     0.010 A 
ATOM     27  C   UNL A   1      38.227  29.453  29.261  1.00  0.00    -0.014 A 
BRANCH  27  28
ATOM     28  C   UNL A   1      39.524  28.977  29.806  1.00  0.00     0.031 A 
ATOM     29  C   UNL A   1      40.172  29.698  30.957  1.00  0.00     0.074 A 
ATOM     30  C   UNL A   1      40.140  27.919  29.245  1.00  0.00     0.049 A 
ATOM     31  N   UNL A   1      41.320  29.462  31.543  1.00  0.00    -0.248 NA
ATOM     32  C   UNL A   1      39.446  30.854  31.505  1.00  0.00     0.031 C 
ATOM     33  C   UNL A   1      39.641  27.159  28.100  1.00  0.00     0.029 A 
ATOM     34  N   UNL A   1      41.325  27.303  29.562  1.00  0.00    -0.354 N 
ATOM     35  C   UNL A   1      41.459  30.447  32.512  1.00  0.00     0.074 A 
ATOM     36  C   UNL A   1      40.303  31.310  32.407  1.00  0.00     0.031 C 
ATOM     37  C   UNL A   1      40.503  26.169  27.820  1.00  0.00     0.029 A 
ATOM     38  C   UNL A   1      41.627  26.237  28.750  1.00  0.00     0.049 A 
ATOM     39  H   UNL A   1      41.905  27.598  30.302  1.00  0.00     0.167 HD
ATOM     40  C   UNL A   1      42.450  30.606  33.422  1.00  0.00     0.037 A 
ATOM     41  C   UNL A   1      42.687  25.408  28.757  1.00  0.00     0.037 A 
ATOM     42  C   UNL A   1      43.583  29.729  33.553  1.00  0.00     0.049 A 
ATOM     43  C   UNL A   1      43.757  25.584  29.800  1.00  0.00     0.074 A 
ATOM     44  C   UNL A   1      44.613  29.778  34.477  1.00  0.00     0.029 A 
ATOM     45  N   UNL A   1      43.830  28.634  32.738  1.00  0.00    -0.354 N 
ATOM     46  N   UNL A   1      43.849  26.487  30.746  1.00  0.00    -0.248 NA
ATOM     47  C   UNL A   1      44.862  24.616  29.785  1.00  0.00     0.031 C 
ATOM     48  C   UNL A   1      45.498  28.729  34.203  1.00  0.00     0.029 A 
ATOM     49  C   UNL A   1      45.000  28.005  33.132  1.00  0.00     0.049 A 
ATOM     50  H   UNL A   1      43.259  28.346  31.990  1.00  0.00     0.167 HD
ATOM     51  C   UNL A   1      45.005  26.183  31.452  1.00  0.00     0.074 A 
ATOM     52  C   UNL A   1      45.574  25.004  30.834  1.00  0.00     0.031 C 
ATOM     53  C   UNL A   1      45.546  26.825  32.515  1.00  0.00     0.037 A 
BRANCH  40  54
ATOM     54  C   UNL A   1      42.348  31.776  34.356  1.00  0.00     0.064 A 
ATOM     55  C   UNL A   1      42.905  33.023  34.032  1.00  0.00     0.173 A 
ATOM     56  C   UNL A   1      41.662  31.659  35.573  1.00  0.00     0.173 A 
ATOM     57  F   UNL A   1      43.583  33.181  32.885  1.00  0.00    -0.203 F 
ATOM     58  C   UNL A   1      42.803  34.101  34.906  1.00  0.00     0.198 A 
ATOM     59  C   UNL A   1      41.538  32.748  36.433  1.00  0.00     0.198 A 
ATOM     60  F   UNL A   1      41.105  30.491  35.927  1.00  0.00    -0.203 F 
ATOM     61  F   UNL A   1      43.384  35.269  34.597  1.00  0.00    -0.200 F 
ATOM     62  C   UNL A   1      42.114  33.965  36.102  1.00  0.00     0.200 A 
ATOM     63  F   UNL A   1      40.864  32.618  37.584  1.00  0.00    -0.200 F 
ATOM     64  F   UNL A   1      42.014  35.006  36.941  1.00  0.00    -0.200 F 
ENDBRANCH  40  54
BRANCH  41  65
ATOM     65  C   UNL A   1      42.770  24.308  27.764  1.00  0.00     0.064 A 
ATOM     66  C   UNL A   1      42.358  23.011  28.093  1.00  0.00     0.173 A 
ATOM     67  C   UNL A   1      43.258  24.532  26.469  1.00  0.00     0.173 A 
ATOM     68  F   UNL A   1      41.903  22.745  29.327  1.00  0.00    -0.203 F 
ATOM     69  C   UNL A   1      42.446  21.971  27.169  1.00  0.00     0.198 A 
ATOM     70  C   UNL A   1      43.324  23.497  25.538  1.00  0.00     0.198 A 
ATOM     71  F   UNL A   1      43.660  25.758  26.105  1.00  0.00    -0.203 F 
ATOM     72  F   UNL A   1      42.081  20.731  27.522  1.00  0.00    -0.200 F 
ATOM     73  C   UNL A   1      42.924  22.217  25.891  1.00  0.00     0.200 A 
ATOM     74  F   UNL A   1      43.776  23.741  24.300  1.00  0.00    -0.200 F 
ATOM     75  F   UNL A   1      43.005  21.219  25.001  1.00  0.00    -0.200 F 
ENDBRANCH  41  65
BRANCH  53  76
ATOM     76  C   UNL A   1      46.798  26.244  33.101  1.00  0.00     0.064 A 
ATOM     77  C   UNL A   1      48.068  26.667  32.684  1.00  0.00     0.173 A 
ATOM     78  C   UNL A   1      46.725  25.278  34.116  1.00  0.00     0.173 A 
ATOM     79  F   UNL A   1      48.189  27.579  31.707  1.00  0.00    -0.203 F 
ATOM     80  C   UNL A   1      49.221  26.125  33.246  1.00  0.00     0.198 A 
ATOM     81  C   UNL A   1      47.880  24.756  34.690  1.00  0.00     0.198 A 
ATOM     82  F   UNL A   1      45.533  24.845  34.551  1.00  0.00    -0.203 F 
ATOM     83  F   UNL A   1      50.426  26.513  32.802  1.00  0.00    -0.200 F 
ATOM     84  C   UNL A   1      49.126  25.175  34.252  1.00  0.00     0.200 A 
ATOM     85  F   UNL A   1      47.786  23.844  35.669  1.00  0.00    -0.200 F 
ATOM     86  F   UNL A   1      50.238  24.657  34.793  1.00  0.00    -0.200 F 
ENDBRANCH  53  76
ENDBRANCH  27  28
ENDBRANCH  19  22
ENDBRANCH  17  18
ENDBRANCH  16  17
ENDBRANCH   1  16
TORSDOF 14
ENDMDL
