MODEL 1
REMARK VINA RESULT:     -13.6      0.000      0.000
REMARK SMILES COc1cccc(N2/C(=[NH+]/C(=O)CCC(=O)NCCCNC(=O)c3ccc(-c4c5nc(c(-c6c(F)c(F)c(F)c(F)c6F)c6ccc([nH]6)c(-c6c(F)c(F)c(F)c(F)c6F)c6nc(c(-c7c(F)c(F)c(F)c(F)c7F)c7ccc4[nH]7)C=C6)C=C5)cc3)S[C@@H]3CS(=O)(=O)C[C@H]32)c1
REMARK SMILES IDX 18 1 17 2 15 3 16 4 14 6 13 7 11 8 8 9 9 10 94 11 10 12
REMARK SMILES IDX 87 13 88 14 93 15 89 17 90 18 12 19 91 20 92 21 7 22 3 23
REMARK SMILES IDX 4 24 95 25 5 26 6 27 2 28 1 29 19 30 20 31 21 32 22 33 23 35
REMARK SMILES IDX 24 36 25 37 86 38 26 39 85 40 27 41 28 42 29 43 79 44 30 45
REMARK SMILES IDX 84 46 78 47 80 48 31 49 83 50 77 51 76 52 32 54 64 55 44 56
REMARK SMILES IDX 63 57 45 58 48 59 62 60 81 61 46 62 47 63 61 65 82 66 49 67
REMARK SMILES IDX 33 68 34 69 42 70 35 71 36 72 40 73 43 74 37 75 38 76 41 77
REMARK SMILES IDX 39 78 65 79 66 80 74 81 67 82 68 83 72 84 75 85 69 86 70 87
REMARK SMILES IDX 73 88 71 89 50 90 51 91 59 92 52 93 53 94 57 95 60 96 54 97
REMARK SMILES IDX 55 98 58 99 56 100
REMARK H PARENT 17 5 10 16 21 34 80 53 48 64
REMARK Flexibility Score: inf
ROOT
ATOM      1  C   UNL A   1      32.007  28.144  25.243  1.00  0.00     0.117 C 
ENDROOT
BRANCH   1   2
ATOM      2  N   UNL A   1      30.904  27.262  25.633  1.00  0.00    -0.356 N 
ATOM      3  C   UNL A   1      30.833  25.962  26.041  1.00  0.00     0.220 C 
ATOM      4  O   UNL A   1      29.755  25.570  26.499  1.00  0.00    -0.275 OA
ATOM      5  H   UNL A   1      30.026  27.701  25.591  1.00  0.00     0.163 HD
BRANCH   3   6
ATOM      6  C   UNL A   1      31.999  25.005  25.942  1.00  0.00     0.112 C 
BRANCH   6   7
ATOM      7  C   UNL A   1      31.788  23.825  26.888  1.00  0.00     0.138 C 
BRANCH   7   8
ATOM      8  C   UNL A   1      31.901  22.595  26.047  1.00  0.00     0.308 C 
ATOM      9  N   UNL A   1      34.669  20.714  24.656  1.00  0.00    -0.216 N 
ATOM     10  C   UNL A   1      33.429  21.370  24.817  1.00  0.00     0.319 C 
ATOM     11  C   UNL A   1      34.305  19.257  24.701  1.00  0.00     0.212 C 
ATOM     12  N   UNL A   1      33.188  22.306  25.671  1.00  0.00    -0.204 N 
ATOM     13  S   UNL A   1      32.169  20.543  23.854  1.00  0.00    -0.029 SA
ATOM     14  C   UNL A   1      33.162  19.085  23.676  1.00  0.00     0.120 C 
ATOM     15  C   UNL A   1      35.129  18.074  24.310  1.00  0.00     0.188 C 
ATOM     16  H   UNL A   1      33.935  22.818  26.057  1.00  0.00     0.316 HD
ATOM     17  C   UNL A   1      32.530  17.739  23.983  1.00  0.00     0.156 C 
ATOM     18  S   UNL A   1      33.980  16.715  24.066  1.00  0.00     0.155 S 
ATOM     19  O   UNL A   1      30.927  21.846  25.975  1.00  0.00    -0.247 OA
ATOM     20  O   UNL A   1      34.217  16.136  22.755  1.00  0.00    -0.229 OA
ATOM     21  O   UNL A   1      33.930  15.913  25.262  1.00  0.00    -0.229 OA
BRANCH   9  22
ATOM     22  C   UNL A   1      35.837  21.464  24.915  1.00  0.00     0.132 A 
ATOM     23  C   UNL A   1      38.191  21.829  25.745  1.00  0.00     0.123 A 
ATOM     24  C   UNL A   1      38.013  23.193  25.753  1.00  0.00     0.047 A 
ATOM     25  C   UNL A   1      37.135  21.017  25.277  1.00  0.00     0.098 A 
ATOM     26  C   UNL A   1      36.786  23.710  25.349  1.00  0.00     0.008 A 
ATOM     27  C   UNL A   1      35.718  22.861  24.972  1.00  0.00     0.052 A 
BRANCH  23  28
ATOM     28  O   UNL A   1      39.452  21.389  26.056  1.00  0.00    -0.497 OA
ATOM     29  C   UNL A   1      39.749  20.004  25.871  1.00  0.00     0.278 C 
ENDBRANCH  23  28
ENDBRANCH   9  22
ENDBRANCH   7   8
ENDBRANCH   6   7
ENDBRANCH   3   6
ENDBRANCH   1   2
BRANCH   1  30
ATOM     30  C   UNL A   1      31.631  29.522  24.605  1.00  0.00     0.042 C 
BRANCH  30  31
ATOM     31  C   UNL A   1      31.397  30.663  25.625  1.00  0.00     0.118 C 
BRANCH  31  32
ATOM     32  N   UNL A   1      32.131  30.739  26.955  1.00  0.00    -0.352 N 
ATOM     33  C   UNL A   1      33.150  31.706  27.289  1.00  0.00     0.251 C 
ATOM     34  H   UNL A   1      31.894  30.076  27.642  1.00  0.00     0.163 HD
ATOM     35  O   UNL A   1      32.860  32.897  27.356  1.00  0.00    -0.269 OA
BRANCH  33  36
ATOM     36  C   UNL A   1      34.575  31.259  27.750  1.00  0.00     0.039 A 
ATOM     37  C   UNL A   1      35.635  32.152  28.002  1.00  0.00     0.014 A 
ATOM     38  C   UNL A   1      34.865  29.928  28.049  1.00  0.00     0.014 A 
ATOM     39  C   UNL A   1      36.835  31.742  28.699  1.00  0.00     0.010 A 
ATOM     40  C   UNL A   1      35.996  29.529  28.821  1.00  0.00     0.010 A 
ATOM     41  C   UNL A   1      37.016  30.428  29.180  1.00  0.00    -0.014 A 
BRANCH  41  42
ATOM     42  C   UNL A   1      38.300  29.917  29.835  1.00  0.00     0.031 A 
ATOM     43  C   UNL A   1      38.628  30.435  31.227  1.00  0.00     0.074 A 
ATOM     44  C   UNL A   1      39.229  29.090  29.282  1.00  0.00     0.049 A 
ATOM     45  N   UNL A   1      39.616  30.128  32.037  1.00  0.00    -0.248 NA
ATOM     46  C   UNL A   1      37.729  31.470  31.757  1.00  0.00     0.031 C 
ATOM     47  C   UNL A   1      39.200  28.539  27.932  1.00  0.00     0.029 A 
ATOM     48  N   UNL A   1      40.415  28.572  29.799  1.00  0.00    -0.354 N 
ATOM     49  C   UNL A   1      39.431  30.910  33.169  1.00  0.00     0.074 A 
ATOM     50  C   UNL A   1      38.318  31.790  32.894  1.00  0.00     0.031 C 
ATOM     51  C   UNL A   1      40.283  27.757  27.732  1.00  0.00     0.029 A 
ATOM     52  C   UNL A   1      41.106  27.733  28.941  1.00  0.00     0.049 A 
ATOM     53  H   UNL A   1      40.736  28.786  30.704  1.00  0.00     0.167 HD
ATOM     54  C   UNL A   1      40.071  30.882  34.363  1.00  0.00     0.037 A 
ATOM     55  C   UNL A   1      42.244  27.010  29.104  1.00  0.00     0.037 A 
ATOM     56  C   UNL A   1      41.198  30.053  34.683  1.00  0.00     0.049 A 
ATOM     57  C   UNL A   1      42.983  27.019  30.433  1.00  0.00     0.074 A 
ATOM     58  C   UNL A   1      41.880  29.951  35.884  1.00  0.00     0.029 A 
ATOM     59  N   UNL A   1      41.829  29.202  33.793  1.00  0.00    -0.354 N 
ATOM     60  N   UNL A   1      42.694  27.655  31.542  1.00  0.00    -0.248 NA
ATOM     61  C   UNL A   1      44.197  26.184  30.538  1.00  0.00     0.031 C 
ATOM     62  C   UNL A   1      42.959  29.079  35.705  1.00  0.00     0.029 A 
ATOM     63  C   UNL A   1      42.903  28.583  34.414  1.00  0.00     0.049 A 
ATOM     64  H   UNL A   1      41.555  29.058  32.858  1.00  0.00     0.167 HD
ATOM     65  C   UNL A   1      43.642  27.247  32.480  1.00  0.00     0.074 A 
ATOM     66  C   UNL A   1      44.518  26.311  31.817  1.00  0.00     0.031 C 
ATOM     67  C   UNL A   1      43.759  27.615  33.780  1.00  0.00     0.037 A 
BRANCH  54  68
ATOM     68  C   UNL A   1      39.524  31.784  35.434  1.00  0.00     0.064 A 
ATOM     69  C   UNL A   1      39.988  33.103  35.575  1.00  0.00     0.173 A 
ATOM     70  C   UNL A   1      38.554  31.328  36.336  1.00  0.00     0.173 A 
ATOM     71  F   UNL A   1      40.928  33.582  34.745  1.00  0.00    -0.203 F 
ATOM     72  C   UNL A   1      39.543  33.910  36.615  1.00  0.00     0.198 A 
ATOM     73  C   UNL A   1      38.081  32.153  37.351  1.00  0.00     0.198 A 
ATOM     74  F   UNL A   1      38.074  30.079  36.241  1.00  0.00    -0.203 F 
ATOM     75  F   UNL A   1      40.063  35.135  36.780  1.00  0.00    -0.200 F 
ATOM     76  C   UNL A   1      38.587  33.437  37.501  1.00  0.00     0.200 A 
ATOM     77  F   UNL A   1      37.148  31.701  38.199  1.00  0.00    -0.200 F 
ATOM     78  F   UNL A   1      38.162  34.213  38.507  1.00  0.00    -0.200 F 
ENDBRANCH  54  68
BRANCH  55  79
ATOM     79  C   UNL A   1      42.787  26.139  28.005  1.00  0.00     0.064 A 
ATOM     80  C   UNL A   1      43.685  26.652  27.050  1.00  0.00     0.173 A 
ATOM     81  C   UNL A   1      42.329  24.829  27.808  1.00  0.00     0.173 A 
ATOM     82  F   UNL A   1      44.117  27.918  27.151  1.00  0.00    -0.203 F 
ATOM     83  C   UNL A   1      44.072  25.905  25.934  1.00  0.00     0.198 A 
ATOM     84  C   UNL A   1      42.742  24.070  26.708  1.00  0.00     0.198 A 
ATOM     85  F   UNL A   1      41.453  24.288  28.667  1.00  0.00    -0.203 F 
ATOM     86  F   UNL A   1      44.861  26.455  25.001  1.00  0.00    -0.200 F 
ATOM     87  C   UNL A   1      43.603  24.613  25.766  1.00  0.00     0.200 A 
ATOM     88  F   UNL A   1      42.282  22.822  26.545  1.00  0.00    -0.200 F 
ATOM     89  F   UNL A   1      43.959  23.901  24.687  1.00  0.00    -0.200 F 
ENDBRANCH  55  79
BRANCH  67  90
ATOM     90  C   UNL A   1      44.810  26.947  34.628  1.00  0.00     0.064 A 
ATOM     91  C   UNL A   1      44.572  25.755  35.328  1.00  0.00     0.173 A 
ATOM     92  C   UNL A   1      46.107  27.487  34.688  1.00  0.00     0.173 A 
ATOM     93  F   UNL A   1      43.354  25.194  35.312  1.00  0.00    -0.203 F 
ATOM     94  C   UNL A   1      45.578  25.148  36.079  1.00  0.00     0.198 A 
ATOM     95  C   UNL A   1      47.120  26.859  35.410  1.00  0.00     0.198 A 
ATOM     96  F   UNL A   1      46.400  28.619  34.029  1.00  0.00    -0.203 F 
ATOM     97  F   UNL A   1      45.313  24.036  36.779  1.00  0.00    -0.200 F 
ATOM     98  C   UNL A   1      46.852  25.695  36.111  1.00  0.00     0.200 A 
ATOM     99  F   UNL A   1      48.355  27.379  35.420  1.00  0.00    -0.200 F 
ATOM    100  F   UNL A   1      47.821  25.103  36.823  1.00  0.00    -0.200 F 
ENDBRANCH  67  90
ENDBRANCH  41  42
ENDBRANCH  33  36
ENDBRANCH  31  32
ENDBRANCH  30  31
ENDBRANCH   1  30
TORSDOF 14
ENDMDL
MODEL 2
REMARK VINA RESULT:     -13.2      2.882      8.647
REMARK SMILES COc1cccc(N2/C(=[NH+]/C(=O)CCC(=O)NCCCNC(=O)c3ccc(-c4c5nc(c(-c6c(F)c(F)c(F)c(F)c6F)c6ccc([nH]6)c(-c6c(F)c(F)c(F)c(F)c6F)c6nc(c(-c7c(F)c(F)c(F)c(F)c7F)c7ccc4[nH]7)C=C6)C=C5)cc3)S[C@@H]3CS(=O)(=O)C[C@H]32)c1
REMARK SMILES IDX 18 1 17 2 15 3 16 4 14 6 13 7 11 8 8 9 9 10 94 11 10 12
REMARK SMILES IDX 87 13 88 14 93 15 89 17 90 18 12 19 91 20 92 21 7 22 3 23
REMARK SMILES IDX 4 24 95 25 5 26 6 27 2 28 1 29 19 30 20 31 21 32 22 33 23 35
REMARK SMILES IDX 24 36 25 37 86 38 26 39 85 40 27 41 28 42 29 43 79 44 30 45
REMARK SMILES IDX 84 46 78 47 80 48 31 49 83 50 77 51 76 52 32 54 64 55 44 56
REMARK SMILES IDX 63 57 45 58 48 59 62 60 81 61 46 62 47 63 61 65 82 66 49 67
REMARK SMILES IDX 33 68 34 69 42 70 35 71 36 72 40 73 43 74 37 75 38 76 41 77
REMARK SMILES IDX 39 78 65 79 66 80 74 81 67 82 68 83 72 84 75 85 69 86 70 87
REMARK SMILES IDX 73 88 71 89 50 90 51 91 59 92 52 93 53 94 57 95 60 96 54 97
REMARK SMILES IDX 55 98 58 99 56 100
REMARK H PARENT 17 5 10 16 21 34 80 53 48 64
REMARK Flexibility Score: inf
ROOT
ATOM      1  C   UNL A   1      42.366  19.808  25.680  1.00  0.00     0.117 C 
ENDROOT
BRANCH   1   2
ATOM      2  N   UNL A   1      41.794  20.543  26.812  1.00  0.00    -0.356 N 
ATOM      3  C   UNL A   1      40.670  21.298  26.979  1.00  0.00     0.220 C 
ATOM      4  O   UNL A   1      40.366  21.614  28.133  1.00  0.00    -0.275 OA
ATOM      5  H   UNL A   1      42.338  20.477  27.629  1.00  0.00     0.163 HD
BRANCH   3   6
ATOM      6  C   UNL A   1      39.814  21.760  25.822  1.00  0.00     0.112 C 
BRANCH   6   7
ATOM      7  C   UNL A   1      38.536  20.924  25.753  1.00  0.00     0.138 C 
BRANCH   7   8
ATOM      8  C   UNL A   1      37.425  21.889  25.488  1.00  0.00     0.308 C 
ATOM      9  N   UNL A   1      33.928  21.552  24.597  1.00  0.00    -0.216 N 
ATOM     10  C   UNL A   1      35.270  21.992  24.658  1.00  0.00     0.319 C 
ATOM     11  C   UNL A   1      33.168  22.645  25.294  1.00  0.00     0.212 C 
ATOM     12  N   UNL A   1      36.265  21.285  25.075  1.00  0.00    -0.204 N 
ATOM     13  S   UNL A   1      35.355  23.746  24.326  1.00  0.00    -0.029 SA
ATOM     14  C   UNL A   1      33.619  23.959  24.617  1.00  0.00     0.120 C 
ATOM     15  C   UNL A   1      31.697  22.900  25.307  1.00  0.00     0.188 C 
ATOM     16  H   UNL A   1      36.192  20.304  25.097  1.00  0.00     0.316 HD
ATOM     17  C   UNL A   1      33.175  25.076  25.545  1.00  0.00     0.156 C 
ATOM     18  S   UNL A   1      31.483  24.607  25.823  1.00  0.00     0.155 S 
ATOM     19  O   UNL A   1      37.553  23.048  25.880  1.00  0.00    -0.247 OA
ATOM     20  O   UNL A   1      30.645  25.285  24.849  1.00  0.00    -0.229 OA
ATOM     21  O   UNL A   1      31.203  24.646  27.236  1.00  0.00    -0.229 OA
BRANCH   9  22
ATOM     22  C   UNL A   1      33.707  20.182  24.344  1.00  0.00     0.132 A 
ATOM     23  C   UNL A   1      34.331  17.740  24.230  1.00  0.00     0.123 A 
ATOM     24  C   UNL A   1      33.258  17.468  23.413  1.00  0.00     0.047 A 
ATOM     25  C   UNL A   1      34.490  19.057  24.714  1.00  0.00     0.098 A 
ATOM     26  C   UNL A   1      32.407  18.510  23.059  1.00  0.00     0.008 A 
ATOM     27  C   UNL A   1      32.648  19.837  23.489  1.00  0.00     0.052 A 
BRANCH  23  28
ATOM     28  O   UNL A   1      35.071  16.655  24.624  1.00  0.00    -0.497 OA
ATOM     29  C   UNL A   1      34.413  15.615  25.348  1.00  0.00     0.278 C 
ENDBRANCH  23  28
ENDBRANCH   9  22
ENDBRANCH   7   8
ENDBRANCH   6   7
ENDBRANCH   3   6
ENDBRANCH   1   2
BRANCH   1  30
ATOM     30  C   UNL A   1      43.913  19.904  25.473  1.00  0.00     0.042 C 
BRANCH  30  31
ATOM     31  C   UNL A   1      44.377  21.112  24.623  1.00  0.00     0.118 C 
BRANCH  31  32
ATOM     32  N   UNL A   1      43.703  22.473  24.695  1.00  0.00    -0.352 N 
ATOM     33  C   UNL A   1      44.377  23.722  24.963  1.00  0.00     0.251 C 
ATOM     34  H   UNL A   1      42.730  22.507  24.548  1.00  0.00     0.163 HD
ATOM     35  O   UNL A   1      45.206  24.149  24.166  1.00  0.00    -0.269 OA
BRANCH  33  36
ATOM     36  C   UNL A   1      43.947  24.639  26.153  1.00  0.00     0.039 A 
ATOM     37  C   UNL A   1      44.376  25.971  26.314  1.00  0.00     0.014 A 
ATOM     38  C   UNL A   1      43.008  24.222  27.097  1.00  0.00     0.014 A 
ATOM     39  C   UNL A   1      43.740  26.875  27.249  1.00  0.00     0.010 A 
ATOM     40  C   UNL A   1      42.307  25.124  27.953  1.00  0.00     0.010 A 
ATOM     41  C   UNL A   1      42.646  26.485  28.049  1.00  0.00    -0.014 A 
BRANCH  41  42
ATOM     42  C   UNL A   1      42.000  27.367  29.119  1.00  0.00     0.031 A 
ATOM     43  C   UNL A   1      42.611  27.335  30.512  1.00  0.00     0.074 A 
ATOM     44  C   UNL A   1      40.886  28.136  28.983  1.00  0.00     0.049 A 
ATOM     45  N   UNL A   1      42.303  28.021  31.590  1.00  0.00    -0.248 NA
ATOM     46  C   UNL A   1      43.698  26.368  30.717  1.00  0.00     0.031 C 
ATOM     47  C   UNL A   1      40.062  28.260  27.786  1.00  0.00     0.029 A 
ATOM     48  N   UNL A   1      40.233  28.968  29.891  1.00  0.00    -0.354 N 
ATOM     49  C   UNL A   1      43.177  27.582  32.576  1.00  0.00     0.074 A 
ATOM     50  C   UNL A   1      43.936  26.492  32.009  1.00  0.00     0.031 C 
ATOM     51  C   UNL A   1      39.042  29.114  28.017  1.00  0.00     0.029 A 
ATOM     52  C   UNL A   1      39.123  29.622  29.386  1.00  0.00     0.049 A 
ATOM     53  H   UNL A   1      40.539  29.082  30.820  1.00  0.00     0.167 HD
ATOM     54  C   UNL A   1      43.393  28.060  33.826  1.00  0.00     0.037 A 
ATOM     55  C   UNL A   1      38.282  30.536  29.937  1.00  0.00     0.037 A 
ATOM     56  C   UNL A   1      42.651  29.118  34.451  1.00  0.00     0.049 A 
ATOM     57  C   UNL A   1      38.503  31.034  31.356  1.00  0.00     0.074 A 
ATOM     58  C   UNL A   1      42.834  29.674  35.707  1.00  0.00     0.029 A 
ATOM     59  N   UNL A   1      41.568  29.764  33.883  1.00  0.00    -0.354 N 
ATOM     60  N   UNL A   1      39.437  30.710  32.216  1.00  0.00    -0.248 NA
ATOM     61  C   UNL A   1      37.561  32.050  31.872  1.00  0.00     0.031 C 
ATOM     62  C   UNL A   1      41.826  30.620  35.920  1.00  0.00     0.029 A 
ATOM     63  C   UNL A   1      41.061  30.703  34.769  1.00  0.00     0.049 A 
ATOM     64  H   UNL A   1      41.210  29.584  32.983  1.00  0.00     0.167 HD
ATOM     65  C   UNL A   1      39.235  31.521  33.333  1.00  0.00     0.074 A 
ATOM     66  C   UNL A   1      38.090  32.354  33.049  1.00  0.00     0.031 C 
ATOM     67  C   UNL A   1      39.949  31.571  34.484  1.00  0.00     0.037 A 
BRANCH  54  68
ATOM     68  C   UNL A   1      44.522  27.432  34.593  1.00  0.00     0.064 A 
ATOM     69  C   UNL A   1      45.827  27.949  34.512  1.00  0.00     0.173 A 
ATOM     70  C   UNL A   1      44.311  26.301  35.392  1.00  0.00     0.173 A 
ATOM     71  F   UNL A   1      46.082  29.022  33.748  1.00  0.00    -0.203 F 
ATOM     72  C   UNL A   1      46.886  27.320  35.155  1.00  0.00     0.198 A 
ATOM     73  C   UNL A   1      45.369  25.698  36.067  1.00  0.00     0.198 A 
ATOM     74  F   UNL A   1      43.084  25.772  35.508  1.00  0.00    -0.203 F 
ATOM     75  F   UNL A   1      48.135  27.782  34.994  1.00  0.00    -0.200 F 
ATOM     76  C   UNL A   1      46.657  26.198  35.936  1.00  0.00     0.200 A 
ATOM     77  F   UNL A   1      45.145  24.622  36.832  1.00  0.00    -0.200 F 
ATOM     78  F   UNL A   1      47.678  25.589  36.551  1.00  0.00    -0.200 F 
ENDBRANCH  54  68
BRANCH  55  79
ATOM     79  C   UNL A   1      37.141  31.126  29.156  1.00  0.00     0.064 A 
ATOM     80  C   UNL A   1      37.153  32.479  28.764  1.00  0.00     0.173 A 
ATOM     81  C   UNL A   1      35.970  30.399  28.897  1.00  0.00     0.173 A 
ATOM     82  F   UNL A   1      38.221  33.243  29.033  1.00  0.00    -0.203 F 
ATOM     83  C   UNL A   1      36.035  33.081  28.181  1.00  0.00     0.198 A 
ATOM     84  C   UNL A   1      34.863  30.995  28.284  1.00  0.00     0.198 A 
ATOM     85  F   UNL A   1      35.884  29.114  29.267  1.00  0.00    -0.203 F 
ATOM     86  F   UNL A   1      36.051  34.391  27.898  1.00  0.00    -0.200 F 
ATOM     87  C   UNL A   1      34.892  32.338  27.938  1.00  0.00     0.200 A 
ATOM     88  F   UNL A   1      33.757  30.274  28.055  1.00  0.00    -0.200 F 
ATOM     89  F   UNL A   1      33.813  32.919  27.394  1.00  0.00    -0.200 F 
ENDBRANCH  55  79
BRANCH  67  90
ATOM     90  C   UNL A   1      39.596  32.618  35.508  1.00  0.00     0.064 A 
ATOM     91  C   UNL A   1      38.659  32.394  36.527  1.00  0.00     0.173 A 
ATOM     92  C   UNL A   1      40.263  33.857  35.500  1.00  0.00     0.173 A 
ATOM     93  F   UNL A   1      37.988  31.234  36.584  1.00  0.00    -0.203 F 
ATOM     94  C   UNL A   1      38.380  33.376  37.477  1.00  0.00     0.198 A 
ATOM     95  C   UNL A   1      40.008  34.822  36.472  1.00  0.00     0.198 A 
ATOM     96  F   UNL A   1      41.179  34.126  34.558  1.00  0.00    -0.203 F 
ATOM     97  F   UNL A   1      37.444  33.157  38.411  1.00  0.00    -0.200 F 
ATOM     98  C   UNL A   1      39.060  34.584  37.454  1.00  0.00     0.200 A 
ATOM     99  F   UNL A   1      40.684  35.979  36.459  1.00  0.00    -0.200 F 
ATOM    100  F   UNL A   1      38.799  35.522  38.375  1.00  0.00    -0.200 F 
ENDBRANCH  67  90
ENDBRANCH  41  42
ENDBRANCH  33  36
ENDBRANCH  31  32
ENDBRANCH  30  31
ENDBRANCH   1  30
TORSDOF 14
ENDMDL
MODEL 3
REMARK VINA RESULT:     -13.0      2.984      8.794
REMARK SMILES COc1cccc(N2/C(=[NH+]/C(=O)CCC(=O)NCCCNC(=O)c3ccc(-c4c5nc(c(-c6c(F)c(F)c(F)c(F)c6F)c6ccc([nH]6)c(-c6c(F)c(F)c(F)c(F)c6F)c6nc(c(-c7c(F)c(F)c(F)c(F)c7F)c7ccc4[nH]7)C=C6)C=C5)cc3)S[C@@H]3CS(=O)(=O)C[C@H]32)c1
REMARK SMILES IDX 18 1 17 2 15 3 16 4 14 6 13 7 11 8 8 9 9 10 94 11 10 12
REMARK SMILES IDX 87 13 88 14 93 15 89 17 90 18 12 19 91 20 92 21 7 22 3 23
REMARK SMILES IDX 4 24 95 25 5 26 6 27 2 28 1 29 19 30 20 31 21 32 22 33 23 35
REMARK SMILES IDX 24 36 25 37 86 38 26 39 85 40 27 41 28 42 29 43 79 44 30 45
REMARK SMILES IDX 84 46 78 47 80 48 31 49 83 50 77 51 76 52 32 54 64 55 44 56
REMARK SMILES IDX 63 57 45 58 48 59 62 60 81 61 46 62 47 63 61 65 82 66 49 67
REMARK SMILES IDX 33 68 34 69 42 70 35 71 36 72 40 73 43 74 37 75 38 76 41 77
REMARK SMILES IDX 39 78 65 79 66 80 74 81 67 82 68 83 72 84 75 85 69 86 70 87
REMARK SMILES IDX 73 88 71 89 50 90 51 91 59 92 52 93 53 94 57 95 60 96 54 97
REMARK SMILES IDX 55 98 58 99 56 100
REMARK H PARENT 17 5 10 16 21 34 80 53 48 64
REMARK Flexibility Score: inf
ROOT
ATOM      1  C   UNL A   1      43.093  21.276  25.882  1.00  0.00     0.117 C 
ENDROOT
BRANCH   1   2
ATOM      2  N   UNL A   1      42.371  20.008  26.010  1.00  0.00    -0.356 N 
ATOM      3  C   UNL A   1      41.058  19.652  25.897  1.00  0.00     0.220 C 
ATOM      4  O   UNL A   1      40.801  18.445  25.860  1.00  0.00    -0.275 OA
ATOM      5  H   UNL A   1      42.959  19.249  26.223  1.00  0.00     0.163 HD
BRANCH   3   6
ATOM      6  C   UNL A   1      39.937  20.663  25.831  1.00  0.00     0.112 C 
BRANCH   6   7
ATOM      7  C   UNL A   1      38.632  19.970  25.442  1.00  0.00     0.138 C 
BRANCH   7   8
ATOM      8  C   UNL A   1      37.609  21.053  25.319  1.00  0.00     0.308 C 
ATOM      9  N   UNL A   1      34.065  21.125  24.564  1.00  0.00    -0.216 N 
ATOM     10  C   UNL A   1      35.444  21.433  24.604  1.00  0.00     0.319 C 
ATOM     11  C   UNL A   1      33.440  22.211  25.395  1.00  0.00     0.212 C 
ATOM     12  N   UNL A   1      36.382  20.601  24.907  1.00  0.00    -0.204 N 
ATOM     13  S   UNL A   1      35.684  23.195  24.432  1.00  0.00    -0.029 SA
ATOM     14  C   UNL A   1      33.989  23.537  24.823  1.00  0.00     0.120 C 
ATOM     15  C   UNL A   1      32.001  22.597  25.500  1.00  0.00     0.188 C 
ATOM     16  H   UNL A   1      36.216  19.633  24.841  1.00  0.00     0.316 HD
ATOM     17  C   UNL A   1      33.688  24.595  25.870  1.00  0.00     0.156 C 
ATOM     18  S   UNL A   1      31.971  24.258  26.182  1.00  0.00     0.155 S 
ATOM     19  O   UNL A   1      37.862  22.152  25.811  1.00  0.00    -0.247 OA
ATOM     20  O   UNL A   1      31.165  25.101  25.314  1.00  0.00    -0.229 OA
ATOM     21  O   UNL A   1      31.749  24.186  27.603  1.00  0.00    -0.229 OA
BRANCH   9  22
ATOM     22  C   UNL A   1      33.704  19.812  24.196  1.00  0.00     0.132 A 
ATOM     23  C   UNL A   1      34.092  17.349  23.811  1.00  0.00     0.123 A 
ATOM     24  C   UNL A   1      32.957  17.256  23.040  1.00  0.00     0.047 A 
ATOM     25  C   UNL A   1      34.398  18.592  24.408  1.00  0.00     0.098 A 
ATOM     26  C   UNL A   1      32.189  18.399  22.839  1.00  0.00     0.008 A 
ATOM     27  C   UNL A   1      32.575  19.649  23.378  1.00  0.00     0.052 A 
BRANCH  23  28
ATOM     28  O   UNL A   1      34.748  16.169  24.054  1.00  0.00    -0.497 OA
ATOM     29  C   UNL A   1      34.976  15.791  25.412  1.00  0.00     0.278 C 
ENDBRANCH  23  28
ENDBRANCH   9  22
ENDBRANCH   7   8
ENDBRANCH   6   7
ENDBRANCH   3   6
ENDBRANCH   1   2
BRANCH   1  30
ATOM     30  C   UNL A   1      44.574  21.210  25.381  1.00  0.00     0.042 C 
BRANCH  30  31
ATOM     31  C   UNL A   1      44.928  22.238  24.279  1.00  0.00     0.118 C 
BRANCH  31  32
ATOM     32  N   UNL A   1      44.314  23.629  24.225  1.00  0.00    -0.352 N 
ATOM     33  C   UNL A   1      44.818  24.788  24.923  1.00  0.00     0.251 C 
ATOM     34  H   UNL A   1      43.509  23.748  23.672  1.00  0.00     0.163 HD
ATOM     35  O   UNL A   1      45.922  25.240  24.634  1.00  0.00    -0.269 OA
BRANCH  33  36
ATOM     36  C   UNL A   1      43.918  25.597  25.911  1.00  0.00     0.039 A 
ATOM     37  C   UNL A   1      42.856  25.035  26.648  1.00  0.00     0.014 A 
ATOM     38  C   UNL A   1      44.179  26.934  26.213  1.00  0.00     0.014 A 
ATOM     39  C   UNL A   1      42.240  25.730  27.757  1.00  0.00     0.010 A 
ATOM     40  C   UNL A   1      43.649  27.593  27.362  1.00  0.00     0.010 A 
ATOM     41  C   UNL A   1      42.666  27.007  28.178  1.00  0.00    -0.014 A 
BRANCH  41  42
ATOM     42  C   UNL A   1      41.988  27.825  29.279  1.00  0.00     0.031 A 
ATOM     43  C   UNL A   1      42.576  27.735  30.679  1.00  0.00     0.074 A 
ATOM     44  C   UNL A   1      40.865  28.584  29.161  1.00  0.00     0.049 A 
ATOM     45  N   UNL A   1      42.240  28.362  31.783  1.00  0.00    -0.248 NA
ATOM     46  C   UNL A   1      43.674  26.774  30.855  1.00  0.00     0.031 C 
ATOM     47  C   UNL A   1      40.059  28.753  27.957  1.00  0.00     0.029 A 
ATOM     48  N   UNL A   1      40.184  29.361  30.097  1.00  0.00    -0.354 N 
ATOM     49  C   UNL A   1      43.103  27.889  32.762  1.00  0.00     0.074 A 
ATOM     50  C   UNL A   1      43.889  26.839  32.156  1.00  0.00     0.031 C 
ATOM     51  C   UNL A   1      39.022  29.581  28.211  1.00  0.00     0.029 A 
ATOM     52  C   UNL A   1      39.072  30.022  29.605  1.00  0.00     0.049 A 
ATOM     53  H   UNL A   1      40.473  29.433  31.035  1.00  0.00     0.167 HD
ATOM     54  C   UNL A   1      43.291  28.307  34.037  1.00  0.00     0.037 A 
ATOM     55  C   UNL A   1      38.208  30.896  30.184  1.00  0.00     0.037 A 
ATOM     56  C   UNL A   1      42.522  29.322  34.700  1.00  0.00     0.049 A 
ATOM     57  C   UNL A   1      38.397  31.327  31.630  1.00  0.00     0.074 A 
ATOM     58  C   UNL A   1      42.675  29.819  35.984  1.00  0.00     0.029 A 
ATOM     59  N   UNL A   1      41.439  29.980  34.145  1.00  0.00    -0.354 N 
ATOM     60  N   UNL A   1      39.322  30.975  32.489  1.00  0.00    -0.248 NA
ATOM     61  C   UNL A   1      37.432  32.302  32.178  1.00  0.00     0.031 C 
ATOM     62  C   UNL A   1      41.650  30.738  36.225  1.00  0.00     0.029 A 
ATOM     63  C   UNL A   1      40.903  30.867  35.067  1.00  0.00     0.049 A 
ATOM     64  H   UNL A   1      41.099  29.839  33.232  1.00  0.00     0.167 HD
ATOM     65  C   UNL A   1      39.089  31.727  33.640  1.00  0.00     0.074 A 
ATOM     66  C   UNL A   1      37.936  32.556  33.377  1.00  0.00     0.031 C 
ATOM     67  C   UNL A   1      39.782  31.731  34.805  1.00  0.00     0.037 A 
BRANCH  54  68
ATOM     68  C   UNL A   1      44.416  27.659  34.793  1.00  0.00     0.064 A 
ATOM     69  C   UNL A   1      44.187  26.542  35.615  1.00  0.00     0.173 A 
ATOM     70  C   UNL A   1      45.721  28.164  34.718  1.00  0.00     0.173 A 
ATOM     71  F   UNL A   1      42.951  26.032  35.732  1.00  0.00    -0.203 F 
ATOM     72  C   UNL A   1      45.211  25.994  36.378  1.00  0.00     0.198 A 
ATOM     73  C   UNL A   1      46.752  27.586  35.453  1.00  0.00     0.198 A 
ATOM     74  F   UNL A   1      45.994  29.224  33.944  1.00  0.00    -0.203 F 
ATOM     75  F   UNL A   1      44.949  24.983  37.219  1.00  0.00    -0.200 F 
ATOM     76  C   UNL A   1      46.493  26.512  36.294  1.00  0.00     0.200 A 
ATOM     77  F   UNL A   1      47.994  28.078  35.361  1.00  0.00    -0.200 F 
ATOM     78  F   UNL A   1      47.479  25.987  37.033  1.00  0.00    -0.200 F 
ENDBRANCH  54  68
BRANCH  55  79
ATOM     79  C   UNL A   1      37.071  31.506  29.413  1.00  0.00     0.064 A 
ATOM     80  C   UNL A   1      37.053  32.882  29.116  1.00  0.00     0.173 A 
ATOM     81  C   UNL A   1      35.930  30.767  29.072  1.00  0.00     0.173 A 
ATOM     82  F   UNL A   1      38.091  33.656  29.467  1.00  0.00    -0.203 F 
ATOM     83  C   UNL A   1      35.934  33.493  28.543  1.00  0.00     0.198 A 
ATOM     84  C   UNL A   1      34.823  31.373  28.469  1.00  0.00     0.198 A 
ATOM     85  F   UNL A   1      35.872  29.457  29.350  1.00  0.00    -0.203 F 
ATOM     86  F   UNL A   1      35.919  34.819  28.351  1.00  0.00    -0.200 F 
ATOM     87  C   UNL A   1      34.820  32.736  28.217  1.00  0.00     0.200 A 
ATOM     88  F   UNL A   1      33.744  30.639  28.160  1.00  0.00    -0.200 F 
ATOM     89  F   UNL A   1      33.739  33.323  27.684  1.00  0.00    -0.200 F 
ENDBRANCH  55  79
BRANCH  67  90
ATOM     90  C   UNL A   1      39.396  32.721  35.872  1.00  0.00     0.064 A 
ATOM     91  C   UNL A   1      38.535  32.396  36.930  1.00  0.00     0.173 A 
ATOM     92  C   UNL A   1      39.955  34.012  35.865  1.00  0.00     0.173 A 
ATOM     93  F   UNL A   1      37.967  31.183  36.990  1.00  0.00    -0.203 F 
ATOM     94  C   UNL A   1      38.223  33.330  37.918  1.00  0.00     0.198 A 
ATOM     95  C   UNL A   1      39.671  34.930  36.873  1.00  0.00     0.198 A 
ATOM     96  F   UNL A   1      40.797  34.379  34.886  1.00  0.00    -0.203 F 
ATOM     97  F   UNL A   1      37.359  33.011  38.891  1.00  0.00    -0.200 F 
ATOM     98  C   UNL A   1      38.799  34.592  37.893  1.00  0.00     0.200 A 
ATOM     99  F   UNL A   1      40.246  36.141  36.857  1.00  0.00    -0.200 F 
ATOM    100  F   UNL A   1      38.507  35.483  38.851  1.00  0.00    -0.200 F 
ENDBRANCH  67  90
ENDBRANCH  41  42
ENDBRANCH  33  36
ENDBRANCH  31  32
ENDBRANCH  30  31
ENDBRANCH   1  30
TORSDOF 14
ENDMDL
