MODEL 1
REMARK VINA RESULT:     -13.6      0.000      0.000
REMARK SMILES O=C(NCCCNC(=O)[C@@H](Cc1ccc(F)cc1)NC(=O)c1ccn(C2CCCC2)n1)c1ccc(-c2c3nc(c(-c4c(F)c(F)c(F)c(F)c4F)c4ccc([nH]4)c(-c4c(F)c(F)c(F)c(F)c4F)c4nc(c(-c5c(F)c(F)c(F)c(F)c5F)c5ccc2[nH]5)C=C4)C=C3)cc1
REMARK SMILES IDX 5 1 4 2 3 3 1 4 2 5 32 7 33 8 94 9 34 10 93 11 35 12 36 13
REMARK SMILES IDX 37 14 87 15 38 16 92 17 86 18 88 19 39 20 91 21 85 22 84 23
REMARK SMILES IDX 40 25 72 26 52 27 71 28 53 29 56 30 70 31 89 32 54 33 55 34
REMARK SMILES IDX 69 36 90 37 57 38 41 39 42 40 50 41 43 42 44 43 48 44 51 45
REMARK SMILES IDX 45 46 46 47 49 48 47 49 73 50 74 51 82 52 75 53 76 54 80 55
REMARK SMILES IDX 83 56 77 57 78 58 81 59 79 60 58 61 59 62 67 63 60 64 61 65
REMARK SMILES IDX 65 66 68 67 62 68 63 69 66 70 64 71 6 72 7 73 8 74 9 76
REMARK SMILES IDX 10 77 11 78 12 79 13 80 18 81 14 82 17 83 15 84 16 85 19 86
REMARK SMILES IDX 20 87 21 89 22 90 23 91 31 92 24 93 25 94 26 95 27 96 30 97
REMARK SMILES IDX 28 98 29 99
REMARK H PARENT 3 6 88 24 56 35 7 75 19 88
REMARK Flexibility Score: inf
ROOT
ATOM      1  C   UNL A   1      35.914  21.669  24.531  1.00  0.00     0.042 C 
ENDROOT
BRANCH   1   2
ATOM      2  C   UNL A   1      37.233  22.396  24.758  1.00  0.00     0.118 C 
BRANCH   2   3
ATOM      3  N   UNL A   1      38.254  21.608  25.409  1.00  0.00    -0.352 N 
ATOM      4  O   UNL A   1      39.834  20.866  26.749  1.00  0.00    -0.269 OA
ATOM      5  C   UNL A   1      39.224  21.857  26.338  1.00  0.00     0.251 C 
ATOM      6  H   UNL A   1      38.251  20.670  25.111  1.00  0.00     0.163 HD
BRANCH   5   7
ATOM      7  C   UNL A   1      39.628  23.198  26.851  1.00  0.00     0.039 A 
ATOM      8  C   UNL A   1      38.957  24.408  26.651  1.00  0.00     0.014 A 
ATOM      9  C   UNL A   1      40.798  23.211  27.634  1.00  0.00     0.014 A 
ATOM     10  C   UNL A   1      39.470  25.599  27.181  1.00  0.00     0.010 A 
ATOM     11  C   UNL A   1      41.304  24.390  28.172  1.00  0.00     0.010 A 
ATOM     12  C   UNL A   1      40.652  25.597  27.928  1.00  0.00    -0.014 A 
BRANCH  12  13
ATOM     13  C   UNL A   1      41.089  26.825  28.610  1.00  0.00     0.031 A 
ATOM     14  C   UNL A   1      42.325  27.454  28.056  1.00  0.00     0.074 A 
ATOM     15  C   UNL A   1      40.324  27.505  29.495  1.00  0.00     0.049 A 
ATOM     16  N   UNL A   1      43.383  27.845  28.690  1.00  0.00    -0.248 NA
ATOM     17  C   UNL A   1      42.408  27.638  26.596  1.00  0.00     0.031 C 
ATOM     18  C   UNL A   1      38.948  27.176  29.878  1.00  0.00     0.029 A 
ATOM     19  N   UNL A   1      40.547  28.701  30.132  1.00  0.00    -0.354 N 
ATOM     20  C   UNL A   1      44.190  28.476  27.742  1.00  0.00     0.074 A 
ATOM     21  C   UNL A   1      43.604  28.209  26.457  1.00  0.00     0.031 C 
ATOM     22  C   UNL A   1      38.387  28.247  30.478  1.00  0.00     0.029 A 
ATOM     23  C   UNL A   1      39.388  29.290  30.630  1.00  0.00     0.049 A 
ATOM     24  H   UNL A   1      41.441  29.103  30.226  1.00  0.00     0.167 HD
ATOM     25  C   UNL A   1      45.130  29.387  28.112  1.00  0.00     0.037 A 
ATOM     26  C   UNL A   1      39.227  30.560  31.080  1.00  0.00     0.037 A 
ATOM     27  C   UNL A   1      45.431  29.299  29.513  1.00  0.00     0.049 A 
ATOM     28  C   UNL A   1      40.552  31.099  31.461  1.00  0.00     0.074 A 
ATOM     29  C   UNL A   1      46.139  28.467  30.349  1.00  0.00     0.029 A 
ATOM     30  N   UNL A   1      44.653  30.101  30.297  1.00  0.00    -0.354 N 
ATOM     31  N   UNL A   1      41.244  30.689  32.486  1.00  0.00    -0.248 NA
ATOM     32  C   UNL A   1      41.261  31.990  30.546  1.00  0.00     0.031 C 
ATOM     33  C   UNL A   1      45.621  28.685  31.660  1.00  0.00     0.029 A 
ATOM     34  C   UNL A   1      44.615  29.646  31.584  1.00  0.00     0.049 A 
ATOM     35  H   UNL A   1      44.181  30.902  29.977  1.00  0.00     0.167 HD
ATOM     36  C   UNL A   1      42.554  30.901  32.113  1.00  0.00     0.074 A 
ATOM     37  C   UNL A   1      42.496  31.877  31.037  1.00  0.00     0.031 C 
ATOM     38  C   UNL A   1      43.519  30.002  32.454  1.00  0.00     0.037 A 
BRANCH  25  39
ATOM     39  C   UNL A   1      45.416  30.680  27.365  1.00  0.00     0.064 A 
ATOM     40  C   UNL A   1      44.536  31.783  27.346  1.00  0.00     0.173 A 
ATOM     41  C   UNL A   1      46.748  30.964  26.981  1.00  0.00     0.173 A 
ATOM     42  F   UNL A   1      43.271  31.691  27.770  1.00  0.00    -0.203 F 
ATOM     43  C   UNL A   1      44.957  33.069  27.007  1.00  0.00     0.198 A 
ATOM     44  C   UNL A   1      47.177  32.263  26.694  1.00  0.00     0.198 A 
ATOM     45  F   UNL A   1      47.678  29.997  26.979  1.00  0.00    -0.203 F 
ATOM     46  F   UNL A   1      44.081  34.083  27.057  1.00  0.00    -0.200 F 
ATOM     47  C   UNL A   1      46.282  33.317  26.716  1.00  0.00     0.200 A 
ATOM     48  F   UNL A   1      48.476  32.503  26.470  1.00  0.00    -0.200 F 
ATOM     49  F   UNL A   1      46.702  34.572  26.508  1.00  0.00    -0.200 F 
ENDBRANCH  25  39
BRANCH  26  50
ATOM     50  C   UNL A   1      38.021  31.428  31.053  1.00  0.00     0.064 A 
ATOM     51  C   UNL A   1      37.230  31.636  32.199  1.00  0.00     0.173 A 
ATOM     52  C   UNL A   1      37.465  31.853  29.832  1.00  0.00     0.173 A 
ATOM     53  F   UNL A   1      37.631  31.204  33.403  1.00  0.00    -0.203 F 
ATOM     54  C   UNL A   1      35.957  32.205  32.127  1.00  0.00     0.198 A 
ATOM     55  C   UNL A   1      36.181  32.407  29.760  1.00  0.00     0.198 A 
ATOM     56  F   UNL A   1      38.128  31.669  28.683  1.00  0.00    -0.203 F 
ATOM     57  F   UNL A   1      35.225  32.334  33.243  1.00  0.00    -0.200 F 
ATOM     58  C   UNL A   1      35.425  32.571  30.906  1.00  0.00     0.200 A 
ATOM     59  F   UNL A   1      35.657  32.721  28.567  1.00  0.00    -0.200 F 
ATOM     60  F   UNL A   1      34.172  33.040  30.831  1.00  0.00    -0.200 F 
ENDBRANCH  26  50
BRANCH  38  61
ATOM     61  C   UNL A   1      43.303  29.191  33.689  1.00  0.00     0.064 A 
ATOM     62  C   UNL A   1      43.896  29.643  34.876  1.00  0.00     0.173 A 
ATOM     63  C   UNL A   1      42.604  27.974  33.728  1.00  0.00     0.173 A 
ATOM     64  F   UNL A   1      44.609  30.781  34.881  1.00  0.00    -0.203 F 
ATOM     65  C   UNL A   1      43.792  28.915  36.055  1.00  0.00     0.198 A 
ATOM     66  C   UNL A   1      42.468  27.269  34.921  1.00  0.00     0.198 A 
ATOM     67  F   UNL A   1      42.082  27.439  32.616  1.00  0.00    -0.203 F 
ATOM     68  F   UNL A   1      44.410  29.350  37.162  1.00  0.00    -0.200 F 
ATOM     69  C   UNL A   1      43.067  27.736  36.081  1.00  0.00     0.200 A 
ATOM     70  F   UNL A   1      41.772  26.122  34.946  1.00  0.00    -0.200 F 
ATOM     71  F   UNL A   1      42.964  27.038  37.220  1.00  0.00    -0.200 F 
ENDBRANCH  38  61
ENDBRANCH  12  13
ENDBRANCH   5   7
ENDBRANCH   2   3
ENDBRANCH   1   2
BRANCH   1  72
ATOM     72  C   UNL A   1      35.313  20.968  25.749  1.00  0.00     0.117 C 
BRANCH  72  73
ATOM     73  N   UNL A   1      34.231  20.080  25.370  1.00  0.00    -0.354 N 
ATOM     74  C   UNL A   1      32.903  20.277  25.158  1.00  0.00     0.242 C 
ATOM     75  H   UNL A   1      34.515  19.147  25.239  1.00  0.00     0.163 HD
ATOM     76  O   UNL A   1      32.210  19.251  25.139  1.00  0.00    -0.273 OA
BRANCH  74  77
ATOM     77  C   UNL A   1      32.210  21.657  25.043  1.00  0.00     0.176 C 
BRANCH  77  78
ATOM     78  C   UNL A   1      31.856  22.095  23.603  1.00  0.00     0.070 C 
BRANCH  78  79
ATOM     79  C   UNL A   1      32.057  23.532  23.176  1.00  0.00    -0.045 A 
ATOM     80  C   UNL A   1      33.307  24.018  22.760  1.00  0.00     0.007 A 
ATOM     81  C   UNL A   1      30.950  24.398  23.117  1.00  0.00     0.007 A 
ATOM     82  C   UNL A   1      33.465  25.357  22.392  1.00  0.00     0.039 A 
ATOM     83  C   UNL A   1      31.105  25.733  22.737  1.00  0.00     0.039 A 
ATOM     84  C   UNL A   1      32.364  26.203  22.391  1.00  0.00     0.123 A 
ATOM     85  F   UNL A   1      32.518  27.489  22.055  1.00  0.00    -0.207 F 
ENDBRANCH  78  79
ENDBRANCH  77  78
BRANCH  77  86
ATOM     86  N   UNL A   1      31.155  21.921  26.020  1.00  0.00    -0.339 N 
ATOM     87  C   UNL A   1      30.904  23.055  26.753  1.00  0.00     0.272 C 
ATOM     88  H   UNL A   1      30.533  21.174  26.177  1.00  0.00     0.164 HD
ATOM     89  O   UNL A   1      30.001  22.978  27.606  1.00  0.00    -0.267 OA
BRANCH  87  90
ATOM     90  C   UNL A   1      31.676  24.285  26.532  1.00  0.00     0.150 A 
ATOM     91  C   UNL A   1      33.081  24.445  26.367  1.00  0.00     0.056 A 
ATOM     92  N   UNL A   1      31.061  25.478  26.434  1.00  0.00    -0.167 NA
ATOM     93  C   UNL A   1      33.288  25.797  26.219  1.00  0.00     0.110 A 
ATOM     94  N   UNL A   1      32.051  26.370  26.254  1.00  0.00    -0.269 N 
BRANCH  94  95
ATOM     95  C   UNL A   1      31.752  27.780  26.114  1.00  0.00     0.107 C 
ATOM     96  C   UNL A   1      31.768  28.554  27.431  1.00  0.00     0.027 C 
ATOM     97  C   UNL A   1      32.746  28.554  25.247  1.00  0.00     0.027 C 
ATOM     98  C   UNL A   1      31.816  30.009  26.985  1.00  0.00     0.002 C 
ATOM     99  C   UNL A   1      32.571  30.016  25.657  1.00  0.00     0.002 C 
ENDBRANCH  94  95
ENDBRANCH  87  90
ENDBRANCH  77  86
ENDBRANCH  74  77
ENDBRANCH  72  73
ENDBRANCH   1  72
TORSDOF 15
ENDMDL
MODEL 2
REMARK VINA RESULT:     -13.4      3.225      8.312
REMARK SMILES O=C(NCCCNC(=O)[C@@H](Cc1ccc(F)cc1)NC(=O)c1ccn(C2CCCC2)n1)c1ccc(-c2c3nc(c(-c4c(F)c(F)c(F)c(F)c4F)c4ccc([nH]4)c(-c4c(F)c(F)c(F)c(F)c4F)c4nc(c(-c5c(F)c(F)c(F)c(F)c5F)c5ccc2[nH]5)C=C4)C=C3)cc1
REMARK SMILES IDX 5 1 4 2 3 3 1 4 2 5 32 7 33 8 94 9 34 10 93 11 35 12 36 13
REMARK SMILES IDX 37 14 87 15 38 16 92 17 86 18 88 19 39 20 91 21 85 22 84 23
REMARK SMILES IDX 40 25 72 26 52 27 71 28 53 29 56 30 70 31 89 32 54 33 55 34
REMARK SMILES IDX 69 36 90 37 57 38 41 39 42 40 50 41 43 42 44 43 48 44 51 45
REMARK SMILES IDX 45 46 46 47 49 48 47 49 73 50 74 51 82 52 75 53 76 54 80 55
REMARK SMILES IDX 83 56 77 57 78 58 81 59 79 60 58 61 59 62 67 63 60 64 61 65
REMARK SMILES IDX 65 66 68 67 62 68 63 69 66 70 64 71 6 72 7 73 8 74 9 76
REMARK SMILES IDX 10 77 11 78 12 79 13 80 18 81 14 82 17 83 15 84 16 85 19 86
REMARK SMILES IDX 20 87 21 89 22 90 23 91 31 92 24 93 25 94 26 95 27 96 30 97
REMARK SMILES IDX 28 98 29 99
REMARK H PARENT 3 6 88 24 56 35 7 75 19 88
REMARK Flexibility Score: inf
ROOT
ATOM      1  C   UNL A   1      32.748  29.700  25.068  1.00  0.00     0.042 C 
ENDROOT
BRANCH   1   2
ATOM      2  C   UNL A   1      33.471  29.537  26.399  1.00  0.00     0.118 C 
BRANCH   2   3
ATOM      3  N   UNL A   1      33.616  30.755  27.161  1.00  0.00    -0.352 N 
ATOM      4  O   UNL A   1      34.400  32.486  28.272  1.00  0.00    -0.269 OA
ATOM      5  C   UNL A   1      34.636  31.352  27.846  1.00  0.00     0.251 C 
ATOM      6  H   UNL A   1      32.783  31.278  27.197  1.00  0.00     0.163 HD
BRANCH   5   7
ATOM      7  C   UNL A   1      35.963  30.745  28.155  1.00  0.00     0.039 A 
ATOM      8  C   UNL A   1      36.322  29.402  28.014  1.00  0.00     0.014 A 
ATOM      9  C   UNL A   1      36.943  31.648  28.613  1.00  0.00     0.014 A 
ATOM     10  C   UNL A   1      37.609  28.971  28.365  1.00  0.00     0.010 A 
ATOM     11  C   UNL A   1      38.224  31.226  28.951  1.00  0.00     0.010 A 
ATOM     12  C   UNL A   1      38.558  29.877  28.849  1.00  0.00    -0.014 A 
BRANCH  12  13
ATOM     13  C   UNL A   1      39.946  29.440  29.060  1.00  0.00     0.031 A 
ATOM     14  C   UNL A   1      40.363  29.316  30.488  1.00  0.00     0.074 A 
ATOM     15  C   UNL A   1      40.729  28.932  28.081  1.00  0.00     0.049 A 
ATOM     16  N   UNL A   1      41.418  29.797  31.064  1.00  0.00    -0.248 NA
ATOM     17  C   UNL A   1      39.468  28.589  31.405  1.00  0.00     0.031 C 
ATOM     18  C   UNL A   1      40.327  28.686  26.694  1.00  0.00     0.029 A 
ATOM     19  N   UNL A   1      41.994  28.397  28.138  1.00  0.00    -0.354 N 
ATOM     20  C   UNL A   1      41.409  29.296  32.366  1.00  0.00     0.074 A 
ATOM     21  C   UNL A   1      40.131  28.669  32.559  1.00  0.00     0.031 C 
ATOM     22  C   UNL A   1      41.218  27.854  26.114  1.00  0.00     0.029 A 
ATOM     23  C   UNL A   1      42.311  27.603  27.040  1.00  0.00     0.049 A 
ATOM     24  H   UNL A   1      42.614  28.559  28.885  1.00  0.00     0.167 HD
ATOM     25  C   UNL A   1      42.554  29.210  33.096  1.00  0.00     0.037 A 
ATOM     26  C   UNL A   1      43.355  26.747  26.905  1.00  0.00     0.037 A 
ATOM     27  C   UNL A   1      43.599  30.023  32.539  1.00  0.00     0.049 A 
ATOM     28  C   UNL A   1      44.412  27.135  27.866  1.00  0.00     0.074 A 
ATOM     29  C   UNL A   1      43.925  31.358  32.482  1.00  0.00     0.029 A 
ATOM     30  N   UNL A   1      44.381  29.372  31.630  1.00  0.00    -0.354 N 
ATOM     31  N   UNL A   1      45.126  28.221  27.772  1.00  0.00    -0.248 NA
ATOM     32  C   UNL A   1      44.553  26.402  29.121  1.00  0.00     0.031 C 
ATOM     33  C   UNL A   1      44.813  31.504  31.375  1.00  0.00     0.029 A 
ATOM     34  C   UNL A   1      45.003  30.253  30.793  1.00  0.00     0.049 A 
ATOM     35  H   UNL A   1      44.483  28.394  31.584  1.00  0.00     0.167 HD
ATOM     36  C   UNL A   1      45.441  28.529  29.079  1.00  0.00     0.074 A 
ATOM     37  C   UNL A   1      45.257  27.294  29.822  1.00  0.00     0.031 C 
ATOM     38  C   UNL A   1      45.463  29.826  29.492  1.00  0.00     0.037 A 
BRANCH  25  39
ATOM     39  C   UNL A   1      42.916  28.039  33.995  1.00  0.00     0.064 A 
ATOM     40  C   UNL A   1      43.369  26.792  33.511  1.00  0.00     0.173 A 
ATOM     41  C   UNL A   1      43.177  28.286  35.363  1.00  0.00     0.173 A 
ATOM     42  F   UNL A   1      43.277  26.455  32.220  1.00  0.00    -0.203 F 
ATOM     43  C   UNL A   1      44.057  25.885  34.315  1.00  0.00     0.198 A 
ATOM     44  C   UNL A   1      43.914  27.396  36.151  1.00  0.00     0.198 A 
ATOM     45  F   UNL A   1      42.809  29.446  35.929  1.00  0.00    -0.203 F 
ATOM     46  F   UNL A   1      44.504  24.739  33.781  1.00  0.00    -0.200 F 
ATOM     47  C   UNL A   1      44.361  26.199  35.623  1.00  0.00     0.200 A 
ATOM     48  F   UNL A   1      44.254  27.737  37.401  1.00  0.00    -0.200 F 
ATOM     49  F   UNL A   1      45.123  25.375  36.353  1.00  0.00    -0.200 F 
ENDBRANCH  25  39
BRANCH  26  50
ATOM     50  C   UNL A   1      43.455  25.492  26.116  1.00  0.00     0.064 A 
ATOM     51  C   UNL A   1      42.612  24.391  26.363  1.00  0.00     0.173 A 
ATOM     52  C   UNL A   1      44.564  25.247  25.285  1.00  0.00     0.173 A 
ATOM     53  F   UNL A   1      41.569  24.492  27.198  1.00  0.00    -0.203 F 
ATOM     54  C   UNL A   1      42.875  23.125  25.836  1.00  0.00     0.198 A 
ATOM     55  C   UNL A   1      44.836  23.973  24.773  1.00  0.00     0.198 A 
ATOM     56  F   UNL A   1      45.441  26.225  25.018  1.00  0.00    -0.203 F 
ATOM     57  F   UNL A   1      42.069  22.098  26.144  1.00  0.00    -0.200 F 
ATOM     58  C   UNL A   1      43.997  22.911  25.060  1.00  0.00     0.200 A 
ATOM     59  F   UNL A   1      45.948  23.767  24.054  1.00  0.00    -0.200 F 
ATOM     60  F   UNL A   1      44.291  21.678  24.625  1.00  0.00    -0.200 F 
ENDBRANCH  26  50
BRANCH  38  61
ATOM     61  C   UNL A   1      45.768  30.872  28.471  1.00  0.00     0.064 A 
ATOM     62  C   UNL A   1      47.094  31.313  28.369  1.00  0.00     0.173 A 
ATOM     63  C   UNL A   1      44.808  31.490  27.655  1.00  0.00     0.173 A 
ATOM     64  F   UNL A   1      48.044  30.782  29.156  1.00  0.00    -0.203 F 
ATOM     65  C   UNL A   1      47.450  32.325  27.485  1.00  0.00     0.198 A 
ATOM     66  C   UNL A   1      45.176  32.475  26.742  1.00  0.00     0.198 A 
ATOM     67  F   UNL A   1      43.509  31.178  27.757  1.00  0.00    -0.203 F 
ATOM     68  F   UNL A   1      48.718  32.758  27.444  1.00  0.00    -0.200 F 
ATOM     69  C   UNL A   1      46.494  32.896  26.662  1.00  0.00     0.200 A 
ATOM     70  F   UNL A   1      44.249  33.034  25.949  1.00  0.00    -0.200 F 
ATOM     71  F   UNL A   1      46.840  33.868  25.807  1.00  0.00    -0.200 F 
ENDBRANCH  38  61
ENDBRANCH  12  13
ENDBRANCH   5   7
ENDBRANCH   2   3
ENDBRANCH   1   2
BRANCH   1  72
ATOM     72  C   UNL A   1      31.226  29.562  25.107  1.00  0.00     0.117 C 
BRANCH  72  73
ATOM     73  N   UNL A   1      30.651  29.655  23.779  1.00  0.00    -0.354 N 
ATOM     74  C   UNL A   1      30.626  28.803  22.721  1.00  0.00     0.242 C 
ATOM     75  H   UNL A   1      30.185  30.505  23.610  1.00  0.00     0.163 HD
ATOM     76  O   UNL A   1      30.309  29.312  21.636  1.00  0.00    -0.273 OA
BRANCH  74  77
ATOM     77  C   UNL A   1      31.047  27.313  22.760  1.00  0.00     0.176 C 
BRANCH  77  78
ATOM     78  C   UNL A   1      30.052  26.369  23.473  1.00  0.00     0.070 C 
BRANCH  78  79
ATOM     79  C   UNL A   1      30.560  25.325  24.444  1.00  0.00    -0.045 A 
ATOM     80  C   UNL A   1      30.704  23.976  24.079  1.00  0.00     0.007 A 
ATOM     81  C   UNL A   1      30.977  25.718  25.729  1.00  0.00     0.007 A 
ATOM     82  C   UNL A   1      31.155  23.032  25.005  1.00  0.00     0.039 A 
ATOM     83  C   UNL A   1      31.440  24.776  26.650  1.00  0.00     0.039 A 
ATOM     84  C   UNL A   1      31.512  23.440  26.283  1.00  0.00     0.123 A 
ATOM     85  F   UNL A   1      31.928  22.533  27.175  1.00  0.00    -0.207 F 
ENDBRANCH  78  79
ENDBRANCH  77  78
BRANCH  77  86
ATOM     86  N   UNL A   1      31.588  26.774  21.513  1.00  0.00    -0.339 N 
ATOM     87  C   UNL A   1      32.688  25.978  21.309  1.00  0.00     0.272 C 
ATOM     88  H   UNL A   1      31.090  27.019  20.699  1.00  0.00     0.164 HD
ATOM     89  O   UNL A   1      32.997  25.750  20.125  1.00  0.00    -0.267 OA
BRANCH  87  90
ATOM     90  C   UNL A   1      33.451  25.436  22.440  1.00  0.00     0.150 A 
ATOM     91  C   UNL A   1      33.834  26.077  23.653  1.00  0.00     0.056 A 
ATOM     92  N   UNL A   1      33.876  24.159  22.440  1.00  0.00    -0.167 NA
ATOM     93  C   UNL A   1      34.556  25.142  24.357  1.00  0.00     0.110 A 
ATOM     94  N   UNL A   1      34.543  24.010  23.597  1.00  0.00    -0.269 N 
BRANCH  94  95
ATOM     95  C   UNL A   1      35.154  22.740  23.934  1.00  0.00     0.107 C 
ATOM     96  C   UNL A   1      36.664  22.696  23.705  1.00  0.00     0.027 C 
ATOM     97  C   UNL A   1      35.015  22.342  25.404  1.00  0.00     0.027 C 
ATOM     98  C   UNL A   1      37.100  21.454  24.472  1.00  0.00     0.002 C 
ATOM     99  C   UNL A   1      36.126  21.320  25.641  1.00  0.00     0.002 C 
ENDBRANCH  94  95
ENDBRANCH  87  90
ENDBRANCH  77  86
ENDBRANCH  74  77
ENDBRANCH  72  73
ENDBRANCH   1  72
TORSDOF 15
ENDMDL
MODEL 3
REMARK VINA RESULT:     -13.4      1.672      2.532
REMARK SMILES O=C(NCCCNC(=O)[C@@H](Cc1ccc(F)cc1)NC(=O)c1ccn(C2CCCC2)n1)c1ccc(-c2c3nc(c(-c4c(F)c(F)c(F)c(F)c4F)c4ccc([nH]4)c(-c4c(F)c(F)c(F)c(F)c4F)c4nc(c(-c5c(F)c(F)c(F)c(F)c5F)c5ccc2[nH]5)C=C4)C=C3)cc1
REMARK SMILES IDX 5 1 4 2 3 3 1 4 2 5 32 7 33 8 94 9 34 10 93 11 35 12 36 13
REMARK SMILES IDX 37 14 87 15 38 16 92 17 86 18 88 19 39 20 91 21 85 22 84 23
REMARK SMILES IDX 40 25 72 26 52 27 71 28 53 29 56 30 70 31 89 32 54 33 55 34
REMARK SMILES IDX 69 36 90 37 57 38 41 39 42 40 50 41 43 42 44 43 48 44 51 45
REMARK SMILES IDX 45 46 46 47 49 48 47 49 73 50 74 51 82 52 75 53 76 54 80 55
REMARK SMILES IDX 83 56 77 57 78 58 81 59 79 60 58 61 59 62 67 63 60 64 61 65
REMARK SMILES IDX 65 66 68 67 62 68 63 69 66 70 64 71 6 72 7 73 8 74 9 76
REMARK SMILES IDX 10 77 11 78 12 79 13 80 18 81 14 82 17 83 15 84 16 85 19 86
REMARK SMILES IDX 20 87 21 89 22 90 23 91 31 92 24 93 25 94 26 95 27 96 30 97
REMARK SMILES IDX 28 98 29 99
REMARK H PARENT 3 6 88 24 56 35 7 75 19 88
REMARK Flexibility Score: inf
ROOT
ATOM      1  C   UNL A   1      35.662  21.260  25.221  1.00  0.00     0.042 C 
ENDROOT
BRANCH   1   2
ATOM      2  C   UNL A   1      36.845  22.176  25.507  1.00  0.00     0.118 C 
BRANCH   2   3
ATOM      3  N   UNL A   1      38.105  21.495  25.694  1.00  0.00    -0.352 N 
ATOM      4  O   UNL A   1      40.114  20.886  26.356  1.00  0.00    -0.269 OA
ATOM      5  C   UNL A   1      39.295  21.807  26.287  1.00  0.00     0.251 C 
ATOM      6  H   UNL A   1      38.107  20.593  25.300  1.00  0.00     0.163 HD
BRANCH   5   7
ATOM      7  C   UNL A   1      39.696  23.148  26.804  1.00  0.00     0.039 A 
ATOM      8  C   UNL A   1      39.037  24.361  26.585  1.00  0.00     0.014 A 
ATOM      9  C   UNL A   1      40.849  23.157  27.613  1.00  0.00     0.014 A 
ATOM     10  C   UNL A   1      39.546  25.551  27.122  1.00  0.00     0.010 A 
ATOM     11  C   UNL A   1      41.350  24.335  28.157  1.00  0.00     0.010 A 
ATOM     12  C   UNL A   1      40.711  25.545  27.896  1.00  0.00    -0.014 A 
BRANCH  12  13
ATOM     13  C   UNL A   1      41.140  26.773  28.582  1.00  0.00     0.031 A 
ATOM     14  C   UNL A   1      42.377  27.407  28.037  1.00  0.00     0.074 A 
ATOM     15  C   UNL A   1      40.368  27.448  29.464  1.00  0.00     0.049 A 
ATOM     16  N   UNL A   1      43.430  27.800  28.678  1.00  0.00    -0.248 NA
ATOM     17  C   UNL A   1      42.467  27.594  26.578  1.00  0.00     0.031 C 
ATOM     18  C   UNL A   1      38.991  27.114  29.839  1.00  0.00     0.029 A 
ATOM     19  N   UNL A   1      40.584  28.643  30.106  1.00  0.00    -0.354 N 
ATOM     20  C   UNL A   1      44.240  28.435  27.736  1.00  0.00     0.074 A 
ATOM     21  C   UNL A   1      43.663  28.169  26.447  1.00  0.00     0.031 C 
ATOM     22  C   UNL A   1      38.423  28.181  30.438  1.00  0.00     0.029 A 
ATOM     23  C   UNL A   1      39.420  29.227  30.599  1.00  0.00     0.049 A 
ATOM     24  H   UNL A   1      41.475  29.048  30.205  1.00  0.00     0.167 HD
ATOM     25  C   UNL A   1      45.176  29.348  28.113  1.00  0.00     0.037 A 
ATOM     26  C   UNL A   1      39.252  30.495  31.050  1.00  0.00     0.037 A 
ATOM     27  C   UNL A   1      45.469  29.258  29.516  1.00  0.00     0.049 A 
ATOM     28  C   UNL A   1      40.573  31.038  31.440  1.00  0.00     0.074 A 
ATOM     29  C   UNL A   1      46.175  28.426  30.353  1.00  0.00     0.029 A 
ATOM     30  N   UNL A   1      44.684  30.056  30.297  1.00  0.00    -0.354 N 
ATOM     31  N   UNL A   1      41.260  30.628  32.468  1.00  0.00    -0.248 NA
ATOM     32  C   UNL A   1      41.284  31.934  30.532  1.00  0.00     0.031 C 
ATOM     33  C   UNL A   1      45.648  28.640  31.663  1.00  0.00     0.029 A 
ATOM     34  C   UNL A   1      44.641  29.597  31.583  1.00  0.00     0.049 A 
ATOM     35  H   UNL A   1      44.211  30.856  29.976  1.00  0.00     0.167 HD
ATOM     36  C   UNL A   1      42.572  30.844  32.103  1.00  0.00     0.074 A 
ATOM     37  C   UNL A   1      42.517  31.823  31.029  1.00  0.00     0.031 C 
ATOM     38  C   UNL A   1      43.538  29.948  32.447  1.00  0.00     0.037 A 
BRANCH  25  39
ATOM     39  C   UNL A   1      45.462  30.644  27.371  1.00  0.00     0.064 A 
ATOM     40  C   UNL A   1      44.566  31.734  27.325  1.00  0.00     0.173 A 
ATOM     41  C   UNL A   1      46.799  30.947  27.021  1.00  0.00     0.173 A 
ATOM     42  F   UNL A   1      43.292  31.623  27.717  1.00  0.00    -0.203 F 
ATOM     43  C   UNL A   1      44.976  33.025  26.995  1.00  0.00     0.198 A 
ATOM     44  C   UNL A   1      47.215  32.252  26.742  1.00  0.00     0.198 A 
ATOM     45  F   UNL A   1      47.743  29.994  27.047  1.00  0.00    -0.203 F 
ATOM     46  F   UNL A   1      44.084  34.026  27.019  1.00  0.00    -0.200 F 
ATOM     47  C   UNL A   1      46.304  33.292  26.738  1.00  0.00     0.200 A 
ATOM     48  F   UNL A   1      48.516  32.511  26.553  1.00  0.00    -0.200 F 
ATOM     49  F   UNL A   1      46.711  34.553  26.539  1.00  0.00    -0.200 F 
ENDBRANCH  25  39
BRANCH  26  50
ATOM     50  C   UNL A   1      38.044  31.360  31.019  1.00  0.00     0.064 A 
ATOM     51  C   UNL A   1      37.284  31.616  32.176  1.00  0.00     0.173 A 
ATOM     52  C   UNL A   1      37.453  31.731  29.796  1.00  0.00     0.173 A 
ATOM     53  F   UNL A   1      37.718  31.237  33.386  1.00  0.00    -0.203 F 
ATOM     54  C   UNL A   1      36.008  32.180  32.114  1.00  0.00     0.198 A 
ATOM     55  C   UNL A   1      36.167  32.278  29.735  1.00  0.00     0.198 A 
ATOM     56  F   UNL A   1      38.086  31.497  28.638  1.00  0.00    -0.203 F 
ATOM     57  F   UNL A   1      35.305  32.356  33.242  1.00  0.00    -0.200 F 
ATOM     58  C   UNL A   1      35.441  32.491  30.893  1.00  0.00     0.200 A 
ATOM     59  F   UNL A   1      35.609  32.539  28.544  1.00  0.00    -0.200 F 
ATOM     60  F   UNL A   1      34.185  32.954  30.832  1.00  0.00    -0.200 F 
ENDBRANCH  26  50
BRANCH  38  61
ATOM     61  C   UNL A   1      43.317  29.134  33.679  1.00  0.00     0.064 A 
ATOM     62  C   UNL A   1      43.920  29.573  34.866  1.00  0.00     0.173 A 
ATOM     63  C   UNL A   1      42.606  27.925  33.715  1.00  0.00     0.173 A 
ATOM     64  F   UNL A   1      44.646  30.703  34.874  1.00  0.00    -0.203 F 
ATOM     65  C   UNL A   1      43.813  28.841  36.042  1.00  0.00     0.198 A 
ATOM     66  C   UNL A   1      42.466  27.215  34.905  1.00  0.00     0.198 A 
ATOM     67  F   UNL A   1      42.074  27.401  32.603  1.00  0.00    -0.203 F 
ATOM     68  F   UNL A   1      44.439  29.264  37.148  1.00  0.00    -0.200 F 
ATOM     69  C   UNL A   1      43.075  27.669  36.065  1.00  0.00     0.200 A 
ATOM     70  F   UNL A   1      41.758  26.076  34.928  1.00  0.00    -0.200 F 
ATOM     71  F   UNL A   1      42.968  26.967  37.201  1.00  0.00    -0.200 F 
ENDBRANCH  38  61
ENDBRANCH  12  13
ENDBRANCH   5   7
ENDBRANCH   2   3
ENDBRANCH   1   2
BRANCH   1  72
ATOM     72  C   UNL A   1      34.676  21.746  24.159  1.00  0.00     0.117 C 
BRANCH  72  73
ATOM     73  N   UNL A   1      33.362  21.987  24.725  1.00  0.00    -0.354 N 
ATOM     74  C   UNL A   1      32.623  23.113  24.900  1.00  0.00     0.242 C 
ATOM     75  H   UNL A   1      32.916  21.170  25.045  1.00  0.00     0.163 HD
ATOM     76  O   UNL A   1      31.672  23.007  25.687  1.00  0.00    -0.273 OA
BRANCH  74  77
ATOM     77  C   UNL A   1      32.939  24.498  24.283  1.00  0.00     0.176 C 
BRANCH  77  78
ATOM     78  C   UNL A   1      33.871  25.395  25.129  1.00  0.00     0.070 C 
BRANCH  78  79
ATOM     79  C   UNL A   1      33.332  26.652  25.776  1.00  0.00    -0.045 A 
ATOM     80  C   UNL A   1      34.142  27.774  26.015  1.00  0.00     0.007 A 
ATOM     81  C   UNL A   1      31.961  26.739  26.083  1.00  0.00     0.007 A 
ATOM     82  C   UNL A   1      33.618  28.912  26.635  1.00  0.00     0.039 A 
ATOM     83  C   UNL A   1      31.436  27.882  26.691  1.00  0.00     0.039 A 
ATOM     84  C   UNL A   1      32.273  28.952  26.973  1.00  0.00     0.123 A 
ATOM     85  F   UNL A   1      31.775  30.035  27.581  1.00  0.00    -0.207 F 
ENDBRANCH  78  79
ENDBRANCH  77  78
BRANCH  77  86
ATOM     86  N   UNL A   1      33.249  24.500  22.854  1.00  0.00    -0.339 N 
ATOM     87  C   UNL A   1      33.038  25.479  21.915  1.00  0.00     0.272 C 
ATOM     88  H   UNL A   1      33.672  23.677  22.516  1.00  0.00     0.164 HD
ATOM     89  O   UNL A   1      33.293  25.180  20.733  1.00  0.00    -0.267 OA
BRANCH  87  90
ATOM     90  C   UNL A   1      32.529  26.801  22.301  1.00  0.00     0.150 A 
ATOM     91  C   UNL A   1      33.241  28.023  22.466  1.00  0.00     0.056 A 
ATOM     92  N   UNL A   1      31.218  26.997  22.531  1.00  0.00    -0.167 NA
ATOM     93  C   UNL A   1      32.305  28.951  22.860  1.00  0.00     0.110 A 
ATOM     94  N   UNL A   1      31.111  28.293  22.873  1.00  0.00    -0.269 N 
BRANCH  94  95
ATOM     95  C   UNL A   1      29.819  28.861  23.202  1.00  0.00     0.107 C 
ATOM     96  C   UNL A   1      29.317  29.890  22.191  1.00  0.00     0.027 C 
ATOM     97  C   UNL A   1      28.677  27.845  23.258  1.00  0.00     0.027 C 
ATOM     98  C   UNL A   1      27.840  30.032  22.537  1.00  0.00     0.002 C 
ATOM     99  C   UNL A   1      27.405  28.674  23.085  1.00  0.00     0.002 C 
ENDBRANCH  94  95
ENDBRANCH  87  90
ENDBRANCH  77  86
ENDBRANCH  74  77
ENDBRANCH  72  73
ENDBRANCH   1  72
TORSDOF 15
ENDMDL
