MODEL 1
REMARK VINA RESULT:     -13.8      0.000      0.000
REMARK SMILES C[NH+]1CCN(c2nc3c(cc2F)c(=O)c(C(=O)NCCCNC(=O)c2ccc(-c4c5nc(c(-c6c(F)c(F)c(F)c(F)c6F)c6ccc([nH]6)c(-c6c(F)c(F)c(F)c(F)c6F)c6nc(c(-c7c(F)c(F)c(F)c(F)c7F)c7ccc4[nH]7)C=C6)C=C5)cc2)cn3-c2ccc(F)cc2F)CC1
REMARK SMILES IDX 20 1 19 2 18 3 16 4 17 5 15 7 6 8 7 9 11 10 8 11 10 12 12 13
REMARK SMILES IDX 9 14 89 15 13 16 88 17 14 18 5 19 1 20 2 21 3 22 99 23 4 25
REMARK SMILES IDX 98 26 90 27 91 28 96 29 92 30 95 31 97 32 93 33 94 34 21 35
REMARK SMILES IDX 22 36 23 37 24 39 25 40 26 41 87 42 27 43 86 44 28 45 29 46
REMARK SMILES IDX 30 47 80 48 31 49 85 50 79 51 81 52 32 53 84 54 78 55 77 56
REMARK SMILES IDX 33 58 65 59 45 60 64 61 46 62 49 63 63 64 82 65 47 66 48 67
REMARK SMILES IDX 62 69 83 70 50 71 34 72 35 73 43 74 36 75 37 76 41 77 44 78
REMARK SMILES IDX 38 79 39 80 42 81 40 82 66 83 67 84 75 85 68 86 69 87 73 88
REMARK SMILES IDX 76 89 70 90 71 91 74 92 72 93 51 94 52 95 60 96 53 97 54 98
REMARK SMILES IDX 58 99 61 100 55 101 56 102 59 103 57 104
REMARK H PARENT 18 6 2 24 22 38 81 57 49 68
REMARK Flexibility Score: inf
ROOT
ATOM      1  C   UNL A   1      34.010  28.348  24.609  1.00  0.00     0.042 C 
ENDROOT
BRANCH   1   2
ATOM      2  C   UNL A   1      32.917  27.384  24.153  1.00  0.00     0.118 C 
BRANCH   2   3
ATOM      3  N   UNL A   1      33.035  27.088  22.735  1.00  0.00    -0.352 N 
ATOM      4  C   UNL A   1      33.240  25.927  22.057  1.00  0.00     0.256 C 
ATOM      5  O   UNL A   1      33.279  26.010  20.826  1.00  0.00    -0.269 OA
ATOM      6  H   UNL A   1      32.952  27.879  22.154  1.00  0.00     0.163 HD
BRANCH   4   7
ATOM      7  C   UNL A   1      33.330  24.598  22.720  1.00  0.00     0.104 A 
ATOM      8  C   UNL A   1      33.407  19.759  24.256  1.00  0.00     0.167 A 
ATOM      9  N   UNL A   1      34.219  20.825  24.473  1.00  0.00    -0.209 NA
ATOM     10  C   UNL A   1      32.248  19.880  23.483  1.00  0.00     0.166 A 
ATOM     11  C   UNL A   1      33.909  22.028  23.924  1.00  0.00     0.151 A 
ATOM     12  C   UNL A   1      31.879  21.111  22.983  1.00  0.00     0.059 A 
ATOM     13  F   UNL A   1      31.440  18.829  23.275  1.00  0.00    -0.203 F 
ATOM     14  C   UNL A   1      32.717  22.197  23.223  1.00  0.00     0.069 A 
ATOM     15  N   UNL A   1      34.792  23.150  24.057  1.00  0.00    -0.297 N 
ATOM     16  C   UNL A   1      32.305  23.539  22.795  1.00  0.00     0.203 A 
ATOM     17  C   UNL A   1      34.464  24.332  23.394  1.00  0.00     0.111 A 
ATOM     18  O   UNL A   1      31.115  23.720  22.572  1.00  0.00    -0.288 OA
BRANCH   8  19
ATOM     19  N   UNL A   1      33.740  18.575  24.855  1.00  0.00    -0.343 N 
ATOM     20  C   UNL A   1      32.862  14.461  25.376  1.00  0.00     0.332 C 
ATOM     21  N   UNL A   1      33.488  15.775  25.498  1.00  0.00    -0.334 N 
ATOM     22  C   UNL A   1      32.520  16.778  26.007  1.00  0.00     0.283 C 
ATOM     23  C   UNL A   1      34.014  16.219  24.186  1.00  0.00     0.283 C 
ATOM     24  H   UNL A   1      34.258  15.695  26.163  1.00  0.00     0.347 HD
ATOM     25  C   UNL A   1      33.127  18.201  26.125  1.00  0.00     0.179 C 
ATOM     26  C   UNL A   1      34.658  17.619  24.251  1.00  0.00     0.179 C 
ENDBRANCH   8  19
BRANCH  15  27
ATOM     27  C   UNL A   1      36.023  23.070  24.775  1.00  0.00     0.083 A 
ATOM     28  C   UNL A   1      36.939  22.034  24.521  1.00  0.00     0.033 A 
ATOM     29  C   UNL A   1      36.360  24.026  25.750  1.00  0.00     0.150 A 
ATOM     30  C   UNL A   1      38.148  21.967  25.219  1.00  0.00     0.041 A 
ATOM     31  C   UNL A   1      37.554  23.958  26.459  1.00  0.00     0.080 A 
ATOM     32  F   UNL A   1      35.508  25.024  26.032  1.00  0.00    -0.205 F 
ATOM     33  C   UNL A   1      38.440  22.927  26.183  1.00  0.00     0.126 A 
ATOM     34  F   UNL A   1      39.594  22.852  26.858  1.00  0.00    -0.207 F 
ENDBRANCH  15  27
ENDBRANCH   4   7
ENDBRANCH   2   3
ENDBRANCH   1   2
BRANCH   1  35
ATOM     35  C   UNL A   1      34.083  28.500  26.119  1.00  0.00     0.118 C 
BRANCH  35  36
ATOM     36  N   UNL A   1      33.829  29.869  26.543  1.00  0.00    -0.352 N 
ATOM     37  C   UNL A   1      34.496  30.622  27.476  1.00  0.00     0.251 C 
ATOM     38  H   UNL A   1      33.074  30.317  26.098  1.00  0.00     0.163 HD
ATOM     39  O   UNL A   1      34.014  31.678  27.878  1.00  0.00    -0.269 OA
BRANCH  37  40
ATOM     40  C   UNL A   1      35.794  30.157  28.009  1.00  0.00     0.039 A 
ATOM     41  C   UNL A   1      35.844  29.607  29.291  1.00  0.00     0.014 A 
ATOM     42  C   UNL A   1      36.961  30.289  27.251  1.00  0.00     0.014 A 
ATOM     43  C   UNL A   1      37.062  29.150  29.798  1.00  0.00     0.010 A 
ATOM     44  C   UNL A   1      38.159  29.767  27.726  1.00  0.00     0.010 A 
ATOM     45  C   UNL A   1      38.224  29.214  29.012  1.00  0.00    -0.014 A 
BRANCH  45  46
ATOM     46  C   UNL A   1      39.530  28.774  29.557  1.00  0.00     0.031 A 
ATOM     47  C   UNL A   1      40.146  29.528  30.701  1.00  0.00     0.074 A 
ATOM     48  C   UNL A   1      40.163  27.715  29.017  1.00  0.00     0.049 A 
ATOM     49  N   UNL A   1      41.261  29.290  31.343  1.00  0.00    -0.248 NA
ATOM     50  C   UNL A   1      39.422  30.719  31.177  1.00  0.00     0.031 C 
ATOM     51  C   UNL A   1      39.681  26.936  27.878  1.00  0.00     0.029 A 
ATOM     52  N   UNL A   1      41.346  27.111  29.359  1.00  0.00    -0.354 N 
ATOM     53  C   UNL A   1      41.362  30.290  32.300  1.00  0.00     0.074 A 
ATOM     54  C   UNL A   1      40.241  31.182  32.110  1.00  0.00     0.031 C 
ATOM     55  C   UNL A   1      40.545  25.936  27.634  1.00  0.00     0.029 A 
ATOM     56  C   UNL A   1      41.649  26.017  28.587  1.00  0.00     0.049 A 
ATOM     57  H   UNL A   1      41.924  27.431  30.090  1.00  0.00     0.167 HD
ATOM     58  C   UNL A   1      42.285  30.427  33.279  1.00  0.00     0.037 A 
ATOM     59  C   UNL A   1      42.696  25.171  28.652  1.00  0.00     0.037 A 
ATOM     60  C   UNL A   1      43.385  29.525  33.478  1.00  0.00     0.049 A 
ATOM     61  C   UNL A   1      43.736  25.372  29.721  1.00  0.00     0.074 A 
ATOM     62  C   UNL A   1      44.341  29.541  34.477  1.00  0.00     0.029 A 
ATOM     63  N   UNL A   1      43.675  28.446  32.657  1.00  0.00    -0.354 N 
ATOM     64  N   UNL A   1      43.774  26.268  30.678  1.00  0.00    -0.248 NA
ATOM     65  C   UNL A   1      44.878  24.445  29.724  1.00  0.00     0.031 C 
ATOM     66  C   UNL A   1      45.236  28.496  34.236  1.00  0.00     0.029 A 
ATOM     67  C   UNL A   1      44.815  27.806  33.109  1.00  0.00     0.049 A 
ATOM     68  H   UNL A   1      43.148  28.175  31.871  1.00  0.00     0.167 HD
ATOM     69  C   UNL A   1      44.927  26.003  31.405  1.00  0.00     0.074 A 
ATOM     70  C   UNL A   1      45.555  24.852  30.790  1.00  0.00     0.031 C 
ATOM     71  C   UNL A   1      45.420  26.657  32.484  1.00  0.00     0.037 A 
BRANCH  58  72
ATOM     72  C   UNL A   1      42.128  31.577  34.228  1.00  0.00     0.064 A 
ATOM     73  C   UNL A   1      41.404  31.440  35.422  1.00  0.00     0.173 A 
ATOM     74  C   UNL A   1      42.748  32.809  33.972  1.00  0.00     0.173 A 
ATOM     75  F   UNL A   1      40.783  30.284  35.706  1.00  0.00    -0.203 F 
ATOM     76  C   UNL A   1      41.287  32.500  36.315  1.00  0.00     0.198 A 
ATOM     77  C   UNL A   1      42.651  33.859  34.882  1.00  0.00     0.198 A 
ATOM     78  F   UNL A   1      43.456  32.990  32.848  1.00  0.00    -0.203 F 
ATOM     79  F   UNL A   1      40.558  32.358  37.431  1.00  0.00    -0.200 F 
ATOM     80  C   UNL A   1      41.919  33.706  36.049  1.00  0.00     0.200 A 
ATOM     81  F   UNL A   1      43.272  35.020  34.629  1.00  0.00    -0.200 F 
ATOM     82  F   UNL A   1      41.816  34.723  36.916  1.00  0.00    -0.200 F 
ENDBRANCH  58  72
BRANCH  59  83
ATOM     83  C   UNL A   1      42.785  24.030  27.703  1.00  0.00     0.064 A 
ATOM     84  C   UNL A   1      42.405  22.740  28.099  1.00  0.00     0.173 A 
ATOM     85  C   UNL A   1      43.232  24.203  26.385  1.00  0.00     0.173 A 
ATOM     86  F   UNL A   1      41.990  22.520  29.355  1.00  0.00    -0.203 F 
ATOM     87  C   UNL A   1      42.478  21.665  27.215  1.00  0.00     0.198 A 
ATOM     88  C   UNL A   1      43.283  23.132  25.496  1.00  0.00     0.198 A 
ATOM     89  F   UNL A   1      43.606  25.418  25.957  1.00  0.00    -0.203 F 
ATOM     90  F   UNL A   1      42.139  20.436  27.629  1.00  0.00    -0.200 F 
ATOM     91  C   UNL A   1      42.911  21.863  25.912  1.00  0.00     0.200 A 
ATOM     92  F   UNL A   1      43.690  23.329  24.234  1.00  0.00    -0.200 F 
ATOM     93  F   UNL A   1      42.973  20.830  25.061  1.00  0.00    -0.200 F 
ENDBRANCH  59  83
BRANCH  71  94
ATOM     94  C   UNL A   1      46.703  26.159  33.081  1.00  0.00     0.064 A 
ATOM     95  C   UNL A   1      46.714  25.080  33.975  1.00  0.00     0.173 A 
ATOM     96  C   UNL A   1      47.935  26.682  32.657  1.00  0.00     0.173 A 
ATOM     97  F   UNL A   1      45.560  24.556  34.416  1.00  0.00    -0.203 F 
ATOM     98  C   UNL A   1      47.916  24.536  34.420  1.00  0.00     0.198 A 
ATOM     99  C   UNL A   1      49.133  26.119  33.085  1.00  0.00     0.198 A 
ATOM    100  F   UNL A   1      47.973  27.707  31.793  1.00  0.00    -0.203 F 
ATOM    101  F   UNL A   1      47.905  23.513  35.284  1.00  0.00    -0.200 F 
ATOM    102  C   UNL A   1      49.123  25.047  33.964  1.00  0.00     0.200 A 
ATOM    103  F   UNL A   1      50.297  26.601  32.629  1.00  0.00    -0.200 F 
ATOM    104  F   UNL A   1      50.277  24.501  34.369  1.00  0.00    -0.200 F 
ENDBRANCH  71  94
ENDBRANCH  45  46
ENDBRANCH  37  40
ENDBRANCH  35  36
ENDBRANCH   1  35
TORSDOF 12
ENDMDL
MODEL 2
REMARK VINA RESULT:     -13.4      4.385      9.669
REMARK SMILES C[NH+]1CCN(c2nc3c(cc2F)c(=O)c(C(=O)NCCCNC(=O)c2ccc(-c4c5nc(c(-c6c(F)c(F)c(F)c(F)c6F)c6ccc([nH]6)c(-c6c(F)c(F)c(F)c(F)c6F)c6nc(c(-c7c(F)c(F)c(F)c(F)c7F)c7ccc4[nH]7)C=C6)C=C5)cc2)cn3-c2ccc(F)cc2F)CC1
REMARK SMILES IDX 20 1 19 2 18 3 16 4 17 5 15 7 6 8 7 9 11 10 8 11 10 12 12 13
REMARK SMILES IDX 9 14 89 15 13 16 88 17 14 18 5 19 1 20 2 21 3 22 99 23 4 25
REMARK SMILES IDX 98 26 90 27 91 28 96 29 92 30 95 31 97 32 93 33 94 34 21 35
REMARK SMILES IDX 22 36 23 37 24 39 25 40 26 41 87 42 27 43 86 44 28 45 29 46
REMARK SMILES IDX 30 47 80 48 31 49 85 50 79 51 81 52 32 53 84 54 78 55 77 56
REMARK SMILES IDX 33 58 65 59 45 60 64 61 46 62 49 63 63 64 82 65 47 66 48 67
REMARK SMILES IDX 62 69 83 70 50 71 34 72 35 73 43 74 36 75 37 76 41 77 44 78
REMARK SMILES IDX 38 79 39 80 42 81 40 82 66 83 67 84 75 85 68 86 69 87 73 88
REMARK SMILES IDX 76 89 70 90 71 91 74 92 72 93 51 94 52 95 60 96 53 97 54 98
REMARK SMILES IDX 58 99 61 100 55 101 56 102 59 103 57 104
REMARK H PARENT 18 6 2 24 22 38 81 57 49 68
REMARK Flexibility Score: inf
ROOT
ATOM      1  C   UNL A   1      35.301  23.370  26.677  1.00  0.00     0.042 C 
ENDROOT
BRANCH   1   2
ATOM      2  C   UNL A   1      34.103  22.907  25.851  1.00  0.00     0.118 C 
BRANCH   2   3
ATOM      3  N   UNL A   1      32.920  22.751  26.681  1.00  0.00    -0.352 N 
ATOM      4  C   UNL A   1      31.811  23.520  26.847  1.00  0.00     0.256 C 
ATOM      5  O   UNL A   1      30.961  23.094  27.634  1.00  0.00    -0.269 OA
ATOM      6  H   UNL A   1      32.922  21.931  27.228  1.00  0.00     0.163 HD
BRANCH   4   7
ATOM      7  C   UNL A   1      31.560  24.768  26.078  1.00  0.00     0.104 A 
ATOM      8  C   UNL A   1      29.907  28.870  23.582  1.00  0.00     0.167 A 
ATOM      9  N   UNL A   1      30.934  28.645  24.441  1.00  0.00    -0.209 NA
ATOM     10  C   UNL A   1      29.054  27.834  23.190  1.00  0.00     0.166 A 
ATOM     11  C   UNL A   1      31.134  27.397  24.937  1.00  0.00     0.151 A 
ATOM     12  C   UNL A   1      29.289  26.546  23.625  1.00  0.00     0.059 A 
ATOM     13  F   UNL A   1      28.043  28.053  22.335  1.00  0.00    -0.203 F 
ATOM     14  C   UNL A   1      30.352  26.330  24.497  1.00  0.00     0.069 A 
ATOM     15  N   UNL A   1      32.151  27.145  25.916  1.00  0.00    -0.297 N 
ATOM     16  C   UNL A   1      30.695  24.960  24.897  1.00  0.00     0.203 A 
ATOM     17  C   UNL A   1      32.246  25.862  26.456  1.00  0.00     0.111 A 
ATOM     18  O   UNL A   1      30.282  24.047  24.195  1.00  0.00    -0.288 OA
BRANCH   8  19
ATOM     19  N   UNL A   1      29.763  30.135  23.081  1.00  0.00    -0.343 N 
ATOM     20  C   UNL A   1      27.403  32.842  20.830  1.00  0.00     0.332 C 
ATOM     21  N   UNL A   1      28.490  32.272  21.621  1.00  0.00    -0.334 N 
ATOM     22  C   UNL A   1      29.101  31.113  20.925  1.00  0.00     0.283 C 
ATOM     23  C   UNL A   1      27.991  31.841  22.948  1.00  0.00     0.283 C 
ATOM     24  H   UNL A   1      29.201  32.993  21.744  1.00  0.00     0.347 HD
ATOM     25  C   UNL A   1      30.243  30.448  21.740  1.00  0.00     0.179 C 
ATOM     26  C   UNL A   1      29.093  31.200  23.816  1.00  0.00     0.179 C 
ENDBRANCH   8  19
BRANCH  15  27
ATOM     27  C   UNL A   1      33.008  28.176  26.407  1.00  0.00     0.083 A 
ATOM     28  C   UNL A   1      34.381  28.173  26.111  1.00  0.00     0.033 A 
ATOM     29  C   UNL A   1      32.502  29.228  27.192  1.00  0.00     0.150 A 
ATOM     30  C   UNL A   1      35.213  29.192  26.585  1.00  0.00     0.041 A 
ATOM     31  C   UNL A   1      33.325  30.236  27.680  1.00  0.00     0.080 A 
ATOM     32  F   UNL A   1      31.198  29.260  27.509  1.00  0.00    -0.205 F 
ATOM     33  C   UNL A   1      34.676  30.209  27.368  1.00  0.00     0.126 A 
ATOM     34  F   UNL A   1      35.479  31.177  27.829  1.00  0.00    -0.207 F 
ENDBRANCH  15  27
ENDBRANCH   4   7
ENDBRANCH   2   3
ENDBRANCH   1   2
BRANCH   1  35
ATOM     35  C   UNL A   1      36.536  23.649  25.838  1.00  0.00     0.118 C 
BRANCH  35  36
ATOM     36  N   UNL A   1      37.546  22.611  25.992  1.00  0.00    -0.352 N 
ATOM     37  C   UNL A   1      38.868  22.738  26.335  1.00  0.00     0.251 C 
ATOM     38  H   UNL A   1      37.237  21.691  25.827  1.00  0.00     0.163 HD
ATOM     39  O   UNL A   1      39.636  21.788  26.198  1.00  0.00    -0.269 OA
BRANCH  37  40
ATOM     40  C   UNL A   1      39.375  24.022  26.861  1.00  0.00     0.039 A 
ATOM     41  C   UNL A   1      39.971  24.929  25.982  1.00  0.00     0.014 A 
ATOM     42  C   UNL A   1      39.283  24.318  28.225  1.00  0.00     0.014 A 
ATOM     43  C   UNL A   1      40.438  26.152  26.466  1.00  0.00     0.010 A 
ATOM     44  C   UNL A   1      39.680  25.565  28.693  1.00  0.00     0.010 A 
ATOM     45  C   UNL A   1      40.283  26.483  27.821  1.00  0.00    -0.014 A 
BRANCH  45  46
ATOM     46  C   UNL A   1      40.816  27.759  28.354  1.00  0.00     0.031 A 
ATOM     47  C   UNL A   1      42.302  27.974  28.408  1.00  0.00     0.074 A 
ATOM     48  C   UNL A   1      39.971  28.710  28.798  1.00  0.00     0.049 A 
ATOM     49  N   UNL A   1      42.970  29.026  28.805  1.00  0.00    -0.248 NA
ATOM     50  C   UNL A   1      43.152  26.852  27.974  1.00  0.00     0.031 C 
ATOM     51  C   UNL A   1      38.514  28.592  28.834  1.00  0.00     0.029 A 
ATOM     52  N   UNL A   1      40.219  29.962  29.301  1.00  0.00    -0.354 N 
ATOM     53  C   UNL A   1      44.310  28.695  28.658  1.00  0.00     0.074 A 
ATOM     54  C   UNL A   1      44.367  27.323  28.209  1.00  0.00     0.031 C 
ATOM     55  C   UNL A   1      37.994  29.740  29.302  1.00  0.00     0.029 A 
ATOM     56  C   UNL A   1      39.082  30.662  29.617  1.00  0.00     0.049 A 
ATOM     57  H   UNL A   1      41.127  30.324  29.422  1.00  0.00     0.167 HD
ATOM     58  C   UNL A   1      45.396  29.482  28.840  1.00  0.00     0.037 A 
ATOM     59  C   UNL A   1      38.938  31.913  30.097  1.00  0.00     0.037 A 
ATOM     60  C   UNL A   1      45.333  30.852  29.265  1.00  0.00     0.049 A 
ATOM     61  C   UNL A   1      40.164  32.753  30.336  1.00  0.00     0.074 A 
ATOM     62  C   UNL A   1      46.371  31.753  29.421  1.00  0.00     0.029 A 
ATOM     63  N   UNL A   1      44.165  31.517  29.604  1.00  0.00    -0.354 N 
ATOM     64  N   UNL A   1      41.421  32.461  30.108  1.00  0.00    -0.248 NA
ATOM     65  C   UNL A   1      39.954  34.097  30.897  1.00  0.00     0.031 C 
ATOM     66  C   UNL A   1      45.835  32.952  29.897  1.00  0.00     0.029 A 
ATOM     67  C   UNL A   1      44.459  32.810  30.000  1.00  0.00     0.049 A 
ATOM     68  H   UNL A   1      43.261  31.128  29.568  1.00  0.00     0.167 HD
ATOM     69  C   UNL A   1      42.148  33.585  30.476  1.00  0.00     0.074 A 
ATOM     70  C   UNL A   1      41.192  34.573  30.930  1.00  0.00     0.031 C 
ATOM     71  C   UNL A   1      43.489  33.779  30.443  1.00  0.00     0.037 A 
BRANCH  58  72
ATOM     72  C   UNL A   1      46.741  28.887  28.550  1.00  0.00     0.064 A 
ATOM     73  C   UNL A   1      47.484  28.247  29.553  1.00  0.00     0.173 A 
ATOM     74  C   UNL A   1      47.270  28.908  27.251  1.00  0.00     0.173 A 
ATOM     75  F   UNL A   1      47.025  28.210  30.814  1.00  0.00    -0.203 F 
ATOM     76  C   UNL A   1      48.718  27.668  29.273  1.00  0.00     0.198 A 
ATOM     77  C   UNL A   1      48.493  28.303  26.968  1.00  0.00     0.198 A 
ATOM     78  F   UNL A   1      46.597  29.502  26.255  1.00  0.00    -0.203 F 
ATOM     79  F   UNL A   1      49.427  27.096  30.255  1.00  0.00    -0.200 F 
ATOM     80  C   UNL A   1      49.216  27.688  27.979  1.00  0.00     0.200 A 
ATOM     81  F   UNL A   1      48.969  28.313  25.715  1.00  0.00    -0.200 F 
ATOM     82  F   UNL A   1      50.399  27.120  27.707  1.00  0.00    -0.200 F 
ENDBRANCH  58  72
BRANCH  59  83
ATOM     83  C   UNL A   1      37.577  32.460  30.338  1.00  0.00     0.064 A 
ATOM     84  C   UNL A   1      36.885  32.162  31.521  1.00  0.00     0.173 A 
ATOM     85  C   UNL A   1      36.947  33.299  29.408  1.00  0.00     0.173 A 
ATOM     86  F   UNL A   1      37.437  31.348  32.432  1.00  0.00    -0.203 F 
ATOM     87  C   UNL A   1      35.611  32.676  31.758  1.00  0.00     0.198 A 
ATOM     88  C   UNL A   1      35.683  33.831  29.657  1.00  0.00     0.198 A 
ATOM     89  F   UNL A   1      37.567  33.616  28.261  1.00  0.00    -0.203 F 
ATOM     90  F   UNL A   1      34.959  32.349  32.883  1.00  0.00    -0.200 F 
ATOM     91  C   UNL A   1      35.014  33.515  30.829  1.00  0.00     0.200 A 
ATOM     92  F   UNL A   1      35.114  34.651  28.762  1.00  0.00    -0.200 F 
ATOM     93  F   UNL A   1      33.793  34.014  31.062  1.00  0.00    -0.200 F 
ENDBRANCH  59  83
BRANCH  71  94
ATOM     94  C   UNL A   1      44.019  35.102  30.910  1.00  0.00     0.064 A 
ATOM     95  C   UNL A   1      44.039  36.214  30.058  1.00  0.00     0.173 A 
ATOM     96  C   UNL A   1      44.387  35.288  32.251  1.00  0.00     0.173 A 
ATOM     97  F   UNL A   1      43.706  36.081  28.765  1.00  0.00    -0.203 F 
ATOM     98  C   UNL A   1      44.405  37.470  30.534  1.00  0.00     0.198 A 
ATOM     99  C   UNL A   1      44.728  36.549  32.728  1.00  0.00     0.198 A 
ATOM    100  F   UNL A   1      44.373  34.254  33.106  1.00  0.00    -0.203 F 
ATOM    101  F   UNL A   1      44.429  38.519  29.701  1.00  0.00    -0.200 F 
ATOM    102  C   UNL A   1      44.735  37.639  31.871  1.00  0.00     0.200 A 
ATOM    103  F   UNL A   1      45.028  36.714  34.024  1.00  0.00    -0.200 F 
ATOM    104  F   UNL A   1      45.055  38.855  32.334  1.00  0.00    -0.200 F 
ENDBRANCH  71  94
ENDBRANCH  45  46
ENDBRANCH  37  40
ENDBRANCH  35  36
ENDBRANCH   1  35
TORSDOF 12
ENDMDL
MODEL 3
REMARK VINA RESULT:     -13.2      5.285     11.398
REMARK SMILES C[NH+]1CCN(c2nc3c(cc2F)c(=O)c(C(=O)NCCCNC(=O)c2ccc(-c4c5nc(c(-c6c(F)c(F)c(F)c(F)c6F)c6ccc([nH]6)c(-c6c(F)c(F)c(F)c(F)c6F)c6nc(c(-c7c(F)c(F)c(F)c(F)c7F)c7ccc4[nH]7)C=C6)C=C5)cc2)cn3-c2ccc(F)cc2F)CC1
REMARK SMILES IDX 20 1 19 2 18 3 16 4 17 5 15 7 6 8 7 9 11 10 8 11 10 12 12 13
REMARK SMILES IDX 9 14 89 15 13 16 88 17 14 18 5 19 1 20 2 21 3 22 99 23 4 25
REMARK SMILES IDX 98 26 90 27 91 28 96 29 92 30 95 31 97 32 93 33 94 34 21 35
REMARK SMILES IDX 22 36 23 37 24 39 25 40 26 41 87 42 27 43 86 44 28 45 29 46
REMARK SMILES IDX 30 47 80 48 31 49 85 50 79 51 81 52 32 53 84 54 78 55 77 56
REMARK SMILES IDX 33 58 65 59 45 60 64 61 46 62 49 63 63 64 82 65 47 66 48 67
REMARK SMILES IDX 62 69 83 70 50 71 34 72 35 73 43 74 36 75 37 76 41 77 44 78
REMARK SMILES IDX 38 79 39 80 42 81 40 82 66 83 67 84 75 85 68 86 69 87 73 88
REMARK SMILES IDX 76 89 70 90 71 91 74 92 72 93 51 94 52 95 60 96 53 97 54 98
REMARK SMILES IDX 58 99 61 100 55 101 56 102 59 103 57 104
REMARK H PARENT 18 6 2 24 22 38 81 57 49 68
REMARK Flexibility Score: inf
ROOT
ATOM      1  C   UNL A   1      34.470  33.026  29.711  1.00  0.00     0.042 C 
ENDROOT
BRANCH   1   2
ATOM      2  C   UNL A   1      35.402  34.192  30.036  1.00  0.00     0.118 C 
BRANCH   2   3
ATOM      3  N   UNL A   1      34.951  34.913  31.214  1.00  0.00    -0.352 N 
ATOM      4  C   UNL A   1      35.295  34.827  32.527  1.00  0.00     0.256 C 
ATOM      5  O   UNL A   1      34.726  35.606  33.296  1.00  0.00    -0.269 OA
ATOM      6  H   UNL A   1      34.264  35.594  31.027  1.00  0.00     0.163 HD
BRANCH   4   7
ATOM      7  C   UNL A   1      36.355  33.916  33.036  1.00  0.00     0.104 A 
ATOM      8  C   UNL A   1      40.022  30.537  34.000  1.00  0.00     0.167 A 
ATOM      9  N   UNL A   1      39.788  31.810  34.409  1.00  0.00    -0.209 NA
ATOM     10  C   UNL A   1      39.130  29.877  33.148  1.00  0.00     0.166 A 
ATOM     11  C   UNL A   1      38.676  32.461  33.979  1.00  0.00     0.151 A 
ATOM     12  C   UNL A   1      37.958  30.497  32.765  1.00  0.00     0.059 A 
ATOM     13  F   UNL A   1      39.355  28.616  32.750  1.00  0.00    -0.203 F 
ATOM     14  C   UNL A   1      37.728  31.798  33.201  1.00  0.00     0.069 A 
ATOM     15  N   UNL A   1      38.446  33.835  34.318  1.00  0.00    -0.297 N 
ATOM     16  C   UNL A   1      36.448  32.449  32.898  1.00  0.00     0.203 A 
ATOM     17  C   UNL A   1      37.334  34.474  33.771  1.00  0.00     0.111 A 
ATOM     18  O   UNL A   1      35.507  31.728  32.595  1.00  0.00    -0.288 OA
BRANCH   8  19
ATOM     19  N   UNL A   1      41.137  29.909  34.484  1.00  0.00    -0.343 N 
ATOM     20  C   UNL A   1      43.129  26.247  35.247  1.00  0.00     0.332 C 
ATOM     21  N   UNL A   1      42.818  27.672  35.182  1.00  0.00    -0.334 N 
ATOM     22  C   UNL A   1      41.580  27.979  35.941  1.00  0.00     0.283 C 
ATOM     23  C   UNL A   1      42.649  28.099  33.773  1.00  0.00     0.283 C 
ATOM     24  H   UNL A   1      43.595  28.182  35.600  1.00  0.00     0.347 HD
ATOM     25  C   UNL A   1      41.186  29.479  35.877  1.00  0.00     0.179 C 
ATOM     26  C   UNL A   1      42.286  29.593  33.647  1.00  0.00     0.179 C 
ENDBRANCH   8  19
BRANCH  15  27
ATOM     27  C   UNL A   1      39.356  34.582  35.126  1.00  0.00     0.083 A 
ATOM     28  C   UNL A   1      39.144  34.722  36.508  1.00  0.00     0.033 A 
ATOM     29  C   UNL A   1      40.493  35.192  34.566  1.00  0.00     0.150 A 
ATOM     30  C   UNL A   1      40.044  35.445  37.296  1.00  0.00     0.041 A 
ATOM     31  C   UNL A   1      41.385  35.925  35.340  1.00  0.00     0.080 A 
ATOM     32  F   UNL A   1      40.725  35.094  33.248  1.00  0.00    -0.205 F 
ATOM     33  C   UNL A   1      41.151  36.042  36.703  1.00  0.00     0.126 A 
ATOM     34  F   UNL A   1      42.005  36.744  37.459  1.00  0.00    -0.207 F 
ENDBRANCH  15  27
ENDBRANCH   4   7
ENDBRANCH   2   3
ENDBRANCH   1   2
BRANCH   1  35
ATOM     35  C   UNL A   1      34.683  32.459  28.318  1.00  0.00     0.118 C 
BRANCH  35  36
ATOM     36  N   UNL A   1      34.025  31.172  28.147  1.00  0.00    -0.352 N 
ATOM     37  C   UNL A   1      34.586  29.931  27.984  1.00  0.00     0.251 C 
ATOM     38  H   UNL A   1      33.041  31.195  28.148  1.00  0.00     0.163 HD
ATOM     39  O   UNL A   1      33.893  28.981  27.625  1.00  0.00    -0.269 OA
BRANCH  37  40
ATOM     40  C   UNL A   1      36.029  29.735  28.231  1.00  0.00     0.039 A 
ATOM     41  C   UNL A   1      36.452  29.328  29.499  1.00  0.00     0.014 A 
ATOM     42  C   UNL A   1      36.964  29.978  27.220  1.00  0.00     0.014 A 
ATOM     43  C   UNL A   1      37.812  29.123  29.739  1.00  0.00     0.010 A 
ATOM     44  C   UNL A   1      38.309  29.703  27.438  1.00  0.00     0.010 A 
ATOM     45  C   UNL A   1      38.747  29.297  28.706  1.00  0.00    -0.014 A 
BRANCH  45  46
ATOM     46  C   UNL A   1      40.197  29.127  28.961  1.00  0.00     0.031 A 
ATOM     47  C   UNL A   1      40.879  27.858  28.536  1.00  0.00     0.074 A 
ATOM     48  C   UNL A   1      40.890  30.100  29.583  1.00  0.00     0.049 A 
ATOM     49  N   UNL A   1      42.140  27.525  28.636  1.00  0.00    -0.248 NA
ATOM     50  C   UNL A   1      40.029  26.817  27.933  1.00  0.00     0.031 C 
ATOM     51  C   UNL A   1      40.323  31.354  30.079  1.00  0.00     0.029 A 
ATOM     52  N   UNL A   1      42.221  30.186  29.901  1.00  0.00    -0.354 N 
ATOM     53  C   UNL A   1      42.233  26.248  28.100  1.00  0.00     0.074 A 
ATOM     54  C   UNL A   1      40.895  25.832  27.746  1.00  0.00     0.031 C 
ATOM     55  C   UNL A   1      41.307  32.099  30.610  1.00  0.00     0.029 A 
ATOM     56  C   UNL A   1      42.567  31.367  30.510  1.00  0.00     0.049 A 
ATOM     57  H   UNL A   1      42.869  29.469  29.711  1.00  0.00     0.167 HD
ATOM     58  C   UNL A   1      43.342  25.505  27.883  1.00  0.00     0.037 A 
ATOM     59  C   UNL A   1      43.769  31.809  30.929  1.00  0.00     0.037 A 
ATOM     60  C   UNL A   1      44.673  25.931  28.216  1.00  0.00     0.049 A 
ATOM     61  C   UNL A   1      44.983  30.944  30.719  1.00  0.00     0.074 A 
ATOM     62  C   UNL A   1      45.869  25.279  27.982  1.00  0.00     0.029 A 
ATOM     63  N   UNL A   1      44.979  27.121  28.859  1.00  0.00    -0.354 N 
ATOM     64  N   UNL A   1      45.072  29.776  30.129  1.00  0.00    -0.248 NA
ATOM     65  C   UNL A   1      46.264  31.456  31.228  1.00  0.00     0.031 C 
ATOM     66  C   UNL A   1      46.898  26.055  28.523  1.00  0.00     0.029 A 
ATOM     67  C   UNL A   1      46.345  27.208  29.059  1.00  0.00     0.049 A 
ATOM     68  H   UNL A   1      44.322  27.802  29.131  1.00  0.00     0.167 HD
ATOM     69  C   UNL A   1      46.414  29.423  30.179  1.00  0.00     0.074 A 
ATOM     70  C   UNL A   1      47.108  30.507  30.843  1.00  0.00     0.031 C 
ATOM     71  C   UNL A   1      47.015  28.301  29.717  1.00  0.00     0.037 A 
BRANCH  58  72
ATOM     72  C   UNL A   1      43.166  24.167  27.228  1.00  0.00     0.064 A 
ATOM     73  C   UNL A   1      42.704  23.059  27.952  1.00  0.00     0.173 A 
ATOM     74  C   UNL A   1      43.409  24.003  25.856  1.00  0.00     0.173 A 
ATOM     75  F   UNL A   1      42.468  23.163  29.269  1.00  0.00    -0.203 F 
ATOM     76  C   UNL A   1      42.511  21.827  27.333  1.00  0.00     0.198 A 
ATOM     77  C   UNL A   1      43.188  22.777  25.234  1.00  0.00     0.198 A 
ATOM     78  F   UNL A   1      43.847  25.033  25.118  1.00  0.00    -0.203 F 
ATOM     79  F   UNL A   1      42.106  20.773  28.053  1.00  0.00    -0.200 F 
ATOM     80  C   UNL A   1      42.744  21.691  25.973  1.00  0.00     0.200 A 
ATOM     81  F   UNL A   1      43.403  22.648  23.917  1.00  0.00    -0.200 F 
ATOM     82  F   UNL A   1      42.547  20.507  25.375  1.00  0.00    -0.200 F 
ENDBRANCH  58  72
BRANCH  59  83
ATOM     83  C   UNL A   1      43.888  33.156  31.545  1.00  0.00     0.064 A 
ATOM     84  C   UNL A   1      43.828  34.312  30.754  1.00  0.00     0.173 A 
ATOM     85  C   UNL A   1      44.046  33.320  32.929  1.00  0.00     0.173 A 
ATOM     86  F   UNL A   1      43.697  34.207  29.424  1.00  0.00    -0.203 F 
ATOM     87  C   UNL A   1      43.932  35.581  31.323  1.00  0.00     0.198 A 
ATOM     88  C   UNL A   1      44.126  34.589  33.500  1.00  0.00     0.198 A 
ATOM     89  F   UNL A   1      44.107  32.246  33.730  1.00  0.00    -0.203 F 
ATOM     90  F   UNL A   1      43.904  36.667  30.540  1.00  0.00    -0.200 F 
ATOM     91  C   UNL A   1      44.074  35.717  32.696  1.00  0.00     0.200 A 
ATOM     92  F   UNL A   1      44.252  34.718  34.828  1.00  0.00    -0.200 F 
ATOM     93  F   UNL A   1      44.165  36.937  33.243  1.00  0.00    -0.200 F 
ENDBRANCH  59  83
BRANCH  71  94
ATOM     94  C   UNL A   1      48.496  28.168  29.909  1.00  0.00     0.064 A 
ATOM     95  C   UNL A   1      49.026  27.546  31.047  1.00  0.00     0.173 A 
ATOM     96  C   UNL A   1      49.383  28.551  28.890  1.00  0.00     0.173 A 
ATOM     97  F   UNL A   1      48.217  27.174  32.051  1.00  0.00    -0.203 F 
ATOM     98  C   UNL A   1      50.392  27.305  31.158  1.00  0.00     0.198 A 
ATOM     99  C   UNL A   1      50.745  28.286  28.994  1.00  0.00     0.198 A 
ATOM    100  F   UNL A   1      48.921  29.140  27.777  1.00  0.00    -0.203 F 
ATOM    101  F   UNL A   1      50.880  26.720  32.260  1.00  0.00    -0.200 F 
ATOM    102  C   UNL A   1      51.248  27.663  30.126  1.00  0.00     0.200 A 
ATOM    103  F   UNL A   1      51.568  28.614  27.988  1.00  0.00    -0.200 F 
ATOM    104  F   UNL A   1      52.559  27.401  30.221  1.00  0.00    -0.200 F 
ENDBRANCH  71  94
ENDBRANCH  45  46
ENDBRANCH  37  40
ENDBRANCH  35  36
ENDBRANCH   1  35
TORSDOF 12
ENDMDL
