MODEL 1
REMARK VINA RESULT:     -12.4      0.000      0.000
REMARK SMILES O=C(NCCCNC(=O)[C@@H]1C[C@@H]1c1cccc(F)c1)c1ccc(-c2c3nc(c(-c4c(F)c(F)c(F)c(F)c4F)c4ccc([nH]4)c(-c4c(F)c(F)c(F)c(F)c4F)c4nc(c(-c5c(F)c(F)c(F)c(F)c5F)c5ccc2[nH]5)C=C4)C=C3)cc1
REMARK SMILES IDX 4 1 3 2 1 3 2 4 20 6 21 7 82 8 22 9 81 10 23 11 24 12 25 13
REMARK SMILES IDX 75 14 26 15 80 16 74 17 76 18 27 19 79 20 73 21 72 22 28 24
REMARK SMILES IDX 60 25 40 26 59 27 41 28 44 29 58 30 77 31 42 32 43 33 57 35
REMARK SMILES IDX 78 36 45 37 29 38 30 39 38 40 31 41 32 42 36 43 39 44 33 45
REMARK SMILES IDX 34 46 37 47 35 48 61 49 62 50 70 51 63 52 64 53 68 54 71 55
REMARK SMILES IDX 65 56 66 57 69 58 67 59 46 60 47 61 55 62 48 63 49 64 53 65
REMARK SMILES IDX 56 66 50 67 51 68 54 69 52 70 5 71 6 72 7 73 8 74 9 76 10 77
REMARK SMILES IDX 11 78 12 79 13 80 14 81 19 82 15 83 17 84 16 85 18 86
REMARK H PARENT 3 5 76 23 44 34 7 75
REMARK Flexibility Score: inf
ROOT
ATOM      1  C   UNL A   1      32.649  32.465  26.876  1.00  0.00     0.118 C 
ENDROOT
BRANCH   1   2
ATOM      2  N   UNL A   1      32.427  33.826  27.355  1.00  0.00    -0.352 N 
ATOM      3  O   UNL A   1      32.605  35.593  28.751  1.00  0.00    -0.269 OA
ATOM      4  C   UNL A   1      33.036  34.507  28.381  1.00  0.00     0.251 C 
ATOM      5  H   UNL A   1      31.736  34.333  26.870  1.00  0.00     0.163 HD
BRANCH   4   6
ATOM      6  C   UNL A   1      34.210  33.911  29.047  1.00  0.00     0.039 A 
ATOM      7  C   UNL A   1      34.034  32.884  29.975  1.00  0.00     0.014 A 
ATOM      8  C   UNL A   1      35.491  34.378  28.745  1.00  0.00     0.014 A 
ATOM      9  C   UNL A   1      35.111  32.444  30.726  1.00  0.00     0.010 A 
ATOM     10  C   UNL A   1      36.594  33.842  29.411  1.00  0.00     0.010 A 
ATOM     11  C   UNL A   1      36.408  32.882  30.419  1.00  0.00    -0.014 A 
BRANCH  11  12
ATOM     12  C   UNL A   1      37.552  32.204  31.069  1.00  0.00     0.031 A 
ATOM     13  C   UNL A   1      38.310  31.107  30.384  1.00  0.00     0.074 A 
ATOM     14  C   UNL A   1      37.907  32.625  32.300  1.00  0.00     0.049 A 
ATOM     15  N   UNL A   1      39.324  30.413  30.833  1.00  0.00    -0.248 NA
ATOM     16  C   UNL A   1      37.882  30.733  29.026  1.00  0.00     0.031 C 
ATOM     17  C   UNL A   1      37.224  33.683  33.053  1.00  0.00     0.029 A 
ATOM     18  N   UNL A   1      38.926  32.238  33.129  1.00  0.00    -0.354 N 
ATOM     19  C   UNL A   1      39.645  29.514  29.828  1.00  0.00     0.074 A 
ATOM     20  C   UNL A   1      38.712  29.735  28.744  1.00  0.00     0.031 C 
ATOM     21  C   UNL A   1      37.867  33.889  34.208  1.00  0.00     0.029 A 
ATOM     22  C   UNL A   1      38.950  32.922  34.321  1.00  0.00     0.049 A 
ATOM     23  H   UNL A   1      39.578  31.538  32.895  1.00  0.00     0.167 HD
ATOM     24  C   UNL A   1      40.639  28.594  29.822  1.00  0.00     0.037 A 
ATOM     25  C   UNL A   1      39.728  32.763  35.406  1.00  0.00     0.037 A 
ATOM     26  C   UNL A   1      41.574  28.408  30.902  1.00  0.00     0.049 A 
ATOM     27  C   UNL A   1      40.788  31.703  35.378  1.00  0.00     0.074 A 
ATOM     28  C   UNL A   1      42.652  27.542  30.962  1.00  0.00     0.029 A 
ATOM     29  N   UNL A   1      41.539  29.090  32.109  1.00  0.00    -0.354 N 
ATOM     30  N   UNL A   1      41.113  30.891  34.403  1.00  0.00    -0.248 NA
ATOM     31  C   UNL A   1      41.581  31.525  36.600  1.00  0.00     0.031 C 
ATOM     32  C   UNL A   1      43.231  27.653  32.227  1.00  0.00     0.029 A 
ATOM     33  C   UNL A   1      42.553  28.631  32.937  1.00  0.00     0.049 A 
ATOM     34  H   UNL A   1      40.893  29.793  32.344  1.00  0.00     0.167 HD
ATOM     35  C   UNL A   1      42.148  30.108  34.889  1.00  0.00     0.074 A 
ATOM     36  C   UNL A   1      42.420  30.563  36.236  1.00  0.00     0.031 C 
ATOM     37  C   UNL A   1      42.806  29.095  34.276  1.00  0.00     0.037 A 
BRANCH  24  38
ATOM     38  C   UNL A   1      40.792  27.700  28.628  1.00  0.00     0.064 A 
ATOM     39  C   UNL A   1      41.578  28.113  27.538  1.00  0.00     0.173 A 
ATOM     40  C   UNL A   1      40.039  26.527  28.488  1.00  0.00     0.173 A 
ATOM     41  F   UNL A   1      42.309  29.234  27.619  1.00  0.00    -0.203 F 
ATOM     42  C   UNL A   1      41.574  27.402  26.341  1.00  0.00     0.198 A 
ATOM     43  C   UNL A   1      40.056  25.805  27.296  1.00  0.00     0.198 A 
ATOM     44  F   UNL A   1      39.278  26.089  29.502  1.00  0.00    -0.203 F 
ATOM     45  F   UNL A   1      42.286  27.845  25.296  1.00  0.00    -0.200 F 
ATOM     46  C   UNL A   1      40.808  26.252  26.220  1.00  0.00     0.200 A 
ATOM     47  F   UNL A   1      39.325  24.687  27.182  1.00  0.00    -0.200 F 
ATOM     48  F   UNL A   1      40.789  25.578  25.061  1.00  0.00    -0.200 F 
ENDBRANCH  24  38
BRANCH  25  49
ATOM     49  C   UNL A   1      39.491  33.602  36.609  1.00  0.00     0.064 A 
ATOM     50  C   UNL A   1      40.076  34.873  36.733  1.00  0.00     0.173 A 
ATOM     51  C   UNL A   1      38.698  33.145  37.668  1.00  0.00     0.173 A 
ATOM     52  F   UNL A   1      40.851  35.355  35.750  1.00  0.00    -0.203 F 
ATOM     53  C   UNL A   1      39.898  35.641  37.880  1.00  0.00     0.198 A 
ATOM     54  C   UNL A   1      38.488  33.931  38.800  1.00  0.00     0.198 A 
ATOM     55  F   UNL A   1      38.104  31.945  37.591  1.00  0.00    -0.203 F 
ATOM     56  F   UNL A   1      40.506  36.829  37.989  1.00  0.00    -0.200 F 
ATOM     57  C   UNL A   1      39.095  35.173  38.908  1.00  0.00     0.200 A 
ATOM     58  F   UNL A   1      37.691  33.488  39.781  1.00  0.00    -0.200 F 
ATOM     59  F   UNL A   1      38.904  35.922  40.003  1.00  0.00    -0.200 F 
ENDBRANCH  25  49
BRANCH  37  60
ATOM     60  C   UNL A   1      43.884  28.402  35.051  1.00  0.00     0.064 A 
ATOM     61  C   UNL A   1      45.213  28.847  34.980  1.00  0.00     0.173 A 
ATOM     62  C   UNL A   1      43.615  27.242  35.790  1.00  0.00     0.173 A 
ATOM     63  F   UNL A   1      45.521  29.949  34.279  1.00  0.00    -0.203 F 
ATOM     64  C   UNL A   1      46.238  28.138  35.597  1.00  0.00     0.198 A 
ATOM     65  C   UNL A   1      44.638  26.552  36.433  1.00  0.00     0.198 A 
ATOM     66  F   UNL A   1      42.357  26.789  35.901  1.00  0.00    -0.203 F 
ATOM     67  F   UNL A   1      47.506  28.554  35.478  1.00  0.00    -0.200 F 
ATOM     68  C   UNL A   1      45.949  26.992  36.324  1.00  0.00     0.200 A 
ATOM     69  F   UNL A   1      44.356  25.460  37.156  1.00  0.00    -0.200 F 
ATOM     70  F   UNL A   1      46.936  26.312  36.923  1.00  0.00    -0.200 F 
ENDBRANCH  37  60
ENDBRANCH  11  12
ENDBRANCH   4   6
ENDBRANCH   1   2
BRANCH   1  71
ATOM     71  C   UNL A   1      31.369  31.764  26.450  1.00  0.00     0.042 C 
BRANCH  71  72
ATOM     72  C   UNL A   1      31.580  30.294  26.158  1.00  0.00     0.117 C 
BRANCH  72  73
ATOM     73  N   UNL A   1      32.226  30.062  24.881  1.00  0.00    -0.356 N 
ATOM     74  C   UNL A   1      31.834  29.218  23.882  1.00  0.00     0.223 C 
ATOM     75  H   UNL A   1      33.047  30.579  24.713  1.00  0.00     0.163 HD
ATOM     76  O   UNL A   1      32.485  29.135  22.844  1.00  0.00    -0.275 OA
BRANCH  74  77
ATOM     77  C   UNL A   1      30.636  28.379  24.111  1.00  0.00     0.086 C 
ATOM     78  C   UNL A   1      29.973  27.686  22.950  1.00  0.00     0.023 C 
ATOM     79  C   UNL A   1      29.239  28.791  23.672  1.00  0.00     0.032 C 
BRANCH  79  80
ATOM     80  C   UNL A   1      28.935  30.081  22.933  1.00  0.00    -0.041 A 
ATOM     81  C   UNL A   1      28.475  30.078  21.606  1.00  0.00     0.004 A 
ATOM     82  C   UNL A   1      29.033  31.332  23.555  1.00  0.00     0.043 A 
ATOM     83  C   UNL A   1      28.183  31.267  20.922  1.00  0.00     0.003 A 
ATOM     84  C   UNL A   1      28.779  32.516  22.869  1.00  0.00     0.123 A 
ATOM     85  C   UNL A   1      28.355  32.495  21.553  1.00  0.00     0.039 A 
ATOM     86  F   UNL A   1      28.938  33.687  23.501  1.00  0.00    -0.207 F 
ENDBRANCH  79  80
ENDBRANCH  74  77
ENDBRANCH  72  73
ENDBRANCH  71  72
ENDBRANCH   1  71
TORSDOF 11
ENDMDL
MODEL 2
REMARK VINA RESULT:     -12.3      0.495      1.722
REMARK SMILES O=C(NCCCNC(=O)[C@@H]1C[C@@H]1c1cccc(F)c1)c1ccc(-c2c3nc(c(-c4c(F)c(F)c(F)c(F)c4F)c4ccc([nH]4)c(-c4c(F)c(F)c(F)c(F)c4F)c4nc(c(-c5c(F)c(F)c(F)c(F)c5F)c5ccc2[nH]5)C=C4)C=C3)cc1
REMARK SMILES IDX 4 1 3 2 1 3 2 4 20 6 21 7 82 8 22 9 81 10 23 11 24 12 25 13
REMARK SMILES IDX 75 14 26 15 80 16 74 17 76 18 27 19 79 20 73 21 72 22 28 24
REMARK SMILES IDX 60 25 40 26 59 27 41 28 44 29 58 30 77 31 42 32 43 33 57 35
REMARK SMILES IDX 78 36 45 37 29 38 30 39 38 40 31 41 32 42 36 43 39 44 33 45
REMARK SMILES IDX 34 46 37 47 35 48 61 49 62 50 70 51 63 52 64 53 68 54 71 55
REMARK SMILES IDX 65 56 66 57 69 58 67 59 46 60 47 61 55 62 48 63 49 64 53 65
REMARK SMILES IDX 56 66 50 67 51 68 54 69 52 70 5 71 6 72 7 73 8 74 9 76 10 77
REMARK SMILES IDX 11 78 12 79 13 80 14 81 19 82 15 83 17 84 16 85 18 86
REMARK H PARENT 3 5 76 23 44 34 7 75
REMARK Flexibility Score: inf
ROOT
ATOM      1  C   UNL A   1      32.540  32.418  26.870  1.00  0.00     0.118 C 
ENDROOT
BRANCH   1   2
ATOM      2  N   UNL A   1      32.366  33.782  27.361  1.00  0.00    -0.352 N 
ATOM      3  O   UNL A   1      32.627  35.537  28.759  1.00  0.00    -0.269 OA
ATOM      4  C   UNL A   1      33.020  34.442  28.372  1.00  0.00     0.251 C 
ATOM      5  H   UNL A   1      31.674  34.309  26.898  1.00  0.00     0.163 HD
BRANCH   4   6
ATOM      6  C   UNL A   1      34.197  33.814  29.003  1.00  0.00     0.039 A 
ATOM      7  C   UNL A   1      34.028  32.722  29.855  1.00  0.00     0.014 A 
ATOM      8  C   UNL A   1      35.474  34.316  28.742  1.00  0.00     0.014 A 
ATOM      9  C   UNL A   1      35.105  32.243  30.579  1.00  0.00     0.010 A 
ATOM     10  C   UNL A   1      36.579  33.747  29.376  1.00  0.00     0.010 A 
ATOM     11  C   UNL A   1      36.399  32.717  30.312  1.00  0.00    -0.014 A 
BRANCH  11  12
ATOM     12  C   UNL A   1      37.547  32.007  30.920  1.00  0.00     0.031 A 
ATOM     13  C   UNL A   1      38.323  30.972  30.164  1.00  0.00     0.074 A 
ATOM     14  C   UNL A   1      37.889  32.343  32.181  1.00  0.00     0.049 A 
ATOM     15  N   UNL A   1      39.343  30.259  30.570  1.00  0.00    -0.248 NA
ATOM     16  C   UNL A   1      37.909  30.691  28.779  1.00  0.00     0.031 C 
ATOM     17  C   UNL A   1      37.188  33.335  33.003  1.00  0.00     0.029 A 
ATOM     18  N   UNL A   1      38.908  31.909  32.988  1.00  0.00    -0.354 N 
ATOM     19  C   UNL A   1      39.682  29.438  29.504  1.00  0.00     0.074 A 
ATOM     20  C   UNL A   1      38.753  29.726  28.433  1.00  0.00     0.031 C 
ATOM     21  C   UNL A   1      37.821  33.466  34.174  1.00  0.00     0.029 A 
ATOM     22  C   UNL A   1      38.915  32.506  34.225  1.00  0.00     0.049 A 
ATOM     23  H   UNL A   1      39.570  31.236  32.708  1.00  0.00     0.167 HD
ATOM     24  C   UNL A   1      40.687  28.533  29.440  1.00  0.00     0.037 A 
ATOM     25  C   UNL A   1      39.688  32.279  35.302  1.00  0.00     0.037 A 
ATOM     26  C   UNL A   1      41.618  28.282  30.511  1.00  0.00     0.049 A 
ATOM     27  C   UNL A   1      40.762  31.237  35.206  1.00  0.00     0.074 A 
ATOM     28  C   UNL A   1      42.706  27.427  30.516  1.00  0.00     0.029 A 
ATOM     29  N   UNL A   1      41.567  28.875  31.763  1.00  0.00    -0.354 N 
ATOM     30  N   UNL A   1      41.103  30.500  34.177  1.00  0.00    -0.248 NA
ATOM     31  C   UNL A   1      41.549  30.980  36.418  1.00  0.00     0.031 C 
ATOM     32  C   UNL A   1      43.276  27.454  31.790  1.00  0.00     0.029 A 
ATOM     33  C   UNL A   1      42.581  28.369  32.563  1.00  0.00     0.049 A 
ATOM     34  H   UNL A   1      40.910  29.551  32.043  1.00  0.00     0.167 HD
ATOM     35  C   UNL A   1      42.145  29.698  34.613  1.00  0.00     0.074 A 
ATOM     36  C   UNL A   1      42.402  30.058  35.991  1.00  0.00     0.031 C 
ATOM     37  C   UNL A   1      42.819  28.739  33.934  1.00  0.00     0.037 A 
BRANCH  24  38
ATOM     38  C   UNL A   1      40.860  27.730  28.186  1.00  0.00     0.064 A 
ATOM     39  C   UNL A   1      40.358  26.420  28.115  1.00  0.00     0.173 A 
ATOM     40  C   UNL A   1      41.656  28.187  27.126  1.00  0.00     0.173 A 
ATOM     41  F   UNL A   1      39.599  25.933  29.109  1.00  0.00    -0.203 F 
ATOM     42  C   UNL A   1      40.679  25.585  27.048  1.00  0.00     0.198 A 
ATOM     43  C   UNL A   1      41.956  27.356  26.049  1.00  0.00     0.198 A 
ATOM     44  F   UNL A   1      42.153  29.432  27.145  1.00  0.00    -0.203 F 
ATOM     45  F   UNL A   1      40.237  24.321  27.030  1.00  0.00    -0.200 F 
ATOM     46  C   UNL A   1      41.482  26.053  26.019  1.00  0.00     0.200 A 
ATOM     47  F   UNL A   1      42.722  27.811  25.048  1.00  0.00    -0.200 F 
ATOM     48  F   UNL A   1      41.807  25.244  25.001  1.00  0.00    -0.200 F 
ENDBRANCH  24  38
BRANCH  25  49
ATOM     49  C   UNL A   1      39.433  33.026  36.560  1.00  0.00     0.064 A 
ATOM     50  C   UNL A   1      38.476  32.581  37.487  1.00  0.00     0.173 A 
ATOM     51  C   UNL A   1      40.120  34.211  36.853  1.00  0.00     0.173 A 
ATOM     52  F   UNL A   1      37.785  31.456  37.251  1.00  0.00    -0.203 F 
ATOM     53  C   UNL A   1      38.199  33.304  38.643  1.00  0.00     0.198 A 
ATOM     54  C   UNL A   1      39.869  34.914  38.030  1.00  0.00     0.198 A 
ATOM     55  F   UNL A   1      41.055  34.670  36.009  1.00  0.00    -0.203 F 
ATOM     56  F   UNL A   1      37.248  32.879  39.485  1.00  0.00    -0.200 F 
ATOM     57  C   UNL A   1      38.903  34.465  38.919  1.00  0.00     0.200 A 
ATOM     58  F   UNL A   1      40.569  36.022  38.307  1.00  0.00    -0.200 F 
ATOM     59  F   UNL A   1      38.653  35.151  40.043  1.00  0.00    -0.200 F 
ENDBRANCH  25  49
BRANCH  37  60
ATOM     60  C   UNL A   1      43.901  28.005  34.665  1.00  0.00     0.064 A 
ATOM     61  C   UNL A   1      45.220  28.484  34.656  1.00  0.00     0.173 A 
ATOM     62  C   UNL A   1      43.647  26.780  35.297  1.00  0.00     0.173 A 
ATOM     63  F   UNL A   1      45.513  29.648  34.058  1.00  0.00    -0.203 F 
ATOM     64  C   UNL A   1      46.251  27.746  35.228  1.00  0.00     0.198 A 
ATOM     65  C   UNL A   1      44.677  26.060  35.895  1.00  0.00     0.198 A 
ATOM     66  F   UNL A   1      42.399  26.291  35.346  1.00  0.00    -0.203 F 
ATOM     67  F   UNL A   1      47.511  28.199  35.167  1.00  0.00    -0.200 F 
ATOM     68  C   UNL A   1      45.979  26.536  35.848  1.00  0.00     0.200 A 
ATOM     69  F   UNL A   1      44.409  24.903  36.516  1.00  0.00    -0.200 F 
ATOM     70  F   UNL A   1      46.972  25.828  36.403  1.00  0.00    -0.200 F 
ENDBRANCH  37  60
ENDBRANCH  11  12
ENDBRANCH   4   6
ENDBRANCH   1   2
BRANCH   1  71
ATOM     71  C   UNL A   1      31.233  31.755  26.466  1.00  0.00     0.042 C 
BRANCH  71  72
ATOM     72  C   UNL A   1      31.403  30.289  26.130  1.00  0.00     0.117 C 
BRANCH  72  73
ATOM     73  N   UNL A   1      32.077  30.078  24.864  1.00  0.00    -0.356 N 
ATOM     74  C   UNL A   1      31.693  29.272  23.832  1.00  0.00     0.223 C 
ATOM     75  H   UNL A   1      32.915  30.579  24.733  1.00  0.00     0.163 HD
ATOM     76  O   UNL A   1      32.371  29.202  22.809  1.00  0.00    -0.275 OA
BRANCH  74  77
ATOM     77  C   UNL A   1      30.471  28.455  24.005  1.00  0.00     0.086 C 
ATOM     78  C   UNL A   1      29.821  27.815  22.807  1.00  0.00     0.023 C 
ATOM     79  C   UNL A   1      29.095  28.915  23.546  1.00  0.00     0.032 C 
BRANCH  79  80
ATOM     80  C   UNL A   1      28.840  30.233  22.841  1.00  0.00    -0.041 A 
ATOM     81  C   UNL A   1      28.379  30.282  21.515  1.00  0.00     0.004 A 
ATOM     82  C   UNL A   1      28.987  31.464  23.494  1.00  0.00     0.043 A 
ATOM     83  C   UNL A   1      28.132  31.499  20.863  1.00  0.00     0.003 A 
ATOM     84  C   UNL A   1      28.778  32.674  22.840  1.00  0.00     0.123 A 
ATOM     85  C   UNL A   1      28.352  32.703  21.524  1.00  0.00     0.039 A 
ATOM     86  F   UNL A   1      28.984  33.821  23.501  1.00  0.00    -0.207 F 
ENDBRANCH  79  80
ENDBRANCH  74  77
ENDBRANCH  72  73
ENDBRANCH  71  72
ENDBRANCH   1  71
TORSDOF 11
ENDMDL
MODEL 3
REMARK VINA RESULT:     -12.3      0.502      7.726
REMARK SMILES O=C(NCCCNC(=O)[C@@H]1C[C@@H]1c1cccc(F)c1)c1ccc(-c2c3nc(c(-c4c(F)c(F)c(F)c(F)c4F)c4ccc([nH]4)c(-c4c(F)c(F)c(F)c(F)c4F)c4nc(c(-c5c(F)c(F)c(F)c(F)c5F)c5ccc2[nH]5)C=C4)C=C3)cc1
REMARK SMILES IDX 4 1 3 2 1 3 2 4 20 6 21 7 82 8 22 9 81 10 23 11 24 12 25 13
REMARK SMILES IDX 75 14 26 15 80 16 74 17 76 18 27 19 79 20 73 21 72 22 28 24
REMARK SMILES IDX 60 25 40 26 59 27 41 28 44 29 58 30 77 31 42 32 43 33 57 35
REMARK SMILES IDX 78 36 45 37 29 38 30 39 38 40 31 41 32 42 36 43 39 44 33 45
REMARK SMILES IDX 34 46 37 47 35 48 61 49 62 50 70 51 63 52 64 53 68 54 71 55
REMARK SMILES IDX 65 56 66 57 69 58 67 59 46 60 47 61 55 62 48 63 49 64 53 65
REMARK SMILES IDX 56 66 50 67 51 68 54 69 52 70 5 71 6 72 7 73 8 74 9 76 10 77
REMARK SMILES IDX 11 78 12 79 13 80 14 81 19 82 15 83 17 84 16 85 18 86
REMARK H PARENT 3 5 76 23 44 34 7 75
REMARK Flexibility Score: inf
ROOT
ATOM      1  C   UNL A   1      32.659  32.328  26.959  1.00  0.00     0.118 C 
ENDROOT
BRANCH   1   2
ATOM      2  N   UNL A   1      32.434  33.697  27.415  1.00  0.00    -0.352 N 
ATOM      3  O   UNL A   1      32.620  35.493  28.772  1.00  0.00    -0.269 OA
ATOM      4  C   UNL A   1      33.055  34.403  28.416  1.00  0.00     0.251 C 
ATOM      5  H   UNL A   1      31.730  34.188  26.932  1.00  0.00     0.163 HD
BRANCH   4   6
ATOM      6  C   UNL A   1      34.245  33.831  29.074  1.00  0.00     0.039 A 
ATOM      7  C   UNL A   1      34.098  32.788  29.990  1.00  0.00     0.014 A 
ATOM      8  C   UNL A   1      35.512  34.335  28.774  1.00  0.00     0.014 A 
ATOM      9  C   UNL A   1      35.187  32.369  30.733  1.00  0.00     0.010 A 
ATOM     10  C   UNL A   1      36.631  33.820  29.433  1.00  0.00     0.010 A 
ATOM     11  C   UNL A   1      36.472  32.845  30.430  1.00  0.00    -0.014 A 
BRANCH  11  12
ATOM     12  C   UNL A   1      37.634  32.189  31.070  1.00  0.00     0.031 A 
ATOM     13  C   UNL A   1      38.094  32.569  32.445  1.00  0.00     0.074 A 
ATOM     14  C   UNL A   1      38.256  31.213  30.378  1.00  0.00     0.049 A 
ATOM     15  N   UNL A   1      39.103  32.091  33.128  1.00  0.00    -0.248 NA
ATOM     16  C   UNL A   1      37.337  33.618  33.148  1.00  0.00     0.031 C 
ATOM     17  C   UNL A   1      37.886  30.776  29.028  1.00  0.00     0.029 A 
ATOM     18  N   UNL A   1      39.310  30.402  30.707  1.00  0.00    -0.354 N 
ATOM     19  C   UNL A   1      39.113  32.786  34.328  1.00  0.00     0.074 A 
ATOM     20  C   UNL A   1      38.020  33.733  34.281  1.00  0.00     0.031 C 
ATOM     21  C   UNL A   1      38.667  29.753  28.663  1.00  0.00     0.029 A 
ATOM     22  C   UNL A   1      39.651  29.519  29.710  1.00  0.00     0.049 A 
ATOM     23  H   UNL A   1      39.778  30.447  31.572  1.00  0.00     0.167 HD
ATOM     24  C   UNL A   1      39.964  32.633  35.370  1.00  0.00     0.037 A 
ATOM     25  C   UNL A   1      40.669  28.644  29.626  1.00  0.00     0.037 A 
ATOM     26  C   UNL A   1      41.031  31.665  35.406  1.00  0.00     0.049 A 
ATOM     27  C   UNL A   1      41.617  28.535  30.783  1.00  0.00     0.074 A 
ATOM     28  C   UNL A   1      41.907  31.395  36.443  1.00  0.00     0.029 A 
ATOM     29  N   UNL A   1      41.371  30.818  34.362  1.00  0.00    -0.354 N 
ATOM     30  N   UNL A   1      41.588  29.165  31.932  1.00  0.00    -0.248 NA
ATOM     31  C   UNL A   1      42.746  27.609  30.632  1.00  0.00     0.031 C 
ATOM     32  C   UNL A   1      42.817  30.431  36.005  1.00  0.00     0.029 A 
ATOM     33  C   UNL A   1      42.474  30.055  34.717  1.00  0.00     0.049 A 
ATOM     34  H   UNL A   1      40.902  30.767  33.498  1.00  0.00     0.167 HD
ATOM     35  C   UNL A   1      42.688  28.710  32.642  1.00  0.00     0.074 A 
ATOM     36  C   UNL A   1      43.347  27.728  31.809  1.00  0.00     0.031 C 
ATOM     37  C   UNL A   1      43.117  29.084  33.871  1.00  0.00     0.037 A 
BRANCH  24  38
ATOM     38  C   UNL A   1      39.806  33.516  36.571  1.00  0.00     0.064 A 
ATOM     39  C   UNL A   1      38.931  33.144  37.606  1.00  0.00     0.173 A 
ATOM     40  C   UNL A   1      40.381  34.793  36.624  1.00  0.00     0.173 A 
ATOM     41  F   UNL A   1      38.348  31.936  37.596  1.00  0.00    -0.203 F 
ATOM     42  C   UNL A   1      38.611  34.033  38.629  1.00  0.00     0.198 A 
ATOM     43  C   UNL A   1      40.076  35.671  37.661  1.00  0.00     0.198 A 
ATOM     44  F   UNL A   1      41.226  35.192  35.662  1.00  0.00    -0.203 F 
ATOM     45  F   UNL A   1      37.731  33.677  39.574  1.00  0.00    -0.200 F 
ATOM     46  C   UNL A   1      39.180  35.298  38.652  1.00  0.00     0.200 A 
ATOM     47  F   UNL A   1      40.634  36.890  37.691  1.00  0.00    -0.200 F 
ATOM     48  F   UNL A   1      38.856  36.161  39.625  1.00  0.00    -0.200 F 
ENDBRANCH  24  38
BRANCH  25  49
ATOM     49  C   UNL A   1      40.854  27.849  28.385  1.00  0.00     0.064 A 
ATOM     50  C   UNL A   1      40.302  26.563  28.260  1.00  0.00     0.173 A 
ATOM     51  C   UNL A   1      41.603  28.343  27.311  1.00  0.00     0.173 A 
ATOM     52  F   UNL A   1      39.583  26.040  29.263  1.00  0.00    -0.203 F 
ATOM     53  C   UNL A   1      40.515  25.795  27.119  1.00  0.00     0.198 A 
ATOM     54  C   UNL A   1      41.783  27.588  26.153  1.00  0.00     0.198 A 
ATOM     55  F   UNL A   1      42.137  29.572  27.375  1.00  0.00    -0.203 F 
ATOM     56  F   UNL A   1      40.015  24.555  27.047  1.00  0.00    -0.200 F 
ATOM     57  C   UNL A   1      41.247  26.312  26.062  1.00  0.00     0.200 A 
ATOM     58  F   UNL A   1      42.469  28.101  25.123  1.00  0.00    -0.200 F 
ATOM     59  F   UNL A   1      41.433  25.582  24.954  1.00  0.00    -0.200 F 
ENDBRANCH  25  49
BRANCH  37  60
ATOM     60  C   UNL A   1      44.361  28.434  34.395  1.00  0.00     0.064 A 
ATOM     61  C   UNL A   1      45.621  28.999  34.145  1.00  0.00     0.173 A 
ATOM     62  C   UNL A   1      44.310  27.204  35.065  1.00  0.00     0.173 A 
ATOM     63  F   UNL A   1      45.721  30.171  33.502  1.00  0.00    -0.203 F 
ATOM     64  C   UNL A   1      46.786  28.339  34.522  1.00  0.00     0.198 A 
ATOM     65  C   UNL A   1      45.477  26.562  35.468  1.00  0.00     0.198 A 
ATOM     66  F   UNL A   1      43.127  26.634  35.341  1.00  0.00    -0.203 F 
ATOM     67  F   UNL A   1      47.981  28.874  34.232  1.00  0.00    -0.200 F 
ATOM     68  C   UNL A   1      46.713  27.123  35.184  1.00  0.00     0.200 A 
ATOM     69  F   UNL A   1      45.405  25.399  36.130  1.00  0.00    -0.200 F 
ATOM     70  F   UNL A   1      47.836  26.490  35.551  1.00  0.00    -0.200 F 
ENDBRANCH  37  60
ENDBRANCH  11  12
ENDBRANCH   4   6
ENDBRANCH   1   2
BRANCH   1  71
ATOM     71  C   UNL A   1      31.400  31.655  26.439  1.00  0.00     0.042 C 
BRANCH  71  72
ATOM     72  C   UNL A   1      31.610  30.189  26.125  1.00  0.00     0.117 C 
BRANCH  72  73
ATOM     73  N   UNL A   1      32.220  29.975  24.827  1.00  0.00    -0.356 N 
ATOM     74  C   UNL A   1      31.794  29.153  23.824  1.00  0.00     0.223 C 
ATOM     75  H   UNL A   1      33.042  30.487  24.647  1.00  0.00     0.163 HD
ATOM     76  O   UNL A   1      32.417  29.083  22.767  1.00  0.00    -0.275 OA
BRANCH  74  77
ATOM     77  C   UNL A   1      30.594  28.321  24.069  1.00  0.00     0.086 C 
ATOM     78  C   UNL A   1      29.910  27.635  22.917  1.00  0.00     0.023 C 
ATOM     79  C   UNL A   1      29.193  28.743  23.652  1.00  0.00     0.032 C 
BRANCH  79  80
ATOM     80  C   UNL A   1      28.886  30.036  22.922  1.00  0.00    -0.041 A 
ATOM     81  C   UNL A   1      28.409  30.039  21.600  1.00  0.00     0.004 A 
ATOM     82  C   UNL A   1      28.998  31.285  23.545  1.00  0.00     0.043 A 
ATOM     83  C   UNL A   1      28.114  31.232  20.924  1.00  0.00     0.003 A 
ATOM     84  C   UNL A   1      28.741  32.472  22.866  1.00  0.00     0.123 A 
ATOM     85  C   UNL A   1      28.300  32.457  21.555  1.00  0.00     0.039 A 
ATOM     86  F   UNL A   1      28.914  33.640  23.500  1.00  0.00    -0.207 F 
ENDBRANCH  79  80
ENDBRANCH  74  77
ENDBRANCH  72  73
ENDBRANCH  71  72
ENDBRANCH   1  71
TORSDOF 11
ENDMDL
