MODEL 1
REMARK VINA RESULT:     -12.9      0.000      0.000
REMARK SMILES COc1ccc(/C=C(\Sc2nc(C)n[nH]2)C(=O)NCCCNC(=O)c2ccc(-c3c4nc(c(-c5c(F)c(F)c(F)c(F)c5F)c5ccc([nH]5)c(-c5c(F)c(F)c(F)c(F)c5F)c5nc(c(-c6c(F)c(F)c(F)c(F)c6F)c6ccc3[nH]6)C=C5)C=C4)cc2)c(OC)c1
REMARK SMILES IDX 20 1 19 2 18 3 16 4 17 5 8 7 7 8 6 9 3 10 4 11 91 12 5 13
REMARK SMILES IDX 88 14 2 15 1 16 89 17 90 18 9 19 10 20 11 21 15 22 12 23
REMARK SMILES IDX 14 24 13 26 21 27 22 28 23 29 24 31 25 32 26 33 87 34 27 35
REMARK SMILES IDX 86 36 28 37 29 38 30 39 80 40 31 41 85 42 79 43 81 44 32 45
REMARK SMILES IDX 84 46 78 47 77 48 33 50 65 51 45 52 64 53 46 54 49 55 63 56
REMARK SMILES IDX 82 57 47 58 48 59 62 61 83 62 50 63 34 64 35 65 43 66 36 67
REMARK SMILES IDX 37 68 41 69 44 70 38 71 39 72 42 73 40 74 66 75 67 76 75 77
REMARK SMILES IDX 68 78 69 79 73 80 76 81 70 82 71 83 74 84 72 85 51 86 52 87
REMARK SMILES IDX 60 88 53 89 54 90 58 91 61 92 55 93 56 94 59 95 57 96
REMARK H PARENT 18 6 15 25 22 30 81 49 49 60
REMARK Flexibility Score: inf
ROOT
ATOM      1  C   UNL A   1      38.021  21.308  25.363  1.00  0.00     0.042 C 
ENDROOT
BRANCH   1   2
ATOM      2  C   UNL A   1      36.650  21.997  25.233  1.00  0.00     0.118 C 
BRANCH   2   3
ATOM      3  N   UNL A   1      35.749  21.677  26.338  1.00  0.00    -0.352 N 
ATOM      4  C   UNL A   1      34.469  22.064  26.645  1.00  0.00     0.258 C 
ATOM      5  O   UNL A   1      33.959  21.525  27.631  1.00  0.00    -0.269 OA
ATOM      6  H   UNL A   1      36.140  21.058  26.997  1.00  0.00     0.163 HD
BRANCH   4   7
ATOM      7  C   UNL A   1      33.680  23.061  25.803  1.00  0.00     0.081 C 
ATOM      8  C   UNL A   1      33.921  24.351  26.135  1.00  0.00     0.033 C 
BRANCH   8   9
ATOM      9  C   UNL A   1      33.327  25.602  25.628  1.00  0.00     0.018 A 
ATOM     10  C   UNL A   1      32.463  28.168  24.869  1.00  0.00     0.122 A 
ATOM     11  C   UNL A   1      33.605  27.613  24.298  1.00  0.00     0.047 A 
ATOM     12  C   UNL A   1      31.660  27.375  25.682  1.00  0.00     0.093 A 
ATOM     13  C   UNL A   1      34.028  26.335  24.665  1.00  0.00     0.016 A 
ATOM     14  C   UNL A   1      32.056  26.067  26.004  1.00  0.00     0.129 A 
BRANCH  10  15
ATOM     15  O   UNL A   1      32.219  29.474  24.543  1.00  0.00    -0.497 OA
ATOM     16  C   UNL A   1      31.592  30.261  25.549  1.00  0.00     0.278 C 
ENDBRANCH  10  15
BRANCH  14  17
ATOM     17  O   UNL A   1      31.209  25.221  26.683  1.00  0.00    -0.496 OA
ATOM     18  C   UNL A   1      29.886  25.201  26.128  1.00  0.00     0.278 C 
ENDBRANCH  14  17
ENDBRANCH   8   9
BRANCH   7  19
ATOM     19  S   UNL A   1      32.717  22.334  24.564  1.00  0.00    -0.045 SA
BRANCH  19  20
ATOM     20  C   UNL A   1      32.898  20.648  24.604  1.00  0.00     0.188 A 
ATOM     21  N   UNL A   1      33.879  19.929  24.128  1.00  0.00    -0.206 NA
ATOM     22  N   UNL A   1      32.107  19.882  25.404  1.00  0.00    -0.254 N 
ATOM     23  C   UNL A   1      33.595  18.680  24.615  1.00  0.00     0.148 A 
ATOM     24  N   UNL A   1      32.528  18.607  25.424  1.00  0.00    -0.158 NA
ATOM     25  H   UNL A   1      31.327  20.219  25.902  1.00  0.00     0.192 HD
ATOM     26  C   UNL A   1      34.412  17.511  24.253  1.00  0.00     0.092 C 
ENDBRANCH  19  20
ENDBRANCH   7  19
ENDBRANCH   4   7
ENDBRANCH   2   3
ENDBRANCH   1   2
BRANCH   1  27
ATOM     27  C   UNL A   1      39.021  22.151  26.128  1.00  0.00     0.118 C 
BRANCH  27  28
ATOM     28  N   UNL A   1      40.412  21.840  25.785  1.00  0.00    -0.352 N 
ATOM     29  C   UNL A   1      41.528  22.656  25.889  1.00  0.00     0.251 C 
ATOM     30  H   UNL A   1      40.575  20.935  25.435  1.00  0.00     0.163 HD
ATOM     31  O   UNL A   1      42.550  22.411  25.271  1.00  0.00    -0.269 OA
BRANCH  29  32
ATOM     32  C   UNL A   1      41.451  23.832  26.775  1.00  0.00     0.039 A 
ATOM     33  C   UNL A   1      42.105  23.890  28.008  1.00  0.00     0.014 A 
ATOM     34  C   UNL A   1      40.723  24.918  26.307  1.00  0.00     0.014 A 
ATOM     35  C   UNL A   1      42.065  25.083  28.725  1.00  0.00     0.010 A 
ATOM     36  C   UNL A   1      40.909  26.142  26.870  1.00  0.00     0.010 A 
ATOM     37  C   UNL A   1      41.471  26.208  28.134  1.00  0.00    -0.014 A 
BRANCH  37  38
ATOM     38  C   UNL A   1      41.471  27.520  28.758  1.00  0.00     0.031 A 
ATOM     39  C   UNL A   1      42.585  28.395  28.325  1.00  0.00     0.074 A 
ATOM     40  C   UNL A   1      40.402  27.967  29.455  1.00  0.00     0.049 A 
ATOM     41  N   UNL A   1      43.557  28.834  29.051  1.00  0.00    -0.248 NA
ATOM     42  C   UNL A   1      42.732  28.693  26.890  1.00  0.00     0.031 C 
ATOM     43  C   UNL A   1      39.113  27.299  29.689  1.00  0.00     0.029 A 
ATOM     44  N   UNL A   1      40.200  29.187  30.015  1.00  0.00    -0.354 N 
ATOM     45  C   UNL A   1      44.329  29.635  28.216  1.00  0.00     0.074 A 
ATOM     46  C   UNL A   1      43.895  29.349  26.873  1.00  0.00     0.031 C 
ATOM     47  C   UNL A   1      38.203  28.200  30.122  1.00  0.00     0.029 A 
ATOM     48  C   UNL A   1      38.877  29.460  30.354  1.00  0.00     0.049 A 
ATOM     49  H   UNL A   1      40.931  29.829  30.169  1.00  0.00     0.167 HD
ATOM     50  C   UNL A   1      45.077  30.649  28.730  1.00  0.00     0.037 A 
ATOM     51  C   UNL A   1      38.386  30.659  30.761  1.00  0.00     0.037 A 
ATOM     52  C   UNL A   1      45.217  30.504  30.161  1.00  0.00     0.049 A 
ATOM     53  C   UNL A   1      39.547  31.460  31.234  1.00  0.00     0.074 A 
ATOM     54  C   UNL A   1      45.744  29.525  30.981  1.00  0.00     0.029 A 
ATOM     55  N   UNL A   1      44.400  31.264  30.964  1.00  0.00    -0.354 N 
ATOM     56  N   UNL A   1      40.235  31.157  32.303  1.00  0.00    -0.248 NA
ATOM     57  C   UNL A   1      40.246  32.273  30.249  1.00  0.00     0.031 C 
ATOM     58  C   UNL A   1      44.841  29.443  32.081  1.00  0.00     0.029 A 
ATOM     59  C   UNL A   1      43.872  30.433  31.920  1.00  0.00     0.049 A 
ATOM     60  H   UNL A   1      44.226  32.228  30.872  1.00  0.00     0.167 HD
ATOM     61  C   UNL A   1      41.559  31.352  31.934  1.00  0.00     0.074 A 
ATOM     62  C   UNL A   1      41.500  32.106  30.682  1.00  0.00     0.031 C 
ATOM     63  C   UNL A   1      42.563  30.621  32.502  1.00  0.00     0.037 A 
BRANCH  50  64
ATOM     64  C   UNL A   1      45.346  31.963  28.036  1.00  0.00     0.064 A 
ATOM     65  C   UNL A   1      44.250  32.781  27.690  1.00  0.00     0.173 A 
ATOM     66  C   UNL A   1      46.573  32.305  27.429  1.00  0.00     0.173 A 
ATOM     67  F   UNL A   1      43.034  32.549  28.207  1.00  0.00    -0.203 F 
ATOM     68  C   UNL A   1      44.355  33.790  26.731  1.00  0.00     0.198 A 
ATOM     69  C   UNL A   1      46.685  33.349  26.512  1.00  0.00     0.198 A 
ATOM     70  F   UNL A   1      47.685  31.583  27.600  1.00  0.00    -0.203 F 
ATOM     71  F   UNL A   1      43.258  34.446  26.333  1.00  0.00    -0.200 F 
ATOM     72  C   UNL A   1      45.571  34.066  26.134  1.00  0.00     0.200 A 
ATOM     73  F   UNL A   1      47.871  33.590  25.935  1.00  0.00    -0.200 F 
ATOM     74  F   UNL A   1      45.662  34.984  25.164  1.00  0.00    -0.200 F 
ENDBRANCH  50  64
BRANCH  51  75
ATOM     75  C   UNL A   1      37.054  31.254  30.488  1.00  0.00     0.064 A 
ATOM     76  C   UNL A   1      36.166  31.566  31.531  1.00  0.00     0.173 A 
ATOM     77  C   UNL A   1      36.733  31.783  29.221  1.00  0.00     0.173 A 
ATOM     78  F   UNL A   1      36.415  31.139  32.778  1.00  0.00    -0.203 F 
ATOM     79  C   UNL A   1      35.043  32.378  31.326  1.00  0.00     0.198 A 
ATOM     80  C   UNL A   1      35.611  32.589  29.017  1.00  0.00     0.198 A 
ATOM     81  F   UNL A   1      37.553  31.610  28.174  1.00  0.00    -0.203 F 
ATOM     82  F   UNL A   1      34.254  32.702  32.360  1.00  0.00    -0.200 F 
ATOM     83  C   UNL A   1      34.774  32.898  30.071  1.00  0.00     0.200 A 
ATOM     84  F   UNL A   1      35.382  33.116  27.805  1.00  0.00    -0.200 F 
ATOM     85  F   UNL A   1      33.737  33.727  29.888  1.00  0.00    -0.200 F 
ENDBRANCH  51  75
BRANCH  63  86
ATOM     86  C   UNL A   1      42.228  29.765  33.694  1.00  0.00     0.064 A 
ATOM     87  C   UNL A   1      41.793  28.431  33.612  1.00  0.00     0.173 A 
ATOM     88  C   UNL A   1      42.513  30.267  34.970  1.00  0.00     0.173 A 
ATOM     89  F   UNL A   1      41.599  27.839  32.429  1.00  0.00    -0.203 F 
ATOM     90  C   UNL A   1      41.611  27.652  34.755  1.00  0.00     0.198 A 
ATOM     91  C   UNL A   1      42.366  29.477  36.108  1.00  0.00     0.198 A 
ATOM     92  F   UNL A   1      42.987  31.513  35.110  1.00  0.00    -0.203 F 
ATOM     93  F   UNL A   1      41.188  26.384  34.646  1.00  0.00    -0.200 F 
ATOM     94  C   UNL A   1      41.907  28.175  36.002  1.00  0.00     0.200 A 
ATOM     95  F   UNL A   1      42.705  29.971  37.307  1.00  0.00    -0.200 F 
ATOM     96  F   UNL A   1      41.774  27.415  37.099  1.00  0.00    -0.200 F 
ENDBRANCH  63  86
ENDBRANCH  37  38
ENDBRANCH  29  32
ENDBRANCH  27  28
ENDBRANCH   1  27
TORSDOF 15
ENDMDL
MODEL 2
REMARK VINA RESULT:     -12.6      1.464      2.477
REMARK SMILES COc1ccc(/C=C(\Sc2nc(C)n[nH]2)C(=O)NCCCNC(=O)c2ccc(-c3c4nc(c(-c5c(F)c(F)c(F)c(F)c5F)c5ccc([nH]5)c(-c5c(F)c(F)c(F)c(F)c5F)c5nc(c(-c6c(F)c(F)c(F)c(F)c6F)c6ccc3[nH]6)C=C5)C=C4)cc2)c(OC)c1
REMARK SMILES IDX 20 1 19 2 18 3 16 4 17 5 8 7 7 8 6 9 3 10 4 11 91 12 5 13
REMARK SMILES IDX 88 14 2 15 1 16 89 17 90 18 9 19 10 20 11 21 15 22 12 23
REMARK SMILES IDX 14 24 13 26 21 27 22 28 23 29 24 31 25 32 26 33 87 34 27 35
REMARK SMILES IDX 86 36 28 37 29 38 30 39 80 40 31 41 85 42 79 43 81 44 32 45
REMARK SMILES IDX 84 46 78 47 77 48 33 50 65 51 45 52 64 53 46 54 49 55 63 56
REMARK SMILES IDX 82 57 47 58 48 59 62 61 83 62 50 63 34 64 35 65 43 66 36 67
REMARK SMILES IDX 37 68 41 69 44 70 38 71 39 72 42 73 40 74 66 75 67 76 75 77
REMARK SMILES IDX 68 78 69 79 73 80 76 81 70 82 71 83 74 84 72 85 51 86 52 87
REMARK SMILES IDX 60 88 53 89 54 90 58 91 61 92 55 93 56 94 59 95 57 96
REMARK H PARENT 18 6 15 25 22 30 81 49 49 60
REMARK Flexibility Score: inf
ROOT
ATOM      1  C   UNL A   1      37.298  22.251  24.693  1.00  0.00     0.042 C 
ENDROOT
BRANCH   1   2
ATOM      2  C   UNL A   1      36.130  21.262  24.861  1.00  0.00     0.118 C 
BRANCH   2   3
ATOM      3  N   UNL A   1      35.578  21.261  26.214  1.00  0.00    -0.352 N 
ATOM      4  C   UNL A   1      34.543  21.944  26.804  1.00  0.00     0.258 C 
ATOM      5  O   UNL A   1      34.282  21.634  27.970  1.00  0.00    -0.269 OA
ATOM      6  H   UNL A   1      36.043  20.647  26.827  1.00  0.00     0.163 HD
BRANCH   4   7
ATOM      7  C   UNL A   1      33.714  22.990  26.068  1.00  0.00     0.081 C 
ATOM      8  C   UNL A   1      34.444  24.045  25.636  1.00  0.00     0.033 C 
BRANCH   8   9
ATOM      9  C   UNL A   1      34.031  25.286  24.955  1.00  0.00     0.018 A 
ATOM     10  C   UNL A   1      32.896  27.591  23.812  1.00  0.00     0.122 A 
ATOM     11  C   UNL A   1      33.255  27.576  25.158  1.00  0.00     0.047 A 
ATOM     12  C   UNL A   1      33.266  26.522  23.002  1.00  0.00     0.093 A 
ATOM     13  C   UNL A   1      33.829  26.437  25.722  1.00  0.00     0.016 A 
ATOM     14  C   UNL A   1      33.897  25.399  23.560  1.00  0.00     0.129 A 
BRANCH  10  15
ATOM     15  O   UNL A   1      32.217  28.704  23.399  1.00  0.00    -0.497 OA
ATOM     16  C   UNL A   1      31.462  29.380  24.398  1.00  0.00     0.278 C 
ENDBRANCH  10  15
BRANCH  14  17
ATOM     17  O   UNL A   1      34.399  24.401  22.757  1.00  0.00    -0.496 OA
ATOM     18  C   UNL A   1      33.371  23.563  22.210  1.00  0.00     0.278 C 
ENDBRANCH  14  17
ENDBRANCH   8   9
BRANCH   7  19
ATOM     19  S   UNL A   1      32.048  22.566  25.878  1.00  0.00    -0.045 SA
BRANCH  19  20
ATOM     20  C   UNL A   1      31.106  23.968  25.735  1.00  0.00     0.188 A 
ATOM     21  N   UNL A   1      30.659  24.534  24.646  1.00  0.00    -0.206 NA
ATOM     22  N   UNL A   1      30.492  24.508  26.824  1.00  0.00    -0.254 N 
ATOM     23  C   UNL A   1      29.810  25.491  25.136  1.00  0.00     0.148 A 
ATOM     24  N   UNL A   1      29.657  25.498  26.468  1.00  0.00    -0.158 NA
ATOM     25  H   UNL A   1      30.642  24.212  27.751  1.00  0.00     0.192 HD
ATOM     26  C   UNL A   1      29.131  26.445  24.244  1.00  0.00     0.092 C 
ENDBRANCH  19  20
ENDBRANCH   7  19
ENDBRANCH   4   7
ENDBRANCH   2   3
ENDBRANCH   1   2
BRANCH   1  27
ATOM     27  C   UNL A   1      37.877  22.690  26.023  1.00  0.00     0.118 C 
BRANCH  27  28
ATOM     28  N   UNL A   1      39.068  21.927  26.407  1.00  0.00    -0.352 N 
ATOM     29  C   UNL A   1      40.340  22.401  26.694  1.00  0.00     0.251 C 
ATOM     30  H   UNL A   1      38.950  20.952  26.470  1.00  0.00     0.163 HD
ATOM     31  O   UNL A   1      41.309  21.663  26.670  1.00  0.00    -0.269 OA
BRANCH  29  32
ATOM     32  C   UNL A   1      40.491  23.827  27.035  1.00  0.00     0.039 A 
ATOM     33  C   UNL A   1      39.660  24.819  26.509  1.00  0.00     0.014 A 
ATOM     34  C   UNL A   1      41.484  24.147  27.951  1.00  0.00     0.014 A 
ATOM     35  C   UNL A   1      39.807  26.124  26.974  1.00  0.00     0.010 A 
ATOM     36  C   UNL A   1      41.445  25.347  28.590  1.00  0.00     0.010 A 
ATOM     37  C   UNL A   1      40.699  26.370  28.028  1.00  0.00    -0.014 A 
BRANCH  37  38
ATOM     38  C   UNL A   1      40.846  27.674  28.648  1.00  0.00     0.031 A 
ATOM     39  C   UNL A   1      41.967  28.479  28.108  1.00  0.00     0.074 A 
ATOM     40  C   UNL A   1      39.881  28.185  29.447  1.00  0.00     0.049 A 
ATOM     41  N   UNL A   1      43.031  28.849  28.736  1.00  0.00    -0.248 NA
ATOM     42  C   UNL A   1      41.992  28.775  26.666  1.00  0.00     0.031 C 
ATOM     43  C   UNL A   1      38.580  27.601  29.806  1.00  0.00     0.029 A 
ATOM     44  N   UNL A   1      39.815  29.413  30.023  1.00  0.00    -0.354 N 
ATOM     45  C   UNL A   1      43.768  29.604  27.828  1.00  0.00     0.074 A 
ATOM     46  C   UNL A   1      43.187  29.355  26.535  1.00  0.00     0.031 C 
ATOM     47  C   UNL A   1      37.777  28.556  30.326  1.00  0.00     0.029 A 
ATOM     48  C   UNL A   1      38.552  29.769  30.490  1.00  0.00     0.049 A 
ATOM     49  H   UNL A   1      40.597  30.005  30.105  1.00  0.00     0.167 HD
ATOM     50  C   UNL A   1      44.626  30.565  28.267  1.00  0.00     0.037 A 
ATOM     51  C   UNL A   1      38.181  30.994  30.943  1.00  0.00     0.037 A 
ATOM     52  C   UNL A   1      44.896  30.402  29.677  1.00  0.00     0.049 A 
ATOM     53  C   UNL A   1      39.432  31.715  31.300  1.00  0.00     0.074 A 
ATOM     54  C   UNL A   1      45.437  29.387  30.442  1.00  0.00     0.029 A 
ATOM     55  N   UNL A   1      44.213  31.209  30.556  1.00  0.00    -0.354 N 
ATOM     56  N   UNL A   1      40.200  31.363  32.296  1.00  0.00    -0.248 NA
ATOM     57  C   UNL A   1      40.083  32.487  30.251  1.00  0.00     0.031 C 
ATOM     58  C   UNL A   1      44.642  29.357  31.625  1.00  0.00     0.029 A 
ATOM     59  C   UNL A   1      43.727  30.408  31.559  1.00  0.00     0.049 A 
ATOM     60  H   UNL A   1      44.094  32.183  30.481  1.00  0.00     0.167 HD
ATOM     61  C   UNL A   1      41.492  31.474  31.799  1.00  0.00     0.074 A 
ATOM     62  C   UNL A   1      41.360  32.238  30.559  1.00  0.00     0.031 C 
ATOM     63  C   UNL A   1      42.497  30.676  32.267  1.00  0.00     0.037 A 
BRANCH  50  64
ATOM     64  C   UNL A   1      44.911  31.863  27.549  1.00  0.00     0.064 A 
ATOM     65  C   UNL A   1      46.165  32.029  26.926  1.00  0.00     0.173 A 
ATOM     66  C   UNL A   1      44.152  33.042  27.706  1.00  0.00     0.173 A 
ATOM     67  F   UNL A   1      46.973  30.977  26.724  1.00  0.00    -0.203 F 
ATOM     68  C   UNL A   1      46.661  33.290  26.588  1.00  0.00     0.198 A 
ATOM     69  C   UNL A   1      44.629  34.293  27.318  1.00  0.00     0.198 A 
ATOM     70  F   UNL A   1      42.975  33.060  28.342  1.00  0.00    -0.203 F 
ATOM     71  F   UNL A   1      47.914  33.410  26.129  1.00  0.00    -0.200 F 
ATOM     72  C   UNL A   1      45.896  34.423  26.794  1.00  0.00     0.200 A 
ATOM     73  F   UNL A   1      43.876  35.380  27.540  1.00  0.00    -0.200 F 
ATOM     74  F   UNL A   1      46.395  35.638  26.537  1.00  0.00    -0.200 F 
ENDBRANCH  50  64
BRANCH  51  75
ATOM     75  C   UNL A   1      36.870  31.676  30.801  1.00  0.00     0.064 A 
ATOM     76  C   UNL A   1      36.032  31.883  31.910  1.00  0.00     0.173 A 
ATOM     77  C   UNL A   1      36.533  32.381  29.628  1.00  0.00     0.173 A 
ATOM     78  F   UNL A   1      36.301  31.285  33.079  1.00  0.00    -0.203 F 
ATOM     79  C   UNL A   1      34.942  32.761  31.855  1.00  0.00     0.198 A 
ATOM     80  C   UNL A   1      35.443  33.253  29.575  1.00  0.00     0.198 A 
ATOM     81  F   UNL A   1      37.309  32.314  28.537  1.00  0.00    -0.203 F 
ATOM     82  F   UNL A   1      34.203  32.979  32.953  1.00  0.00    -0.200 F 
ATOM     83  C   UNL A   1      34.657  33.454  30.691  1.00  0.00     0.200 A 
ATOM     84  F   UNL A   1      35.201  33.945  28.451  1.00  0.00    -0.200 F 
ATOM     85  F   UNL A   1      33.654  34.343  30.658  1.00  0.00    -0.200 F 
ENDBRANCH  51  75
BRANCH  63  86
ATOM     86  C   UNL A   1      42.225  29.837  33.486  1.00  0.00     0.064 A 
ATOM     87  C   UNL A   1      41.743  28.517  33.446  1.00  0.00     0.173 A 
ATOM     88  C   UNL A   1      42.621  30.334  34.734  1.00  0.00     0.173 A 
ATOM     89  F   UNL A   1      41.442  27.927  32.284  1.00  0.00    -0.203 F 
ATOM     90  C   UNL A   1      41.623  27.749  34.604  1.00  0.00     0.198 A 
ATOM     91  C   UNL A   1      42.536  29.554  35.884  1.00  0.00     0.198 A 
ATOM     92  F   UNL A   1      43.145  31.565  34.830  1.00  0.00    -0.203 F 
ATOM     93  F   UNL A   1      41.151  26.495  34.535  1.00  0.00    -0.200 F 
ATOM     94  C   UNL A   1      42.028  28.268  35.822  1.00  0.00     0.200 A 
ATOM     95  F   UNL A   1      42.979  30.042  37.051  1.00  0.00    -0.200 F 
ATOM     96  F   UNL A   1      41.953  27.517  36.931  1.00  0.00    -0.200 F 
ENDBRANCH  63  86
ENDBRANCH  37  38
ENDBRANCH  29  32
ENDBRANCH  27  28
ENDBRANCH   1  27
TORSDOF 15
ENDMDL
MODEL 3
REMARK VINA RESULT:     -12.6      3.623      9.063
REMARK SMILES COc1ccc(/C=C(\Sc2nc(C)n[nH]2)C(=O)NCCCNC(=O)c2ccc(-c3c4nc(c(-c5c(F)c(F)c(F)c(F)c5F)c5ccc([nH]5)c(-c5c(F)c(F)c(F)c(F)c5F)c5nc(c(-c6c(F)c(F)c(F)c(F)c6F)c6ccc3[nH]6)C=C5)C=C4)cc2)c(OC)c1
REMARK SMILES IDX 20 1 19 2 18 3 16 4 17 5 8 7 7 8 6 9 3 10 4 11 91 12 5 13
REMARK SMILES IDX 88 14 2 15 1 16 89 17 90 18 9 19 10 20 11 21 15 22 12 23
REMARK SMILES IDX 14 24 13 26 21 27 22 28 23 29 24 31 25 32 26 33 87 34 27 35
REMARK SMILES IDX 86 36 28 37 29 38 30 39 80 40 31 41 85 42 79 43 81 44 32 45
REMARK SMILES IDX 84 46 78 47 77 48 33 50 65 51 45 52 64 53 46 54 49 55 63 56
REMARK SMILES IDX 82 57 47 58 48 59 62 61 83 62 50 63 34 64 35 65 43 66 36 67
REMARK SMILES IDX 37 68 41 69 44 70 38 71 39 72 42 73 40 74 66 75 67 76 75 77
REMARK SMILES IDX 68 78 69 79 73 80 76 81 70 82 71 83 74 84 72 85 51 86 52 87
REMARK SMILES IDX 60 88 53 89 54 90 58 91 61 92 55 93 56 94 59 95 57 96
REMARK H PARENT 18 6 15 25 22 30 81 49 49 60
REMARK Flexibility Score: inf
ROOT
ATOM      1  C   UNL A   1      33.477  29.210  26.854  1.00  0.00     0.042 C 
ENDROOT
BRANCH   1   2
ATOM      2  C   UNL A   1      32.534  29.811  25.794  1.00  0.00     0.118 C 
BRANCH   2   3
ATOM      3  N   UNL A   1      33.078  29.728  24.440  1.00  0.00    -0.352 N 
ATOM      4  C   UNL A   1      33.203  28.697  23.543  1.00  0.00     0.258 C 
ATOM      5  O   UNL A   1      33.638  28.997  22.427  1.00  0.00    -0.269 OA
ATOM      6  H   UNL A   1      33.427  30.585  24.104  1.00  0.00     0.163 HD
BRANCH   4   7
ATOM      7  C   UNL A   1      32.784  27.266  23.860  1.00  0.00     0.081 C 
ATOM      8  C   UNL A   1      33.786  26.519  24.383  1.00  0.00     0.033 C 
BRANCH   8   9
ATOM      9  C   UNL A   1      33.827  25.094  24.759  1.00  0.00     0.018 A 
ATOM     10  C   UNL A   1      34.211  22.469  25.691  1.00  0.00     0.122 A 
ATOM     11  C   UNL A   1      33.627  23.428  26.513  1.00  0.00     0.047 A 
ATOM     12  C   UNL A   1      34.439  22.773  24.353  1.00  0.00     0.093 A 
ATOM     13  C   UNL A   1      33.424  24.728  26.047  1.00  0.00     0.016 A 
ATOM     14  C   UNL A   1      34.180  24.065  23.869  1.00  0.00     0.129 A 
BRANCH  10  15
ATOM     15  O   UNL A   1      34.489  21.272  26.292  1.00  0.00    -0.497 OA
ATOM     16  C   UNL A   1      33.627  20.190  25.954  1.00  0.00     0.278 C 
ENDBRANCH  10  15
BRANCH  14  17
ATOM     17  O   UNL A   1      34.260  24.344  22.523  1.00  0.00    -0.496 OA
ATOM     18  C   UNL A   1      33.052  24.023  21.820  1.00  0.00     0.278 C 
ENDBRANCH  14  17
ENDBRANCH   8   9
BRANCH   7  19
ATOM     19  S   UNL A   1      31.114  26.935  23.561  1.00  0.00    -0.045 SA
BRANCH  19  20
ATOM     20  C   UNL A   1      30.328  28.343  23.038  1.00  0.00     0.188 A 
ATOM     21  N   UNL A   1      29.753  29.265  23.764  1.00  0.00    -0.206 NA
ATOM     22  N   UNL A   1      30.460  28.778  21.755  1.00  0.00    -0.254 N 
ATOM     23  C   UNL A   1      29.475  30.239  22.840  1.00  0.00     0.148 A 
ATOM     24  N   UNL A   1      29.912  29.994  21.597  1.00  0.00    -0.158 NA
ATOM     25  H   UNL A   1      30.898  28.267  21.036  1.00  0.00     0.192 HD
ATOM     26  C   UNL A   1      28.736  31.457  23.208  1.00  0.00     0.092 C 
ENDBRANCH  19  20
ENDBRANCH   7  19
ENDBRANCH   4   7
ENDBRANCH   2   3
ENDBRANCH   1   2
BRANCH   1  27
ATOM     27  C   UNL A   1      33.730  30.160  28.006  1.00  0.00     0.118 C 
BRANCH  27  28
ATOM     28  N   UNL A   1      34.205  31.476  27.568  1.00  0.00    -0.352 N 
ATOM     29  C   UNL A   1      35.446  32.058  27.779  1.00  0.00     0.251 C 
ATOM     30  H   UNL A   1      33.560  32.017  27.059  1.00  0.00     0.163 HD
ATOM     31  O   UNL A   1      35.608  33.261  27.665  1.00  0.00    -0.269 OA
BRANCH  29  32
ATOM     32  C   UNL A   1      36.574  31.181  28.142  1.00  0.00     0.039 A 
ATOM     33  C   UNL A   1      36.739  29.904  27.601  1.00  0.00     0.014 A 
ATOM     34  C   UNL A   1      37.507  31.701  29.029  1.00  0.00     0.014 A 
ATOM     35  C   UNL A   1      37.893  29.192  27.919  1.00  0.00     0.010 A 
ATOM     36  C   UNL A   1      38.737  31.127  29.121  1.00  0.00     0.010 A 
ATOM     37  C   UNL A   1      38.892  29.825  28.673  1.00  0.00    -0.014 A 
BRANCH  37  38
ATOM     38  C   UNL A   1      40.171  29.203  28.967  1.00  0.00     0.031 A 
ATOM     39  C   UNL A   1      40.411  28.967  30.410  1.00  0.00     0.074 A 
ATOM     40  C   UNL A   1      40.930  28.660  27.988  1.00  0.00     0.049 A 
ATOM     41  N   UNL A   1      41.314  29.518  31.148  1.00  0.00    -0.248 NA
ATOM     42  C   UNL A   1      39.446  28.148  31.162  1.00  0.00     0.031 C 
ATOM     43  C   UNL A   1      40.642  28.563  26.549  1.00  0.00     0.029 A 
ATOM     44  N   UNL A   1      42.091  27.965  28.097  1.00  0.00    -0.354 N 
ATOM     45  C   UNL A   1      41.166  28.961  32.415  1.00  0.00     0.074 A 
ATOM     46  C   UNL A   1      39.893  28.291  32.411  1.00  0.00     0.031 C 
ATOM     47  C   UNL A   1      41.469  27.659  25.977  1.00  0.00     0.029 A 
ATOM     48  C   UNL A   1      42.444  27.240  26.962  1.00  0.00     0.049 A 
ATOM     49  H   UNL A   1      42.641  27.973  28.915  1.00  0.00     0.167 HD
ATOM     50  C   UNL A   1      42.228  28.889  33.264  1.00  0.00     0.037 A 
ATOM     51  C   UNL A   1      43.452  26.334  26.872  1.00  0.00     0.037 A 
ATOM     52  C   UNL A   1      43.298  29.750  32.818  1.00  0.00     0.049 A 
ATOM     53  C   UNL A   1      44.378  26.609  28.003  1.00  0.00     0.074 A 
ATOM     54  C   UNL A   1      43.408  31.108  32.589  1.00  0.00     0.029 A 
ATOM     55  N   UNL A   1      44.344  29.171  32.138  1.00  0.00    -0.354 N 
ATOM     56  N   UNL A   1      45.098  27.695  28.088  1.00  0.00    -0.248 NA
ATOM     57  C   UNL A   1      44.113  25.934  29.266  1.00  0.00     0.031 C 
ATOM     58  C   UNL A   1      44.187  31.217  31.399  1.00  0.00     0.029 A 
ATOM     59  C   UNL A   1      44.585  29.934  31.024  1.00  0.00     0.049 A 
ATOM     60  H   UNL A   1      44.831  28.358  32.402  1.00  0.00     0.167 HD
ATOM     61  C   UNL A   1      44.999  28.078  29.419  1.00  0.00     0.074 A 
ATOM     62  C   UNL A   1      44.438  26.918  30.110  1.00  0.00     0.031 C 
ATOM     63  C   UNL A   1      45.083  29.393  29.780  1.00  0.00     0.037 A 
BRANCH  50  64
ATOM     64  C   UNL A   1      42.467  27.775  34.256  1.00  0.00     0.064 A 
ATOM     65  C   UNL A   1      43.024  26.565  33.791  1.00  0.00     0.173 A 
ATOM     66  C   UNL A   1      41.900  27.724  35.547  1.00  0.00     0.173 A 
ATOM     67  F   UNL A   1      43.591  26.496  32.577  1.00  0.00    -0.203 F 
ATOM     68  C   UNL A   1      42.924  25.378  34.519  1.00  0.00     0.198 A 
ATOM     69  C   UNL A   1      41.850  26.548  36.293  1.00  0.00     0.198 A 
ATOM     70  F   UNL A   1      41.270  28.768  36.097  1.00  0.00    -0.203 F 
ATOM     71  F   UNL A   1      43.343  24.228  33.975  1.00  0.00    -0.200 F 
ATOM     72  C   UNL A   1      42.327  25.368  35.765  1.00  0.00     0.200 A 
ATOM     73  F   UNL A   1      41.254  26.558  37.494  1.00  0.00    -0.200 F 
ATOM     74  F   UNL A   1      42.166  24.220  36.435  1.00  0.00    -0.200 F 
ENDBRANCH  50  64
BRANCH  51  75
ATOM     75  C   UNL A   1      43.503  25.083  26.073  1.00  0.00     0.064 A 
ATOM     76  C   UNL A   1      44.557  24.833  25.178  1.00  0.00     0.173 A 
ATOM     77  C   UNL A   1      42.669  23.987  26.372  1.00  0.00     0.173 A 
ATOM     78  F   UNL A   1      45.425  25.807  24.869  1.00  0.00    -0.203 F 
ATOM     79  C   UNL A   1      44.777  23.560  24.637  1.00  0.00     0.198 A 
ATOM     80  C   UNL A   1      42.888  22.719  25.828  1.00  0.00     0.198 A 
ATOM     81  F   UNL A   1      41.681  24.098  27.272  1.00  0.00    -0.203 F 
ATOM     82  F   UNL A   1      45.830  23.347  23.834  1.00  0.00    -0.200 F 
ATOM     83  C   UNL A   1      43.949  22.502  24.973  1.00  0.00     0.200 A 
ATOM     84  F   UNL A   1      42.100  21.696  26.190  1.00  0.00    -0.200 F 
ATOM     85  F   UNL A   1      44.198  21.270  24.506  1.00  0.00    -0.200 F 
ENDBRANCH  51  75
BRANCH  63  86
ATOM     86  C   UNL A   1      45.512  30.389  28.736  1.00  0.00     0.064 A 
ATOM     87  C   UNL A   1      44.626  31.068  27.881  1.00  0.00     0.173 A 
ATOM     88  C   UNL A   1      46.854  30.787  28.713  1.00  0.00     0.173 A 
ATOM     89  F   UNL A   1      43.312  30.825  27.914  1.00  0.00    -0.203 F 
ATOM     90  C   UNL A   1      45.072  32.066  27.015  1.00  0.00     0.198 A 
ATOM     91  C   UNL A   1      47.291  31.809  27.874  1.00  0.00     0.198 A 
ATOM     92  F   UNL A   1      47.737  30.218  29.547  1.00  0.00    -0.203 F 
ATOM     93  F   UNL A   1      44.204  32.691  26.205  1.00  0.00    -0.200 F 
ATOM     94  C   UNL A   1      46.404  32.441  27.019  1.00  0.00     0.200 A 
ATOM     95  F   UNL A   1      48.571  32.204  27.921  1.00  0.00    -0.200 F 
ATOM     96  F   UNL A   1      46.827  33.429  26.218  1.00  0.00    -0.200 F 
ENDBRANCH  63  86
ENDBRANCH  37  38
ENDBRANCH  29  32
ENDBRANCH  27  28
ENDBRANCH   1  27
TORSDOF 15
ENDMDL
