MODEL 1
REMARK VINA RESULT:     -12.3      0.000      0.000
REMARK SMILES O=C(NCCCNC(=O)c1cccn(CC[NH+]2CCCC2)c1=O)c1ccc(-c2c3nc(c(-c4c(F)c(F)c(F)c(F)c4F)c4ccc([nH]4)c(-c4c(F)c(F)c(F)c(F)c4F)c4nc(c(-c5c(F)c(F)c(F)c(F)c5F)c5ccc2[nH]5)C=C4)C=C3)cc1
REMARK SMILES IDX 5 1 4 2 3 3 1 4 2 5 24 7 25 8 86 9 26 10 85 11 27 12 28 13
REMARK SMILES IDX 29 14 79 15 30 16 84 17 78 18 80 19 31 20 83 21 77 22 76 23
REMARK SMILES IDX 32 25 64 26 44 27 63 28 45 29 48 30 62 31 81 32 46 33 47 34
REMARK SMILES IDX 61 36 82 37 49 38 33 39 34 40 42 41 35 42 36 43 40 44 43 45
REMARK SMILES IDX 37 46 38 47 41 48 39 49 65 50 66 51 74 52 67 53 68 54 72 55
REMARK SMILES IDX 75 56 69 57 70 58 73 59 71 60 50 61 51 62 59 63 52 64 53 65
REMARK SMILES IDX 57 66 60 67 54 68 55 69 58 70 56 71 6 72 7 73 8 74 9 76
REMARK SMILES IDX 10 77 11 78 22 79 12 80 14 81 23 82 13 83 15 84 16 85 17 86
REMARK SMILES IDX 18 87 21 88 19 90 20 91
REMARK H PARENT 3 6 80 24 48 35 7 75 17 89
REMARK Flexibility Score: inf
ROOT
ATOM      1  C   UNL A   1      31.408  32.336  26.583  1.00  0.00     0.042 C 
ENDROOT
BRANCH   1   2
ATOM      2  C   UNL A   1      32.643  32.905  27.264  1.00  0.00     0.118 C 
BRANCH   2   3
ATOM      3  N   UNL A   1      32.481  34.297  27.651  1.00  0.00    -0.352 N 
ATOM      4  O   UNL A   1      32.622  36.154  28.895  1.00  0.00    -0.269 OA
ATOM      5  C   UNL A   1      33.051  35.026  28.661  1.00  0.00     0.251 C 
ATOM      6  H   UNL A   1      31.852  34.804  27.089  1.00  0.00     0.163 HD
BRANCH   5   7
ATOM      7  C   UNL A   1      34.166  34.491  29.475  1.00  0.00     0.039 A 
ATOM      8  C   UNL A   1      35.462  34.568  28.952  1.00  0.00     0.014 A 
ATOM      9  C   UNL A   1      33.950  33.837  30.690  1.00  0.00     0.014 A 
ATOM     10  C   UNL A   1      36.532  33.997  29.646  1.00  0.00     0.010 A 
ATOM     11  C   UNL A   1      35.029  33.354  31.429  1.00  0.00     0.010 A 
ATOM     12  C   UNL A   1      36.322  33.388  30.891  1.00  0.00    -0.014 A 
BRANCH  12  13
ATOM     13  C   UNL A   1      37.425  32.680  31.588  1.00  0.00     0.031 A 
ATOM     14  C   UNL A   1      38.131  31.544  30.896  1.00  0.00     0.074 A 
ATOM     15  C   UNL A   1      37.782  33.040  32.834  1.00  0.00     0.049 A 
ATOM     16  N   UNL A   1      39.097  30.778  31.336  1.00  0.00    -0.248 NA
ATOM     17  C   UNL A   1      37.669  31.203  29.541  1.00  0.00     0.031 C 
ATOM     18  C   UNL A   1      37.152  34.099  33.621  1.00  0.00     0.029 A 
ATOM     19  N   UNL A   1      38.771  32.556  33.653  1.00  0.00    -0.354 N 
ATOM     20  C   UNL A   1      39.335  29.856  30.325  1.00  0.00     0.074 A 
ATOM     21  C   UNL A   1      38.376  30.116  29.275  1.00  0.00     0.031 C 
ATOM     22  C   UNL A   1      37.796  34.215  34.794  1.00  0.00     0.029 A 
ATOM     23  C   UNL A   1      38.866  33.221  34.851  1.00  0.00     0.049 A 
ATOM     24  H   UNL A   1      39.358  31.805  33.406  1.00  0.00     0.167 HD
ATOM     25  C   UNL A   1      40.293  28.903  30.259  1.00  0.00     0.037 A 
ATOM     26  C   UNL A   1      39.726  33.051  35.873  1.00  0.00     0.037 A 
ATOM     27  C   UNL A   1      41.291  28.693  31.271  1.00  0.00     0.049 A 
ATOM     28  C   UNL A   1      40.787  31.990  35.777  1.00  0.00     0.074 A 
ATOM     29  C   UNL A   1      42.365  27.823  31.254  1.00  0.00     0.029 A 
ATOM     30  N   UNL A   1      41.340  29.374  32.477  1.00  0.00    -0.354 N 
ATOM     31  N   UNL A   1      41.041  31.166  34.790  1.00  0.00    -0.248 NA
ATOM     32  C   UNL A   1      41.676  31.831  36.937  1.00  0.00     0.031 C 
ATOM     33  C   UNL A   1      43.046  27.951  32.467  1.00  0.00     0.029 A 
ATOM     34  C   UNL A   1      42.412  28.924  33.227  1.00  0.00     0.049 A 
ATOM     35  H   UNL A   1      40.706  30.072  32.759  1.00  0.00     0.167 HD
ATOM     36  C   UNL A   1      42.123  30.399  35.202  1.00  0.00     0.074 A 
ATOM     37  C   UNL A   1      42.488  30.865  36.524  1.00  0.00     0.031 C 
ATOM     38  C   UNL A   1      42.754  29.398  34.543  1.00  0.00     0.037 A 
BRANCH  25  39
ATOM     39  C   UNL A   1      40.320  28.033  29.038  1.00  0.00     0.064 A 
ATOM     40  C   UNL A   1      41.048  28.395  27.895  1.00  0.00     0.173 A 
ATOM     41  C   UNL A   1      39.631  26.811  29.019  1.00  0.00     0.173 A 
ATOM     42  F   UNL A   1      41.714  29.560  27.861  1.00  0.00    -0.203 F 
ATOM     43  C   UNL A   1      41.059  27.583  26.765  1.00  0.00     0.198 A 
ATOM     44  C   UNL A   1      39.666  25.988  27.896  1.00  0.00     0.198 A 
ATOM     45  F   UNL A   1      38.924  26.417  30.088  1.00  0.00    -0.203 F 
ATOM     46  F   UNL A   1      41.720  27.975  25.667  1.00  0.00    -0.200 F 
ATOM     47  C   UNL A   1      40.373  26.378  26.769  1.00  0.00     0.200 A 
ATOM     48  F   UNL A   1      39.011  24.819  27.905  1.00  0.00    -0.200 F 
ATOM     49  F   UNL A   1      40.386  25.595  25.681  1.00  0.00    -0.200 F 
ENDBRANCH  25  39
BRANCH  26  50
ATOM     50  C   UNL A   1      39.641  33.948  37.052  1.00  0.00     0.064 A 
ATOM     51  C   UNL A   1      40.287  35.192  37.047  1.00  0.00     0.173 A 
ATOM     52  C   UNL A   1      38.884  33.608  38.181  1.00  0.00     0.173 A 
ATOM     53  F   UNL A   1      41.037  35.552  35.995  1.00  0.00    -0.203 F 
ATOM     54  C   UNL A   1      40.176  36.064  38.128  1.00  0.00     0.198 A 
ATOM     55  C   UNL A   1      38.758  34.488  39.253  1.00  0.00     0.198 A 
ATOM     56  F   UNL A   1      38.245  32.430  38.230  1.00  0.00    -0.203 F 
ATOM     57  F   UNL A   1      40.817  37.241  38.105  1.00  0.00    -0.200 F 
ATOM     58  C   UNL A   1      39.406  35.715  39.227  1.00  0.00     0.200 A 
ATOM     59  F   UNL A   1      38.003  34.153  40.308  1.00  0.00    -0.200 F 
ATOM     60  F   UNL A   1      39.287  36.560  40.260  1.00  0.00    -0.200 F 
ENDBRANCH  26  50
BRANCH  38  61
ATOM     61  C   UNL A   1      43.898  28.721  35.233  1.00  0.00     0.064 A 
ATOM     62  C   UNL A   1      43.690  27.588  36.031  1.00  0.00     0.173 A 
ATOM     63  C   UNL A   1      45.217  29.139  35.006  1.00  0.00     0.173 A 
ATOM     64  F   UNL A   1      42.444  27.160  36.284  1.00  0.00    -0.203 F 
ATOM     65  C   UNL A   1      44.765  26.893  36.577  1.00  0.00     0.198 A 
ATOM     66  C   UNL A   1      46.291  28.430  35.536  1.00  0.00     0.198 A 
ATOM     67  F   UNL A   1      45.465  30.214  34.242  1.00  0.00    -0.203 F 
ATOM     68  F   UNL A   1      44.545  25.818  37.346  1.00  0.00    -0.200 F 
ATOM     69  C   UNL A   1      46.065  27.307  36.319  1.00  0.00     0.200 A 
ATOM     70  F   UNL A   1      47.546  28.822  35.275  1.00  0.00    -0.200 F 
ATOM     71  F   UNL A   1      47.100  26.622  36.823  1.00  0.00    -0.200 F 
ENDBRANCH  38  61
ENDBRANCH  12  13
ENDBRANCH   5   7
ENDBRANCH   2   3
ENDBRANCH   1   2
BRANCH   1  72
ATOM     72  C   UNL A   1      31.470  30.836  26.329  1.00  0.00     0.118 C 
BRANCH  72  73
ATOM     73  N   UNL A   1      32.812  30.295  26.497  1.00  0.00    -0.352 N 
ATOM     74  C   UNL A   1      33.283  29.039  26.229  1.00  0.00     0.256 C 
ATOM     75  H   UNL A   1      33.476  30.926  26.854  1.00  0.00     0.163 HD
ATOM     76  O   UNL A   1      34.430  28.739  26.544  1.00  0.00    -0.269 OA
BRANCH  74  77
ATOM     77  C   UNL A   1      32.348  28.041  25.671  1.00  0.00     0.105 A 
ATOM     78  C   UNL A   1      31.905  27.083  26.501  1.00  0.00     0.021 A 
ATOM     79  C   UNL A   1      31.818  28.127  24.280  1.00  0.00     0.263 A 
ATOM     80  C   UNL A   1      30.853  26.192  26.087  1.00  0.00     0.019 A 
ATOM     81  N   UNL A   1      30.686  27.348  24.018  1.00  0.00    -0.309 N 
ATOM     82  O   UNL A   1      32.315  28.903  23.465  1.00  0.00    -0.268 OA
ATOM     83  C   UNL A   1      30.250  26.378  24.907  1.00  0.00     0.089 A 
BRANCH  81  84
ATOM     84  C   UNL A   1      29.930  27.608  22.791  1.00  0.00     0.186 C 
BRANCH  84  85
ATOM     85  C   UNL A   1      28.842  28.695  22.900  1.00  0.00     0.284 C 
BRANCH  85  86
ATOM     86  N   UNL A   1      29.271  30.054  22.515  1.00  0.00    -0.333 N 
ATOM     87  C   UNL A   1      29.096  31.006  23.626  1.00  0.00     0.262 C 
ATOM     88  C   UNL A   1      28.529  30.580  21.353  1.00  0.00     0.262 C 
ATOM     89  H   UNL A   1      30.256  29.966  22.269  1.00  0.00     0.348 HD
ATOM     90  C   UNL A   1      27.959  31.921  23.212  1.00  0.00     0.067 C 
ATOM     91  C   UNL A   1      28.138  32.001  21.713  1.00  0.00     0.067 C 
ENDBRANCH  85  86
ENDBRANCH  84  85
ENDBRANCH  81  84
ENDBRANCH  74  77
ENDBRANCH  72  73
ENDBRANCH   1  72
TORSDOF 13
ENDMDL
MODEL 2
REMARK VINA RESULT:     -12.2      0.200      1.633
REMARK SMILES O=C(NCCCNC(=O)c1cccn(CC[NH+]2CCCC2)c1=O)c1ccc(-c2c3nc(c(-c4c(F)c(F)c(F)c(F)c4F)c4ccc([nH]4)c(-c4c(F)c(F)c(F)c(F)c4F)c4nc(c(-c5c(F)c(F)c(F)c(F)c5F)c5ccc2[nH]5)C=C4)C=C3)cc1
REMARK SMILES IDX 5 1 4 2 3 3 1 4 2 5 24 7 25 8 86 9 26 10 85 11 27 12 28 13
REMARK SMILES IDX 29 14 79 15 30 16 84 17 78 18 80 19 31 20 83 21 77 22 76 23
REMARK SMILES IDX 32 25 64 26 44 27 63 28 45 29 48 30 62 31 81 32 46 33 47 34
REMARK SMILES IDX 61 36 82 37 49 38 33 39 34 40 42 41 35 42 36 43 40 44 43 45
REMARK SMILES IDX 37 46 38 47 41 48 39 49 65 50 66 51 74 52 67 53 68 54 72 55
REMARK SMILES IDX 75 56 69 57 70 58 73 59 71 60 50 61 51 62 59 63 52 64 53 65
REMARK SMILES IDX 57 66 60 67 54 68 55 69 58 70 56 71 6 72 7 73 8 74 9 76
REMARK SMILES IDX 10 77 11 78 22 79 12 80 14 81 23 82 13 83 15 84 16 85 17 86
REMARK SMILES IDX 18 87 21 88 19 90 20 91
REMARK H PARENT 3 6 80 24 48 35 7 75 17 89
REMARK Flexibility Score: inf
ROOT
ATOM      1  C   UNL A   1      31.460  32.323  26.560  1.00  0.00     0.042 C 
ENDROOT
BRANCH   1   2
ATOM      2  C   UNL A   1      32.675  32.884  27.284  1.00  0.00     0.118 C 
BRANCH   2   3
ATOM      3  N   UNL A   1      32.506  34.276  27.671  1.00  0.00    -0.352 N 
ATOM      4  O   UNL A   1      32.633  36.132  28.918  1.00  0.00    -0.269 OA
ATOM      5  C   UNL A   1      33.067  35.005  28.686  1.00  0.00     0.251 C 
ATOM      6  H   UNL A   1      31.879  34.781  27.105  1.00  0.00     0.163 HD
BRANCH   5   7
ATOM      7  C   UNL A   1      34.177  34.473  29.507  1.00  0.00     0.039 A 
ATOM      8  C   UNL A   1      35.476  34.545  28.990  1.00  0.00     0.014 A 
ATOM      9  C   UNL A   1      33.955  33.824  30.725  1.00  0.00     0.014 A 
ATOM     10  C   UNL A   1      36.542  33.976  29.691  1.00  0.00     0.010 A 
ATOM     11  C   UNL A   1      35.030  33.344  31.470  1.00  0.00     0.010 A 
ATOM     12  C   UNL A   1      36.326  33.373  30.938  1.00  0.00    -0.014 A 
BRANCH  12  13
ATOM     13  C   UNL A   1      37.424  32.667  31.643  1.00  0.00     0.031 A 
ATOM     14  C   UNL A   1      38.126  31.522  30.963  1.00  0.00     0.074 A 
ATOM     15  C   UNL A   1      37.781  33.037  32.886  1.00  0.00     0.049 A 
ATOM     16  N   UNL A   1      39.088  30.755  31.412  1.00  0.00    -0.248 NA
ATOM     17  C   UNL A   1      37.665  31.170  29.611  1.00  0.00     0.031 C 
ATOM     18  C   UNL A   1      37.154  34.106  33.663  1.00  0.00     0.029 A 
ATOM     19  N   UNL A   1      38.767  32.556  33.712  1.00  0.00    -0.354 N 
ATOM     20  C   UNL A   1      39.324  29.823  30.410  1.00  0.00     0.074 A 
ATOM     21  C   UNL A   1      38.368  30.077  29.356  1.00  0.00     0.031 C 
ATOM     22  C   UNL A   1      37.798  34.230  34.836  1.00  0.00     0.029 A 
ATOM     23  C   UNL A   1      38.863  33.231  34.903  1.00  0.00     0.049 A 
ATOM     24  H   UNL A   1      39.351  31.800  33.472  1.00  0.00     0.167 HD
ATOM     25  C   UNL A   1      40.278  28.865  30.354  1.00  0.00     0.037 A 
ATOM     26  C   UNL A   1      39.720  33.067  35.928  1.00  0.00     0.037 A 
ATOM     27  C   UNL A   1      41.273  28.660  31.369  1.00  0.00     0.049 A 
ATOM     28  C   UNL A   1      40.777  32.001  35.843  1.00  0.00     0.074 A 
ATOM     29  C   UNL A   1      42.343  27.785  31.362  1.00  0.00     0.029 A 
ATOM     30  N   UNL A   1      41.323  29.352  32.569  1.00  0.00    -0.354 N 
ATOM     31  N   UNL A   1      41.029  31.166  34.865  1.00  0.00    -0.248 NA
ATOM     32  C   UNL A   1      41.664  31.849  37.007  1.00  0.00     0.031 C 
ATOM     33  C   UNL A   1      43.023  27.922  32.575  1.00  0.00     0.029 A 
ATOM     34  C   UNL A   1      42.393  28.904  33.325  1.00  0.00     0.049 A 
ATOM     35  H   UNL A   1      40.692  30.056  32.844  1.00  0.00     0.167 HD
ATOM     36  C   UNL A   1      42.107  30.399  35.286  1.00  0.00     0.074 A 
ATOM     37  C   UNL A   1      42.472  30.876  36.604  1.00  0.00     0.031 C 
ATOM     38  C   UNL A   1      42.734  29.389  34.637  1.00  0.00     0.037 A 
BRANCH  25  39
ATOM     39  C   UNL A   1      40.303  27.983  29.142  1.00  0.00     0.064 A 
ATOM     40  C   UNL A   1      39.580  26.781  29.093  1.00  0.00     0.173 A 
ATOM     41  C   UNL A   1      41.039  28.353  28.007  1.00  0.00     0.173 A 
ATOM     42  F   UNL A   1      38.871  26.378  30.159  1.00  0.00    -0.203 F 
ATOM     43  C   UNL A   1      39.619  25.968  27.966  1.00  0.00     0.198 A 
ATOM     44  C   UNL A   1      41.054  27.550  26.870  1.00  0.00     0.198 A 
ATOM     45  F   UNL A   1      41.744  29.495  28.000  1.00  0.00    -0.203 F 
ATOM     46  F   UNL A   1      38.961  24.799  27.962  1.00  0.00    -0.200 F 
ATOM     47  C   UNL A   1      40.350  26.354  26.853  1.00  0.00     0.200 A 
ATOM     48  F   UNL A   1      41.753  27.930  25.792  1.00  0.00    -0.200 F 
ATOM     49  F   UNL A   1      40.385  25.571  25.767  1.00  0.00    -0.200 F 
ENDBRANCH  25  39
BRANCH  26  50
ATOM     50  C   UNL A   1      39.638  33.976  37.099  1.00  0.00     0.064 A 
ATOM     51  C   UNL A   1      40.292  35.216  37.084  1.00  0.00     0.173 A 
ATOM     52  C   UNL A   1      38.875  33.651  38.229  1.00  0.00     0.173 A 
ATOM     53  F   UNL A   1      41.046  35.562  36.031  1.00  0.00    -0.203 F 
ATOM     54  C   UNL A   1      40.183  36.098  38.156  1.00  0.00     0.198 A 
ATOM     55  C   UNL A   1      38.752  34.542  39.292  1.00  0.00     0.198 A 
ATOM     56  F   UNL A   1      38.229  32.477  38.287  1.00  0.00    -0.203 F 
ATOM     57  F   UNL A   1      40.831  37.271  38.124  1.00  0.00    -0.200 F 
ATOM     58  C   UNL A   1      39.407  35.764  39.257  1.00  0.00     0.200 A 
ATOM     59  F   UNL A   1      37.992  34.221  40.349  1.00  0.00    -0.200 F 
ATOM     60  F   UNL A   1      39.291  36.619  40.282  1.00  0.00    -0.200 F 
ENDBRANCH  26  50
BRANCH  38  61
ATOM     61  C   UNL A   1      43.874  28.714  35.335  1.00  0.00     0.064 A 
ATOM     62  C   UNL A   1      45.186  29.187  35.197  1.00  0.00     0.173 A 
ATOM     63  C   UNL A   1      43.641  27.661  36.232  1.00  0.00     0.173 A 
ATOM     64  F   UNL A   1      45.457  30.185  34.342  1.00  0.00    -0.203 F 
ATOM     65  C   UNL A   1      46.227  28.631  35.935  1.00  0.00     0.198 A 
ATOM     66  C   UNL A   1      44.680  27.121  36.985  1.00  0.00     0.198 A 
ATOM     67  F   UNL A   1      42.400  27.181  36.403  1.00  0.00    -0.203 F 
ATOM     68  F   UNL A   1      47.476  29.090  35.781  1.00  0.00    -0.200 F 
ATOM     69  C   UNL A   1      45.971  27.608  36.838  1.00  0.00     0.200 A 
ATOM     70  F   UNL A   1      44.429  26.143  37.865  1.00  0.00    -0.200 F 
ATOM     71  F   UNL A   1      46.968  27.091  37.567  1.00  0.00    -0.200 F 
ENDBRANCH  38  61
ENDBRANCH  12  13
ENDBRANCH   5   7
ENDBRANCH   2   3
ENDBRANCH   1   2
BRANCH   1  72
ATOM     72  C   UNL A   1      31.482  30.812  26.383  1.00  0.00     0.118 C 
BRANCH  72  73
ATOM     73  N   UNL A   1      32.783  30.231  26.684  1.00  0.00    -0.352 N 
ATOM     74  C   UNL A   1      33.245  28.965  26.452  1.00  0.00     0.256 C 
ATOM     75  H   UNL A   1      33.422  30.840  27.119  1.00  0.00     0.163 HD
ATOM     76  O   UNL A   1      34.344  28.629  26.884  1.00  0.00    -0.269 OA
BRANCH  74  77
ATOM     77  C   UNL A   1      32.349  27.999  25.786  1.00  0.00     0.105 A 
ATOM     78  C   UNL A   1      31.810  27.034  26.549  1.00  0.00     0.021 A 
ATOM     79  C   UNL A   1      31.954  28.126  24.354  1.00  0.00     0.263 A 
ATOM     80  C   UNL A   1      30.784  26.175  26.018  1.00  0.00     0.019 A 
ATOM     81  N   UNL A   1      30.837  27.377  23.969  1.00  0.00    -0.309 N 
ATOM     82  O   UNL A   1      32.540  28.908  23.607  1.00  0.00    -0.268 OA
ATOM     83  C   UNL A   1      30.300  26.398  24.790  1.00  0.00     0.089 A 
BRANCH  81  84
ATOM     84  C   UNL A   1      30.205  27.679  22.683  1.00  0.00     0.186 C 
BRANCH  84  85
ATOM     85  C   UNL A   1      29.005  28.645  22.744  1.00  0.00     0.284 C 
BRANCH  85  86
ATOM     86  N   UNL A   1      29.312  30.050  22.411  1.00  0.00    -0.333 N 
ATOM     87  C   UNL A   1      29.134  30.929  23.581  1.00  0.00     0.262 C 
ATOM     88  C   UNL A   1      28.468  30.578  21.322  1.00  0.00     0.262 C 
ATOM     89  H   UNL A   1      30.285  30.049  22.108  1.00  0.00     0.348 HD
ATOM     90  C   UNL A   1      27.912  31.776  23.280  1.00  0.00     0.067 C 
ATOM     91  C   UNL A   1      27.997  31.945  21.780  1.00  0.00     0.067 C 
ENDBRANCH  85  86
ENDBRANCH  84  85
ENDBRANCH  81  84
ENDBRANCH  74  77
ENDBRANCH  72  73
ENDBRANCH   1  72
TORSDOF 13
ENDMDL
MODEL 3
REMARK VINA RESULT:     -12.2      0.389      7.530
REMARK SMILES O=C(NCCCNC(=O)c1cccn(CC[NH+]2CCCC2)c1=O)c1ccc(-c2c3nc(c(-c4c(F)c(F)c(F)c(F)c4F)c4ccc([nH]4)c(-c4c(F)c(F)c(F)c(F)c4F)c4nc(c(-c5c(F)c(F)c(F)c(F)c5F)c5ccc2[nH]5)C=C4)C=C3)cc1
REMARK SMILES IDX 5 1 4 2 3 3 1 4 2 5 24 7 25 8 86 9 26 10 85 11 27 12 28 13
REMARK SMILES IDX 29 14 79 15 30 16 84 17 78 18 80 19 31 20 83 21 77 22 76 23
REMARK SMILES IDX 32 25 64 26 44 27 63 28 45 29 48 30 62 31 81 32 46 33 47 34
REMARK SMILES IDX 61 36 82 37 49 38 33 39 34 40 42 41 35 42 36 43 40 44 43 45
REMARK SMILES IDX 37 46 38 47 41 48 39 49 65 50 66 51 74 52 67 53 68 54 72 55
REMARK SMILES IDX 75 56 69 57 70 58 73 59 71 60 50 61 51 62 59 63 52 64 53 65
REMARK SMILES IDX 57 66 60 67 54 68 55 69 58 70 56 71 6 72 7 73 8 74 9 76
REMARK SMILES IDX 10 77 11 78 22 79 12 80 14 81 23 82 13 83 15 84 16 85 17 86
REMARK SMILES IDX 18 87 21 88 19 90 20 91
REMARK H PARENT 3 6 80 24 48 35 7 75 17 89
REMARK Flexibility Score: inf
ROOT
ATOM      1  C   UNL A   1      31.401  32.370  26.562  1.00  0.00     0.042 C 
ENDROOT
BRANCH   1   2
ATOM      2  C   UNL A   1      32.673  32.999  27.109  1.00  0.00     0.118 C 
BRANCH   2   3
ATOM      3  N   UNL A   1      32.452  34.324  27.667  1.00  0.00    -0.352 N 
ATOM      4  O   UNL A   1      32.531  36.021  29.126  1.00  0.00    -0.269 OA
ATOM      5  C   UNL A   1      33.010  34.953  28.748  1.00  0.00     0.251 C 
ATOM      6  H   UNL A   1      31.785  34.861  27.182  1.00  0.00     0.163 HD
BRANCH   5   7
ATOM      7  C   UNL A   1      34.169  34.382  29.469  1.00  0.00     0.039 A 
ATOM      8  C   UNL A   1      35.446  34.578  28.930  1.00  0.00     0.014 A 
ATOM      9  C   UNL A   1      34.017  33.584  30.606  1.00  0.00     0.014 A 
ATOM     10  C   UNL A   1      36.558  33.984  29.529  1.00  0.00     0.010 A 
ATOM     11  C   UNL A   1      35.135  33.073  31.260  1.00  0.00     0.010 A 
ATOM     12  C   UNL A   1      36.410  33.228  30.701  1.00  0.00    -0.014 A 
BRANCH  12  13
ATOM     13  C   UNL A   1      37.562  32.498  31.286  1.00  0.00     0.031 A 
ATOM     14  C   UNL A   1      38.033  32.847  32.673  1.00  0.00     0.074 A 
ATOM     15  C   UNL A   1      38.191  31.542  30.580  1.00  0.00     0.049 A 
ATOM     16  N   UNL A   1      39.035  32.354  33.357  1.00  0.00    -0.248 NA
ATOM     17  C   UNL A   1      37.301  33.916  33.373  1.00  0.00     0.031 C 
ATOM     18  C   UNL A   1      37.852  31.139  29.216  1.00  0.00     0.029 A 
ATOM     19  N   UNL A   1      39.245  30.730  30.917  1.00  0.00    -0.354 N 
ATOM     20  C   UNL A   1      39.063  33.068  34.549  1.00  0.00     0.074 A 
ATOM     21  C   UNL A   1      38.023  34.068  34.473  1.00  0.00     0.031 C 
ATOM     22  C   UNL A   1      38.654  30.126  28.846  1.00  0.00     0.029 A 
ATOM     23  C   UNL A   1      39.580  29.829  29.937  1.00  0.00     0.049 A 
ATOM     24  H   UNL A   1      39.716  30.788  31.780  1.00  0.00     0.167 HD
ATOM     25  C   UNL A   1      39.860  32.882  35.626  1.00  0.00     0.037 A 
ATOM     26  C   UNL A   1      40.522  28.867  29.927  1.00  0.00     0.037 A 
ATOM     27  C   UNL A   1      40.845  31.842  35.729  1.00  0.00     0.049 A 
ATOM     28  C   UNL A   1      41.393  28.673  31.137  1.00  0.00     0.074 A 
ATOM     29  C   UNL A   1      41.633  31.506  36.814  1.00  0.00     0.029 A 
ATOM     30  N   UNL A   1      41.167  30.963  34.707  1.00  0.00    -0.354 N 
ATOM     31  N   UNL A   1      41.369  29.313  32.281  1.00  0.00    -0.248 NA
ATOM     32  C   UNL A   1      42.423  27.627  31.054  1.00  0.00     0.031 C 
ATOM     33  C   UNL A   1      42.458  30.443  36.438  1.00  0.00     0.029 A 
ATOM     34  C   UNL A   1      42.162  30.098  35.127  1.00  0.00     0.049 A 
ATOM     35  H   UNL A   1      40.750  30.955  33.815  1.00  0.00     0.167 HD
ATOM     36  C   UNL A   1      42.370  28.744  33.057  1.00  0.00     0.074 A 
ATOM     37  C   UNL A   1      42.974  27.697  32.260  1.00  0.00     0.031 C 
ATOM     38  C   UNL A   1      42.753  29.066  34.315  1.00  0.00     0.037 A 
BRANCH  25  39
ATOM     39  C   UNL A   1      39.678  33.810  36.790  1.00  0.00     0.064 A 
ATOM     40  C   UNL A   1      38.880  33.461  37.890  1.00  0.00     0.173 A 
ATOM     41  C   UNL A   1      40.327  35.054  36.817  1.00  0.00     0.173 A 
ATOM     42  F   UNL A   1      38.230  32.287  37.904  1.00  0.00    -0.203 F 
ATOM     43  C   UNL A   1      38.713  34.334  38.959  1.00  0.00     0.198 A 
ATOM     44  C   UNL A   1      40.179  35.914  37.902  1.00  0.00     0.198 A 
ATOM     45  F   UNL A   1      41.105  35.434  35.792  1.00  0.00    -0.203 F 
ATOM     46  F   UNL A   1      37.906  33.999  39.976  1.00  0.00    -0.200 F 
ATOM     47  C   UNL A   1      39.367  35.557  38.968  1.00  0.00     0.200 A 
ATOM     48  F   UNL A   1      40.819  37.091  37.913  1.00  0.00    -0.200 F 
ATOM     49  F   UNL A   1      39.207  36.397  40.000  1.00  0.00    -0.200 F 
ENDBRANCH  25  39
BRANCH  26  50
ATOM     50  C   UNL A   1      40.647  27.983  28.740  1.00  0.00     0.064 A 
ATOM     51  C   UNL A   1      39.951  26.768  28.682  1.00  0.00     0.173 A 
ATOM     52  C   UNL A   1      41.419  28.351  27.631  1.00  0.00     0.173 A 
ATOM     53  F   UNL A   1      39.213  26.369  29.729  1.00  0.00    -0.203 F 
ATOM     54  C   UNL A   1      40.022  25.953  27.555  1.00  0.00     0.198 A 
ATOM     55  C   UNL A   1      41.475  27.544  26.496  1.00  0.00     0.198 A 
ATOM     56  F   UNL A   1      42.099  29.506  27.639  1.00  0.00    -0.203 F 
ATOM     57  F   UNL A   1      39.361  24.788  27.531  1.00  0.00    -0.200 F 
ATOM     58  C   UNL A   1      40.778  26.345  26.460  1.00  0.00     0.200 A 
ATOM     59  F   UNL A   1      42.196  27.931  25.435  1.00  0.00    -0.200 F 
ATOM     60  F   UNL A   1      40.834  25.567  25.370  1.00  0.00    -0.200 F 
ENDBRANCH  26  50
BRANCH  38  61
ATOM     61  C   UNL A   1      43.885  28.292  34.919  1.00  0.00     0.064 A 
ATOM     62  C   UNL A   1      43.657  27.072  35.570  1.00  0.00     0.173 A 
ATOM     63  C   UNL A   1      45.211  28.715  34.748  1.00  0.00     0.173 A 
ATOM     64  F   UNL A   1      42.404  26.635  35.766  1.00  0.00    -0.203 F 
ATOM     65  C   UNL A   1      44.720  26.299  36.028  1.00  0.00     0.198 A 
ATOM     66  C   UNL A   1      46.273  27.929  35.188  1.00  0.00     0.198 A 
ATOM     67  F   UNL A   1      45.477  29.872  34.123  1.00  0.00    -0.203 F 
ATOM     68  F   UNL A   1      44.481  25.141  36.658  1.00  0.00    -0.200 F 
ATOM     69  C   UNL A   1      46.026  26.722  35.826  1.00  0.00     0.200 A 
ATOM     70  F   UNL A   1      47.534  28.332  34.980  1.00  0.00    -0.200 F 
ATOM     71  F   UNL A   1      47.049  25.964  36.244  1.00  0.00    -0.200 F 
ENDBRANCH  38  61
ENDBRANCH  12  13
ENDBRANCH   5   7
ENDBRANCH   2   3
ENDBRANCH   1   2
BRANCH   1  72
ATOM     72  C   UNL A   1      31.428  30.849  26.508  1.00  0.00     0.118 C 
BRANCH  72  73
ATOM     73  N   UNL A   1      32.774  30.309  26.647  1.00  0.00    -0.352 N 
ATOM     74  C   UNL A   1      33.252  29.070  26.318  1.00  0.00     0.256 C 
ATOM     75  H   UNL A   1      33.435  30.926  27.033  1.00  0.00     0.163 HD
ATOM     76  O   UNL A   1      34.401  28.762  26.617  1.00  0.00    -0.269 OA
BRANCH  74  77
ATOM     77  C   UNL A   1      32.322  28.095  25.714  1.00  0.00     0.105 A 
ATOM     78  C   UNL A   1      31.841  27.129  26.514  1.00  0.00     0.021 A 
ATOM     79  C   UNL A   1      31.837  28.212  24.309  1.00  0.00     0.263 A 
ATOM     80  C   UNL A   1      30.790  26.260  26.052  1.00  0.00     0.019 A 
ATOM     81  N   UNL A   1      30.703  27.452  23.999  1.00  0.00    -0.309 N 
ATOM     82  O   UNL A   1      32.369  28.994  23.524  1.00  0.00    -0.268 OA
ATOM     83  C   UNL A   1      30.227  26.474  24.857  1.00  0.00     0.089 A 
BRANCH  81  84
ATOM     84  C   UNL A   1      29.989  27.743  22.754  1.00  0.00     0.186 C 
BRANCH  84  85
ATOM     85  C   UNL A   1      28.917  28.847  22.847  1.00  0.00     0.284 C 
BRANCH  85  86
ATOM     86  N   UNL A   1      29.389  30.209  22.529  1.00  0.00    -0.333 N 
ATOM     87  C   UNL A   1      29.111  31.143  23.636  1.00  0.00     0.262 C 
ATOM     88  C   UNL A   1      28.767  30.761  21.311  1.00  0.00     0.262 C 
ATOM     89  H   UNL A   1      30.393  30.119  22.380  1.00  0.00     0.348 HD
ATOM     90  C   UNL A   1      28.026  32.073  23.129  1.00  0.00     0.067 C 
ATOM     91  C   UNL A   1      28.350  32.178  21.656  1.00  0.00     0.067 C 
ENDBRANCH  85  86
ENDBRANCH  84  85
ENDBRANCH  81  84
ENDBRANCH  74  77
ENDBRANCH  72  73
ENDBRANCH   1  72
TORSDOF 13
ENDMDL
