MODEL 1
REMARK VINA RESULT:     -13.7      0.000      0.000
REMARK SMILES O=C(NCCCNC(=O)c1ccc(-c2c3nc(c(-c4c(F)c(F)c(F)c(F)c4F)c4ccc([nH]4)c(-c4c(F)c(F)c(F)c(F)c4F)c4nc(c(-c5c(F)c(F)c(F)c(F)c5F)c5ccc2[nH]5)C=C4)C=C3)cc1)c1ccc(/[NH+]=C2\S[C@@H](Cc3ccc(F)cc3)C(=O)N2Cc2ccccc2)cc1
REMARK SMILES IDX 4 1 3 2 1 3 2 4 73 6 74 7 100 8 75 9 99 10 76 11 77 12 78 13
REMARK SMILES IDX 79 15 91 16 80 17 89 18 90 19 92 20 93 21 94 22 98 23 95 24
REMARK SMILES IDX 97 25 96 26 81 27 82 28 83 29 88 30 84 31 87 32 85 33 86 34
REMARK SMILES IDX 5 35 6 36 7 37 8 38 9 40 10 41 11 42 72 43 12 44 71 45 13 46
REMARK SMILES IDX 14 47 15 48 65 49 16 50 70 51 64 52 66 53 17 54 69 55 63 56
REMARK SMILES IDX 62 57 18 59 50 60 30 61 49 62 31 63 34 64 48 65 67 66 32 67
REMARK SMILES IDX 33 68 47 70 68 71 35 72 19 73 20 74 28 75 21 76 22 77 26 78
REMARK SMILES IDX 29 79 23 80 24 81 27 82 25 83 51 84 52 85 60 86 53 87 54 88
REMARK SMILES IDX 58 89 61 90 55 91 56 92 59 93 57 94 36 95 37 96 45 97 38 98
REMARK SMILES IDX 39 99 43 100 46 101 40 102 41 103 44 104 42 105
REMARK H PARENT 3 5 77 14 7 39 66 58 34 69
REMARK Flexibility Score: inf
ROOT
ATOM      1  C   UNL A   1      35.868  20.586  25.409  1.00  0.00     0.118 C 
ENDROOT
BRANCH   1   2
ATOM      2  N   UNL A   1      34.829  19.650  24.999  1.00  0.00    -0.352 N 
ATOM      3  O   UNL A   1      32.756  18.919  24.513  1.00  0.00    -0.269 OA
ATOM      4  C   UNL A   1      33.526  19.872  24.628  1.00  0.00     0.251 C 
ATOM      5  H   UNL A   1      35.106  18.706  24.985  1.00  0.00     0.163 HD
BRANCH   4   6
ATOM      6  C   UNL A   1      33.037  21.243  24.376  1.00  0.00     0.040 A 
ATOM      7  C   UNL A   1      33.604  22.026  23.372  1.00  0.00     0.018 A 
ATOM      8  C   UNL A   1      31.955  21.735  25.116  1.00  0.00     0.018 A 
ATOM      9  C   UNL A   1      33.181  23.339  23.205  1.00  0.00     0.052 A 
ATOM     10  C   UNL A   1      31.498  23.041  24.904  1.00  0.00     0.052 A 
ATOM     11  C   UNL A   1      32.140  23.864  23.977  1.00  0.00     0.125 A 
BRANCH  11  12
ATOM     12  N   UNL A   1      31.734  25.167  23.689  1.00  0.00    -0.235 N 
ATOM     13  C   UNL A   1      32.207  26.198  24.303  1.00  0.00     0.320 C 
ATOM     14  H   UNL A   1      31.058  25.307  22.987  1.00  0.00     0.313 HD
ATOM     15  S   UNL A   1      33.220  26.223  25.718  1.00  0.00    -0.022 SA
ATOM     16  N   UNL A   1      31.971  27.470  23.850  1.00  0.00    -0.186 N 
ATOM     17  C   UNL A   1      32.975  28.014  25.962  1.00  0.00     0.178 C 
ATOM     18  C   UNL A   1      32.446  28.508  24.622  1.00  0.00     0.324 C 
ATOM     19  O   UNL A   1      32.382  29.692  24.306  1.00  0.00    -0.245 OA
BRANCH  16  20
ATOM     20  C   UNL A   1      31.293  27.726  22.582  1.00  0.00     0.283 C 
BRANCH  20  21
ATOM     21  C   UNL A   1      29.867  28.218  22.747  1.00  0.00    -0.006 A 
ATOM     22  C   UNL A   1      28.894  27.434  23.381  1.00  0.00     0.008 A 
ATOM     23  C   UNL A   1      29.489  29.481  22.261  1.00  0.00     0.008 A 
ATOM     24  C   UNL A   1      27.587  27.912  23.533  1.00  0.00     0.000 A 
ATOM     25  C   UNL A   1      28.196  29.972  22.444  1.00  0.00     0.000 A 
ATOM     26  C   UNL A   1      27.242  29.184  23.079  1.00  0.00     0.000 A 
ENDBRANCH  20  21
ENDBRANCH  16  20
BRANCH  17  27
ATOM     27  C   UNL A   1      34.278  28.670  26.417  1.00  0.00     0.063 C 
BRANCH  27  28
ATOM     28  C   UNL A   1      34.129  30.066  26.985  1.00  0.00    -0.046 A 
ATOM     29  C   UNL A   1      35.270  30.768  27.410  1.00  0.00     0.007 A 
ATOM     30  C   UNL A   1      32.870  30.669  27.130  1.00  0.00     0.007 A 
ATOM     31  C   UNL A   1      35.157  32.052  27.944  1.00  0.00     0.039 A 
ATOM     32  C   UNL A   1      32.759  31.957  27.660  1.00  0.00     0.039 A 
ATOM     33  C   UNL A   1      33.903  32.636  28.060  1.00  0.00     0.123 A 
ATOM     34  F   UNL A   1      33.795  33.870  28.569  1.00  0.00    -0.207 F 
ENDBRANCH  27  28
ENDBRANCH  17  27
ENDBRANCH  11  12
ENDBRANCH   4   6
ENDBRANCH   1   2
BRANCH   1  35
ATOM     35  C   UNL A   1      37.223  20.261  24.795  1.00  0.00     0.042 C 
BRANCH  35  36
ATOM     36  C   UNL A   1      38.380  21.070  25.369  1.00  0.00     0.118 C 
BRANCH  36  37
ATOM     37  N   UNL A   1      39.352  20.250  26.081  1.00  0.00    -0.352 N 
ATOM     38  C   UNL A   1      40.451  20.598  26.826  1.00  0.00     0.251 C 
ATOM     39  H   UNL A   1      39.194  19.280  26.016  1.00  0.00     0.163 HD
ATOM     40  O   UNL A   1      41.233  19.726  27.196  1.00  0.00    -0.269 OA
BRANCH  38  41
ATOM     41  C   UNL A   1      40.726  22.013  27.157  1.00  0.00     0.039 A 
ATOM     42  C   UNL A   1      41.634  22.297  28.181  1.00  0.00     0.014 A 
ATOM     43  C   UNL A   1      40.093  23.057  26.478  1.00  0.00     0.014 A 
ATOM     44  C   UNL A   1      41.986  23.623  28.449  1.00  0.00     0.010 A 
ATOM     45  C   UNL A   1      40.506  24.371  26.689  1.00  0.00     0.010 A 
ATOM     46  C   UNL A   1      41.470  24.665  27.663  1.00  0.00    -0.014 A 
BRANCH  46  47
ATOM     47  C   UNL A   1      41.972  26.056  27.802  1.00  0.00     0.031 A 
ATOM     48  C   UNL A   1      43.314  26.446  27.252  1.00  0.00     0.074 A 
ATOM     49  C   UNL A   1      41.248  26.947  28.507  1.00  0.00     0.049 A 
ATOM     50  N   UNL A   1      43.953  27.583  27.361  1.00  0.00    -0.248 NA
ATOM     51  C   UNL A   1      44.046  25.415  26.500  1.00  0.00     0.031 C 
ATOM     52  C   UNL A   1      39.952  26.676  29.133  1.00  0.00     0.029 A 
ATOM     53  N   UNL A   1      41.504  28.256  28.833  1.00  0.00    -0.354 N 
ATOM     54  C   UNL A   1      45.162  27.403  26.701  1.00  0.00     0.074 A 
ATOM     55  C   UNL A   1      45.189  26.033  26.237  1.00  0.00     0.031 C 
ATOM     56  C   UNL A   1      39.519  27.786  29.750  1.00  0.00     0.029 A 
ATOM     57  C   UNL A   1      40.525  28.832  29.606  1.00  0.00     0.049 A 
ATOM     58  H   UNL A   1      42.312  28.736  28.540  1.00  0.00     0.167 HD
ATOM     59  C   UNL A   1      46.149  28.306  26.487  1.00  0.00     0.037 A 
ATOM     60  C   UNL A   1      40.453  30.060  30.153  1.00  0.00     0.037 A 
ATOM     61  C   UNL A   1      46.111  29.674  26.940  1.00  0.00     0.049 A 
ATOM     62  C   UNL A   1      41.577  31.032  29.925  1.00  0.00     0.074 A 
ATOM     63  C   UNL A   1      47.031  30.682  26.713  1.00  0.00     0.029 A 
ATOM     64  N   UNL A   1      45.104  30.222  27.720  1.00  0.00    -0.354 N 
ATOM     65  N   UNL A   1      42.681  30.874  29.237  1.00  0.00    -0.248 NA
ATOM     66  C   UNL A   1      41.445  32.356  30.551  1.00  0.00     0.031 C 
ATOM     67  C   UNL A   1      46.609  31.824  27.401  1.00  0.00     0.029 A 
ATOM     68  C   UNL A   1      45.398  31.544  28.012  1.00  0.00     0.049 A 
ATOM     69  H   UNL A   1      44.298  29.742  28.021  1.00  0.00     0.167 HD
ATOM     70  C   UNL A   1      43.366  32.077  29.331  1.00  0.00     0.074 A 
ATOM     71  C   UNL A   1      42.542  32.965  30.122  1.00  0.00     0.031 C 
ATOM     72  C   UNL A   1      44.571  32.416  28.809  1.00  0.00     0.037 A 
BRANCH  59  73
ATOM     73  C   UNL A   1      47.361  27.846  25.729  1.00  0.00     0.064 A 
ATOM     74  C   UNL A   1      48.509  27.383  26.388  1.00  0.00     0.173 A 
ATOM     75  C   UNL A   1      47.356  27.821  24.326  1.00  0.00     0.173 A 
ATOM     76  F   UNL A   1      48.570  27.394  27.729  1.00  0.00    -0.203 F 
ATOM     77  C   UNL A   1      49.617  26.937  25.672  1.00  0.00     0.198 A 
ATOM     78  C   UNL A   1      48.454  27.346  23.613  1.00  0.00     0.198 A 
ATOM     79  F   UNL A   1      46.281  28.245  23.645  1.00  0.00    -0.203 F 
ATOM     80  F   UNL A   1      50.720  26.541  26.324  1.00  0.00    -0.200 F 
ATOM     81  C   UNL A   1      49.586  26.912  24.286  1.00  0.00     0.200 A 
ATOM     82  F   UNL A   1      48.417  27.308  22.274  1.00  0.00    -0.200 F 
ATOM     83  F   UNL A   1      50.650  26.472  23.599  1.00  0.00    -0.200 F 
ENDBRANCH  59  73
BRANCH  60  84
ATOM     84  C   UNL A   1      39.270  30.441  30.968  1.00  0.00     0.064 A 
ATOM     85  C   UNL A   1      38.214  31.170  30.406  1.00  0.00     0.173 A 
ATOM     86  C   UNL A   1      39.171  30.088  32.322  1.00  0.00     0.173 A 
ATOM     87  F   UNL A   1      38.272  31.550  29.121  1.00  0.00    -0.203 F 
ATOM     88  C   UNL A   1      37.112  31.549  31.171  1.00  0.00     0.198 A 
ATOM     89  C   UNL A   1      38.055  30.441  33.079  1.00  0.00     0.198 A 
ATOM     90  F   UNL A   1      40.152  29.386  32.907  1.00  0.00    -0.203 F 
ATOM     91  F   UNL A   1      36.138  32.286  30.619  1.00  0.00    -0.200 F 
ATOM     92  C   UNL A   1      37.031  31.178  32.504  1.00  0.00     0.200 A 
ATOM     93  F   UNL A   1      37.972  30.066  34.362  1.00  0.00    -0.200 F 
ATOM     94  F   UNL A   1      35.968  31.536  33.238  1.00  0.00    -0.200 F 
ENDBRANCH  60  84
BRANCH  72  95
ATOM     95  C   UNL A   1      45.063  33.810  29.069  1.00  0.00     0.064 A 
ATOM     96  C   UNL A   1      44.723  34.877  28.222  1.00  0.00     0.173 A 
ATOM     97  C   UNL A   1      45.857  34.090  30.191  1.00  0.00     0.173 A 
ATOM     98  F   UNL A   1      43.981  34.659  27.126  1.00  0.00    -0.203 F 
ATOM     99  C   UNL A   1      45.181  36.166  28.478  1.00  0.00     0.198 A 
ATOM    100  C   UNL A   1      46.286  35.386  30.461  1.00  0.00     0.198 A 
ATOM    101  F   UNL A   1      46.206  33.106  31.034  1.00  0.00    -0.203 F 
ATOM    102  F   UNL A   1      44.885  37.161  27.629  1.00  0.00    -0.200 F 
ATOM    103  C   UNL A   1      45.955  36.422  29.600  1.00  0.00     0.200 A 
ATOM    104  F   UNL A   1      47.024  35.633  31.553  1.00  0.00    -0.200 F 
ATOM    105  F   UNL A   1      46.390  37.664  29.848  1.00  0.00    -0.200 F 
ENDBRANCH  72  95
ENDBRANCH  46  47
ENDBRANCH  38  41
ENDBRANCH  36  37
ENDBRANCH  35  36
ENDBRANCH   1  35
TORSDOF 15
ENDMDL
MODEL 2
REMARK VINA RESULT:     -13.5      4.273      9.359
REMARK SMILES O=C(NCCCNC(=O)c1ccc(-c2c3nc(c(-c4c(F)c(F)c(F)c(F)c4F)c4ccc([nH]4)c(-c4c(F)c(F)c(F)c(F)c4F)c4nc(c(-c5c(F)c(F)c(F)c(F)c5F)c5ccc2[nH]5)C=C4)C=C3)cc1)c1ccc(/[NH+]=C2\S[C@@H](Cc3ccc(F)cc3)C(=O)N2Cc2ccccc2)cc1
REMARK SMILES IDX 4 1 3 2 1 3 2 4 73 6 74 7 100 8 75 9 99 10 76 11 77 12 78 13
REMARK SMILES IDX 79 15 91 16 80 17 89 18 90 19 92 20 93 21 94 22 98 23 95 24
REMARK SMILES IDX 97 25 96 26 81 27 82 28 83 29 88 30 84 31 87 32 85 33 86 34
REMARK SMILES IDX 5 35 6 36 7 37 8 38 9 40 10 41 11 42 72 43 12 44 71 45 13 46
REMARK SMILES IDX 14 47 15 48 65 49 16 50 70 51 64 52 66 53 17 54 69 55 63 56
REMARK SMILES IDX 62 57 18 59 50 60 30 61 49 62 31 63 34 64 48 65 67 66 32 67
REMARK SMILES IDX 33 68 47 70 68 71 35 72 19 73 20 74 28 75 21 76 22 77 26 78
REMARK SMILES IDX 29 79 23 80 24 81 27 82 25 83 51 84 52 85 60 86 53 87 54 88
REMARK SMILES IDX 58 89 61 90 55 91 56 92 59 93 57 94 36 95 37 96 45 97 38 98
REMARK SMILES IDX 39 99 43 100 46 101 40 102 41 103 44 104 42 105
REMARK H PARENT 3 5 77 14 7 39 66 58 34 69
REMARK Flexibility Score: inf
ROOT
ATOM      1  C   UNL A   1      42.408  22.999  25.354  1.00  0.00     0.118 C 
ENDROOT
BRANCH   1   2
ATOM      2  N   UNL A   1      42.097  21.906  26.266  1.00  0.00    -0.352 N 
ATOM      3  O   UNL A   1      40.935  20.739  27.801  1.00  0.00    -0.269 OA
ATOM      4  C   UNL A   1      40.928  21.591  26.913  1.00  0.00     0.251 C 
ATOM      5  H   UNL A   1      42.846  21.295  26.448  1.00  0.00     0.163 HD
BRANCH   4   6
ATOM      6  C   UNL A   1      39.665  22.271  26.563  1.00  0.00     0.040 A 
ATOM      7  C   UNL A   1      39.399  23.558  27.027  1.00  0.00     0.018 A 
ATOM      8  C   UNL A   1      38.755  21.637  25.708  1.00  0.00     0.018 A 
ATOM      9  C   UNL A   1      38.172  24.148  26.749  1.00  0.00     0.052 A 
ATOM     10  C   UNL A   1      37.543  22.261  25.388  1.00  0.00     0.052 A 
ATOM     11  C   UNL A   1      37.228  23.501  25.944  1.00  0.00     0.125 A 
BRANCH  11  12
ATOM     12  N   UNL A   1      36.054  24.200  25.660  1.00  0.00    -0.235 N 
ATOM     13  C   UNL A   1      34.934  23.613  25.409  1.00  0.00     0.320 C 
ATOM     14  H   UNL A   1      36.082  25.184  25.651  1.00  0.00     0.313 HD
ATOM     15  S   UNL A   1      34.659  21.916  25.135  1.00  0.00    -0.022 SA
ATOM     16  N   UNL A   1      33.756  24.311  25.364  1.00  0.00    -0.186 N 
ATOM     17  C   UNL A   1      32.966  22.206  24.521  1.00  0.00     0.178 C 
ATOM     18  C   UNL A   1      32.625  23.609  25.003  1.00  0.00     0.324 C 
ATOM     19  O   UNL A   1      31.492  24.079  24.997  1.00  0.00    -0.245 OA
BRANCH  16  20
ATOM     20  C   UNL A   1      33.679  25.723  25.728  1.00  0.00     0.283 C 
BRANCH  20  21
ATOM     21  C   UNL A   1      33.655  26.657  24.531  1.00  0.00    -0.006 A 
ATOM     22  C   UNL A   1      33.673  28.049  24.694  1.00  0.00     0.008 A 
ATOM     23  C   UNL A   1      33.612  26.141  23.226  1.00  0.00     0.008 A 
ATOM     24  C   UNL A   1      33.662  28.893  23.577  1.00  0.00     0.000 A 
ATOM     25  C   UNL A   1      33.638  26.981  22.113  1.00  0.00     0.000 A 
ATOM     26  C   UNL A   1      33.660  28.360  22.289  1.00  0.00     0.000 A 
ENDBRANCH  20  21
ENDBRANCH  16  20
BRANCH  17  27
ATOM     27  C   UNL A   1      32.026  21.111  25.022  1.00  0.00     0.063 C 
BRANCH  27  28
ATOM     28  C   UNL A   1      32.427  19.699  24.645  1.00  0.00    -0.046 A 
ATOM     29  C   UNL A   1      32.400  19.307  23.296  1.00  0.00     0.007 A 
ATOM     30  C   UNL A   1      32.796  18.758  25.618  1.00  0.00     0.007 A 
ATOM     31  C   UNL A   1      32.757  18.011  22.926  1.00  0.00     0.039 A 
ATOM     32  C   UNL A   1      33.158  17.461  25.245  1.00  0.00     0.039 A 
ATOM     33  C   UNL A   1      33.137  17.101  23.903  1.00  0.00     0.123 A 
ATOM     34  F   UNL A   1      33.484  15.857  23.547  1.00  0.00    -0.207 F 
ENDBRANCH  27  28
ENDBRANCH  17  27
ENDBRANCH  11  12
ENDBRANCH   4   6
ENDBRANCH   1   2
BRANCH   1  35
ATOM     35  C   UNL A   1      43.821  22.910  24.794  1.00  0.00     0.042 C 
BRANCH  35  36
ATOM     36  C   UNL A   1      44.897  23.464  25.719  1.00  0.00     0.118 C 
BRANCH  36  37
ATOM     37  N   UNL A   1      45.684  24.526  25.105  1.00  0.00    -0.352 N 
ATOM     38  C   UNL A   1      45.612  25.891  25.237  1.00  0.00     0.251 C 
ATOM     39  H   UNL A   1      46.387  24.212  24.492  1.00  0.00     0.163 HD
ATOM     40  O   UNL A   1      46.271  26.607  24.486  1.00  0.00    -0.269 OA
BRANCH  38  41
ATOM     41  C   UNL A   1      44.725  26.511  26.244  1.00  0.00     0.039 A 
ATOM     42  C   UNL A   1      44.036  25.679  27.132  1.00  0.00     0.014 A 
ATOM     43  C   UNL A   1      44.559  27.896  26.317  1.00  0.00     0.014 A 
ATOM     44  C   UNL A   1      43.268  26.240  28.156  1.00  0.00     0.010 A 
ATOM     45  C   UNL A   1      43.863  28.455  27.387  1.00  0.00     0.010 A 
ATOM     46  C   UNL A   1      43.226  27.633  28.327  1.00  0.00    -0.014 A 
BRANCH  46  47
ATOM     47  C   UNL A   1      42.577  28.244  29.515  1.00  0.00     0.031 A 
ATOM     48  C   UNL A   1      41.216  28.870  29.409  1.00  0.00     0.074 A 
ATOM     49  C   UNL A   1      43.260  28.310  30.674  1.00  0.00     0.049 A 
ATOM     50  N   UNL A   1      40.537  29.529  30.312  1.00  0.00    -0.248 NA
ATOM     51  C   UNL A   1      40.538  28.761  28.108  1.00  0.00     0.031 C 
ATOM     52  C   UNL A   1      44.609  27.782  30.891  1.00  0.00     0.029 A 
ATOM     53  N   UNL A   1      42.924  28.863  31.885  1.00  0.00    -0.354 N 
ATOM     54  C   UNL A   1      39.359  29.922  29.690  1.00  0.00     0.074 A 
ATOM     55  C   UNL A   1      39.436  29.469  28.318  1.00  0.00     0.031 C 
ATOM     56  C   UNL A   1      44.978  28.019  32.159  1.00  0.00     0.029 A 
ATOM     57  C   UNL A   1      43.915  28.758  32.832  1.00  0.00     0.049 A 
ATOM     58  H   UNL A   1      42.057  29.294  32.058  1.00  0.00     0.167 HD
ATOM     59  C   UNL A   1      38.303  30.583  30.222  1.00  0.00     0.037 A 
ATOM     60  C   UNL A   1      43.969  29.220  34.095  1.00  0.00     0.037 A 
ATOM     61  C   UNL A   1      38.225  31.020  31.593  1.00  0.00     0.049 A 
ATOM     62  C   UNL A   1      42.795  29.978  34.650  1.00  0.00     0.074 A 
ATOM     63  C   UNL A   1      37.170  31.635  32.243  1.00  0.00     0.029 A 
ATOM     64  N   UNL A   1      39.247  30.896  32.523  1.00  0.00    -0.354 N 
ATOM     65  N   UNL A   1      41.656  30.277  34.074  1.00  0.00    -0.248 NA
ATOM     66  C   UNL A   1      42.913  30.462  36.033  1.00  0.00     0.031 C 
ATOM     67  C   UNL A   1      37.573  31.934  33.549  1.00  0.00     0.029 A 
ATOM     68  C   UNL A   1      38.860  31.456  33.730  1.00  0.00     0.049 A 
ATOM     69  H   UNL A   1      40.120  30.472  32.350  1.00  0.00     0.167 HD
ATOM     70  C   UNL A   1      40.917  30.967  35.025  1.00  0.00     0.074 A 
ATOM     71  C   UNL A   1      41.727  31.020  36.224  1.00  0.00     0.031 C 
ATOM     72  C   UNL A   1      39.680  31.509  34.915  1.00  0.00     0.037 A 
BRANCH  59  73
ATOM     73  C   UNL A   1      37.140  30.878  29.320  1.00  0.00     0.064 A 
ATOM     74  C   UNL A   1      36.193  29.895  28.994  1.00  0.00     0.173 A 
ATOM     75  C   UNL A   1      36.941  32.171  28.814  1.00  0.00     0.173 A 
ATOM     76  F   UNL A   1      36.341  28.639  29.443  1.00  0.00    -0.203 F 
ATOM     77  C   UNL A   1      35.107  30.189  28.174  1.00  0.00     0.198 A 
ATOM     78  C   UNL A   1      35.837  32.470  28.019  1.00  0.00     0.198 A 
ATOM     79  F   UNL A   1      37.811  33.152  29.100  1.00  0.00    -0.203 F 
ATOM     80  F   UNL A   1      34.240  29.222  27.839  1.00  0.00    -0.200 F 
ATOM     81  C   UNL A   1      34.925  31.477  27.693  1.00  0.00     0.200 A 
ATOM     82  F   UNL A   1      35.655  33.719  27.568  1.00  0.00    -0.200 F 
ATOM     83  F   UNL A   1      33.873  31.761  26.913  1.00  0.00    -0.200 F 
ENDBRANCH  59  73
BRANCH  60  84
ATOM     84  C   UNL A   1      45.179  28.976  34.923  1.00  0.00     0.064 A 
ATOM     85  C   UNL A   1      45.277  27.839  35.735  1.00  0.00     0.173 A 
ATOM     86  C   UNL A   1      46.258  29.873  34.923  1.00  0.00     0.173 A 
ATOM     87  F   UNL A   1      44.263  26.963  35.786  1.00  0.00    -0.203 F 
ATOM     88  C   UNL A   1      46.400  27.616  36.530  1.00  0.00     0.198 A 
ATOM     89  C   UNL A   1      47.393  29.634  35.695  1.00  0.00     0.198 A 
ATOM     90  F   UNL A   1      46.217  30.975  34.159  1.00  0.00    -0.203 F 
ATOM     91  F   UNL A   1      46.448  26.544  37.332  1.00  0.00    -0.200 F 
ATOM     92  C   UNL A   1      47.459  28.510  36.504  1.00  0.00     0.200 A 
ATOM     93  F   UNL A   1      48.421  30.491  35.653  1.00  0.00    -0.200 F 
ATOM     94  F   UNL A   1      48.542  28.292  37.263  1.00  0.00    -0.200 F 
ENDBRANCH  60  84
BRANCH  72  95
ATOM     95  C   UNL A   1      39.121  32.196  36.127  1.00  0.00     0.064 A 
ATOM     96  C   UNL A   1      39.428  33.534  36.419  1.00  0.00     0.173 A 
ATOM     97  C   UNL A   1      38.244  31.520  36.989  1.00  0.00     0.173 A 
ATOM     98  F   UNL A   1      40.274  34.218  35.635  1.00  0.00    -0.203 F 
ATOM     99  C   UNL A   1      38.897  34.161  37.543  1.00  0.00     0.198 A 
ATOM    100  C   UNL A   1      37.691  32.160  38.095  1.00  0.00     0.198 A 
ATOM    101  F   UNL A   1      37.915  30.241  36.752  1.00  0.00    -0.203 F 
ATOM    102  F   UNL A   1      39.244  35.423  37.829  1.00  0.00    -0.200 F 
ATOM    103  C   UNL A   1      38.024  33.477  38.375  1.00  0.00     0.200 A 
ATOM    104  F   UNL A   1      36.837  31.501  38.891  1.00  0.00    -0.200 F 
ATOM    105  F   UNL A   1      37.510  34.083  39.454  1.00  0.00    -0.200 F 
ENDBRANCH  72  95
ENDBRANCH  46  47
ENDBRANCH  38  41
ENDBRANCH  36  37
ENDBRANCH  35  36
ENDBRANCH   1  35
TORSDOF 15
ENDMDL
MODEL 3
REMARK VINA RESULT:     -13.4      4.193      8.054
REMARK SMILES O=C(NCCCNC(=O)c1ccc(-c2c3nc(c(-c4c(F)c(F)c(F)c(F)c4F)c4ccc([nH]4)c(-c4c(F)c(F)c(F)c(F)c4F)c4nc(c(-c5c(F)c(F)c(F)c(F)c5F)c5ccc2[nH]5)C=C4)C=C3)cc1)c1ccc(/[NH+]=C2\S[C@@H](Cc3ccc(F)cc3)C(=O)N2Cc2ccccc2)cc1
REMARK SMILES IDX 4 1 3 2 1 3 2 4 73 6 74 7 100 8 75 9 99 10 76 11 77 12 78 13
REMARK SMILES IDX 79 15 91 16 80 17 89 18 90 19 92 20 93 21 94 22 98 23 95 24
REMARK SMILES IDX 97 25 96 26 81 27 82 28 83 29 88 30 84 31 87 32 85 33 86 34
REMARK SMILES IDX 5 35 6 36 7 37 8 38 9 40 10 41 11 42 72 43 12 44 71 45 13 46
REMARK SMILES IDX 14 47 15 48 65 49 16 50 70 51 64 52 66 53 17 54 69 55 63 56
REMARK SMILES IDX 62 57 18 59 50 60 30 61 49 62 31 63 34 64 48 65 67 66 32 67
REMARK SMILES IDX 33 68 47 70 68 71 35 72 19 73 20 74 28 75 21 76 22 77 26 78
REMARK SMILES IDX 29 79 23 80 24 81 27 82 25 83 51 84 52 85 60 86 53 87 54 88
REMARK SMILES IDX 58 89 61 90 55 91 56 92 59 93 57 94 36 95 37 96 45 97 38 98
REMARK SMILES IDX 39 99 43 100 46 101 40 102 41 103 44 104 42 105
REMARK H PARENT 3 5 77 14 7 39 66 58 34 69
REMARK Flexibility Score: inf
ROOT
ATOM      1  C   UNL A   1      42.407  23.014  25.412  1.00  0.00     0.118 C 
ENDROOT
BRANCH   1   2
ATOM      2  N   UNL A   1      42.078  21.869  26.250  1.00  0.00    -0.352 N 
ATOM      3  O   UNL A   1      40.881  20.610  27.683  1.00  0.00    -0.269 OA
ATOM      4  C   UNL A   1      40.894  21.513  26.847  1.00  0.00     0.251 C 
ATOM      5  H   UNL A   1      42.825  21.250  26.416  1.00  0.00     0.163 HD
BRANCH   4   6
ATOM      6  C   UNL A   1      39.637  22.208  26.503  1.00  0.00     0.040 A 
ATOM      7  C   UNL A   1      39.419  23.523  26.910  1.00  0.00     0.018 A 
ATOM      8  C   UNL A   1      38.684  21.557  25.711  1.00  0.00     0.018 A 
ATOM      9  C   UNL A   1      38.198  24.131  26.641  1.00  0.00     0.052 A 
ATOM     10  C   UNL A   1      37.478  22.196  25.398  1.00  0.00     0.052 A 
ATOM     11  C   UNL A   1      37.212  23.471  25.901  1.00  0.00     0.125 A 
BRANCH  11  12
ATOM     12  N   UNL A   1      36.048  24.186  25.619  1.00  0.00    -0.235 N 
ATOM     13  C   UNL A   1      34.925  23.614  25.349  1.00  0.00     0.320 C 
ATOM     14  H   UNL A   1      36.085  25.169  25.628  1.00  0.00     0.313 HD
ATOM     15  S   UNL A   1      34.636  21.925  25.042  1.00  0.00    -0.022 SA
ATOM     16  N   UNL A   1      33.753  24.323  25.306  1.00  0.00    -0.186 N 
ATOM     17  C   UNL A   1      32.951  22.241  24.418  1.00  0.00     0.178 C 
ATOM     18  C   UNL A   1      32.619  23.639  24.923  1.00  0.00     0.324 C 
ATOM     19  O   UNL A   1      31.490  24.119  24.916  1.00  0.00    -0.245 OA
BRANCH  16  20
ATOM     20  C   UNL A   1      33.687  25.729  25.695  1.00  0.00     0.283 C 
BRANCH  20  21
ATOM     21  C   UNL A   1      33.689  26.685  24.515  1.00  0.00    -0.006 A 
ATOM     22  C   UNL A   1      33.650  26.214  23.196  1.00  0.00     0.008 A 
ATOM     23  C   UNL A   1      33.733  28.073  24.724  1.00  0.00     0.008 A 
ATOM     24  C   UNL A   1      33.642  27.112  22.122  1.00  0.00     0.000 A 
ATOM     25  C   UNL A   1      33.687  28.969  23.655  1.00  0.00     0.000 A 
ATOM     26  C   UNL A   1      33.645  28.487  22.352  1.00  0.00     0.000 A 
ENDBRANCH  20  21
ENDBRANCH  16  20
BRANCH  17  27
ATOM     27  C   UNL A   1      31.997  21.146  24.892  1.00  0.00     0.063 C 
BRANCH  27  28
ATOM     28  C   UNL A   1      32.424  19.733  24.554  1.00  0.00    -0.046 A 
ATOM     29  C   UNL A   1      32.387  19.297  23.219  1.00  0.00     0.007 A 
ATOM     30  C   UNL A   1      32.827  18.831  25.551  1.00  0.00     0.007 A 
ATOM     31  C   UNL A   1      32.768  17.998  22.885  1.00  0.00     0.039 A 
ATOM     32  C   UNL A   1      33.213  17.531  25.214  1.00  0.00     0.039 A 
ATOM     33  C   UNL A   1      33.182  17.128  23.885  1.00  0.00     0.123 A 
ATOM     34  F   UNL A   1      33.552  15.881  23.563  1.00  0.00    -0.207 F 
ENDBRANCH  27  28
ENDBRANCH  17  27
ENDBRANCH  11  12
ENDBRANCH   4   6
ENDBRANCH   1   2
BRANCH   1  35
ATOM     35  C   UNL A   1      43.765  22.874  24.738  1.00  0.00     0.042 C 
BRANCH  35  36
ATOM     36  C   UNL A   1      44.944  23.276  25.616  1.00  0.00     0.118 C 
BRANCH  36  37
ATOM     37  N   UNL A   1      45.840  24.225  24.967  1.00  0.00    -0.352 N 
ATOM     38  C   UNL A   1      45.904  25.595  25.035  1.00  0.00     0.251 C 
ATOM     39  H   UNL A   1      46.515  23.814  24.379  1.00  0.00     0.163 HD
ATOM     40  O   UNL A   1      46.639  26.205  24.263  1.00  0.00    -0.269 OA
BRANCH  38  41
ATOM     41  C   UNL A   1      45.073  26.346  26.000  1.00  0.00     0.039 A 
ATOM     42  C   UNL A   1      44.410  25.638  27.007  1.00  0.00     0.014 A 
ATOM     43  C   UNL A   1      44.935  27.734  25.919  1.00  0.00     0.014 A 
ATOM     44  C   UNL A   1      43.698  26.330  27.990  1.00  0.00     0.010 A 
ATOM     45  C   UNL A   1      44.297  28.428  26.944  1.00  0.00     0.010 A 
ATOM     46  C   UNL A   1      43.688  27.734  27.999  1.00  0.00    -0.014 A 
BRANCH  46  47
ATOM     47  C   UNL A   1      43.102  28.492  29.135  1.00  0.00     0.031 A 
ATOM     48  C   UNL A   1      43.837  28.609  30.439  1.00  0.00     0.074 A 
ATOM     49  C   UNL A   1      41.862  29.001  29.013  1.00  0.00     0.049 A 
ATOM     50  N   UNL A   1      43.443  29.149  31.565  1.00  0.00    -0.248 NA
ATOM     51  C   UNL A   1      45.185  28.022  30.495  1.00  0.00     0.031 C 
ATOM     52  C   UNL A   1      41.025  28.911  27.814  1.00  0.00     0.029 A 
ATOM     53  N   UNL A   1      41.077  29.681  29.912  1.00  0.00    -0.354 N 
ATOM     54  C   UNL A   1      44.486  28.960  32.462  1.00  0.00     0.074 A 
ATOM     55  C   UNL A   1      45.511  28.212  31.766  1.00  0.00     0.031 C 
ATOM     56  C   UNL A   1      39.856  29.527  28.043  1.00  0.00     0.029 A 
ATOM     57  C   UNL A   1      39.837  30.013  29.419  1.00  0.00     0.049 A 
ATOM     58  H   UNL A   1      41.374  29.909  30.821  1.00  0.00     0.167 HD
ATOM     59  C   UNL A   1      44.585  29.388  33.744  1.00  0.00     0.037 A 
ATOM     60  C   UNL A   1      38.796  30.624  30.013  1.00  0.00     0.037 A 
ATOM     61  C   UNL A   1      43.567  30.143  34.429  1.00  0.00     0.049 A 
ATOM     62  C   UNL A   1      38.921  31.061  31.447  1.00  0.00     0.074 A 
ATOM     63  C   UNL A   1      43.603  30.681  35.703  1.00  0.00     0.029 A 
ATOM     64  N   UNL A   1      42.325  30.461  33.898  1.00  0.00    -0.354 N 
ATOM     65  N   UNL A   1      39.941  30.942  32.261  1.00  0.00    -0.248 NA
ATOM     66  C   UNL A   1      37.750  31.719  32.043  1.00  0.00     0.031 C 
ATOM     67  C   UNL A   1      42.364  31.274  35.964  1.00  0.00     0.029 A 
ATOM     68  C   UNL A   1      41.574  31.155  34.833  1.00  0.00     0.049 A 
ATOM     69  H   UNL A   1      42.022  30.227  32.990  1.00  0.00     0.167 HD
ATOM     70  C   UNL A   1      39.544  31.522  33.457  1.00  0.00     0.074 A 
ATOM     71  C   UNL A   1      38.198  32.016  33.255  1.00  0.00     0.031 C 
ATOM     72  C   UNL A   1      40.231  31.635  34.621  1.00  0.00     0.037 A 
BRANCH  59  73
ATOM     73  C   UNL A   1      45.839  29.048  34.496  1.00  0.00     0.064 A 
ATOM     74  C   UNL A   1      46.947  29.909  34.506  1.00  0.00     0.173 A 
ATOM     75  C   UNL A   1      45.917  27.872  35.257  1.00  0.00     0.173 A 
ATOM     76  F   UNL A   1      46.928  31.042  33.788  1.00  0.00    -0.203 F 
ATOM     77  C   UNL A   1      48.095  29.592  35.227  1.00  0.00     0.198 A 
ATOM     78  C   UNL A   1      47.055  27.573  36.002  1.00  0.00     0.198 A 
ATOM     79  F   UNL A   1      44.883  27.016  35.290  1.00  0.00    -0.203 F 
ATOM     80  F   UNL A   1      49.158  30.408  35.185  1.00  0.00    -0.200 F 
ATOM     81  C   UNL A   1      48.146  28.428  35.980  1.00  0.00     0.200 A 
ATOM     82  F   UNL A   1      47.096  26.456  36.741  1.00  0.00    -0.200 F 
ATOM     83  F   UNL A   1      49.248  28.131  36.683  1.00  0.00    -0.200 F 
ENDBRANCH  59  73
BRANCH  60  84
ATOM     84  C   UNL A   1      37.542  30.862  29.252  1.00  0.00     0.064 A 
ATOM     85  C   UNL A   1      36.627  29.824  29.029  1.00  0.00     0.173 A 
ATOM     86  C   UNL A   1      37.233  32.127  28.729  1.00  0.00     0.173 A 
ATOM     87  F   UNL A   1      36.888  28.592  29.490  1.00  0.00    -0.203 F 
ATOM     88  C   UNL A   1      35.460  30.037  28.297  1.00  0.00     0.198 A 
ATOM     89  C   UNL A   1      36.051  32.346  28.023  1.00  0.00     0.198 A 
ATOM     90  F   UNL A   1      38.072  33.156  28.918  1.00  0.00    -0.203 F 
ATOM     91  F   UNL A   1      34.626  29.015  28.061  1.00  0.00    -0.200 F 
ATOM     92  C   UNL A   1      35.170  31.298  27.801  1.00  0.00     0.200 A 
ATOM     93  F   UNL A   1      35.767  33.570  27.560  1.00  0.00    -0.200 F 
ATOM     94  F   UNL A   1      34.045  31.503  27.103  1.00  0.00    -0.200 F 
ENDBRANCH  60  84
BRANCH  72  95
ATOM     95  C   UNL A   1      39.543  32.330  35.760  1.00  0.00     0.064 A 
ATOM     96  C   UNL A   1      39.733  33.698  36.006  1.00  0.00     0.173 A 
ATOM     97  C   UNL A   1      38.660  31.628  36.595  1.00  0.00     0.173 A 
ATOM     98  F   UNL A   1      40.580  34.409  35.246  1.00  0.00    -0.203 F 
ATOM     99  C   UNL A   1      39.084  34.332  37.061  1.00  0.00     0.198 A 
ATOM    100  C   UNL A   1      37.989  32.273  37.630  1.00  0.00     0.198 A 
ATOM    101  F   UNL A   1      38.440  30.320  36.399  1.00  0.00    -0.203 F 
ATOM    102  F   UNL A   1      39.319  35.628  37.309  1.00  0.00    -0.200 F 
ATOM    103  C   UNL A   1      38.207  33.621  37.868  1.00  0.00     0.200 A 
ATOM    104  F   UNL A   1      37.132  31.587  38.400  1.00  0.00    -0.200 F 
ATOM    105  F   UNL A   1      37.578  34.234  38.880  1.00  0.00    -0.200 F 
ENDBRANCH  72  95
ENDBRANCH  46  47
ENDBRANCH  38  41
ENDBRANCH  36  37
ENDBRANCH  35  36
ENDBRANCH   1  35
TORSDOF 15
ENDMDL
