MODEL 1
REMARK VINA RESULT:      -9.2      0.000      0.000
REMARK SMILES C=CCc1cccc(-c2ccc([C@@H](C)C(=O)NCCCNC(=O)c3ccc(-c4c5nc(c(-c6c(F)c(F)c(F)c(F)c6F)c6ccc([nH]6)c(-c6c(F)c(F)c(F)c(F)c6F)c6nc(c(-c7c(F)c(F)c(F)c(F)c7F)c7ccc4[nH]7)C=C6)C=C5)cc3)cc2)c1
REMARK SMILES IDX 18 1 17 2 15 3 16 4 13 6 14 7 12 8 9 9 10 10 88 11 11 12
REMARK SMILES IDX 87 13 8 14 4 15 5 16 89 17 6 18 7 19 3 20 2 21 1 22 19 23
REMARK SMILES IDX 20 24 21 25 22 26 23 28 24 29 25 30 86 31 26 32 85 33 27 34
REMARK SMILES IDX 28 35 29 36 79 37 30 38 84 39 78 40 80 41 31 42 83 43 77 44
REMARK SMILES IDX 76 45 32 47 64 48 44 49 63 50 45 51 48 52 62 53 81 54 46 55
REMARK SMILES IDX 47 56 61 58 82 59 49 60 33 61 34 62 42 63 35 64 36 65 40 66
REMARK SMILES IDX 43 67 37 68 38 69 41 70 39 71 65 72 66 73 74 74 67 75 68 76
REMARK SMILES IDX 72 77 75 78 69 79 70 80 73 81 71 82 50 83 51 84 59 85 52 86
REMARK SMILES IDX 53 87 57 88 60 89 54 90 55 91 58 92 56 93
REMARK H PARENT 17 5 21 27 80 46 48 57
REMARK Flexibility Score: inf
ROOT
ATOM      1  C   UNL A   1      35.852  31.672  32.040  1.00  0.00     0.117 C 
ENDROOT
BRANCH   1   2
ATOM      2  N   UNL A   1      37.124  32.364  32.105  1.00  0.00    -0.356 N 
ATOM      3  C   UNL A   1      38.218  32.191  32.895  1.00  0.00     0.227 C 
ATOM      4  O   UNL A   1      39.130  33.015  32.744  1.00  0.00    -0.274 OA
ATOM      5  H   UNL A   1      37.213  33.097  31.454  1.00  0.00     0.163 HD
BRANCH   3   6
ATOM      6  C   UNL A   1      38.375  31.058  33.920  1.00  0.00     0.105 C 
ATOM      7  C   UNL A   1      38.014  31.450  35.354  1.00  0.00     0.023 C 
BRANCH   6   8
ATOM      8  C   UNL A   1      39.661  30.264  33.764  1.00  0.00    -0.036 A 
ATOM      9  C   UNL A   1      42.100  28.762  33.594  1.00  0.00    -0.018 A 
ATOM     10  C   UNL A   1      40.904  28.311  33.011  1.00  0.00     0.009 A 
ATOM     11  C   UNL A   1      42.041  30.000  34.255  1.00  0.00     0.009 A 
ATOM     12  C   UNL A   1      39.724  29.062  33.059  1.00  0.00     0.005 A 
ATOM     13  C   UNL A   1      40.843  30.726  34.358  1.00  0.00     0.005 A 
BRANCH   9  14
ATOM     14  C   UNL A   1      43.353  27.967  33.495  1.00  0.00    -0.018 A 
ATOM     15  C   UNL A   1      44.592  25.981  32.725  1.00  0.00    -0.044 A 
ATOM     16  C   UNL A   1      45.757  26.466  33.327  1.00  0.00     0.004 A 
ATOM     17  C   UNL A   1      43.409  26.742  32.801  1.00  0.00     0.012 A 
ATOM     18  C   UNL A   1      45.734  27.674  34.013  1.00  0.00     0.001 A 
ATOM     19  C   UNL A   1      44.545  28.401  34.105  1.00  0.00     0.009 A 
BRANCH  15  20
ATOM     20  C   UNL A   1      44.580  24.615  32.081  1.00  0.00     0.062 C 
BRANCH  20  21
ATOM     21  C   UNL A   1      44.622  23.526  33.118  1.00  0.00    -0.030 C 
ATOM     22  C   UNL A   1      43.554  23.063  33.782  1.00  0.00     0.004 C 
ENDBRANCH  20  21
ENDBRANCH  15  20
ENDBRANCH   9  14
ENDBRANCH   6   8
ENDBRANCH   3   6
ENDBRANCH   1   2
BRANCH   1  23
ATOM     23  C   UNL A   1      34.822  32.429  31.205  1.00  0.00     0.042 C 
BRANCH  23  24
ATOM     24  C   UNL A   1      35.166  32.508  29.722  1.00  0.00     0.118 C 
BRANCH  24  25
ATOM     25  N   UNL A   1      34.507  31.465  28.946  1.00  0.00    -0.352 N 
ATOM     26  C   UNL A   1      35.018  30.355  28.318  1.00  0.00     0.251 C 
ATOM     27  H   UNL A   1      33.534  31.574  28.856  1.00  0.00     0.163 HD
ATOM     28  O   UNL A   1      34.306  29.725  27.542  1.00  0.00    -0.269 OA
BRANCH  26  29
ATOM     29  C   UNL A   1      36.413  29.911  28.548  1.00  0.00     0.039 A 
ATOM     30  C   UNL A   1      37.347  30.067  27.517  1.00  0.00     0.014 A 
ATOM     31  C   UNL A   1      36.798  29.288  29.738  1.00  0.00     0.014 A 
ATOM     32  C   UNL A   1      38.671  29.661  27.701  1.00  0.00     0.010 A 
ATOM     33  C   UNL A   1      38.135  28.953  29.950  1.00  0.00     0.010 A 
ATOM     34  C   UNL A   1      39.085  29.131  28.933  1.00  0.00    -0.014 A 
BRANCH  34  35
ATOM     35  C   UNL A   1      40.500  28.751  29.181  1.00  0.00     0.031 A 
ATOM     36  C   UNL A   1      41.436  29.720  29.848  1.00  0.00     0.074 A 
ATOM     37  C   UNL A   1      40.962  27.567  28.734  1.00  0.00     0.049 A 
ATOM     38  N   UNL A   1      42.727  29.624  30.047  1.00  0.00    -0.248 NA
ATOM     39  C   UNL A   1      40.848  30.979  30.334  1.00  0.00     0.031 C 
ATOM     40  C   UNL A   1      40.163  26.558  28.038  1.00  0.00     0.029 A 
ATOM     41  N   UNL A   1      42.220  27.021  28.782  1.00  0.00    -0.354 N 
ATOM     42  C   UNL A   1      43.106  30.813  30.656  1.00  0.00     0.074 A 
ATOM     43  C   UNL A   1      41.918  31.634  30.757  1.00  0.00     0.031 C 
ATOM     44  C   UNL A   1      40.947  25.511  27.735  1.00  0.00     0.029 A 
ATOM     45  C   UNL A   1      42.310  25.792  28.176  1.00  0.00     0.049 A 
ATOM     46  H   UNL A   1      42.986  27.468  29.210  1.00  0.00     0.167 HD
ATOM     47  C   UNL A   1      44.329  31.179  31.108  1.00  0.00     0.037 A 
ATOM     48  C   UNL A   1      43.373  24.989  27.985  1.00  0.00     0.037 A 
ATOM     49  C   UNL A   1      45.502  30.347  31.035  1.00  0.00     0.049 A 
ATOM     50  C   UNL A   1      44.722  25.421  28.490  1.00  0.00     0.074 A 
ATOM     51  C   UNL A   1      46.772  30.600  31.525  1.00  0.00     0.029 A 
ATOM     52  N   UNL A   1      45.547  29.098  30.434  1.00  0.00    -0.354 N 
ATOM     53  N   UNL A   1      45.057  26.522  29.117  1.00  0.00    -0.248 NA
ATOM     54  C   UNL A   1      45.843  24.497  28.262  1.00  0.00     0.031 C 
ATOM     55  C   UNL A   1      47.596  29.523  31.182  1.00  0.00     0.029 A 
ATOM     56  C   UNL A   1      46.829  28.578  30.520  1.00  0.00     0.049 A 
ATOM     57  H   UNL A   1      44.782  28.648  30.008  1.00  0.00     0.167 HD
ATOM     58  C   UNL A   1      46.416  26.415  29.381  1.00  0.00     0.074 A 
ATOM     59  C   UNL A   1      46.843  25.133  28.857  1.00  0.00     0.031 C 
ATOM     60  C   UNL A   1      47.235  27.298  30.000  1.00  0.00     0.037 A 
BRANCH  47  61
ATOM     61  C   UNL A   1      44.464  32.541  31.725  1.00  0.00     0.064 A 
ATOM     62  C   UNL A   1      44.567  33.698  30.938  1.00  0.00     0.173 A 
ATOM     63  C   UNL A   1      44.451  32.696  33.119  1.00  0.00     0.173 A 
ATOM     64  F   UNL A   1      44.595  33.603  29.600  1.00  0.00    -0.203 F 
ATOM     65  C   UNL A   1      44.681  34.956  31.523  1.00  0.00     0.198 A 
ATOM     66  C   UNL A   1      44.536  33.958  33.702  1.00  0.00     0.198 A 
ATOM     67  F   UNL A   1      44.347  31.624  33.919  1.00  0.00    -0.203 F 
ATOM     68  F   UNL A   1      44.826  36.042  30.752  1.00  0.00    -0.200 F 
ATOM     69  C   UNL A   1      44.658  35.086  32.904  1.00  0.00     0.200 A 
ATOM     70  F   UNL A   1      44.501  34.083  35.036  1.00  0.00    -0.200 F 
ATOM     71  F   UNL A   1      44.761  36.298  33.466  1.00  0.00    -0.200 F 
ENDBRANCH  47  61
BRANCH  48  72
ATOM     72  C   UNL A   1      43.200  23.684  27.294  1.00  0.00     0.064 A 
ATOM     73  C   UNL A   1      43.598  23.521  25.960  1.00  0.00     0.173 A 
ATOM     74  C   UNL A   1      42.639  22.578  27.949  1.00  0.00     0.173 A 
ATOM     75  F   UNL A   1      44.119  24.556  25.286  1.00  0.00    -0.203 F 
ATOM     76  C   UNL A   1      43.429  22.305  25.302  1.00  0.00     0.198 A 
ATOM     77  C   UNL A   1      42.495  21.353  27.298  1.00  0.00     0.198 A 
ATOM     78  F   UNL A   1      42.244  22.682  29.226  1.00  0.00    -0.203 F 
ATOM     79  F   UNL A   1      43.780  22.187  24.014  1.00  0.00    -0.200 F 
ATOM     80  C   UNL A   1      42.884  21.220  25.974  1.00  0.00     0.200 A 
ATOM     81  F   UNL A   1      41.980  20.305  27.954  1.00  0.00    -0.200 F 
ATOM     82  F   UNL A   1      42.726  20.050  25.342  1.00  0.00    -0.200 F 
ENDBRANCH  48  72
BRANCH  60  83
ATOM     83  C   UNL A   1      48.671  26.902  30.170  1.00  0.00     0.064 A 
ATOM     84  C   UNL A   1      49.072  26.003  31.169  1.00  0.00     0.173 A 
ATOM     85  C   UNL A   1      49.652  27.391  29.293  1.00  0.00     0.173 A 
ATOM     86  F   UNL A   1      48.175  25.521  32.042  1.00  0.00    -0.203 F 
ATOM     87  C   UNL A   1      50.404  25.621  31.295  1.00  0.00     0.198 A 
ATOM     88  C   UNL A   1      50.979  26.986  29.404  1.00  0.00     0.198 A 
ATOM     89  F   UNL A   1      49.319  28.249  28.318  1.00  0.00    -0.203 F 
ATOM     90  F   UNL A   1      50.771  24.791  32.281  1.00  0.00    -0.200 F 
ATOM     91  C   UNL A   1      51.354  26.105  30.408  1.00  0.00     0.200 A 
ATOM     92  F   UNL A   1      51.893  27.446  28.540  1.00  0.00    -0.200 F 
ATOM     93  F   UNL A   1      52.636  25.730  30.524  1.00  0.00    -0.200 F 
ENDBRANCH  60  83
ENDBRANCH  34  35
ENDBRANCH  26  29
ENDBRANCH  24  25
ENDBRANCH  23  24
ENDBRANCH   1  23
TORSDOF 14
ENDMDL
MODEL 2
REMARK VINA RESULT:      -9.1      0.082      1.595
REMARK SMILES C=CCc1cccc(-c2ccc([C@@H](C)C(=O)NCCCNC(=O)c3ccc(-c4c5nc(c(-c6c(F)c(F)c(F)c(F)c6F)c6ccc([nH]6)c(-c6c(F)c(F)c(F)c(F)c6F)c6nc(c(-c7c(F)c(F)c(F)c(F)c7F)c7ccc4[nH]7)C=C6)C=C5)cc3)cc2)c1
REMARK SMILES IDX 18 1 17 2 15 3 16 4 13 6 14 7 12 8 9 9 10 10 88 11 11 12
REMARK SMILES IDX 87 13 8 14 4 15 5 16 89 17 6 18 7 19 3 20 2 21 1 22 19 23
REMARK SMILES IDX 20 24 21 25 22 26 23 28 24 29 25 30 86 31 26 32 85 33 27 34
REMARK SMILES IDX 28 35 29 36 79 37 30 38 84 39 78 40 80 41 31 42 83 43 77 44
REMARK SMILES IDX 76 45 32 47 64 48 44 49 63 50 45 51 48 52 62 53 81 54 46 55
REMARK SMILES IDX 47 56 61 58 82 59 49 60 33 61 34 62 42 63 35 64 36 65 40 66
REMARK SMILES IDX 43 67 37 68 38 69 41 70 39 71 65 72 66 73 74 74 67 75 68 76
REMARK SMILES IDX 72 77 75 78 69 79 70 80 73 81 71 82 50 83 51 84 59 85 52 86
REMARK SMILES IDX 53 87 57 88 60 89 54 90 55 91 58 92 56 93
REMARK H PARENT 17 5 21 27 80 46 48 57
REMARK Flexibility Score: inf
ROOT
ATOM      1  C   UNL A   1      35.887  31.647  32.083  1.00  0.00     0.117 C 
ENDROOT
BRANCH   1   2
ATOM      2  N   UNL A   1      37.150  32.353  32.169  1.00  0.00    -0.356 N 
ATOM      3  C   UNL A   1      38.239  32.182  32.968  1.00  0.00     0.227 C 
ATOM      4  O   UNL A   1      39.142  33.018  32.838  1.00  0.00    -0.274 OA
ATOM      5  H   UNL A   1      37.237  33.097  31.531  1.00  0.00     0.163 HD
BRANCH   3   6
ATOM      6  C   UNL A   1      38.399  31.036  33.978  1.00  0.00     0.105 C 
ATOM      7  C   UNL A   1      38.043  31.409  35.418  1.00  0.00     0.023 C 
BRANCH   6   8
ATOM      8  C   UNL A   1      39.684  30.243  33.806  1.00  0.00    -0.036 A 
ATOM      9  C   UNL A   1      42.122  28.743  33.608  1.00  0.00    -0.018 A 
ATOM     10  C   UNL A   1      40.925  28.303  33.017  1.00  0.00     0.009 A 
ATOM     11  C   UNL A   1      42.064  29.969  34.291  1.00  0.00     0.009 A 
ATOM     12  C   UNL A   1      39.746  29.054  33.080  1.00  0.00     0.005 A 
ATOM     13  C   UNL A   1      40.867  30.693  34.408  1.00  0.00     0.005 A 
BRANCH   9  14
ATOM     14  C   UNL A   1      43.373  27.948  33.494  1.00  0.00    -0.018 A 
ATOM     15  C   UNL A   1      44.608  25.970  32.696  1.00  0.00    -0.044 A 
ATOM     16  C   UNL A   1      45.776  26.448  33.297  1.00  0.00     0.004 A 
ATOM     17  C   UNL A   1      43.426  26.731  32.787  1.00  0.00     0.012 A 
ATOM     18  C   UNL A   1      45.757  27.649  33.996  1.00  0.00     0.001 A 
ATOM     19  C   UNL A   1      44.569  28.376  34.103  1.00  0.00     0.009 A 
BRANCH  15  20
ATOM     20  C   UNL A   1      44.592  24.611  32.038  1.00  0.00     0.062 C 
BRANCH  20  21
ATOM     21  C   UNL A   1      44.642  23.511  33.063  1.00  0.00    -0.030 C 
ATOM     22  C   UNL A   1      43.581  23.041  33.730  1.00  0.00     0.004 C 
ENDBRANCH  20  21
ENDBRANCH  15  20
ENDBRANCH   9  14
ENDBRANCH   6   8
ENDBRANCH   3   6
ENDBRANCH   1   2
BRANCH   1  23
ATOM     23  C   UNL A   1      34.861  32.397  31.236  1.00  0.00     0.042 C 
BRANCH  23  24
ATOM     24  C   UNL A   1      35.214  32.466  29.755  1.00  0.00     0.118 C 
BRANCH  24  25
ATOM     25  N   UNL A   1      34.553  31.422  28.981  1.00  0.00    -0.352 N 
ATOM     26  C   UNL A   1      35.064  30.313  28.351  1.00  0.00     0.251 C 
ATOM     27  H   UNL A   1      33.579  31.529  28.896  1.00  0.00     0.163 HD
ATOM     28  O   UNL A   1      34.349  29.682  27.578  1.00  0.00    -0.269 OA
BRANCH  26  29
ATOM     29  C   UNL A   1      36.461  29.872  28.575  1.00  0.00     0.039 A 
ATOM     30  C   UNL A   1      37.389  30.027  27.538  1.00  0.00     0.014 A 
ATOM     31  C   UNL A   1      36.853  29.253  29.764  1.00  0.00     0.014 A 
ATOM     32  C   UNL A   1      38.714  29.623  27.717  1.00  0.00     0.010 A 
ATOM     33  C   UNL A   1      38.191  28.920  29.970  1.00  0.00     0.010 A 
ATOM     34  C   UNL A   1      39.135  29.097  28.948  1.00  0.00    -0.014 A 
BRANCH  34  35
ATOM     35  C   UNL A   1      40.552  28.720  29.189  1.00  0.00     0.031 A 
ATOM     36  C   UNL A   1      41.486  29.686  29.865  1.00  0.00     0.074 A 
ATOM     37  C   UNL A   1      41.018  27.542  28.730  1.00  0.00     0.049 A 
ATOM     38  N   UNL A   1      42.778  29.593  30.061  1.00  0.00    -0.248 NA
ATOM     39  C   UNL A   1      40.894  30.937  30.364  1.00  0.00     0.031 C 
ATOM     40  C   UNL A   1      40.222  26.537  28.025  1.00  0.00     0.029 A 
ATOM     41  N   UNL A   1      42.279  27.001  28.770  1.00  0.00    -0.354 N 
ATOM     42  C   UNL A   1      43.153  30.777  30.681  1.00  0.00     0.074 A 
ATOM     43  C   UNL A   1      41.963  31.592  30.792  1.00  0.00     0.031 C 
ATOM     44  C   UNL A   1      41.009  25.496  27.710  1.00  0.00     0.029 A 
ATOM     45  C   UNL A   1      42.371  25.778  28.152  1.00  0.00     0.049 A 
ATOM     46  H   UNL A   1      43.044  27.446  29.201  1.00  0.00     0.167 HD
ATOM     47  C   UNL A   1      44.376  31.143  31.134  1.00  0.00     0.037 A 
ATOM     48  C   UNL A   1      43.438  24.981  27.950  1.00  0.00     0.037 A 
ATOM     49  C   UNL A   1      45.552  30.316  31.051  1.00  0.00     0.049 A 
ATOM     50  C   UNL A   1      44.786  25.413  28.458  1.00  0.00     0.074 A 
ATOM     51  C   UNL A   1      46.822  30.569  31.541  1.00  0.00     0.029 A 
ATOM     52  N   UNL A   1      45.601  29.073  30.437  1.00  0.00    -0.354 N 
ATOM     53  N   UNL A   1      45.118  26.508  29.095  1.00  0.00    -0.248 NA
ATOM     54  C   UNL A   1      45.909  24.495  28.218  1.00  0.00     0.031 C 
ATOM     55  C   UNL A   1      47.649  29.498  31.185  1.00  0.00     0.029 A 
ATOM     56  C   UNL A   1      46.884  28.557  30.515  1.00  0.00     0.049 A 
ATOM     57  H   UNL A   1      44.836  28.625  30.008  1.00  0.00     0.167 HD
ATOM     58  C   UNL A   1      46.477  26.404  29.355  1.00  0.00     0.074 A 
ATOM     59  C   UNL A   1      46.908  25.130  28.817  1.00  0.00     0.031 C 
ATOM     60  C   UNL A   1      47.294  27.284  29.981  1.00  0.00     0.037 A 
BRANCH  47  61
ATOM     61  C   UNL A   1      44.507  32.499  31.765  1.00  0.00     0.064 A 
ATOM     62  C   UNL A   1      44.626  33.662  30.989  1.00  0.00     0.173 A 
ATOM     63  C   UNL A   1      44.474  32.642  33.160  1.00  0.00     0.173 A 
ATOM     64  F   UNL A   1      44.673  33.579  29.651  1.00  0.00    -0.203 F 
ATOM     65  C   UNL A   1      44.736  34.915  31.587  1.00  0.00     0.198 A 
ATOM     66  C   UNL A   1      44.555  33.899  33.754  1.00  0.00     0.198 A 
ATOM     67  F   UNL A   1      44.354  31.564  33.948  1.00  0.00    -0.203 F 
ATOM     68  F   UNL A   1      44.897  36.006  30.826  1.00  0.00    -0.200 F 
ATOM     69  C   UNL A   1      44.693  35.033  32.968  1.00  0.00     0.200 A 
ATOM     70  F   UNL A   1      44.501  34.013  35.088  1.00  0.00    -0.200 F 
ATOM     71  F   UNL A   1      44.793  36.240  33.541  1.00  0.00    -0.200 F 
ENDBRANCH  47  61
BRANCH  48  72
ATOM     72  C   UNL A   1      43.268  23.683  27.247  1.00  0.00     0.064 A 
ATOM     73  C   UNL A   1      42.720  22.575  27.909  1.00  0.00     0.173 A 
ATOM     74  C   UNL A   1      43.645  23.522  25.905  1.00  0.00     0.173 A 
ATOM     75  F   UNL A   1      42.365  22.674  29.198  1.00  0.00    -0.203 F 
ATOM     76  C   UNL A   1      42.569  21.351  27.260  1.00  0.00     0.198 A 
ATOM     77  C   UNL A   1      43.468  22.305  25.249  1.00  0.00     0.198 A 
ATOM     78  F   UNL A   1      44.173  24.551  25.228  1.00  0.00    -0.203 F 
ATOM     79  F   UNL A   1      42.081  20.297  27.928  1.00  0.00    -0.200 F 
ATOM     80  C   UNL A   1      42.937  21.219  25.929  1.00  0.00     0.200 A 
ATOM     81  F   UNL A   1      43.813  22.184  23.960  1.00  0.00    -0.200 F 
ATOM     82  F   UNL A   1      42.787  20.044  25.304  1.00  0.00    -0.200 F 
ENDBRANCH  48  72
BRANCH  60  83
ATOM     83  C   UNL A   1      48.733  26.891  30.146  1.00  0.00     0.064 A 
ATOM     84  C   UNL A   1      49.737  27.416  29.320  1.00  0.00     0.173 A 
ATOM     85  C   UNL A   1      49.116  26.015  31.173  1.00  0.00     0.173 A 
ATOM     86  F   UNL A   1      49.419  28.245  28.315  1.00  0.00    -0.203 F 
ATOM     87  C   UNL A   1      51.071  27.066  29.506  1.00  0.00     0.198 A 
ATOM     88  C   UNL A   1      50.454  25.687  31.373  1.00  0.00     0.198 A 
ATOM     89  F   UNL A   1      48.193  25.489  31.992  1.00  0.00    -0.203 F 
ATOM     90  F   UNL A   1      52.010  27.549  28.681  1.00  0.00    -0.200 F 
ATOM     91  C   UNL A   1      51.429  26.209  30.536  1.00  0.00     0.200 A 
ATOM     92  F   UNL A   1      50.799  24.868  32.376  1.00  0.00    -0.200 F 
ATOM     93  F   UNL A   1      52.715  25.878  30.720  1.00  0.00    -0.200 F 
ENDBRANCH  60  83
ENDBRANCH  34  35
ENDBRANCH  26  29
ENDBRANCH  24  25
ENDBRANCH  23  24
ENDBRANCH   1  23
TORSDOF 14
ENDMDL
MODEL 3
REMARK VINA RESULT:      -9.1      1.667      4.025
REMARK SMILES C=CCc1cccc(-c2ccc([C@@H](C)C(=O)NCCCNC(=O)c3ccc(-c4c5nc(c(-c6c(F)c(F)c(F)c(F)c6F)c6ccc([nH]6)c(-c6c(F)c(F)c(F)c(F)c6F)c6nc(c(-c7c(F)c(F)c(F)c(F)c7F)c7ccc4[nH]7)C=C6)C=C5)cc3)cc2)c1
REMARK SMILES IDX 18 1 17 2 15 3 16 4 13 6 14 7 12 8 9 9 10 10 88 11 11 12
REMARK SMILES IDX 87 13 8 14 4 15 5 16 89 17 6 18 7 19 3 20 2 21 1 22 19 23
REMARK SMILES IDX 20 24 21 25 22 26 23 28 24 29 25 30 86 31 26 32 85 33 27 34
REMARK SMILES IDX 28 35 29 36 79 37 30 38 84 39 78 40 80 41 31 42 83 43 77 44
REMARK SMILES IDX 76 45 32 47 64 48 44 49 63 50 45 51 48 52 62 53 81 54 46 55
REMARK SMILES IDX 47 56 61 58 82 59 49 60 33 61 34 62 42 63 35 64 36 65 40 66
REMARK SMILES IDX 43 67 37 68 38 69 41 70 39 71 65 72 66 73 74 74 67 75 68 76
REMARK SMILES IDX 72 77 75 78 69 79 70 80 73 81 71 82 50 83 51 84 59 85 52 86
REMARK SMILES IDX 53 87 57 88 60 89 54 90 55 91 58 92 56 93
REMARK H PARENT 17 5 21 27 80 46 48 57
REMARK Flexibility Score: inf
ROOT
ATOM      1  C   UNL A   1      32.905  34.438  28.569  1.00  0.00     0.117 C 
ENDROOT
BRANCH   1   2
ATOM      2  N   UNL A   1      33.028  35.784  29.091  1.00  0.00    -0.356 N 
ATOM      3  C   UNL A   1      32.906  36.290  30.348  1.00  0.00     0.227 C 
ATOM      4  O   UNL A   1      32.998  37.521  30.447  1.00  0.00    -0.274 OA
ATOM      5  H   UNL A   1      33.239  36.460  28.407  1.00  0.00     0.163 HD
BRANCH   3   6
ATOM      6  C   UNL A   1      32.678  35.438  31.606  1.00  0.00     0.105 C 
ATOM      7  C   UNL A   1      31.751  36.077  32.641  1.00  0.00     0.023 C 
BRANCH   6   8
ATOM      8  C   UNL A   1      33.946  34.813  32.160  1.00  0.00    -0.036 A 
ATOM      9  C   UNL A   1      36.349  33.560  33.105  1.00  0.00    -0.018 A 
ATOM     10  C   UNL A   1      36.242  34.953  32.959  1.00  0.00     0.009 A 
ATOM     11  C   UNL A   1      35.207  32.811  32.776  1.00  0.00     0.009 A 
ATOM     12  C   UNL A   1      35.057  35.568  32.536  1.00  0.00     0.005 A 
ATOM     13  C   UNL A   1      34.038  33.421  32.293  1.00  0.00     0.005 A 
BRANCH   9  14
ATOM     14  C   UNL A   1      37.604  32.932  33.594  1.00  0.00    -0.018 A 
ATOM     15  C   UNL A   1      39.095  30.983  33.822  1.00  0.00    -0.044 A 
ATOM     16  C   UNL A   1      40.007  31.756  34.546  1.00  0.00     0.004 A 
ATOM     17  C   UNL A   1      37.914  31.581  33.342  1.00  0.00     0.012 A 
ATOM     18  C   UNL A   1      39.733  33.093  34.806  1.00  0.00     0.001 A 
ATOM     19  C   UNL A   1      38.542  33.663  34.349  1.00  0.00     0.009 A 
BRANCH  15  20
ATOM     20  C   UNL A   1      39.330  29.502  33.639  1.00  0.00     0.062 C 
BRANCH  20  21
ATOM     21  C   UNL A   1      40.785  29.158  33.806  1.00  0.00    -0.030 C 
ATOM     22  C   UNL A   1      41.341  27.995  33.443  1.00  0.00     0.004 C 
ENDBRANCH  20  21
ENDBRANCH  15  20
ENDBRANCH   9  14
ENDBRANCH   6   8
ENDBRANCH   3   6
ENDBRANCH   1   2
BRANCH   1  23
ATOM     23  C   UNL A   1      34.252  33.854  28.148  1.00  0.00     0.042 C 
BRANCH  23  24
ATOM     24  C   UNL A   1      34.655  32.606  28.924  1.00  0.00     0.118 C 
BRANCH  24  25
ATOM     25  N   UNL A   1      34.056  31.396  28.374  1.00  0.00    -0.352 N 
ATOM     26  C   UNL A   1      34.626  30.207  27.993  1.00  0.00     0.251 C 
ATOM     27  H   UNL A   1      33.080  31.440  28.256  1.00  0.00     0.163 HD
ATOM     28  O   UNL A   1      33.956  29.398  27.358  1.00  0.00    -0.269 OA
BRANCH  26  29
ATOM     29  C   UNL A   1      36.035  29.884  28.321  1.00  0.00     0.039 A 
ATOM     30  C   UNL A   1      36.336  29.419  29.607  1.00  0.00     0.014 A 
ATOM     31  C   UNL A   1      37.068  30.091  27.404  1.00  0.00     0.014 A 
ATOM     32  C   UNL A   1      37.654  29.104  29.948  1.00  0.00     0.010 A 
ATOM     33  C   UNL A   1      38.370  29.705  27.719  1.00  0.00     0.010 A 
ATOM     34  C   UNL A   1      38.678  29.211  28.995  1.00  0.00    -0.014 A 
BRANCH  34  35
ATOM     35  C   UNL A   1      40.077  28.821  29.309  1.00  0.00     0.031 A 
ATOM     36  C   UNL A   1      40.976  29.767  30.056  1.00  0.00     0.074 A 
ATOM     37  C   UNL A   1      40.562  27.650  28.852  1.00  0.00     0.049 A 
ATOM     38  N   UNL A   1      42.254  29.662  30.323  1.00  0.00    -0.248 NA
ATOM     39  C   UNL A   1      40.362  31.011  30.548  1.00  0.00     0.031 C 
ATOM     40  C   UNL A   1      39.803  26.665  28.082  1.00  0.00     0.029 A 
ATOM     41  N   UNL A   1      41.816  27.100  28.952  1.00  0.00    -0.354 N 
ATOM     42  C   UNL A   1      42.599  30.831  30.989  1.00  0.00     0.074 A 
ATOM     43  C   UNL A   1      41.408  31.651  31.049  1.00  0.00     0.031 C 
ATOM     44  C   UNL A   1      40.602  25.626  27.790  1.00  0.00     0.029 A 
ATOM     45  C   UNL A   1      41.938  25.890  28.315  1.00  0.00     0.049 A 
ATOM     46  H   UNL A   1      42.558  27.532  29.435  1.00  0.00     0.167 HD
ATOM     47  C   UNL A   1      43.796  31.180  31.518  1.00  0.00     0.037 A 
ATOM     48  C   UNL A   1      43.010  25.091  28.157  1.00  0.00     0.037 A 
ATOM     49  C   UNL A   1      44.971  30.348  31.484  1.00  0.00     0.049 A 
ATOM     50  C   UNL A   1      44.330  25.504  28.749  1.00  0.00     0.074 A 
ATOM     51  C   UNL A   1      46.212  30.583  32.051  1.00  0.00     0.029 A 
ATOM     52  N   UNL A   1      45.048  29.118  30.848  1.00  0.00    -0.354 N 
ATOM     53  N   UNL A   1      44.630  26.584  29.428  1.00  0.00    -0.248 NA
ATOM     54  C   UNL A   1      45.460  24.585  28.554  1.00  0.00     0.031 C 
ATOM     55  C   UNL A   1      47.053  29.515  31.721  1.00  0.00     0.029 A 
ATOM     56  C   UNL A   1      46.322  28.593  30.989  1.00  0.00     0.049 A 
ATOM     57  H   UNL A   1      44.307  28.683  30.367  1.00  0.00     0.167 HD
ATOM     58  C   UNL A   1      45.972  26.466  29.762  1.00  0.00     0.074 A 
ATOM     59  C   UNL A   1      46.426  25.201  29.223  1.00  0.00     0.031 C 
ATOM     60  C   UNL A   1      46.756  27.329  30.452  1.00  0.00     0.037 A 
BRANCH  47  61
ATOM     61  C   UNL A   1      43.897  32.522  32.184  1.00  0.00     0.064 A 
ATOM     62  C   UNL A   1      44.277  33.669  31.471  1.00  0.00     0.173 A 
ATOM     63  C   UNL A   1      43.573  32.671  33.540  1.00  0.00     0.173 A 
ATOM     64  F   UNL A   1      44.607  33.579  30.174  1.00  0.00    -0.203 F 
ATOM     65  C   UNL A   1      44.357  34.909  32.098  1.00  0.00     0.198 A 
ATOM     66  C   UNL A   1      43.626  33.918  34.158  1.00  0.00     0.198 A 
ATOM     67  F   UNL A   1      43.196  31.608  34.267  1.00  0.00    -0.203 F 
ATOM     68  F   UNL A   1      44.768  35.982  31.408  1.00  0.00    -0.200 F 
ATOM     69  C   UNL A   1      44.024  35.034  33.439  1.00  0.00     0.200 A 
ATOM     70  F   UNL A   1      43.292  34.039  35.450  1.00  0.00    -0.200 F 
ATOM     71  F   UNL A   1      44.095  36.230  34.039  1.00  0.00    -0.200 F 
ENDBRANCH  47  61
BRANCH  48  72
ATOM     72  C   UNL A   1      42.875  23.809  27.418  1.00  0.00     0.064 A 
ATOM     73  C   UNL A   1      42.397  22.658  28.061  1.00  0.00     0.173 A 
ATOM     74  C   UNL A   1      43.215  23.706  26.061  1.00  0.00     0.173 A 
ATOM     75  F   UNL A   1      42.080  22.702  29.363  1.00  0.00    -0.203 F 
ATOM     76  C   UNL A   1      42.278  21.449  27.378  1.00  0.00     0.198 A 
ATOM     77  C   UNL A   1      43.070  22.503  25.372  1.00  0.00     0.198 A 
ATOM     78  F   UNL A   1      43.676  24.778  25.401  1.00  0.00    -0.203 F 
ATOM     79  F   UNL A   1      41.858  20.354  28.026  1.00  0.00    -0.200 F 
ATOM     80  C   UNL A   1      42.609  21.374  26.033  1.00  0.00     0.200 A 
ATOM     81  F   UNL A   1      43.378  22.437  24.070  1.00  0.00    -0.200 F 
ATOM     82  F   UNL A   1      42.490  20.214  25.376  1.00  0.00    -0.200 F 
ENDBRANCH  48  72
BRANCH  60  83
ATOM     83  C   UNL A   1      48.181  26.924  30.689  1.00  0.00     0.064 A 
ATOM     84  C   UNL A   1      49.209  27.305  29.816  1.00  0.00     0.173 A 
ATOM     85  C   UNL A   1      48.528  26.185  31.831  1.00  0.00     0.173 A 
ATOM     86  F   UNL A   1      48.926  27.998  28.703  1.00  0.00    -0.203 F 
ATOM     87  C   UNL A   1      50.530  26.948  30.067  1.00  0.00     0.198 A 
ATOM     88  C   UNL A   1      49.853  25.852  32.094  1.00  0.00     0.198 A 
ATOM     89  F   UNL A   1      47.582  25.800  32.700  1.00  0.00    -0.203 F 
ATOM     90  F   UNL A   1      51.492  27.290  29.198  1.00  0.00    -0.200 F 
ATOM     91  C   UNL A   1      50.852  26.229  31.209  1.00  0.00     0.200 A 
ATOM     92  F   UNL A   1      50.164  25.167  33.203  1.00  0.00    -0.200 F 
ATOM     93  F   UNL A   1      52.126  25.893  31.454  1.00  0.00    -0.200 F 
ENDBRANCH  60  83
ENDBRANCH  34  35
ENDBRANCH  26  29
ENDBRANCH  24  25
ENDBRANCH  23  24
ENDBRANCH   1  23
TORSDOF 14
ENDMDL
