MODEL 1
REMARK VINA RESULT:     -12.8      0.000      0.000
REMARK SMILES C[C@H]1CC[C@@]2(CO)C(C(=O)NCCCNC(=O)c3ccc(-c4c5nc(c(-c6c(F)c(F)c(F)c(F)c6F)c6ccc([nH]6)c(-c6c(F)c(F)c(F)c(F)c6F)c6nc(c(-c7c(F)c(F)c(F)c(F)c7F)c7ccc4[nH]7)C=C6)C=C5)cc3)=C[C@@H](O)C[C@@H]2[C@@]1(C)CCc1ccoc1
REMARK SMILES IDX 12 1 11 2 9 3 10 4 8 6 1 7 2 8 3 9 86 10 4 11 85 12 87 13
REMARK SMILES IDX 5 14 84 15 82 16 81 17 88 18 89 19 90 20 91 21 94 22 92 23
REMARK SMILES IDX 93 24 6 25 7 26 83 28 13 30 14 31 15 32 16 33 17 35 18 36
REMARK SMILES IDX 19 37 80 38 20 39 79 40 21 41 22 42 23 43 73 44 24 45 78 46
REMARK SMILES IDX 72 47 74 48 25 49 77 50 71 51 70 52 26 54 58 55 38 56 57 57
REMARK SMILES IDX 39 58 42 59 56 60 75 61 40 62 41 63 55 65 76 66 43 67 27 68
REMARK SMILES IDX 28 69 36 70 29 71 30 72 34 73 37 74 31 75 32 76 35 77 33 78
REMARK SMILES IDX 59 79 60 80 68 81 61 82 62 83 66 84 69 85 63 86 64 87 67 88
REMARK SMILES IDX 65 89 44 90 45 91 53 92 46 93 47 94 51 95 54 96 48 97 49 98
REMARK SMILES IDX 52 99 50 100
REMARK H PARENT 11 5 7 27 83 29 15 34 74 53 42 64
REMARK Flexibility Score: inf
ROOT
ATOM      1  C   UNL A   1      31.383  30.702  25.785  1.00  0.00     0.118 C 
ENDROOT
BRANCH   1   2
ATOM      2  N   UNL A   1      32.575  29.917  26.123  1.00  0.00    -0.352 N 
ATOM      3  C   UNL A   1      33.046  28.741  25.590  1.00  0.00     0.247 C 
ATOM      4  O   UNL A   1      34.026  28.176  26.065  1.00  0.00    -0.270 OA
ATOM      5  H   UNL A   1      33.125  30.292  26.847  1.00  0.00     0.163 HD
BRANCH   3   6
ATOM      6  C   UNL A   1      32.362  28.227  24.382  1.00  0.00     0.024 C 
ATOM      7  C   UNL A   1      32.855  24.305  26.399  1.00  0.00     0.008 C 
ATOM      8  C   UNL A   1      31.558  24.209  25.545  1.00  0.00    -0.008 C 
ATOM      9  C   UNL A   1      30.555  25.225  26.114  1.00  0.00     0.005 C 
ATOM     10  C   UNL A   1      31.768  24.380  23.967  1.00  0.00    -0.026 C 
ATOM     11  C   UNL A   1      30.998  26.669  25.895  1.00  0.00     0.015 C 
ATOM     12  C   UNL A   1      32.295  25.864  23.776  1.00  0.00     0.011 C 
ATOM     13  C   UNL A   1      30.430  24.192  23.211  1.00  0.00     0.012 C 
ATOM     14  C   UNL A   1      31.440  27.007  24.443  1.00  0.00     0.027 C 
ATOM     15  C   UNL A   1      32.731  26.258  22.329  1.00  0.00     0.041 C 
ATOM     16  C   UNL A   1      32.976  27.771  22.042  1.00  0.00     0.138 C 
ATOM     17  C   UNL A   1      32.858  28.684  23.221  1.00  0.00     0.014 C 
BRANCH  10  18
ATOM     18  C   UNL A   1      32.846  23.291  23.527  1.00  0.00     0.012 C 
BRANCH  18  19
ATOM     19  C   UNL A   1      32.465  21.993  22.785  1.00  0.00     0.039 C 
BRANCH  19  20
ATOM     20  C   UNL A   1      32.401  20.758  23.617  1.00  0.00    -0.010 A 
ATOM     21  C   UNL A   1      32.543  19.421  23.136  1.00  0.00     0.045 A 
ATOM     22  C   UNL A   1      32.265  20.628  24.983  1.00  0.00     0.198 A 
ATOM     23  C   UNL A   1      32.409  18.592  24.223  1.00  0.00     0.195 A 
ATOM     24  O   UNL A   1      32.236  19.322  25.352  1.00  0.00    -0.472 OA
ENDBRANCH  19  20
ENDBRANCH  18  19
ENDBRANCH  10  18
BRANCH  14  25
ATOM     25  C   UNL A   1      30.158  27.426  23.633  1.00  0.00     0.168 C 
BRANCH  25  26
ATOM     26  O   UNL A   1      28.945  26.886  24.137  1.00  0.00    -0.395 OA
ATOM     27  H   UNL A   1      28.276  27.586  24.188  1.00  0.00     0.210 HD
ENDBRANCH  25  26
ENDBRANCH  14  25
BRANCH  16  28
ATOM     28  O   UNL A   1      34.329  27.896  21.589  1.00  0.00    -0.389 OA
ATOM     29  H   UNL A   1      34.927  27.898  22.354  1.00  0.00     0.211 HD
ENDBRANCH  16  28
ENDBRANCH   3   6
ENDBRANCH   1   2
BRANCH   1  30
ATOM     30  C   UNL A   1      31.237  31.906  26.699  1.00  0.00     0.042 C 
BRANCH  30  31
ATOM     31  C   UNL A   1      32.568  32.596  26.908  1.00  0.00     0.118 C 
BRANCH  31  32
ATOM     32  N   UNL A   1      32.405  33.954  27.418  1.00  0.00    -0.352 N 
ATOM     33  C   UNL A   1      33.058  34.572  28.457  1.00  0.00     0.251 C 
ATOM     34  H   UNL A   1      31.734  34.503  26.954  1.00  0.00     0.163 HD
ATOM     35  O   UNL A   1      32.645  35.646  28.899  1.00  0.00    -0.269 OA
BRANCH  33  36
ATOM     36  C   UNL A   1      34.254  33.942  29.052  1.00  0.00     0.039 A 
ATOM     37  C   UNL A   1      35.525  34.452  28.776  1.00  0.00     0.014 A 
ATOM     38  C   UNL A   1      34.115  32.836  29.892  1.00  0.00     0.014 A 
ATOM     39  C   UNL A   1      36.646  33.869  29.374  1.00  0.00     0.010 A 
ATOM     40  C   UNL A   1      35.203  32.365  30.604  1.00  0.00     0.010 A 
ATOM     41  C   UNL A   1      36.490  32.831  30.307  1.00  0.00    -0.014 A 
BRANCH  41  42
ATOM     42  C   UNL A   1      37.648  32.122  30.904  1.00  0.00     0.031 A 
ATOM     43  C   UNL A   1      38.080  32.482  32.305  1.00  0.00     0.074 A 
ATOM     44  C   UNL A   1      38.343  31.223  30.183  1.00  0.00     0.049 A 
ATOM     45  N   UNL A   1      39.123  32.080  32.985  1.00  0.00    -0.248 NA
ATOM     46  C   UNL A   1      37.256  33.476  33.016  1.00  0.00     0.031 C 
ATOM     47  C   UNL A   1      38.058  30.838  28.800  1.00  0.00     0.029 A 
ATOM     48  N   UNL A   1      39.439  30.470  30.520  1.00  0.00    -0.354 N 
ATOM     49  C   UNL A   1      39.094  32.801  34.173  1.00  0.00     0.074 A 
ATOM     50  C   UNL A   1      37.995  33.731  34.082  1.00  0.00     0.031 C 
ATOM     51  C   UNL A   1      38.925  29.885  28.423  1.00  0.00     0.029 A 
ATOM     52  C   UNL A   1      39.849  29.620  29.521  1.00  0.00     0.049 A 
ATOM     53  H   UNL A   1      39.888  30.532  31.393  1.00  0.00     0.167 HD
ATOM     54  C   UNL A   1      39.880  32.667  35.267  1.00  0.00     0.037 A 
ATOM     55  C   UNL A   1      40.852  28.724  29.509  1.00  0.00     0.037 A 
ATOM     56  C   UNL A   1      40.932  31.693  35.369  1.00  0.00     0.049 A 
ATOM     57  C   UNL A   1      41.697  28.565  30.745  1.00  0.00     0.074 A 
ATOM     58  C   UNL A   1      41.757  31.419  36.444  1.00  0.00     0.029 A 
ATOM     59  N   UNL A   1      41.289  30.819  34.352  1.00  0.00    -0.354 N 
ATOM     60  N   UNL A   1      41.626  29.209  31.887  1.00  0.00    -0.248 NA
ATOM     61  C   UNL A   1      42.753  27.546  30.697  1.00  0.00     0.031 C 
ATOM     62  C   UNL A   1      42.641  30.403  36.062  1.00  0.00     0.029 A 
ATOM     63  C   UNL A   1      42.330  30.008  34.770  1.00  0.00     0.049 A 
ATOM     64  H   UNL A   1      40.865  30.782  33.464  1.00  0.00     0.167 HD
ATOM     65  C   UNL A   1      42.598  28.648  32.704  1.00  0.00     0.074 A 
ATOM     66  C   UNL A   1      43.238  27.605  31.929  1.00  0.00     0.031 C 
ATOM     67  C   UNL A   1      42.932  28.963  33.981  1.00  0.00     0.037 A 
BRANCH  54  68
ATOM     68  C   UNL A   1      39.611  33.581  36.430  1.00  0.00     0.064 A 
ATOM     69  C   UNL A   1      40.224  34.841  36.538  1.00  0.00     0.173 A 
ATOM     70  C   UNL A   1      38.743  33.190  37.460  1.00  0.00     0.173 A 
ATOM     71  F   UNL A   1      41.075  35.262  35.589  1.00  0.00    -0.203 F 
ATOM     72  C   UNL A   1      40.021  35.647  37.656  1.00  0.00     0.198 A 
ATOM     73  C   UNL A   1      38.510  34.018  38.557  1.00  0.00     0.198 A 
ATOM     74  F   UNL A   1      38.124  32.001  37.411  1.00  0.00    -0.203 F 
ATOM     75  F   UNL A   1      40.683  36.807  37.771  1.00  0.00    -0.200 F 
ATOM     76  C   UNL A   1      39.161  35.238  38.661  1.00  0.00     0.200 A 
ATOM     77  F   UNL A   1      37.667  33.626  39.523  1.00  0.00    -0.200 F 
ATOM     78  F   UNL A   1      38.969  36.013  39.737  1.00  0.00    -0.200 F 
ENDBRANCH  54  68
BRANCH  55  79
ATOM     79  C   UNL A   1      41.065  27.862  28.317  1.00  0.00     0.064 A 
ATOM     80  C   UNL A   1      40.411  26.625  28.204  1.00  0.00     0.173 A 
ATOM     81  C   UNL A   1      41.905  28.251  27.264  1.00  0.00     0.173 A 
ATOM     82  F   UNL A   1      39.607  26.201  29.190  1.00  0.00    -0.203 F 
ATOM     83  C   UNL A   1      40.608  25.803  27.096  1.00  0.00     0.198 A 
ATOM     84  C   UNL A   1      42.080  27.441  26.143  1.00  0.00     0.198 A 
ATOM     85  F   UNL A   1      42.547  29.427  27.318  1.00  0.00    -0.203 F 
ATOM     86  F   UNL A   1      40.003  24.609  27.034  1.00  0.00    -0.200 F 
ATOM     87  C   UNL A   1      41.437  26.215  26.064  1.00  0.00     0.200 A 
ATOM     88  F   UNL A   1      42.869  27.849  25.141  1.00  0.00    -0.200 F 
ATOM     89  F   UNL A   1      41.621  25.428  24.995  1.00  0.00    -0.200 F 
ENDBRANCH  55  79
BRANCH  67  90
ATOM     90  C   UNL A   1      43.996  28.134  34.635  1.00  0.00     0.064 A 
ATOM     91  C   UNL A   1      45.352  28.488  34.578  1.00  0.00     0.173 A 
ATOM     92  C   UNL A   1      43.645  26.990  35.369  1.00  0.00     0.173 A 
ATOM     93  F   UNL A   1      45.739  29.565  33.878  1.00  0.00    -0.203 F 
ATOM     94  C   UNL A   1      46.320  27.709  35.204  1.00  0.00     0.198 A 
ATOM     95  C   UNL A   1      44.612  26.234  36.023  1.00  0.00     0.198 A 
ATOM     96  F   UNL A   1      42.361  26.616  35.465  1.00  0.00    -0.203 F 
ATOM     97  F   UNL A   1      47.615  28.035  35.090  1.00  0.00    -0.200 F 
ATOM     98  C   UNL A   1      45.949  26.588  35.931  1.00  0.00     0.200 A 
ATOM     99  F   UNL A   1      44.250  25.161  36.741  1.00  0.00    -0.200 F 
ATOM    100  F   UNL A   1      46.884  25.845  36.540  1.00  0.00    -0.200 F 
ENDBRANCH  67  90
ENDBRANCH  41  42
ENDBRANCH  33  36
ENDBRANCH  31  32
ENDBRANCH  30  31
ENDBRANCH   1  30
TORSDOF 16
ENDMDL
MODEL 2
REMARK VINA RESULT:     -12.7      0.384      1.627
REMARK SMILES C[C@H]1CC[C@@]2(CO)C(C(=O)NCCCNC(=O)c3ccc(-c4c5nc(c(-c6c(F)c(F)c(F)c(F)c6F)c6ccc([nH]6)c(-c6c(F)c(F)c(F)c(F)c6F)c6nc(c(-c7c(F)c(F)c(F)c(F)c7F)c7ccc4[nH]7)C=C6)C=C5)cc3)=C[C@@H](O)C[C@@H]2[C@@]1(C)CCc1ccoc1
REMARK SMILES IDX 12 1 11 2 9 3 10 4 8 6 1 7 2 8 3 9 86 10 4 11 85 12 87 13
REMARK SMILES IDX 5 14 84 15 82 16 81 17 88 18 89 19 90 20 91 21 94 22 92 23
REMARK SMILES IDX 93 24 6 25 7 26 83 28 13 30 14 31 15 32 16 33 17 35 18 36
REMARK SMILES IDX 19 37 80 38 20 39 79 40 21 41 22 42 23 43 73 44 24 45 78 46
REMARK SMILES IDX 72 47 74 48 25 49 77 50 71 51 70 52 26 54 58 55 38 56 57 57
REMARK SMILES IDX 39 58 42 59 56 60 75 61 40 62 41 63 55 65 76 66 43 67 27 68
REMARK SMILES IDX 28 69 36 70 29 71 30 72 34 73 37 74 31 75 32 76 35 77 33 78
REMARK SMILES IDX 59 79 60 80 68 81 61 82 62 83 66 84 69 85 63 86 64 87 67 88
REMARK SMILES IDX 65 89 44 90 45 91 53 92 46 93 47 94 51 95 54 96 48 97 49 98
REMARK SMILES IDX 52 99 50 100
REMARK H PARENT 11 5 7 27 83 29 15 34 74 53 42 64
REMARK Flexibility Score: inf
ROOT
ATOM      1  C   UNL A   1      31.396  30.836  25.752  1.00  0.00     0.118 C 
ENDROOT
BRANCH   1   2
ATOM      2  N   UNL A   1      32.602  30.099  26.146  1.00  0.00    -0.352 N 
ATOM      3  C   UNL A   1      33.146  28.945  25.636  1.00  0.00     0.247 C 
ATOM      4  O   UNL A   1      34.125  28.420  26.157  1.00  0.00    -0.270 OA
ATOM      5  H   UNL A   1      33.101  30.495  26.896  1.00  0.00     0.163 HD
BRANCH   3   6
ATOM      6  C   UNL A   1      32.541  28.406  24.397  1.00  0.00     0.024 C 
ATOM      7  C   UNL A   1      33.126  24.501  26.421  1.00  0.00     0.008 C 
ATOM      8  C   UNL A   1      31.875  24.349  25.509  1.00  0.00    -0.008 C 
ATOM      9  C   UNL A   1      30.801  25.314  26.036  1.00  0.00     0.005 C 
ATOM     10  C   UNL A   1      32.147  24.538  23.943  1.00  0.00    -0.026 C 
ATOM     11  C   UNL A   1      31.185  26.778  25.841  1.00  0.00     0.015 C 
ATOM     12  C   UNL A   1      32.612  26.046  23.780  1.00  0.00     0.011 C 
ATOM     13  C   UNL A   1      30.855  24.292  23.126  1.00  0.00     0.012 C 
ATOM     14  C   UNL A   1      31.676  27.144  24.412  1.00  0.00     0.027 C 
ATOM     15  C   UNL A   1      33.094  26.467  22.356  1.00  0.00     0.041 C 
ATOM     16  C   UNL A   1      33.282  27.992  22.086  1.00  0.00     0.138 C 
ATOM     17  C   UNL A   1      33.068  28.892  23.261  1.00  0.00     0.014 C 
BRANCH  10  18
ATOM     18  C   UNL A   1      33.293  23.503  23.549  1.00  0.00     0.012 C 
BRANCH  18  19
ATOM     19  C   UNL A   1      32.996  22.139  22.890  1.00  0.00     0.039 C 
BRANCH  19  20
ATOM     20  C   UNL A   1      32.851  20.982  23.818  1.00  0.00    -0.010 A 
ATOM     21  C   UNL A   1      33.272  20.951  25.182  1.00  0.00     0.045 A 
ATOM     22  C   UNL A   1      32.248  19.761  23.609  1.00  0.00     0.198 A 
ATOM     23  C   UNL A   1      32.962  19.704  25.665  1.00  0.00     0.195 A 
ATOM     24  O   UNL A   1      32.340  18.971  24.709  1.00  0.00    -0.472 OA
ENDBRANCH  19  20
ENDBRANCH  18  19
ENDBRANCH  10  18
BRANCH  14  25
ATOM     25  C   UNL A   1      30.414  27.507  23.546  1.00  0.00     0.168 C 
BRANCH  25  26
ATOM     26  O   UNL A   1      29.837  28.768  23.853  1.00  0.00    -0.395 OA
ATOM     27  H   UNL A   1      30.471  29.299  24.359  1.00  0.00     0.210 HD
ENDBRANCH  25  26
ENDBRANCH  14  25
BRANCH  16  28
ATOM     28  O   UNL A   1      34.646  28.183  21.694  1.00  0.00    -0.389 OA
ATOM     29  H   UNL A   1      34.925  29.083  21.926  1.00  0.00     0.211 HD
ENDBRANCH  16  28
ENDBRANCH   3   6
ENDBRANCH   1   2
BRANCH   1  30
ATOM     30  C   UNL A   1      31.201  32.075  26.609  1.00  0.00     0.042 C 
BRANCH  30  31
ATOM     31  C   UNL A   1      32.519  32.563  27.168  1.00  0.00     0.118 C 
BRANCH  31  32
ATOM     32  N   UNL A   1      32.444  33.953  27.610  1.00  0.00    -0.352 N 
ATOM     33  C   UNL A   1      33.171  34.592  28.585  1.00  0.00     0.251 C 
ATOM     34  H   UNL A   1      31.780  34.509  27.145  1.00  0.00     0.163 HD
ATOM     35  O   UNL A   1      32.830  35.707  28.984  1.00  0.00    -0.269 OA
BRANCH  33  36
ATOM     36  C   UNL A   1      34.361  33.935  29.164  1.00  0.00     0.039 A 
ATOM     37  C   UNL A   1      35.641  34.362  28.803  1.00  0.00     0.014 A 
ATOM     38  C   UNL A   1      34.207  32.886  30.072  1.00  0.00     0.014 A 
ATOM     39  C   UNL A   1      36.759  33.756  29.384  1.00  0.00     0.010 A 
ATOM     40  C   UNL A   1      35.303  32.401  30.762  1.00  0.00     0.010 A 
ATOM     41  C   UNL A   1      36.596  32.782  30.382  1.00  0.00    -0.014 A 
BRANCH  41  42
ATOM     42  C   UNL A   1      37.744  32.049  30.969  1.00  0.00     0.031 A 
ATOM     43  C   UNL A   1      38.177  32.378  32.377  1.00  0.00     0.074 A 
ATOM     44  C   UNL A   1      38.430  31.155  30.234  1.00  0.00     0.049 A 
ATOM     45  N   UNL A   1      39.214  31.952  33.052  1.00  0.00    -0.248 NA
ATOM     46  C   UNL A   1      37.363  33.369  33.104  1.00  0.00     0.031 C 
ATOM     47  C   UNL A   1      38.143  30.798  28.844  1.00  0.00     0.029 A 
ATOM     48  N   UNL A   1      39.516  30.382  30.559  1.00  0.00    -0.354 N 
ATOM     49  C   UNL A   1      39.191  32.652  34.252  1.00  0.00     0.074 A 
ATOM     50  C   UNL A   1      38.103  33.597  34.176  1.00  0.00     0.031 C 
ATOM     51  C   UNL A   1      39.000  29.841  28.451  1.00  0.00     0.029 A 
ATOM     52  C   UNL A   1      39.918  29.546  29.546  1.00  0.00     0.049 A 
ATOM     53  H   UNL A   1      39.964  30.424  31.434  1.00  0.00     0.167 HD
ATOM     54  C   UNL A   1      39.973  32.489  35.345  1.00  0.00     0.037 A 
ATOM     55  C   UNL A   1      40.911  28.638  29.520  1.00  0.00     0.037 A 
ATOM     56  C   UNL A   1      41.013  31.501  35.432  1.00  0.00     0.049 A 
ATOM     57  C   UNL A   1      41.751  28.448  30.755  1.00  0.00     0.074 A 
ATOM     58  C   UNL A   1      41.833  31.198  36.503  1.00  0.00     0.029 A 
ATOM     59  N   UNL A   1      41.362  30.641  34.400  1.00  0.00    -0.354 N 
ATOM     60  N   UNL A   1      41.686  29.072  31.907  1.00  0.00    -0.248 NA
ATOM     61  C   UNL A   1      42.795  27.417  30.690  1.00  0.00     0.031 C 
ATOM     62  C   UNL A   1      42.706  30.179  36.105  1.00  0.00     0.029 A 
ATOM     63  C   UNL A   1      42.392  29.811  34.805  1.00  0.00     0.049 A 
ATOM     64  H   UNL A   1      40.940  30.625  33.511  1.00  0.00     0.167 HD
ATOM     65  C   UNL A   1      42.649  28.484  32.716  1.00  0.00     0.074 A 
ATOM     66  C   UNL A   1      43.278  27.448  31.924  1.00  0.00     0.031 C 
ATOM     67  C   UNL A   1      42.984  28.773  33.999  1.00  0.00     0.037 A 
BRANCH  54  68
ATOM     68  C   UNL A   1      39.712  33.386  36.524  1.00  0.00     0.064 A 
ATOM     69  C   UNL A   1      38.796  33.037  37.530  1.00  0.00     0.173 A 
ATOM     70  C   UNL A   1      40.372  34.618  36.644  1.00  0.00     0.173 A 
ATOM     71  F   UNL A   1      38.124  31.877  37.459  1.00  0.00    -0.203 F 
ATOM     72  C   UNL A   1      38.510  33.909  38.578  1.00  0.00     0.198 A 
ATOM     73  C   UNL A   1      40.114  35.470  37.717  1.00  0.00     0.198 A 
ATOM     74  F   UNL A   1      41.262  35.004  35.718  1.00  0.00    -0.203 F 
ATOM     75  F   UNL A   1      37.570  33.586  39.478  1.00  0.00    -0.200 F 
ATOM     76  C   UNL A   1      39.173  35.122  38.674  1.00  0.00     0.200 A 
ATOM     77  F   UNL A   1      40.767  36.637  37.815  1.00  0.00    -0.200 F 
ATOM     78  F   UNL A   1      38.896  35.961  39.681  1.00  0.00    -0.200 F 
ENDBRANCH  54  68
BRANCH  55  79
ATOM     79  C   UNL A   1      41.115  27.795  28.312  1.00  0.00     0.064 A 
ATOM     80  C   UNL A   1      40.442  26.572  28.173  1.00  0.00     0.173 A 
ATOM     81  C   UNL A   1      41.969  28.190  27.272  1.00  0.00     0.173 A 
ATOM     82  F   UNL A   1      39.625  26.143  29.147  1.00  0.00    -0.203 F 
ATOM     83  C   UNL A   1      40.631  25.768  27.051  1.00  0.00     0.198 A 
ATOM     84  C   UNL A   1      42.136  27.398  26.137  1.00  0.00     0.198 A 
ATOM     85  F   UNL A   1      42.629  29.354  27.351  1.00  0.00    -0.203 F 
ATOM     86  F   UNL A   1      40.007  24.585  26.964  1.00  0.00    -0.200 F 
ATOM     87  C   UNL A   1      41.473  26.184  26.031  1.00  0.00     0.200 A 
ATOM     88  F   UNL A   1      42.938  27.811  25.147  1.00  0.00    -0.200 F 
ATOM     89  F   UNL A   1      41.650  25.414  24.949  1.00  0.00    -0.200 F 
ENDBRANCH  55  79
BRANCH  67  90
ATOM     90  C   UNL A   1      44.037  27.919  34.641  1.00  0.00     0.064 A 
ATOM     91  C   UNL A   1      43.732  26.683  35.227  1.00  0.00     0.173 A 
ATOM     92  C   UNL A   1      45.379  28.329  34.626  1.00  0.00     0.173 A 
ATOM     93  F   UNL A   1      42.462  26.254  35.276  1.00  0.00    -0.203 F 
ATOM     94  C   UNL A   1      44.728  25.902  35.806  1.00  0.00     0.198 A 
ATOM     95  C   UNL A   1      46.378  27.529  35.174  1.00  0.00     0.198 A 
ATOM     96  F   UNL A   1      45.724  29.497  34.067  1.00  0.00    -0.203 F 
ATOM     97  F   UNL A   1      44.406  24.750  36.410  1.00  0.00    -0.200 F 
ATOM     98  C   UNL A   1      46.049  26.322  35.772  1.00  0.00     0.200 A 
ATOM     99  F   UNL A   1      47.656  27.928  35.125  1.00  0.00    -0.200 F 
ATOM    100  F   UNL A   1      47.008  25.564  36.323  1.00  0.00    -0.200 F 
ENDBRANCH  67  90
ENDBRANCH  41  42
ENDBRANCH  33  36
ENDBRANCH  31  32
ENDBRANCH  30  31
ENDBRANCH   1  30
TORSDOF 16
ENDMDL
MODEL 3
REMARK VINA RESULT:     -12.7      5.272      9.525
REMARK SMILES C[C@H]1CC[C@@]2(CO)C(C(=O)NCCCNC(=O)c3ccc(-c4c5nc(c(-c6c(F)c(F)c(F)c(F)c6F)c6ccc([nH]6)c(-c6c(F)c(F)c(F)c(F)c6F)c6nc(c(-c7c(F)c(F)c(F)c(F)c7F)c7ccc4[nH]7)C=C6)C=C5)cc3)=C[C@@H](O)C[C@@H]2[C@@]1(C)CCc1ccoc1
REMARK SMILES IDX 12 1 11 2 9 3 10 4 8 6 1 7 2 8 3 9 86 10 4 11 85 12 87 13
REMARK SMILES IDX 5 14 84 15 82 16 81 17 88 18 89 19 90 20 91 21 94 22 92 23
REMARK SMILES IDX 93 24 6 25 7 26 83 28 13 30 14 31 15 32 16 33 17 35 18 36
REMARK SMILES IDX 19 37 80 38 20 39 79 40 21 41 22 42 23 43 73 44 24 45 78 46
REMARK SMILES IDX 72 47 74 48 25 49 77 50 71 51 70 52 26 54 58 55 38 56 57 57
REMARK SMILES IDX 39 58 42 59 56 60 75 61 40 62 41 63 55 65 76 66 43 67 27 68
REMARK SMILES IDX 28 69 36 70 29 71 30 72 34 73 37 74 31 75 32 76 35 77 33 78
REMARK SMILES IDX 59 79 60 80 68 81 61 82 62 83 66 84 69 85 63 86 64 87 67 88
REMARK SMILES IDX 65 89 44 90 45 91 53 92 46 93 47 94 51 95 54 96 48 97 49 98
REMARK SMILES IDX 52 99 50 100
REMARK H PARENT 11 5 7 27 83 29 15 34 74 53 42 64
REMARK Flexibility Score: inf
ROOT
ATOM      1  C   UNL A   1      36.675  20.377  25.024  1.00  0.00     0.118 C 
ENDROOT
BRANCH   1   2
ATOM      2  N   UNL A   1      36.821  21.788  25.399  1.00  0.00    -0.352 N 
ATOM      3  C   UNL A   1      35.869  22.757  25.606  1.00  0.00     0.247 C 
ATOM      4  O   UNL A   1      36.186  23.921  25.832  1.00  0.00    -0.270 OA
ATOM      5  H   UNL A   1      37.750  22.088  25.522  1.00  0.00     0.163 HD
BRANCH   3   6
ATOM      6  C   UNL A   1      34.454  22.321  25.611  1.00  0.00     0.024 C 
ATOM      7  C   UNL A   1      33.813  26.113  23.399  1.00  0.00     0.008 C 
ATOM      8  C   UNL A   1      32.727  25.116  22.902  1.00  0.00    -0.008 C 
ATOM      9  C   UNL A   1      33.452  23.954  22.205  1.00  0.00     0.005 C 
ATOM     10  C   UNL A   1      31.704  24.609  24.024  1.00  0.00    -0.026 C 
ATOM     11  C   UNL A   1      34.268  23.108  23.178  1.00  0.00     0.015 C 
ATOM     12  C   UNL A   1      32.590  23.794  25.057  1.00  0.00     0.011 C 
ATOM     13  C   UNL A   1      30.625  23.685  23.407  1.00  0.00     0.012 C 
ATOM     14  C   UNL A   1      33.508  22.662  24.458  1.00  0.00     0.027 C 
ATOM     15  C   UNL A   1      31.863  23.306  26.351  1.00  0.00     0.041 C 
ATOM     16  C   UNL A   1      32.611  22.268  27.242  1.00  0.00     0.138 C 
ATOM     17  C   UNL A   1      33.999  21.916  26.808  1.00  0.00     0.014 C 
BRANCH  10  18
ATOM     18  C   UNL A   1      31.055  25.911  24.674  1.00  0.00     0.012 C 
BRANCH  18  19
ATOM     19  C   UNL A   1      29.620  26.380  24.352  1.00  0.00     0.039 C 
BRANCH  19  20
ATOM     20  C   UNL A   1      29.504  27.518  23.396  1.00  0.00    -0.010 A 
ATOM     21  C   UNL A   1      28.359  28.355  23.235  1.00  0.00     0.045 A 
ATOM     22  C   UNL A   1      30.447  28.044  22.540  1.00  0.00     0.198 A 
ATOM     23  C   UNL A   1      28.667  29.265  22.253  1.00  0.00     0.195 A 
ATOM     24  O   UNL A   1      29.939  29.078  21.823  1.00  0.00    -0.472 OA
ENDBRANCH  19  20
ENDBRANCH  18  19
ENDBRANCH  10  18
BRANCH  14  25
ATOM     25  C   UNL A   1      32.762  21.315  24.134  1.00  0.00     0.168 C 
BRANCH  25  26
ATOM     26  O   UNL A   1      33.620  20.194  23.980  1.00  0.00    -0.395 OA
ATOM     27  H   UNL A   1      34.486  20.394  24.367  1.00  0.00     0.210 HD
ENDBRANCH  25  26
ENDBRANCH  14  25
BRANCH  16  28
ATOM     28  O   UNL A   1      32.748  22.854  28.541  1.00  0.00    -0.389 OA
ATOM     29  H   UNL A   1      32.178  22.382  29.170  1.00  0.00     0.211 HD
ENDBRANCH  16  28
ENDBRANCH   3   6
ENDBRANCH   1   2
BRANCH   1  30
ATOM     30  C   UNL A   1      38.022  19.740  24.733  1.00  0.00     0.042 C 
BRANCH  30  31
ATOM     31  C   UNL A   1      39.051  20.146  25.766  1.00  0.00     0.118 C 
BRANCH  31  32
ATOM     32  N   UNL A   1      40.105  19.146  25.909  1.00  0.00    -0.352 N 
ATOM     33  C   UNL A   1      41.455  19.332  26.087  1.00  0.00     0.251 C 
ATOM     34  H   UNL A   1      39.808  18.209  25.871  1.00  0.00     0.163 HD
ATOM     35  O   UNL A   1      42.233  18.384  25.967  1.00  0.00    -0.269 OA
BRANCH  33  36
ATOM     36  C   UNL A   1      41.975  20.675  26.415  1.00  0.00     0.039 A 
ATOM     37  C   UNL A   1      42.246  21.016  27.742  1.00  0.00     0.014 A 
ATOM     38  C   UNL A   1      42.197  21.604  25.397  1.00  0.00     0.014 A 
ATOM     39  C   UNL A   1      42.772  22.278  28.035  1.00  0.00     0.010 A 
ATOM     40  C   UNL A   1      42.864  22.785  25.671  1.00  0.00     0.010 A 
ATOM     41  C   UNL A   1      43.101  23.165  26.998  1.00  0.00    -0.014 A 
BRANCH  41  42
ATOM     42  C   UNL A   1      43.580  24.544  27.258  1.00  0.00     0.031 A 
ATOM     43  C   UNL A   1      42.616  25.557  27.825  1.00  0.00     0.074 A 
ATOM     44  C   UNL A   1      44.835  24.904  26.928  1.00  0.00     0.049 A 
ATOM     45  N   UNL A   1      42.776  26.840  28.027  1.00  0.00    -0.248 NA
ATOM     46  C   UNL A   1      41.265  25.070  28.156  1.00  0.00     0.031 C 
ATOM     47  C   UNL A   1      45.838  24.030  26.319  1.00  0.00     0.029 A 
ATOM     48  N   UNL A   1      45.478  26.108  27.061  1.00  0.00    -0.354 N 
ATOM     49  C   UNL A   1      41.542  27.306  28.463  1.00  0.00     0.074 A 
ATOM     50  C   UNL A   1      40.620  26.198  28.405  1.00  0.00     0.031 C 
ATOM     51  C   UNL A   1      46.986  24.712  26.175  1.00  0.00     0.029 A 
ATOM     52  C   UNL A   1      46.788  26.079  26.646  1.00  0.00     0.049 A 
ATOM     53  H   UNL A   1      45.044  26.915  27.419  1.00  0.00     0.167 HD
ATOM     54  C   UNL A   1      41.214  28.536  28.924  1.00  0.00     0.037 A 
ATOM     55  C   UNL A   1      47.719  27.051  26.660  1.00  0.00     0.037 A 
ATOM     56  C   UNL A   1      42.156  29.615  29.037  1.00  0.00     0.049 A 
ATOM     57  C   UNL A   1      47.345  28.404  27.204  1.00  0.00     0.074 A 
ATOM     58  C   UNL A   1      41.961  30.887  29.542  1.00  0.00     0.029 A 
ATOM     59  N   UNL A   1      43.486  29.535  28.647  1.00  0.00    -0.354 N 
ATOM     60  N   UNL A   1      46.192  28.821  27.672  1.00  0.00    -0.248 NA
ATOM     61  C   UNL A   1      48.406  29.418  27.236  1.00  0.00     0.031 C 
ATOM     62  C   UNL A   1      43.166  31.589  29.422  1.00  0.00     0.029 A 
ATOM     63  C   UNL A   1      44.124  30.738  28.893  1.00  0.00     0.049 A 
ATOM     64  H   UNL A   1      43.912  28.740  28.253  1.00  0.00     0.167 HD
ATOM     65  C   UNL A   1      46.398  30.129  28.089  1.00  0.00     0.074 A 
ATOM     66  C   UNL A   1      47.789  30.432  27.827  1.00  0.00     0.031 C 
ATOM     67  C   UNL A   1      45.518  31.002  28.640  1.00  0.00     0.037 A 
BRANCH  54  68
ATOM     68  C   UNL A   1      39.789  28.758  29.351  1.00  0.00     0.064 A 
ATOM     69  C   UNL A   1      38.821  29.263  28.465  1.00  0.00     0.173 A 
ATOM     70  C   UNL A   1      39.385  28.481  30.666  1.00  0.00     0.173 A 
ATOM     71  F   UNL A   1      39.154  29.560  27.199  1.00  0.00    -0.203 F 
ATOM     72  C   UNL A   1      37.524  29.532  28.893  1.00  0.00     0.198 A 
ATOM     73  C   UNL A   1      38.075  28.713  31.079  1.00  0.00     0.198 A 
ATOM     74  F   UNL A   1      40.262  27.994  31.555  1.00  0.00    -0.203 F 
ATOM     75  F   UNL A   1      36.645  30.090  28.049  1.00  0.00    -0.200 F 
ATOM     76  C   UNL A   1      37.149  29.251  30.197  1.00  0.00     0.200 A 
ATOM     77  F   UNL A   1      37.711  28.429  32.337  1.00  0.00    -0.200 F 
ATOM     78  F   UNL A   1      35.902  29.513  30.608  1.00  0.00    -0.200 F 
ENDBRANCH  54  68
BRANCH  55  79
ATOM     79  C   UNL A   1      49.105  26.758  26.210  1.00  0.00     0.064 A 
ATOM     80  C   UNL A   1      49.494  27.008  24.886  1.00  0.00     0.173 A 
ATOM     81  C   UNL A   1      50.071  26.240  27.084  1.00  0.00     0.173 A 
ATOM     82  F   UNL A   1      48.602  27.491  24.007  1.00  0.00    -0.203 F 
ATOM     83  C   UNL A   1      50.787  26.731  24.448  1.00  0.00     0.198 A 
ATOM     84  C   UNL A   1      51.373  25.989  26.653  1.00  0.00     0.198 A 
ATOM     85  F   UNL A   1      49.755  25.992  28.364  1.00  0.00    -0.203 F 
ATOM     86  F   UNL A   1      51.119  26.940  23.166  1.00  0.00    -0.200 F 
ATOM     87  C   UNL A   1      51.727  26.228  25.334  1.00  0.00     0.200 A 
ATOM     88  F   UNL A   1      52.283  25.518  27.516  1.00  0.00    -0.200 F 
ATOM     89  F   UNL A   1      52.974  25.968  24.915  1.00  0.00    -0.200 F 
ENDBRANCH  55  79
BRANCH  67  90
ATOM     90  C   UNL A   1      46.049  32.344  29.049  1.00  0.00     0.064 A 
ATOM     91  C   UNL A   1      46.024  33.445  28.182  1.00  0.00     0.173 A 
ATOM     92  C   UNL A   1      46.549  32.536  30.346  1.00  0.00     0.173 A 
ATOM     93  F   UNL A   1      45.567  33.308  26.929  1.00  0.00    -0.203 F 
ATOM     94  C   UNL A   1      46.512  34.684  28.589  1.00  0.00     0.198 A 
ATOM     95  C   UNL A   1      47.003  33.785  30.761  1.00  0.00     0.198 A 
ATOM     96  F   UNL A   1      46.583  31.517  31.217  1.00  0.00    -0.203 F 
ATOM     97  F   UNL A   1      46.529  35.709  27.726  1.00  0.00    -0.200 F 
ATOM     98  C   UNL A   1      46.993  34.854  29.878  1.00  0.00     0.200 A 
ATOM     99  F   UNL A   1      47.450  33.952  32.013  1.00  0.00    -0.200 F 
ATOM    100  F   UNL A   1      47.454  36.051  30.269  1.00  0.00    -0.200 F 
ENDBRANCH  67  90
ENDBRANCH  41  42
ENDBRANCH  33  36
ENDBRANCH  31  32
ENDBRANCH  30  31
ENDBRANCH   1  30
TORSDOF 16
ENDMDL
