MODEL 1
REMARK VINA RESULT:     -13.5      0.000      0.000
REMARK SMILES O=C(C[C@H]1C[C@H]2CC[C@@H](C1)[N@H+]2C[C@@H]1CCCOC1)NCCCNC(=O)c1ccc(-c2c3nc(c(-c4c(F)c(F)c(F)c(F)c4F)c4ccc([nH]4)c(-c4c(F)c(F)c(F)c(F)c4F)c4nc(c(-c5c(F)c(F)c(F)c(F)c5F)c5ccc2[nH]5)C=C4)C=C3)cc1
REMARK SMILES IDX 20 1 19 2 1 3 2 4 3 6 4 7 5 8 10 9 6 10 9 11 7 12 11 13 8 14
REMARK SMILES IDX 12 16 13 17 14 18 18 19 15 20 17 21 16 22 21 23 22 24 23 25
REMARK SMILES IDX 24 26 25 28 26 29 27 30 88 31 28 32 87 33 29 34 30 35 31 36
REMARK SMILES IDX 81 37 32 38 86 39 80 40 82 41 33 42 85 43 79 44 78 45 34 47
REMARK SMILES IDX 66 48 46 49 65 50 47 51 50 52 64 53 83 54 48 55 49 56 63 58
REMARK SMILES IDX 84 59 51 60 35 61 36 62 44 63 37 64 38 65 42 66 45 67 39 68
REMARK SMILES IDX 40 69 43 70 41 71 67 72 68 73 76 74 69 75 70 76 74 77 77 78
REMARK SMILES IDX 71 79 72 80 75 81 73 82 52 83 53 84 61 85 54 86 55 87 59 88
REMARK SMILES IDX 62 89 56 90 57 91 60 92 58 93
REMARK H PARENT 19 5 11 15 23 27 82 46 50 57
REMARK Flexibility Score: inf
ROOT
ATOM      1  C   UNL A   1      31.069  27.925  24.987  1.00  0.00     0.117 C 
ENDROOT
BRANCH   1   2
ATOM      2  N   UNL A   1      31.850  26.833  25.538  1.00  0.00    -0.356 N 
ATOM      3  O   UNL A   1      32.881  26.253  23.564  1.00  0.00    -0.275 OA
ATOM      4  C   UNL A   1      32.837  26.225  24.788  1.00  0.00     0.220 C 
ATOM      5  H   UNL A   1      31.673  26.522  26.455  1.00  0.00     0.163 HD
BRANCH   4   6
ATOM      6  C   UNL A   1      33.970  25.687  25.643  1.00  0.00     0.104 C 
BRANCH   6   7
ATOM      7  C   UNL A   1      34.090  24.155  25.500  1.00  0.00     0.010 C 
ATOM      8  C   UNL A   1      32.699  23.466  25.565  1.00  0.00     0.069 C 
ATOM      9  C   UNL A   1      35.026  23.697  24.343  1.00  0.00     0.069 C 
ATOM     10  C   UNL A   1      32.566  22.167  24.743  1.00  0.00     0.184 C 
ATOM     11  C   UNL A   1      34.521  22.509  23.530  1.00  0.00     0.184 C 
ATOM     12  C   UNL A   1      32.092  22.544  23.334  1.00  0.00     0.071 C 
ATOM     13  N   UNL A   1      33.865  21.610  24.439  1.00  0.00    -0.330 N 
ATOM     14  C   UNL A   1      33.370  22.945  22.601  1.00  0.00     0.071 C 
ATOM     15  H   UNL A   1      34.054  20.634  24.671  1.00  0.00     0.348 HD
BRANCH  13  16
ATOM     16  C   UNL A   1      34.452  20.410  24.985  1.00  0.00     0.268 C 
BRANCH  16  17
ATOM     17  C   UNL A   1      33.945  18.995  24.577  1.00  0.00     0.070 C 
ATOM     18  C   UNL A   1      32.737  18.526  25.396  1.00  0.00     0.014 C 
ATOM     19  C   UNL A   1      35.061  17.956  24.438  1.00  0.00     0.169 C 
ATOM     20  C   UNL A   1      32.493  17.021  25.404  1.00  0.00     0.029 C 
ATOM     21  O   UNL A   1      34.560  16.630  24.262  1.00  0.00    -0.381 OA
ATOM     22  C   UNL A   1      33.782  16.223  25.382  1.00  0.00     0.160 C 
ENDBRANCH  16  17
ENDBRANCH  13  16
ENDBRANCH   6   7
ENDBRANCH   4   6
ENDBRANCH   1   2
BRANCH   1  23
ATOM     23  C   UNL A   1      31.847  29.231  24.917  1.00  0.00     0.042 C 
BRANCH  23  24
ATOM     24  C   UNL A   1      32.567  29.616  26.212  1.00  0.00     0.118 C 
BRANCH  24  25
ATOM     25  N   UNL A   1      32.348  30.989  26.647  1.00  0.00    -0.352 N 
ATOM     26  C   UNL A   1      33.182  31.850  27.328  1.00  0.00     0.251 C 
ATOM     27  H   UNL A   1      31.466  31.361  26.419  1.00  0.00     0.163 HD
ATOM     28  O   UNL A   1      32.786  32.964  27.657  1.00  0.00    -0.269 OA
BRANCH  26  29
ATOM     29  C   UNL A   1      34.538  31.409  27.726  1.00  0.00     0.039 A 
ATOM     30  C   UNL A   1      35.542  32.371  27.874  1.00  0.00     0.014 A 
ATOM     31  C   UNL A   1      34.806  30.071  28.012  1.00  0.00     0.014 A 
ATOM     32  C   UNL A   1      36.766  32.010  28.444  1.00  0.00     0.010 A 
ATOM     33  C   UNL A   1      35.986  29.733  28.670  1.00  0.00     0.010 A 
ATOM     34  C   UNL A   1      36.967  30.704  28.919  1.00  0.00    -0.014 A 
BRANCH  34  35
ATOM     35  C   UNL A   1      38.165  30.343  29.724  1.00  0.00     0.031 A 
ATOM     36  C   UNL A   1      39.175  29.366  29.191  1.00  0.00     0.074 A 
ATOM     37  C   UNL A   1      38.287  30.814  30.982  1.00  0.00     0.049 A 
ATOM     38  N   UNL A   1      40.207  28.830  29.792  1.00  0.00    -0.248 NA
ATOM     39  C   UNL A   1      38.979  28.904  27.808  1.00  0.00     0.031 C 
ATOM     40  C   UNL A   1      37.347  31.721  31.644  1.00  0.00     0.029 A 
ATOM     41  N   UNL A   1      39.245  30.579  31.939  1.00  0.00    -0.354 N 
ATOM     42  C   UNL A   1      40.766  27.953  28.872  1.00  0.00     0.074 A 
ATOM     43  C   UNL A   1      39.931  27.991  27.691  1.00  0.00     0.031 C 
ATOM     44  C   UNL A   1      37.786  31.984  32.886  1.00  0.00     0.029 A 
ATOM     45  C   UNL A   1      39.011  31.230  33.127  1.00  0.00     0.049 A 
ATOM     46  H   UNL A   1      40.026  29.999  31.788  1.00  0.00     0.167 HD
ATOM     47  C   UNL A   1      41.887  27.202  28.992  1.00  0.00     0.037 A 
ATOM     48  C   UNL A   1      39.697  31.211  34.286  1.00  0.00     0.037 A 
ATOM     49  C   UNL A   1      42.738  27.193  30.153  1.00  0.00     0.049 A 
ATOM     50  C   UNL A   1      40.939  30.371  34.392  1.00  0.00     0.074 A 
ATOM     51  C   UNL A   1      43.936  26.526  30.339  1.00  0.00     0.029 A 
ATOM     52  N   UNL A   1      42.480  27.885  31.326  1.00  0.00    -0.354 N 
ATOM     53  N   UNL A   1      41.495  29.599  33.490  1.00  0.00    -0.248 NA
ATOM     54  C   UNL A   1      41.650  30.398  35.678  1.00  0.00     0.031 C 
ATOM     55  C   UNL A   1      44.381  26.780  31.641  1.00  0.00     0.029 A 
ATOM     56  C   UNL A   1      43.484  27.641  32.250  1.00  0.00     0.049 A 
ATOM     57  H   UNL A   1      41.698  28.464  31.482  1.00  0.00     0.167 HD
ATOM     58  C   UNL A   1      42.629  29.067  34.089  1.00  0.00     0.074 A 
ATOM     59  C   UNL A   1      42.692  29.618  35.427  1.00  0.00     0.031 C 
ATOM     60  C   UNL A   1      43.534  28.198  33.578  1.00  0.00     0.037 A 
BRANCH  47  61
ATOM     61  C   UNL A   1      42.265  26.332  27.828  1.00  0.00     0.064 A 
ATOM     62  C   UNL A   1      41.676  25.073  27.631  1.00  0.00     0.173 A 
ATOM     63  C   UNL A   1      43.200  26.774  26.881  1.00  0.00     0.173 A 
ATOM     64  F   UNL A   1      40.785  24.599  28.515  1.00  0.00    -0.203 F 
ATOM     65  C   UNL A   1      42.034  24.277  26.547  1.00  0.00     0.198 A 
ATOM     66  C   UNL A   1      43.533  25.988  25.782  1.00  0.00     0.198 A 
ATOM     67  F   UNL A   1      43.788  27.972  27.019  1.00  0.00    -0.203 F 
ATOM     68  F   UNL A   1      41.496  23.057  26.408  1.00  0.00    -0.200 F 
ATOM     69  C   UNL A   1      42.956  24.738  25.619  1.00  0.00     0.200 A 
ATOM     70  F   UNL A   1      44.415  26.439  24.880  1.00  0.00    -0.200 F 
ATOM     71  F   UNL A   1      43.294  23.972  24.573  1.00  0.00    -0.200 F 
ENDBRANCH  47  61
BRANCH  48  72
ATOM     72  C   UNL A   1      39.233  32.028  35.439  1.00  0.00     0.064 A 
ATOM     73  C   UNL A   1      39.602  33.376  35.556  1.00  0.00     0.173 A 
ATOM     74  C   UNL A   1      38.424  31.482  36.445  1.00  0.00     0.173 A 
ATOM     75  F   UNL A   1      40.395  33.935  34.630  1.00  0.00    -0.203 F 
ATOM     76  C   UNL A   1      39.196  34.141  36.647  1.00  0.00     0.198 A 
ATOM     77  C   UNL A   1      37.996  32.256  37.522  1.00  0.00     0.198 A 
ATOM     78  F   UNL A   1      38.041  30.199  36.378  1.00  0.00    -0.203 F 
ATOM     79  F   UNL A   1      39.601  35.413  36.758  1.00  0.00    -0.200 F 
ATOM     80  C   UNL A   1      38.388  33.582  37.627  1.00  0.00     0.200 A 
ATOM     81  F   UNL A   1      37.205  31.716  38.459  1.00  0.00    -0.200 F 
ATOM     82  F   UNL A   1      37.995  34.319  38.674  1.00  0.00    -0.200 F 
ENDBRANCH  48  72
BRANCH  60  83
ATOM     83  C   UNL A   1      44.684  27.806  34.459  1.00  0.00     0.064 A 
ATOM     84  C   UNL A   1      44.622  26.673  35.283  1.00  0.00     0.173 A 
ATOM     85  C   UNL A   1      45.874  28.549  34.448  1.00  0.00     0.173 A 
ATOM     86  F   UNL A   1      43.500  25.941  35.341  1.00  0.00    -0.203 F 
ATOM     87  C   UNL A   1      45.704  26.311  36.081  1.00  0.00     0.198 A 
ATOM     88  C   UNL A   1      46.963  28.167  35.225  1.00  0.00     0.198 A 
ATOM     89  F   UNL A   1      45.984  29.638  33.673  1.00  0.00    -0.203 F 
ATOM     90  F   UNL A   1      45.608  25.250  36.894  1.00  0.00    -0.200 F 
ATOM     91  C   UNL A   1      46.875  27.053  36.047  1.00  0.00     0.200 A 
ATOM     92  F   UNL A   1      48.098  28.879  35.181  1.00  0.00    -0.200 F 
ATOM     93  F   UNL A   1      47.917  26.698  36.809  1.00  0.00    -0.200 F 
ENDBRANCH  60  83
ENDBRANCH  34  35
ENDBRANCH  26  29
ENDBRANCH  24  25
ENDBRANCH  23  24
ENDBRANCH   1  23
TORSDOF 13
ENDMDL
MODEL 2
REMARK VINA RESULT:     -13.4      4.966      8.412
REMARK SMILES O=C(C[C@H]1C[C@H]2CC[C@@H](C1)[N@H+]2C[C@@H]1CCCOC1)NCCCNC(=O)c1ccc(-c2c3nc(c(-c4c(F)c(F)c(F)c(F)c4F)c4ccc([nH]4)c(-c4c(F)c(F)c(F)c(F)c4F)c4nc(c(-c5c(F)c(F)c(F)c(F)c5F)c5ccc2[nH]5)C=C4)C=C3)cc1
REMARK SMILES IDX 20 1 19 2 1 3 2 4 3 6 4 7 5 8 10 9 6 10 9 11 7 12 11 13 8 14
REMARK SMILES IDX 12 16 13 17 14 18 18 19 15 20 17 21 16 22 21 23 22 24 23 25
REMARK SMILES IDX 24 26 25 28 26 29 27 30 88 31 28 32 87 33 29 34 30 35 31 36
REMARK SMILES IDX 81 37 32 38 86 39 80 40 82 41 33 42 85 43 79 44 78 45 34 47
REMARK SMILES IDX 66 48 46 49 65 50 47 51 50 52 64 53 83 54 48 55 49 56 63 58
REMARK SMILES IDX 84 59 51 60 35 61 36 62 44 63 37 64 38 65 42 66 45 67 39 68
REMARK SMILES IDX 40 69 43 70 41 71 67 72 68 73 76 74 69 75 70 76 74 77 77 78
REMARK SMILES IDX 71 79 72 80 75 81 73 82 52 83 53 84 61 85 54 86 55 87 59 88
REMARK SMILES IDX 62 89 56 90 57 91 60 92 58 93
REMARK H PARENT 19 5 11 15 23 27 82 46 50 57
REMARK Flexibility Score: inf
ROOT
ATOM      1  C   UNL A   1      37.959  21.482  25.001  1.00  0.00     0.117 C 
ENDROOT
BRANCH   1   2
ATOM      2  N   UNL A   1      36.841  21.823  25.861  1.00  0.00    -0.356 N 
ATOM      3  O   UNL A   1      37.275  24.081  25.938  1.00  0.00    -0.275 OA
ATOM      4  C   UNL A   1      36.502  23.142  26.085  1.00  0.00     0.220 C 
ATOM      5  H   UNL A   1      36.319  21.105  26.289  1.00  0.00     0.163 HD
BRANCH   4   6
ATOM      6  C   UNL A   1      35.017  23.327  26.341  1.00  0.00     0.104 C 
BRANCH   6   7
ATOM      7  C   UNL A   1      34.188  22.284  25.563  1.00  0.00     0.010 C 
ATOM      8  C   UNL A   1      32.784  22.085  26.197  1.00  0.00     0.069 C 
ATOM      9  C   UNL A   1      34.220  22.472  24.018  1.00  0.00     0.069 C 
ATOM     10  C   UNL A   1      31.660  21.711  25.208  1.00  0.00     0.184 C 
ATOM     11  C   UNL A   1      32.885  22.263  23.310  1.00  0.00     0.184 C 
ATOM     12  C   UNL A   1      31.025  23.011  24.697  1.00  0.00     0.071 C 
ATOM     13  N   UNL A   1      32.205  21.187  23.976  1.00  0.00    -0.330 N 
ATOM     14  C   UNL A   1      31.948  23.460  23.567  1.00  0.00     0.071 C 
ATOM     15  H   UNL A   1      31.874  20.286  23.631  1.00  0.00     0.348 HD
BRANCH  13  16
ATOM     16  C   UNL A   1      32.154  19.823  23.508  1.00  0.00     0.268 C 
BRANCH  16  17
ATOM     17  C   UNL A   1      33.073  18.720  24.110  1.00  0.00     0.070 C 
ATOM     18  C   UNL A   1      33.561  17.704  23.070  1.00  0.00     0.014 C 
ATOM     19  C   UNL A   1      32.528  18.098  25.399  1.00  0.00     0.169 C 
ATOM     20  C   UNL A   1      34.038  16.367  23.630  1.00  0.00     0.029 C 
ATOM     21  O   UNL A   1      33.278  16.958  25.821  1.00  0.00    -0.381 OA
ATOM     22  C   UNL A   1      33.240  15.927  24.841  1.00  0.00     0.160 C 
ENDBRANCH  16  17
ENDBRANCH  13  16
ENDBRANCH   6   7
ENDBRANCH   4   6
ENDBRANCH   1   2
BRANCH   1  23
ATOM     23  C   UNL A   1      38.513  20.092  25.274  1.00  0.00     0.042 C 
BRANCH  23  24
ATOM     24  C   UNL A   1      39.651  20.047  26.297  1.00  0.00     0.118 C 
BRANCH  24  25
ATOM     25  N   UNL A   1      40.642  19.005  26.064  1.00  0.00    -0.352 N 
ATOM     26  C   UNL A   1      42.019  19.070  26.072  1.00  0.00     0.251 C 
ATOM     27  H   UNL A   1      40.270  18.115  25.870  1.00  0.00     0.163 HD
ATOM     28  O   UNL A   1      42.686  18.078  25.791  1.00  0.00    -0.269 OA
BRANCH  26  29
ATOM     29  C   UNL A   1      42.700  20.353  26.354  1.00  0.00     0.039 A 
ATOM     30  C   UNL A   1      43.336  21.022  25.305  1.00  0.00     0.014 A 
ATOM     31  C   UNL A   1      42.659  20.926  27.625  1.00  0.00     0.014 A 
ATOM     32  C   UNL A   1      43.804  22.325  25.499  1.00  0.00     0.010 A 
ATOM     33  C   UNL A   1      43.034  22.257  27.789  1.00  0.00     0.010 A 
ATOM     34  C   UNL A   1      43.585  22.981  26.721  1.00  0.00    -0.014 A 
BRANCH  34  35
ATOM     35  C   UNL A   1      43.870  24.431  26.890  1.00  0.00     0.031 A 
ATOM     36  C   UNL A   1      45.256  24.966  26.665  1.00  0.00     0.074 A 
ATOM     37  C   UNL A   1      42.903  25.249  27.353  1.00  0.00     0.049 A 
ATOM     38  N   UNL A   1      45.727  26.167  26.888  1.00  0.00    -0.248 NA
ATOM     39  C   UNL A   1      46.255  24.015  26.151  1.00  0.00     0.031 C 
ATOM     40  C   UNL A   1      41.531  24.847  27.671  1.00  0.00     0.029 A 
ATOM     41  N   UNL A   1      42.930  26.589  27.657  1.00  0.00    -0.354 N 
ATOM     42  C   UNL A   1      47.077  26.109  26.567  1.00  0.00     0.074 A 
ATOM     43  C   UNL A   1      47.361  24.743  26.181  1.00  0.00     0.031 C 
ATOM     44  C   UNL A   1      40.844  25.917  28.100  1.00  0.00     0.029 A 
ATOM     45  C   UNL A   1      41.735  27.072  28.134  1.00  0.00     0.049 A 
ATOM     46  H   UNL A   1      43.730  27.151  27.543  1.00  0.00     0.167 HD
ATOM     47  C   UNL A   1      47.991  27.108  26.569  1.00  0.00     0.037 A 
ATOM     48  C   UNL A   1      41.397  28.302  28.564  1.00  0.00     0.037 A 
ATOM     49  C   UNL A   1      47.700  28.474  26.918  1.00  0.00     0.049 A 
ATOM     50  C   UNL A   1      42.430  29.395  28.555  1.00  0.00     0.074 A 
ATOM     51  C   UNL A   1      48.541  29.573  26.876  1.00  0.00     0.029 A 
ATOM     52  N   UNL A   1      46.471  28.928  27.372  1.00  0.00    -0.354 N 
ATOM     53  N   UNL A   1      43.686  29.342  28.183  1.00  0.00    -0.248 NA
ATOM     54  C   UNL A   1      42.000  30.719  29.027  1.00  0.00     0.031 C 
ATOM     55  C   UNL A   1      47.833  30.684  27.346  1.00  0.00     0.029 A 
ATOM     56  C   UNL A   1      46.538  30.288  27.637  1.00  0.00     0.049 A 
ATOM     57  H   UNL A   1      45.669  28.369  27.489  1.00  0.00     0.167 HD
ATOM     58  C   UNL A   1      44.189  30.625  28.354  1.00  0.00     0.074 A 
ATOM     59  C   UNL A   1      43.098  31.439  28.847  1.00  0.00     0.031 C 
ATOM     60  C   UNL A   1      45.442  31.085  28.127  1.00  0.00     0.037 A 
BRANCH  47  61
ATOM     61  C   UNL A   1      49.398  26.761  26.174  1.00  0.00     0.064 A 
ATOM     62  C   UNL A   1      49.850  26.919  24.855  1.00  0.00     0.173 A 
ATOM     63  C   UNL A   1      50.313  26.299  27.131  1.00  0.00     0.173 A 
ATOM     64  F   UNL A   1      49.010  27.347  23.900  1.00  0.00    -0.203 F 
ATOM     65  C   UNL A   1      51.157  26.596  24.502  1.00  0.00     0.198 A 
ATOM     66  C   UNL A   1      51.628  26.006  26.781  1.00  0.00     0.198 A 
ATOM     67  F   UNL A   1      49.935  26.137  28.408  1.00  0.00    -0.203 F 
ATOM     68  F   UNL A   1      51.551  26.705  23.226  1.00  0.00    -0.200 F 
ATOM     69  C   UNL A   1      52.047  26.147  25.466  1.00  0.00     0.200 A 
ATOM     70  F   UNL A   1      52.491  25.583  27.715  1.00  0.00    -0.200 F 
ATOM     71  F   UNL A   1      53.307  25.842  25.126  1.00  0.00    -0.200 F 
ENDBRANCH  47  61
BRANCH  48  72
ATOM     72  C   UNL A   1      40.010  28.575  29.026  1.00  0.00     0.064 A 
ATOM     73  C   UNL A   1      39.636  28.331  30.356  1.00  0.00     0.173 A 
ATOM     74  C   UNL A   1      39.032  29.073  28.155  1.00  0.00     0.173 A 
ATOM     75  F   UNL A   1      40.532  27.832  31.220  1.00  0.00    -0.203 F 
ATOM     76  C   UNL A   1      38.333  28.557  30.790  1.00  0.00     0.198 A 
ATOM     77  C   UNL A   1      37.734  29.325  28.597  1.00  0.00     0.198 A 
ATOM     78  F   UNL A   1      39.339  29.327  26.874  1.00  0.00    -0.203 F 
ATOM     79  F   UNL A   1      37.991  28.272  32.054  1.00  0.00    -0.200 F 
ATOM     80  C   UNL A   1      37.383  29.058  29.912  1.00  0.00     0.200 A 
ATOM     81  F   UNL A   1      36.824  29.822  27.749  1.00  0.00    -0.200 F 
ATOM     82  F   UNL A   1      36.130  29.278  30.331  1.00  0.00    -0.200 F 
ENDBRANCH  48  72
BRANCH  60  83
ATOM     83  C   UNL A   1      45.698  32.540  28.386  1.00  0.00     0.064 A 
ATOM     84  C   UNL A   1      46.173  32.992  29.627  1.00  0.00     0.173 A 
ATOM     85  C   UNL A   1      45.503  33.489  27.371  1.00  0.00     0.173 A 
ATOM     86  F   UNL A   1      46.357  32.125  30.634  1.00  0.00    -0.203 F 
ATOM     87  C   UNL A   1      46.422  34.343  29.847  1.00  0.00     0.198 A 
ATOM     88  C   UNL A   1      45.782  34.835  27.586  1.00  0.00     0.198 A 
ATOM     89  F   UNL A   1      45.055  33.107  26.166  1.00  0.00    -0.203 F 
ATOM     90  F   UNL A   1      46.834  34.758  31.053  1.00  0.00    -0.200 F 
ATOM     91  C   UNL A   1      46.235  35.263  28.826  1.00  0.00     0.200 A 
ATOM     92  F   UNL A   1      45.611  35.721  26.594  1.00  0.00    -0.200 F 
ATOM     93  F   UNL A   1      46.484  36.561  29.038  1.00  0.00    -0.200 F 
ENDBRANCH  60  83
ENDBRANCH  34  35
ENDBRANCH  26  29
ENDBRANCH  24  25
ENDBRANCH  23  24
ENDBRANCH   1  23
TORSDOF 13
ENDMDL
MODEL 3
REMARK VINA RESULT:     -13.3      0.852      7.362
REMARK SMILES O=C(C[C@H]1C[C@H]2CC[C@@H](C1)[N@H+]2C[C@@H]1CCCOC1)NCCCNC(=O)c1ccc(-c2c3nc(c(-c4c(F)c(F)c(F)c(F)c4F)c4ccc([nH]4)c(-c4c(F)c(F)c(F)c(F)c4F)c4nc(c(-c5c(F)c(F)c(F)c(F)c5F)c5ccc2[nH]5)C=C4)C=C3)cc1
REMARK SMILES IDX 20 1 19 2 1 3 2 4 3 6 4 7 5 8 10 9 6 10 9 11 7 12 11 13 8 14
REMARK SMILES IDX 12 16 13 17 14 18 18 19 15 20 17 21 16 22 21 23 22 24 23 25
REMARK SMILES IDX 24 26 25 28 26 29 27 30 88 31 28 32 87 33 29 34 30 35 31 36
REMARK SMILES IDX 81 37 32 38 86 39 80 40 82 41 33 42 85 43 79 44 78 45 34 47
REMARK SMILES IDX 66 48 46 49 65 50 47 51 50 52 64 53 83 54 48 55 49 56 63 58
REMARK SMILES IDX 84 59 51 60 35 61 36 62 44 63 37 64 38 65 42 66 45 67 39 68
REMARK SMILES IDX 40 69 43 70 41 71 67 72 68 73 76 74 69 75 70 76 74 77 77 78
REMARK SMILES IDX 71 79 72 80 75 81 73 82 52 83 53 84 61 85 54 86 55 87 59 88
REMARK SMILES IDX 62 89 56 90 57 91 60 92 58 93
REMARK H PARENT 19 5 11 15 23 27 82 46 50 57
REMARK Flexibility Score: inf
ROOT
ATOM      1  C   UNL A   1      31.841  29.156  24.437  1.00  0.00     0.117 C 
ENDROOT
BRANCH   1   2
ATOM      2  N   UNL A   1      32.102  27.856  25.027  1.00  0.00    -0.356 N 
ATOM      3  O   UNL A   1      33.695  27.212  23.497  1.00  0.00    -0.275 OA
ATOM      4  C   UNL A   1      33.163  27.087  24.593  1.00  0.00     0.220 C 
ATOM      5  H   UNL A   1      31.516  27.520  25.743  1.00  0.00     0.163 HD
BRANCH   4   6
ATOM      6  C   UNL A   1      33.729  26.204  25.690  1.00  0.00     0.104 C 
BRANCH   6   7
ATOM      7  C   UNL A   1      33.709  24.719  25.270  1.00  0.00     0.010 C 
ATOM      8  C   UNL A   1      34.941  23.953  25.829  1.00  0.00     0.069 C 
ATOM      9  C   UNL A   1      32.329  24.024  25.459  1.00  0.00     0.069 C 
ATOM     10  C   UNL A   1      34.704  22.460  26.138  1.00  0.00     0.184 C 
ATOM     11  C   UNL A   1      32.386  22.603  26.012  1.00  0.00     0.184 C 
ATOM     12  C   UNL A   1      34.225  22.347  27.591  1.00  0.00     0.071 C 
ATOM     13  N   UNL A   1      33.539  21.963  25.442  1.00  0.00    -0.330 N 
ATOM     14  C   UNL A   1      32.727  22.627  27.516  1.00  0.00     0.071 C 
ATOM     15  H   UNL A   1      33.625  21.126  24.864  1.00  0.00     0.348 HD
BRANCH  13  16
ATOM     16  C   UNL A   1      33.511  21.046  24.327  1.00  0.00     0.268 C 
BRANCH  16  17
ATOM     17  C   UNL A   1      33.452  19.504  24.542  1.00  0.00     0.070 C 
ATOM     18  C   UNL A   1      34.837  18.857  24.661  1.00  0.00     0.014 C 
ATOM     19  C   UNL A   1      32.494  18.785  23.588  1.00  0.00     0.169 C 
ATOM     20  C   UNL A   1      34.888  17.358  24.388  1.00  0.00     0.029 C 
ATOM     21  O   UNL A   1      32.606  17.363  23.665  1.00  0.00    -0.381 OA
ATOM     22  C   UNL A   1      33.914  16.931  23.307  1.00  0.00     0.160 C 
ENDBRANCH  16  17
ENDBRANCH  13  16
ENDBRANCH   6   7
ENDBRANCH   4   6
ENDBRANCH   1   2
BRANCH   1  23
ATOM     23  C   UNL A   1      31.421  30.198  25.463  1.00  0.00     0.042 C 
BRANCH  23  24
ATOM     24  C   UNL A   1      32.480  30.513  26.523  1.00  0.00     0.118 C 
BRANCH  24  25
ATOM     25  N   UNL A   1      32.513  31.904  26.958  1.00  0.00    -0.352 N 
ATOM     26  C   UNL A   1      33.497  32.604  27.623  1.00  0.00     0.251 C 
ATOM     27  H   UNL A   1      31.706  32.425  26.744  1.00  0.00     0.163 HD
ATOM     28  O   UNL A   1      33.307  33.771  27.956  1.00  0.00    -0.269 OA
BRANCH  26  29
ATOM     29  C   UNL A   1      34.760  31.932  27.999  1.00  0.00     0.039 A 
ATOM     30  C   UNL A   1      35.914  32.706  28.152  1.00  0.00     0.014 A 
ATOM     31  C   UNL A   1      34.799  30.563  28.261  1.00  0.00     0.014 A 
ATOM     32  C   UNL A   1      37.064  32.133  28.703  1.00  0.00     0.010 A 
ATOM     33  C   UNL A   1      35.909  30.018  28.901  1.00  0.00     0.010 A 
ATOM     34  C   UNL A   1      37.043  30.803  29.155  1.00  0.00    -0.014 A 
BRANCH  34  35
ATOM     35  C   UNL A   1      38.168  30.229  29.941  1.00  0.00     0.031 A 
ATOM     36  C   UNL A   1      38.406  30.663  31.359  1.00  0.00     0.074 A 
ATOM     37  C   UNL A   1      39.042  29.397  29.339  1.00  0.00     0.049 A 
ATOM     38  N   UNL A   1      39.404  30.377  32.158  1.00  0.00    -0.248 NA
ATOM     39  C   UNL A   1      37.404  31.565  31.949  1.00  0.00     0.031 C 
ATOM     40  C   UNL A   1      38.964  28.942  27.949  1.00  0.00     0.029 A 
ATOM     41  N   UNL A   1      40.184  28.796  29.815  1.00  0.00    -0.354 N 
ATOM     42  C   UNL A   1      39.163  31.082  33.330  1.00  0.00     0.074 A 
ATOM     43  C   UNL A   1      37.952  31.847  33.122  1.00  0.00     0.031 C 
ATOM     44  C   UNL A   1      39.994  28.120  27.693  1.00  0.00     0.029 A 
ATOM     45  C   UNL A   1      40.833  28.023  28.882  1.00  0.00     0.049 A 
ATOM     46  H   UNL A   1      40.506  28.909  30.739  1.00  0.00     0.167 HD
ATOM     47  C   UNL A   1      39.873  31.073  34.483  1.00  0.00     0.037 A 
ATOM     48  C   UNL A   1      41.981  27.326  28.969  1.00  0.00     0.037 A 
ATOM     49  C   UNL A   1      41.056  30.284  34.702  1.00  0.00     0.049 A 
ATOM     50  C   UNL A   1      42.750  27.332  30.262  1.00  0.00     0.074 A 
ATOM     51  C   UNL A   1      41.801  30.148  35.861  1.00  0.00     0.029 A 
ATOM     52  N   UNL A   1      41.668  29.494  33.740  1.00  0.00    -0.354 N 
ATOM     53  N   UNL A   1      42.474  27.948  31.385  1.00  0.00    -0.248 NA
ATOM     54  C   UNL A   1      43.991  26.545  30.299  1.00  0.00     0.031 C 
ATOM     55  C   UNL A   1      42.887  29.311  35.589  1.00  0.00     0.029 A 
ATOM     56  C   UNL A   1      42.796  28.888  34.273  1.00  0.00     0.049 A 
ATOM     57  H   UNL A   1      41.350  29.381  32.815  1.00  0.00     0.167 HD
ATOM     58  C   UNL A   1      43.491  27.607  32.267  1.00  0.00     0.074 A 
ATOM     59  C   UNL A   1      44.381  26.716  31.554  1.00  0.00     0.031 C 
ATOM     60  C   UNL A   1      43.671  28.001  33.550  1.00  0.00     0.037 A 
BRANCH  47  61
ATOM     61  C   UNL A   1      39.382  31.942  35.605  1.00  0.00     0.064 A 
ATOM     62  C   UNL A   1      38.476  31.462  36.563  1.00  0.00     0.173 A 
ATOM     63  C   UNL A   1      39.848  33.257  35.745  1.00  0.00     0.173 A 
ATOM     64  F   UNL A   1      37.991  30.214  36.468  1.00  0.00    -0.203 F 
ATOM     65  C   UNL A   1      38.031  32.276  37.600  1.00  0.00     0.198 A 
ATOM     66  C   UNL A   1      39.424  34.060  36.800  1.00  0.00     0.198 A 
ATOM     67  F   UNL A   1      40.721  33.764  34.860  1.00  0.00    -0.203 F 
ATOM     68  F   UNL A   1      37.126  31.812  38.473  1.00  0.00    -0.200 F 
ATOM     69  C   UNL A   1      38.510  33.572  37.722  1.00  0.00     0.200 A 
ATOM     70  F   UNL A   1      39.897  35.307  36.924  1.00  0.00    -0.200 F 
ATOM     71  F   UNL A   1      38.085  34.353  38.725  1.00  0.00    -0.200 F 
ENDBRANCH  47  61
BRANCH  48  72
ATOM     72  C   UNL A   1      42.470  26.548  27.800  1.00  0.00     0.064 A 
ATOM     73  C   UNL A   1      43.366  27.118  26.884  1.00  0.00     0.173 A 
ATOM     74  C   UNL A   1      42.050  25.231  27.569  1.00  0.00     0.173 A 
ATOM     75  F   UNL A   1      43.778  28.383  27.050  1.00  0.00    -0.203 F 
ATOM     76  C   UNL A   1      43.808  26.406  25.771  1.00  0.00     0.198 A 
ATOM     77  C   UNL A   1      42.513  24.510  26.470  1.00  0.00     0.198 A 
ATOM     78  F   UNL A   1      41.197  24.639  28.417  1.00  0.00    -0.203 F 
ATOM     79  F   UNL A   1      44.627  26.990  24.887  1.00  0.00    -0.200 F 
ATOM     80  C   UNL A   1      43.385  25.101  25.567  1.00  0.00     0.200 A 
ATOM     81  F   UNL A   1      42.114  23.245  26.284  1.00  0.00    -0.200 F 
ATOM     82  F   UNL A   1      43.812  24.416  24.498  1.00  0.00    -0.200 F 
ENDBRANCH  48  72
BRANCH  60  83
ATOM     83  C   UNL A   1      44.865  27.453  34.275  1.00  0.00     0.064 A 
ATOM     84  C   UNL A   1      44.808  26.233  34.964  1.00  0.00     0.173 A 
ATOM     85  C   UNL A   1      46.090  28.137  34.247  1.00  0.00     0.173 A 
ATOM     86  F   UNL A   1      43.655  25.551  35.035  1.00  0.00    -0.203 F 
ATOM     87  C   UNL A   1      45.929  25.728  35.618  1.00  0.00     0.198 A 
ATOM     88  C   UNL A   1      47.216  27.615  34.877  1.00  0.00     0.198 A 
ATOM     89  F   UNL A   1      46.198  29.305  33.598  1.00  0.00    -0.203 F 
ATOM     90  F   UNL A   1      45.840  24.583  36.307  1.00  0.00    -0.200 F 
ATOM     91  C   UNL A   1      47.134  26.414  35.567  1.00  0.00     0.200 A 
ATOM     92  F   UNL A   1      48.382  28.273  34.817  1.00  0.00    -0.200 F 
ATOM     93  F   UNL A   1      48.212  25.922  36.189  1.00  0.00    -0.200 F 
ENDBRANCH  60  83
ENDBRANCH  34  35
ENDBRANCH  26  29
ENDBRANCH  24  25
ENDBRANCH  23  24
ENDBRANCH   1  23
TORSDOF 13
ENDMDL
