MODEL 1
REMARK VINA RESULT:     -12.6      0.000      0.000
REMARK SMILES CCc1cc2ccccc2c(=O)n1CC(=O)NCCCNC(=O)c1ccc(-c2c3nc(c(-c4c(F)c(F)c(F)c(F)c4F)c4ccc([nH]4)c(-c4c(F)c(F)c(F)c(F)c4F)c4nc(c(-c5c(F)c(F)c(F)c(F)c5F)c5ccc2[nH]5)C=C4)C=C3)cc1
REMARK SMILES IDX 19 1 18 2 17 3 15 4 16 5 14 7 13 8 3 9 4 10 5 11 11 12 6 13
REMARK SMILES IDX 10 14 12 15 7 16 9 17 8 18 2 19 1 20 20 21 21 22 22 23 23 25
REMARK SMILES IDX 24 26 25 27 86 28 26 29 85 30 27 31 28 32 29 33 79 34 30 35
REMARK SMILES IDX 84 36 78 37 80 38 31 39 83 40 77 41 76 42 32 44 64 45 44 46
REMARK SMILES IDX 63 47 45 48 48 49 62 50 81 51 46 52 47 53 61 55 82 56 49 57
REMARK SMILES IDX 33 58 34 59 42 60 35 61 36 62 40 63 43 64 37 65 38 66 41 67
REMARK SMILES IDX 39 68 65 69 66 70 74 71 67 72 68 73 72 74 75 75 69 76 70 77
REMARK SMILES IDX 73 78 71 79 50 80 51 81 59 82 52 83 53 84 57 85 60 86 54 87
REMARK SMILES IDX 55 88 58 89 56 90
REMARK H PARENT 17 6 21 24 80 43 48 54
REMARK Flexibility Score: inf
ROOT
ATOM      1  C   UNL A   1      31.392  32.180  26.530  1.00  0.00     0.042 C 
ENDROOT
BRANCH   1   2
ATOM      2  C   UNL A   1      31.544  30.691  26.262  1.00  0.00     0.117 C 
BRANCH   2   3
ATOM      3  N   UNL A   1      31.454  30.347  24.861  1.00  0.00    -0.354 N 
ATOM      4  C   UNL A   1      31.120  29.158  24.278  1.00  0.00     0.240 C 
ATOM      5  O   UNL A   1      30.757  29.208  23.098  1.00  0.00    -0.273 OA
ATOM      6  H   UNL A   1      31.665  31.077  24.235  1.00  0.00     0.163 HD
BRANCH   4   7
ATOM      7  C   UNL A   1      30.993  27.853  25.091  1.00  0.00     0.225 C 
BRANCH   7   8
ATOM      8  N   UNL A   1      32.101  26.901  24.940  1.00  0.00    -0.303 N 
ATOM      9  C   UNL A   1      33.233  26.890  25.776  1.00  0.00     0.022 A 
ATOM     10  C   UNL A   1      34.203  25.976  25.566  1.00  0.00     0.030 A 
ATOM     11  C   UNL A   1      34.091  24.965  24.520  1.00  0.00    -0.011 A 
ATOM     12  C   UNL A   1      31.862  25.893  23.984  1.00  0.00     0.259 A 
ATOM     13  C   UNL A   1      35.117  24.040  24.289  1.00  0.00     0.009 A 
ATOM     14  C   UNL A   1      32.925  24.890  23.761  1.00  0.00     0.047 A 
ATOM     15  O   UNL A   1      30.833  25.820  23.315  1.00  0.00    -0.269 OA
ATOM     16  C   UNL A   1      34.968  23.052  23.312  1.00  0.00     0.001 A 
ATOM     17  C   UNL A   1      32.769  23.895  22.787  1.00  0.00     0.014 A 
ATOM     18  C   UNL A   1      33.794  22.975  22.566  1.00  0.00     0.001 A 
BRANCH   9  19
ATOM     19  C   UNL A   1      33.320  27.887  26.929  1.00  0.00     0.051 C 
ATOM     20  C   UNL A   1      34.527  28.822  26.964  1.00  0.00     0.010 C 
ENDBRANCH   9  19
ENDBRANCH   7   8
ENDBRANCH   4   7
ENDBRANCH   2   3
ENDBRANCH   1   2
BRANCH   1  21
ATOM     21  C   UNL A   1      32.580  32.797  27.259  1.00  0.00     0.118 C 
BRANCH  21  22
ATOM     22  N   UNL A   1      32.351  34.182  27.661  1.00  0.00    -0.352 N 
ATOM     23  C   UNL A   1      32.975  34.954  28.614  1.00  0.00     0.251 C 
ATOM     24  H   UNL A   1      31.632  34.639  27.170  1.00  0.00     0.163 HD
ATOM     25  O   UNL A   1      32.518  36.060  28.892  1.00  0.00    -0.269 OA
BRANCH  23  26
ATOM     26  C   UNL A   1      34.168  34.453  29.330  1.00  0.00     0.039 A 
ATOM     27  C   UNL A   1      35.453  34.721  28.863  1.00  0.00     0.014 A 
ATOM     28  C   UNL A   1      33.996  33.701  30.497  1.00  0.00     0.014 A 
ATOM     29  C   UNL A   1      36.545  34.083  29.440  1.00  0.00     0.010 A 
ATOM     30  C   UNL A   1      35.106  33.139  31.138  1.00  0.00     0.010 A 
ATOM     31  C   UNL A   1      36.386  33.279  30.580  1.00  0.00    -0.014 A 
BRANCH  31  32
ATOM     32  C   UNL A   1      37.572  32.590  31.154  1.00  0.00     0.031 A 
ATOM     33  C   UNL A   1      38.054  32.919  32.543  1.00  0.00     0.074 A 
ATOM     34  C   UNL A   1      38.170  31.611  30.447  1.00  0.00     0.049 A 
ATOM     35  N   UNL A   1      39.044  32.387  33.219  1.00  0.00    -0.248 NA
ATOM     36  C   UNL A   1      37.341  33.982  33.270  1.00  0.00     0.031 C 
ATOM     37  C   UNL A   1      37.791  31.200  29.095  1.00  0.00     0.029 A 
ATOM     38  N   UNL A   1      39.198  30.763  30.775  1.00  0.00    -0.354 N 
ATOM     39  C   UNL A   1      39.080  33.060  34.433  1.00  0.00     0.074 A 
ATOM     40  C   UNL A   1      38.035  34.058  34.399  1.00  0.00     0.031 C 
ATOM     41  C   UNL A   1      38.535  30.145  28.730  1.00  0.00     0.029 A 
ATOM     42  C   UNL A   1      39.484  29.842  29.797  1.00  0.00     0.049 A 
ATOM     43  H   UNL A   1      39.686  30.811  31.629  1.00  0.00     0.167 HD
ATOM     44  C   UNL A   1      39.902  32.849  35.489  1.00  0.00     0.037 A 
ATOM     45  C   UNL A   1      40.413  28.868  29.756  1.00  0.00     0.037 A 
ATOM     46  C   UNL A   1      40.916  31.828  35.540  1.00  0.00     0.049 A 
ATOM     47  C   UNL A   1      41.326  28.676  30.934  1.00  0.00     0.074 A 
ATOM     48  C   UNL A   1      41.773  31.519  36.581  1.00  0.00     0.029 A 
ATOM     49  N   UNL A   1      41.203  30.946  34.509  1.00  0.00    -0.354 N 
ATOM     50  N   UNL A   1      41.336  29.308  32.082  1.00  0.00    -0.248 NA
ATOM     51  C   UNL A   1      42.364  27.643  30.809  1.00  0.00     0.031 C 
ATOM     52  C   UNL A   1      42.606  30.476  36.168  1.00  0.00     0.029 A 
ATOM     53  C   UNL A   1      42.238  30.107  34.885  1.00  0.00     0.049 A 
ATOM     54  H   UNL A   1      40.740  30.920  33.641  1.00  0.00     0.167 HD
ATOM     55  C   UNL A   1      42.367  28.744  32.818  1.00  0.00     0.074 A 
ATOM     56  C   UNL A   1      42.948  27.703  31.998  1.00  0.00     0.031 C 
ATOM     57  C   UNL A   1      42.799  29.068  34.060  1.00  0.00     0.037 A 
BRANCH  44  58
ATOM     58  C   UNL A   1      39.750  33.726  36.695  1.00  0.00     0.064 A 
ATOM     59  C   UNL A   1      40.347  34.993  36.759  1.00  0.00     0.173 A 
ATOM     60  C   UNL A   1      38.905  33.344  37.749  1.00  0.00     0.173 A 
ATOM     61  F   UNL A   1      41.170  35.401  35.781  1.00  0.00    -0.203 F 
ATOM     62  C   UNL A   1      40.104  35.845  37.832  1.00  0.00     0.198 A 
ATOM     63  C   UNL A   1      38.646  34.207  38.810  1.00  0.00     0.198 A 
ATOM     64  F   UNL A   1      38.304  32.144  37.732  1.00  0.00    -0.203 F 
ATOM     65  F   UNL A   1      40.697  37.047  37.879  1.00  0.00    -0.200 F 
ATOM     66  C   UNL A   1      39.244  35.457  38.850  1.00  0.00     0.200 A 
ATOM     67  F   UNL A   1      37.804  33.836  39.785  1.00  0.00    -0.200 F 
ATOM     68  F   UNL A   1      38.991  36.291  39.869  1.00  0.00    -0.200 F 
ENDBRANCH  44  58
BRANCH  45  69
ATOM     69  C   UNL A   1      40.523  28.004  28.553  1.00  0.00     0.064 A 
ATOM     70  C   UNL A   1      41.293  28.396  27.449  1.00  0.00     0.173 A 
ATOM     71  C   UNL A   1      39.869  26.765  28.485  1.00  0.00     0.173 A 
ATOM     72  F   UNL A   1      41.920  29.582  27.459  1.00  0.00    -0.203 F 
ATOM     73  C   UNL A   1      41.393  27.588  26.319  1.00  0.00     0.198 A 
ATOM     74  C   UNL A   1      39.994  25.944  27.367  1.00  0.00     0.198 A 
ATOM     75  F   UNL A   1      39.121  26.342  29.516  1.00  0.00    -0.203 F 
ATOM     76  F   UNL A   1      42.103  28.004  25.262  1.00  0.00    -0.200 F 
ATOM     77  C   UNL A   1      40.751  26.359  26.281  1.00  0.00     0.200 A 
ATOM     78  F   UNL A   1      39.384  24.751  27.342  1.00  0.00    -0.200 F 
ATOM     79  F   UNL A   1      40.856  25.578  25.198  1.00  0.00    -0.200 F 
ENDBRANCH  45  69
BRANCH  57  80
ATOM     80  C   UNL A   1      43.945  28.285  34.623  1.00  0.00     0.064 A 
ATOM     81  C   UNL A   1      45.264  28.748  34.518  1.00  0.00     0.173 A 
ATOM     82  C   UNL A   1      43.715  27.106  35.348  1.00  0.00     0.173 A 
ATOM     83  F   UNL A   1      45.534  29.864  33.824  1.00  0.00    -0.203 F 
ATOM     84  C   UNL A   1      46.314  28.053  35.111  1.00  0.00     0.198 A 
ATOM     85  C   UNL A   1      44.763  26.427  35.961  1.00  0.00     0.198 A 
ATOM     86  F   UNL A   1      42.468  26.629  35.484  1.00  0.00    -0.203 F 
ATOM     87  F   UNL A   1      47.571  28.499  34.976  1.00  0.00    -0.200 F 
ATOM     88  C   UNL A   1      46.062  26.900  35.840  1.00  0.00     0.200 A 
ATOM     89  F   UNL A   1      44.517  25.322  36.678  1.00  0.00    -0.200 F 
ATOM     90  F   UNL A   1      47.072  26.243  36.427  1.00  0.00    -0.200 F 
ENDBRANCH  57  80
ENDBRANCH  31  32
ENDBRANCH  23  26
ENDBRANCH  21  22
ENDBRANCH   1  21
TORSDOF 12
ENDMDL
MODEL 2
REMARK VINA RESULT:     -12.5      0.220      1.996
REMARK SMILES CCc1cc2ccccc2c(=O)n1CC(=O)NCCCNC(=O)c1ccc(-c2c3nc(c(-c4c(F)c(F)c(F)c(F)c4F)c4ccc([nH]4)c(-c4c(F)c(F)c(F)c(F)c4F)c4nc(c(-c5c(F)c(F)c(F)c(F)c5F)c5ccc2[nH]5)C=C4)C=C3)cc1
REMARK SMILES IDX 19 1 18 2 17 3 15 4 16 5 14 7 13 8 3 9 4 10 5 11 11 12 6 13
REMARK SMILES IDX 10 14 12 15 7 16 9 17 8 18 2 19 1 20 20 21 21 22 22 23 23 25
REMARK SMILES IDX 24 26 25 27 86 28 26 29 85 30 27 31 28 32 29 33 79 34 30 35
REMARK SMILES IDX 84 36 78 37 80 38 31 39 83 40 77 41 76 42 32 44 64 45 44 46
REMARK SMILES IDX 63 47 45 48 48 49 62 50 81 51 46 52 47 53 61 55 82 56 49 57
REMARK SMILES IDX 33 58 34 59 42 60 35 61 36 62 40 63 43 64 37 65 38 66 41 67
REMARK SMILES IDX 39 68 65 69 66 70 74 71 67 72 68 73 72 74 75 75 69 76 70 77
REMARK SMILES IDX 73 78 71 79 50 80 51 81 59 82 52 83 53 84 57 85 60 86 54 87
REMARK SMILES IDX 55 88 58 89 56 90
REMARK H PARENT 17 6 21 24 80 43 48 54
REMARK Flexibility Score: inf
ROOT
ATOM      1  C   UNL A   1      31.350  32.216  26.501  1.00  0.00     0.042 C 
ENDROOT
BRANCH   1   2
ATOM      2  C   UNL A   1      31.476  30.720  26.259  1.00  0.00     0.117 C 
BRANCH   2   3
ATOM      3  N   UNL A   1      31.421  30.355  24.862  1.00  0.00    -0.354 N 
ATOM      4  C   UNL A   1      31.131  29.150  24.289  1.00  0.00     0.240 C 
ATOM      5  O   UNL A   1      30.788  29.175  23.102  1.00  0.00    -0.273 OA
ATOM      6  H   UNL A   1      31.621  31.083  24.230  1.00  0.00     0.163 HD
BRANCH   4   7
ATOM      7  C   UNL A   1      31.027  27.853  25.116  1.00  0.00     0.225 C 
BRANCH   7   8
ATOM      8  N   UNL A   1      32.113  26.884  24.916  1.00  0.00    -0.303 N 
ATOM      9  C   UNL A   1      33.275  26.846  25.709  1.00  0.00     0.022 A 
ATOM     10  C   UNL A   1      34.220  25.919  25.456  1.00  0.00     0.030 A 
ATOM     11  C   UNL A   1      34.053  24.919  24.405  1.00  0.00    -0.011 A 
ATOM     12  C   UNL A   1      31.822  25.889  23.960  1.00  0.00     0.259 A 
ATOM     13  C   UNL A   1      35.055  23.981  24.128  1.00  0.00     0.009 A 
ATOM     14  C   UNL A   1      32.860  24.872  23.689  1.00  0.00     0.047 A 
ATOM     15  O   UNL A   1      30.769  25.840  23.329  1.00  0.00    -0.269 OA
ATOM     16  C   UNL A   1      34.854  23.004  23.149  1.00  0.00     0.001 A 
ATOM     17  C   UNL A   1      32.652  23.888  22.713  1.00  0.00     0.014 A 
ATOM     18  C   UNL A   1      33.652  22.954  22.445  1.00  0.00     0.001 A 
BRANCH   9  19
ATOM     19  C   UNL A   1      33.421  27.830  26.868  1.00  0.00     0.051 C 
ATOM     20  C   UNL A   1      34.458  28.941  26.724  1.00  0.00     0.010 C 
ENDBRANCH   9  19
ENDBRANCH   7   8
ENDBRANCH   4   7
ENDBRANCH   2   3
ENDBRANCH   1   2
BRANCH   1  21
ATOM     21  C   UNL A   1      32.514  32.812  27.283  1.00  0.00     0.118 C 
BRANCH  21  22
ATOM     22  N   UNL A   1      32.316  34.217  27.625  1.00  0.00    -0.352 N 
ATOM     23  C   UNL A   1      32.958  35.017  28.542  1.00  0.00     0.251 C 
ATOM     24  H   UNL A   1      31.605  34.668  27.116  1.00  0.00     0.163 HD
ATOM     25  O   UNL A   1      32.526  36.143  28.774  1.00  0.00    -0.269 OA
BRANCH  23  26
ATOM     26  C   UNL A   1      34.142  34.521  29.278  1.00  0.00     0.039 A 
ATOM     27  C   UNL A   1      35.426  34.662  28.753  1.00  0.00     0.014 A 
ATOM     28  C   UNL A   1      33.964  33.907  30.521  1.00  0.00     0.014 A 
ATOM     29  C   UNL A   1      36.497  34.023  29.366  1.00  0.00     0.010 A 
ATOM     30  C   UNL A   1      35.059  33.349  31.189  1.00  0.00     0.010 A 
ATOM     31  C   UNL A   1      36.328  33.352  30.588  1.00  0.00    -0.014 A 
BRANCH  31  32
ATOM     32  C   UNL A   1      37.489  32.656  31.202  1.00  0.00     0.031 A 
ATOM     33  C   UNL A   1      37.936  32.993  32.601  1.00  0.00     0.074 A 
ATOM     34  C   UNL A   1      38.097  31.665  30.521  1.00  0.00     0.049 A 
ATOM     35  N   UNL A   1      38.900  32.457  33.309  1.00  0.00    -0.248 NA
ATOM     36  C   UNL A   1      37.213  34.070  33.298  1.00  0.00     0.031 C 
ATOM     37  C   UNL A   1      37.752  31.245  29.162  1.00  0.00     0.029 A 
ATOM     38  N   UNL A   1      39.106  30.810  30.886  1.00  0.00    -0.354 N 
ATOM     39  C   UNL A   1      38.909  33.141  34.518  1.00  0.00     0.074 A 
ATOM     40  C   UNL A   1      37.876  34.149  34.445  1.00  0.00     0.031 C 
ATOM     41  C   UNL A   1      38.494  30.179  28.828  1.00  0.00     0.029 A 
ATOM     42  C   UNL A   1      39.410  29.876  29.924  1.00  0.00     0.049 A 
ATOM     43  H   UNL A   1      39.570  30.860  31.752  1.00  0.00     0.167 HD
ATOM     44  C   UNL A   1      39.698  32.931  35.598  1.00  0.00     0.037 A 
ATOM     45  C   UNL A   1      40.329  28.892  29.918  1.00  0.00     0.037 A 
ATOM     46  C   UNL A   1      40.700  31.900  35.687  1.00  0.00     0.049 A 
ATOM     47  C   UNL A   1      41.206  28.702  31.124  1.00  0.00     0.074 A 
ATOM     48  C   UNL A   1      41.524  31.592  36.755  1.00  0.00     0.029 A 
ATOM     49  N   UNL A   1      41.006  31.006  34.673  1.00  0.00    -0.354 N 
ATOM     50  N   UNL A   1      41.190  29.344  32.265  1.00  0.00    -0.248 NA
ATOM     51  C   UNL A   1      42.236  27.657  31.037  1.00  0.00     0.031 C 
ATOM     52  C   UNL A   1      42.357  30.537  36.375  1.00  0.00     0.029 A 
ATOM     53  C   UNL A   1      42.022  30.160  35.085  1.00  0.00     0.049 A 
ATOM     54  H   UNL A   1      40.567  30.977  33.792  1.00  0.00     0.167 HD
ATOM     55  C   UNL A   1      42.195  28.777  33.036  1.00  0.00     0.074 A 
ATOM     56  C   UNL A   1      42.787  27.722  32.241  1.00  0.00     0.031 C 
ATOM     57  C   UNL A   1      42.594  29.107  34.286  1.00  0.00     0.037 A 
BRANCH  44  58
ATOM     58  C   UNL A   1      39.522  33.821  36.792  1.00  0.00     0.064 A 
ATOM     59  C   UNL A   1      38.744  33.427  37.890  1.00  0.00     0.173 A 
ATOM     60  C   UNL A   1      40.230  35.029  36.888  1.00  0.00     0.173 A 
ATOM     61  F   UNL A   1      38.041  32.285  37.844  1.00  0.00    -0.203 F 
ATOM     62  C   UNL A   1      38.682  34.208  39.041  1.00  0.00     0.198 A 
ATOM     63  C   UNL A   1      40.184  35.797  38.048  1.00  0.00     0.198 A 
ATOM     64  F   UNL A   1      40.994  35.448  35.867  1.00  0.00    -0.203 F 
ATOM     65  F   UNL A   1      37.920  33.818  40.073  1.00  0.00    -0.200 F 
ATOM     66  C   UNL A   1      39.411  35.385  39.123  1.00  0.00     0.200 A 
ATOM     67  F   UNL A   1      40.900  36.927  38.132  1.00  0.00    -0.200 F 
ATOM     68  F   UNL A   1      39.371  36.122  40.243  1.00  0.00    -0.200 F 
ENDBRANCH  44  58
BRANCH  45  69
ATOM     69  C   UNL A   1      40.464  28.016  28.727  1.00  0.00     0.064 A 
ATOM     70  C   UNL A   1      39.795  26.786  28.654  1.00  0.00     0.173 A 
ATOM     71  C   UNL A   1      41.258  28.392  27.633  1.00  0.00     0.173 A 
ATOM     72  F   UNL A   1      39.041  26.373  29.684  1.00  0.00    -0.203 F 
ATOM     73  C   UNL A   1      39.924  25.962  27.538  1.00  0.00     0.198 A 
ATOM     74  C   UNL A   1      41.363  27.581  26.506  1.00  0.00     0.198 A 
ATOM     75  F   UNL A   1      41.918  29.560  27.652  1.00  0.00    -0.203 F 
ATOM     76  F   UNL A   1      39.306  24.774  27.511  1.00  0.00    -0.200 F 
ATOM     77  C   UNL A   1      40.702  26.363  26.462  1.00  0.00     0.200 A 
ATOM     78  F   UNL A   1      42.102  27.981  25.462  1.00  0.00    -0.200 F 
ATOM     79  F   UNL A   1      40.818  25.574  25.385  1.00  0.00    -0.200 F 
ENDBRANCH  45  69
BRANCH  57  80
ATOM     80  C   UNL A   1      43.716  28.318  34.889  1.00  0.00     0.064 A 
ATOM     81  C   UNL A   1      43.476  27.120  35.575  1.00  0.00     0.173 A 
ATOM     82  C   UNL A   1      45.048  28.718  34.704  1.00  0.00     0.173 A 
ATOM     83  F   UNL A   1      42.218  26.703  35.787  1.00  0.00    -0.203 F 
ATOM     84  C   UNL A   1      44.530  26.354  36.064  1.00  0.00     0.198 A 
ATOM     85  C   UNL A   1      46.100  27.936  35.171  1.00  0.00     0.198 A 
ATOM     86  F   UNL A   1      45.328  29.852  34.044  1.00  0.00    -0.203 F 
ATOM     87  F   UNL A   1      44.278  25.225  36.741  1.00  0.00    -0.200 F 
ATOM     88  C   UNL A   1      45.840  26.756  35.853  1.00  0.00     0.200 A 
ATOM     89  F   UNL A   1      47.366  28.319  34.953  1.00  0.00    -0.200 F 
ATOM     90  F   UNL A   1      46.854  26.007  36.307  1.00  0.00    -0.200 F 
ENDBRANCH  57  80
ENDBRANCH  31  32
ENDBRANCH  23  26
ENDBRANCH  21  22
ENDBRANCH   1  21
TORSDOF 12
ENDMDL
MODEL 3
REMARK VINA RESULT:     -12.4      2.108      3.350
REMARK SMILES CCc1cc2ccccc2c(=O)n1CC(=O)NCCCNC(=O)c1ccc(-c2c3nc(c(-c4c(F)c(F)c(F)c(F)c4F)c4ccc([nH]4)c(-c4c(F)c(F)c(F)c(F)c4F)c4nc(c(-c5c(F)c(F)c(F)c(F)c5F)c5ccc2[nH]5)C=C4)C=C3)cc1
REMARK SMILES IDX 19 1 18 2 17 3 15 4 16 5 14 7 13 8 3 9 4 10 5 11 11 12 6 13
REMARK SMILES IDX 10 14 12 15 7 16 9 17 8 18 2 19 1 20 20 21 21 22 22 23 23 25
REMARK SMILES IDX 24 26 25 27 86 28 26 29 85 30 27 31 28 32 29 33 79 34 30 35
REMARK SMILES IDX 84 36 78 37 80 38 31 39 83 40 77 41 76 42 32 44 64 45 44 46
REMARK SMILES IDX 63 47 45 48 48 49 62 50 81 51 46 52 47 53 61 55 82 56 49 57
REMARK SMILES IDX 33 58 34 59 42 60 35 61 36 62 40 63 43 64 37 65 38 66 41 67
REMARK SMILES IDX 39 68 65 69 66 70 74 71 67 72 68 73 72 74 75 75 69 76 70 77
REMARK SMILES IDX 73 78 71 79 50 80 51 81 59 82 52 83 53 84 57 85 60 86 54 87
REMARK SMILES IDX 55 88 58 89 56 90
REMARK H PARENT 17 6 21 24 80 43 48 54
REMARK Flexibility Score: inf
ROOT
ATOM      1  C   UNL A   1      31.780  28.341  26.808  1.00  0.00     0.042 C 
ENDROOT
BRANCH   1   2
ATOM      2  C   UNL A   1      31.336  27.190  25.919  1.00  0.00     0.117 C 
BRANCH   2   3
ATOM      3  N   UNL A   1      31.116  25.957  26.640  1.00  0.00    -0.354 N 
ATOM      4  C   UNL A   1      31.540  24.692  26.349  1.00  0.00     0.240 C 
ATOM      5  O   UNL A   1      31.545  23.885  27.284  1.00  0.00    -0.273 OA
ATOM      6  H   UNL A   1      30.583  26.042  27.464  1.00  0.00     0.163 HD
BRANCH   4   7
ATOM      7  C   UNL A   1      32.176  24.334  24.990  1.00  0.00     0.225 C 
BRANCH   7   8
ATOM      8  N   UNL A   1      33.377  23.491  25.054  1.00  0.00    -0.303 N 
ATOM      9  C   UNL A   1      33.398  22.139  24.664  1.00  0.00     0.022 A 
ATOM     10  C   UNL A   1      34.548  21.441  24.754  1.00  0.00     0.030 A 
ATOM     11  C   UNL A   1      35.790  22.062  25.205  1.00  0.00    -0.011 A 
ATOM     12  C   UNL A   1      34.552  24.195  25.391  1.00  0.00     0.259 A 
ATOM     13  C   UNL A   1      36.972  21.321  25.326  1.00  0.00     0.009 A 
ATOM     14  C   UNL A   1      35.811  23.426  25.484  1.00  0.00     0.047 A 
ATOM     15  O   UNL A   1      34.576  25.400  25.633  1.00  0.00    -0.269 OA
ATOM     16  C   UNL A   1      38.159  21.947  25.715  1.00  0.00     0.001 A 
ATOM     17  C   UNL A   1      37.002  24.059  25.865  1.00  0.00     0.014 A 
ATOM     18  C   UNL A   1      38.176  23.315  25.979  1.00  0.00     0.001 A 
BRANCH   9  19
ATOM     19  C   UNL A   1      32.127  21.502  24.108  1.00  0.00     0.051 C 
ATOM     20  C   UNL A   1      32.115  21.128  22.627  1.00  0.00     0.010 C 
ENDBRANCH   9  19
ENDBRANCH   7   8
ENDBRANCH   4   7
ENDBRANCH   2   3
ENDBRANCH   1   2
BRANCH   1  21
ATOM     21  C   UNL A   1      32.764  29.292  26.138  1.00  0.00     0.118 C 
BRANCH  21  22
ATOM     22  N   UNL A   1      32.551  30.690  26.501  1.00  0.00    -0.352 N 
ATOM     23  C   UNL A   1      33.308  31.542  27.270  1.00  0.00     0.251 C 
ATOM     24  H   UNL A   1      31.729  31.089  26.135  1.00  0.00     0.163 HD
ATOM     25  O   UNL A   1      32.862  32.646  27.571  1.00  0.00    -0.269 OA
BRANCH  23  26
ATOM     26  C   UNL A   1      34.640  31.131  27.765  1.00  0.00     0.039 A 
ATOM     27  C   UNL A   1      34.919  29.797  28.057  1.00  0.00     0.014 A 
ATOM     28  C   UNL A   1      35.632  32.102  27.938  1.00  0.00     0.014 A 
ATOM     29  C   UNL A   1      36.106  29.464  28.699  1.00  0.00     0.010 A 
ATOM     30  C   UNL A   1      36.867  31.749  28.494  1.00  0.00     0.010 A 
ATOM     31  C   UNL A   1      37.092  30.435  28.933  1.00  0.00    -0.014 A 
BRANCH  31  32
ATOM     32  C   UNL A   1      38.338  30.049  29.647  1.00  0.00     0.031 A 
ATOM     33  C   UNL A   1      38.616  30.558  31.037  1.00  0.00     0.074 A 
ATOM     34  C   UNL A   1      39.185  29.176  29.066  1.00  0.00     0.049 A 
ATOM     35  N   UNL A   1      39.629  30.290  31.825  1.00  0.00    -0.248 NA
ATOM     36  C   UNL A   1      37.638  31.490  31.622  1.00  0.00     0.031 C 
ATOM     37  C   UNL A   1      39.021  28.611  27.726  1.00  0.00     0.029 A 
ATOM     38  N   UNL A   1      40.332  28.587  29.537  1.00  0.00    -0.354 N 
ATOM     39  C   UNL A   1      39.417  31.030  32.982  1.00  0.00     0.074 A 
ATOM     40  C   UNL A   1      38.198  31.780  32.790  1.00  0.00     0.031 C 
ATOM     41  C   UNL A   1      39.995  27.716  27.504  1.00  0.00     0.029 A 
ATOM     42  C   UNL A   1      40.886  27.687  28.659  1.00  0.00     0.049 A 
ATOM     43  H   UNL A   1      40.720  28.789  30.418  1.00  0.00     0.167 HD
ATOM     44  C   UNL A   1      40.167  31.063  34.109  1.00  0.00     0.037 A 
ATOM     45  C   UNL A   1      41.996  26.930  28.765  1.00  0.00     0.037 A 
ATOM     46  C   UNL A   1      41.360  30.284  34.316  1.00  0.00     0.049 A 
ATOM     47  C   UNL A   1      42.819  27.009  30.020  1.00  0.00     0.074 A 
ATOM     48  C   UNL A   1      42.166  30.228  35.440  1.00  0.00     0.029 A 
ATOM     49  N   UNL A   1      41.913  29.421  33.383  1.00  0.00    -0.354 N 
ATOM     50  N   UNL A   1      42.596  27.699  31.111  1.00  0.00    -0.248 NA
ATOM     51  C   UNL A   1      44.053  26.213  30.055  1.00  0.00     0.031 C 
ATOM     52  C   UNL A   1      43.228  29.361  35.175  1.00  0.00     0.029 A 
ATOM     53  C   UNL A   1      43.061  28.843  33.901  1.00  0.00     0.049 A 
ATOM     54  H   UNL A   1      41.545  29.243  32.488  1.00  0.00     0.167 HD
ATOM     55  C   UNL A   1      43.651  27.413  31.965  1.00  0.00     0.074 A 
ATOM     56  C   UNL A   1      44.504  26.468  31.275  1.00  0.00     0.031 C 
ATOM     57  C   UNL A   1      43.894  27.897  33.206  1.00  0.00     0.037 A 
BRANCH  44  58
ATOM     58  C   UNL A   1      39.731  31.961  35.227  1.00  0.00     0.064 A 
ATOM     59  C   UNL A   1      40.161  33.293  35.305  1.00  0.00     0.173 A 
ATOM     60  C   UNL A   1      38.784  31.520  36.164  1.00  0.00     0.173 A 
ATOM     61  F   UNL A   1      41.073  33.761  34.439  1.00  0.00    -0.203 F 
ATOM     62  C   UNL A   1      39.659  34.152  36.280  1.00  0.00     0.198 A 
ATOM     63  C   UNL A   1      38.266  32.386  37.123  1.00  0.00     0.198 A 
ATOM     64  F   UNL A   1      38.335  30.256  36.128  1.00  0.00    -0.203 F 
ATOM     65  F   UNL A   1      40.095  35.418  36.345  1.00  0.00    -0.200 F 
ATOM     66  C   UNL A   1      38.703  33.701  37.179  1.00  0.00     0.200 A 
ATOM     67  F   UNL A   1      37.333  31.954  37.983  1.00  0.00    -0.200 F 
ATOM     68  F   UNL A   1      38.202  34.537  38.100  1.00  0.00    -0.200 F 
ENDBRANCH  44  58
BRANCH  45  69
ATOM     69  C   UNL A   1      42.388  26.036  27.647  1.00  0.00     0.064 A 
ATOM     70  C   UNL A   1      43.365  26.424  26.719  1.00  0.00     0.173 A 
ATOM     71  C   UNL A   1      41.801  24.772  27.485  1.00  0.00     0.173 A 
ATOM     72  F   UNL A   1      43.939  27.632  26.819  1.00  0.00    -0.203 F 
ATOM     73  C   UNL A   1      43.730  25.586  25.667  1.00  0.00     0.198 A 
ATOM     74  C   UNL A   1      42.189  23.923  26.452  1.00  0.00     0.198 A 
ATOM     75  F   UNL A   1      40.862  24.352  28.348  1.00  0.00    -0.203 F 
ATOM     76  F   UNL A   1      44.638  25.998  24.771  1.00  0.00    -0.200 F 
ATOM     77  C   UNL A   1      43.148  24.334  25.538  1.00  0.00     0.200 A 
ATOM     78  F   UNL A   1      41.634  22.708  26.341  1.00  0.00    -0.200 F 
ATOM     79  F   UNL A   1      43.507  23.526  24.532  1.00  0.00    -0.200 F 
ENDBRANCH  45  69
BRANCH  57  80
ATOM     80  C   UNL A   1      45.122  27.410  33.913  1.00  0.00     0.064 A 
ATOM     81  C   UNL A   1      46.333  28.111  33.835  1.00  0.00     0.173 A 
ATOM     82  C   UNL A   1      45.064  26.281  34.745  1.00  0.00     0.173 A 
ATOM     83  F   UNL A   1      46.439  29.188  33.042  1.00  0.00    -0.203 F 
ATOM     84  C   UNL A   1      47.447  27.694  34.557  1.00  0.00     0.198 A 
ATOM     85  C   UNL A   1      46.172  25.882  35.486  1.00  0.00     0.198 A 
ATOM     86  F   UNL A   1      43.923  25.584  34.860  1.00  0.00    -0.203 F 
ATOM     87  F   UNL A   1      48.603  28.362  34.447  1.00  0.00    -0.200 F 
ATOM     88  C   UNL A   1      47.363  26.588  35.389  1.00  0.00     0.200 A 
ATOM     89  F   UNL A   1      46.085  24.823  36.301  1.00  0.00    -0.200 F 
ATOM     90  F   UNL A   1      48.431  26.199  36.100  1.00  0.00    -0.200 F 
ENDBRANCH  57  80
ENDBRANCH  31  32
ENDBRANCH  23  26
ENDBRANCH  21  22
ENDBRANCH   1  21
TORSDOF 12
ENDMDL
