MODEL 1
REMARK VINA RESULT:     -12.9      0.000      0.000
REMARK SMILES C[C@@H]1C[C@@H](C)CN(S(=O)(=O)N2CC[C@H](C(=O)NCCCNC(=O)c3ccc(-c4c5nc(c(-c6c(F)c(F)c(F)c(F)c6F)c6ccc([nH]6)c(-c6c(F)c(F)c(F)c(F)c6F)c6nc(c(-c7c(F)c(F)c(F)c(F)c7F)c7ccc4[nH]7)C=C6)C=C5)cc3)[C@@H]2C)C1
REMARK SMILES IDX 19 1 18 2 17 3 15 4 16 5 14 7 11 8 12 9 87 10 13 11 88 12
REMARK SMILES IDX 8 13 9 14 10 15 7 16 1 17 2 18 3 19 89 20 4 21 6 22 5 23
REMARK SMILES IDX 20 24 21 25 22 26 23 28 24 29 25 30 86 31 26 32 85 33 27 34
REMARK SMILES IDX 28 35 29 36 79 37 30 38 84 39 78 40 80 41 31 42 83 43 77 44
REMARK SMILES IDX 76 45 32 47 64 48 44 49 63 50 45 51 48 52 62 53 81 54 46 55
REMARK SMILES IDX 47 56 61 58 82 59 49 60 33 61 34 62 42 63 35 64 36 65 40 66
REMARK SMILES IDX 43 67 37 68 38 69 41 70 39 71 65 72 66 73 74 74 67 75 68 76
REMARK SMILES IDX 72 77 75 78 69 79 70 80 73 81 71 82 50 83 51 84 59 85 52 86
REMARK SMILES IDX 53 87 57 88 60 89 54 90 55 91 58 92 56 93
REMARK H PARENT 17 6 21 27 80 46 48 57
REMARK Flexibility Score: inf
ROOT
ATOM      1  C   UNL A   1      38.015  19.814  24.996  1.00  0.00     0.042 C 
ENDROOT
BRANCH   1   2
ATOM      2  C   UNL A   1      36.973  20.903  24.850  1.00  0.00     0.117 C 
BRANCH   2   3
ATOM      3  N   UNL A   1      35.777  20.622  25.609  1.00  0.00    -0.356 N 
ATOM      4  C   UNL A   1      34.502  21.015  25.393  1.00  0.00     0.224 C 
ATOM      5  O   UNL A   1      33.639  20.593  26.168  1.00  0.00    -0.275 OA
ATOM      6  H   UNL A   1      35.912  20.059  26.406  1.00  0.00     0.163 HD
BRANCH   4   7
ATOM      7  C   UNL A   1      34.111  21.935  24.255  1.00  0.00     0.098 C 
ATOM      8  N   UNL A   1      32.828  23.958  24.014  1.00  0.00    -0.185 NA
ATOM      9  C   UNL A   1      31.907  22.847  23.716  1.00  0.00     0.105 C 
ATOM     10  C   UNL A   1      34.145  23.452  24.499  1.00  0.00     0.083 C 
ATOM     11  C   UNL A   1      32.785  21.619  23.561  1.00  0.00     0.032 C 
ATOM     12  C   UNL A   1      34.471  23.959  25.899  1.00  0.00     0.026 C 
BRANCH   8  13
ATOM     13  S   UNL A   1      32.743  25.287  22.989  1.00  0.00     0.282 S 
ATOM     14  O   UNL A   1      31.554  25.169  22.174  1.00  0.00    -0.195 OA
ATOM     15  O   UNL A   1      34.047  25.454  22.392  1.00  0.00    -0.195 OA
BRANCH  13  16
ATOM     16  N   UNL A   1      32.513  26.601  24.090  1.00  0.00    -0.188 NA
ATOM     17  C   UNL A   1      33.467  28.187  26.840  1.00  0.00     0.009 C 
ATOM     18  C   UNL A   1      33.749  28.455  25.359  1.00  0.00     0.001 C 
ATOM     19  C   UNL A   1      32.745  29.456  24.776  1.00  0.00     0.009 C 
ATOM     20  C   UNL A   1      33.842  27.152  24.537  1.00  0.00     0.106 C 
ATOM     21  C   UNL A   1      31.401  28.782  24.559  1.00  0.00     0.001 C 
ATOM     22  C   UNL A   1      31.607  27.652  23.569  1.00  0.00     0.106 C 
ATOM     23  C   UNL A   1      30.344  29.750  24.027  1.00  0.00     0.009 C 
ENDBRANCH  13  16
ENDBRANCH   8  13
ENDBRANCH   4   7
ENDBRANCH   2   3
ENDBRANCH   1   2
BRANCH   1  24
ATOM     24  C   UNL A   1      39.131  20.221  25.940  1.00  0.00     0.118 C 
BRANCH  24  25
ATOM     25  N   UNL A   1      40.175  19.205  26.014  1.00  0.00    -0.352 N 
ATOM     26  C   UNL A   1      41.530  19.352  26.132  1.00  0.00     0.251 C 
ATOM     27  H   UNL A   1      39.856  18.273  25.975  1.00  0.00     0.163 HD
ATOM     28  O   UNL A   1      42.275  18.398  25.935  1.00  0.00    -0.269 OA
BRANCH  26  29
ATOM     29  C   UNL A   1      42.085  20.669  26.489  1.00  0.00     0.039 A 
ATOM     30  C   UNL A   1      42.461  21.546  25.472  1.00  0.00     0.014 A 
ATOM     31  C   UNL A   1      42.227  21.032  27.831  1.00  0.00     0.014 A 
ATOM     32  C   UNL A   1      42.933  22.814  25.805  1.00  0.00     0.010 A 
ATOM     33  C   UNL A   1      42.590  22.329  28.156  1.00  0.00     0.010 A 
ATOM     34  C   UNL A   1      42.967  23.225  27.147  1.00  0.00    -0.014 A 
BRANCH  34  35
ATOM     35  C   UNL A   1      43.414  24.584  27.524  1.00  0.00     0.031 A 
ATOM     36  C   UNL A   1      42.399  25.625  27.905  1.00  0.00     0.074 A 
ATOM     37  C   UNL A   1      44.721  24.892  27.457  1.00  0.00     0.049 A 
ATOM     38  N   UNL A   1      42.582  26.882  28.220  1.00  0.00    -0.248 NA
ATOM     39  C   UNL A   1      40.989  25.208  27.898  1.00  0.00     0.031 C 
ATOM     40  C   UNL A   1      45.786  23.972  27.054  1.00  0.00     0.029 A 
ATOM     41  N   UNL A   1      45.377  26.065  27.725  1.00  0.00    -0.354 N 
ATOM     42  C   UNL A   1      41.312  27.405  28.427  1.00  0.00     0.074 A 
ATOM     43  C   UNL A   1      40.365  26.351  28.137  1.00  0.00     0.031 C 
ATOM     44  C   UNL A   1      46.967  24.602  27.147  1.00  0.00     0.029 A 
ATOM     45  C   UNL A   1      46.738  25.981  27.567  1.00  0.00     0.049 A 
ATOM     46  H   UNL A   1      44.916  26.889  28.005  1.00  0.00     0.167 HD
ATOM     47  C   UNL A   1      40.970  28.646  28.844  1.00  0.00     0.037 A 
ATOM     48  C   UNL A   1      47.690  26.915  27.744  1.00  0.00     0.037 A 
ATOM     49  C   UNL A   1      41.925  29.680  29.147  1.00  0.00     0.049 A 
ATOM     50  C   UNL A   1      47.282  28.294  28.184  1.00  0.00     0.074 A 
ATOM     51  C   UNL A   1      41.695  30.947  29.649  1.00  0.00     0.029 A 
ATOM     52  N   UNL A   1      43.297  29.563  28.964  1.00  0.00    -0.354 N 
ATOM     53  N   UNL A   1      46.087  28.757  28.460  1.00  0.00    -0.248 NA
ATOM     54  C   UNL A   1      48.360  29.280  28.340  1.00  0.00     0.031 C 
ATOM     55  C   UNL A   1      42.919  31.623  29.699  1.00  0.00     0.029 A 
ATOM     56  C   UNL A   1      43.921  30.753  29.303  1.00  0.00     0.049 A 
ATOM     57  H   UNL A   1      43.757  28.755  28.642  1.00  0.00     0.167 HD
ATOM     58  C   UNL A   1      46.269  30.075  28.856  1.00  0.00     0.074 A 
ATOM     59  C   UNL A   1      47.695  30.332  28.794  1.00  0.00     0.031 C 
ATOM     60  C   UNL A   1      45.343  30.990  29.238  1.00  0.00     0.037 A 
BRANCH  47  61
ATOM     61  C   UNL A   1      39.504  28.955  28.973  1.00  0.00     0.064 A 
ATOM     62  C   UNL A   1      38.825  28.853  30.199  1.00  0.00     0.173 A 
ATOM     63  C   UNL A   1      38.765  29.361  27.851  1.00  0.00     0.173 A 
ATOM     64  F   UNL A   1      39.480  28.458  31.302  1.00  0.00    -0.203 F 
ATOM     65  C   UNL A   1      37.457  29.098  30.285  1.00  0.00     0.198 A 
ATOM     66  C   UNL A   1      37.404  29.644  27.950  1.00  0.00     0.198 A 
ATOM     67  F   UNL A   1      39.360  29.482  26.655  1.00  0.00    -0.203 F 
ATOM     68  F   UNL A   1      36.820  28.920  31.450  1.00  0.00    -0.200 F 
ATOM     69  C   UNL A   1      36.749  29.498  29.163  1.00  0.00     0.200 A 
ATOM     70  F   UNL A   1      36.726  30.046  26.867  1.00  0.00    -0.200 F 
ATOM     71  F   UNL A   1      35.433  29.733  29.247  1.00  0.00    -0.200 F 
ENDBRANCH  47  61
BRANCH  48  72
ATOM     72  C   UNL A   1      49.120  26.561  27.549  1.00  0.00     0.064 A 
ATOM     73  C   UNL A   1      49.932  26.244  28.647  1.00  0.00     0.173 A 
ATOM     74  C   UNL A   1      49.701  26.519  26.274  1.00  0.00     0.173 A 
ATOM     75  F   UNL A   1      49.425  26.287  29.888  1.00  0.00    -0.203 F 
ATOM     76  C   UNL A   1      51.275  25.916  28.479  1.00  0.00     0.198 A 
ATOM     77  C   UNL A   1      51.037  26.162  26.104  1.00  0.00     0.198 A 
ATOM     78  F   UNL A   1      48.967  26.806  25.190  1.00  0.00    -0.203 F 
ATOM     79  F   UNL A   1      52.039  25.660  29.550  1.00  0.00    -0.200 F 
ATOM     80  C   UNL A   1      51.825  25.869  27.207  1.00  0.00     0.200 A 
ATOM     81  F   UNL A   1      51.561  26.099  24.872  1.00  0.00    -0.200 F 
ATOM     82  F   UNL A   1      53.116  25.547  27.045  1.00  0.00    -0.200 F 
ENDBRANCH  48  72
BRANCH  60  83
ATOM     83  C   UNL A   1      45.844  32.341  29.661  1.00  0.00     0.064 A 
ATOM     84  C   UNL A   1      45.950  33.409  28.758  1.00  0.00     0.173 A 
ATOM     85  C   UNL A   1      46.187  32.580  31.001  1.00  0.00     0.173 A 
ATOM     86  F   UNL A   1      45.649  33.230  27.462  1.00  0.00    -0.203 F 
ATOM     87  C   UNL A   1      46.410  34.655  29.174  1.00  0.00     0.198 A 
ATOM     88  C   UNL A   1      46.609  33.838  31.421  1.00  0.00     0.198 A 
ATOM     89  F   UNL A   1      46.097  31.596  31.909  1.00  0.00    -0.203 F 
ATOM     90  F   UNL A   1      46.557  35.644  28.281  1.00  0.00    -0.200 F 
ATOM     91  C   UNL A   1      46.730  34.871  30.505  1.00  0.00     0.200 A 
ATOM     92  F   UNL A   1      46.900  34.049  32.712  1.00  0.00    -0.200 F 
ATOM     93  F   UNL A   1      47.161  36.075  30.905  1.00  0.00    -0.200 F 
ENDBRANCH  60  83
ENDBRANCH  34  35
ENDBRANCH  26  29
ENDBRANCH  24  25
ENDBRANCH   1  24
TORSDOF 12
ENDMDL
MODEL 2
REMARK VINA RESULT:     -12.9      0.155      1.599
REMARK SMILES C[C@@H]1C[C@@H](C)CN(S(=O)(=O)N2CC[C@H](C(=O)NCCCNC(=O)c3ccc(-c4c5nc(c(-c6c(F)c(F)c(F)c(F)c6F)c6ccc([nH]6)c(-c6c(F)c(F)c(F)c(F)c6F)c6nc(c(-c7c(F)c(F)c(F)c(F)c7F)c7ccc4[nH]7)C=C6)C=C5)cc3)[C@@H]2C)C1
REMARK SMILES IDX 19 1 18 2 17 3 15 4 16 5 14 7 11 8 12 9 87 10 13 11 88 12
REMARK SMILES IDX 8 13 9 14 10 15 7 16 1 17 2 18 3 19 89 20 4 21 6 22 5 23
REMARK SMILES IDX 20 24 21 25 22 26 23 28 24 29 25 30 86 31 26 32 85 33 27 34
REMARK SMILES IDX 28 35 29 36 79 37 30 38 84 39 78 40 80 41 31 42 83 43 77 44
REMARK SMILES IDX 76 45 32 47 64 48 44 49 63 50 45 51 48 52 62 53 81 54 46 55
REMARK SMILES IDX 47 56 61 58 82 59 49 60 33 61 34 62 42 63 35 64 36 65 40 66
REMARK SMILES IDX 43 67 37 68 38 69 41 70 39 71 65 72 66 73 74 74 67 75 68 76
REMARK SMILES IDX 72 77 75 78 69 79 70 80 73 81 71 82 50 83 51 84 59 85 52 86
REMARK SMILES IDX 53 87 57 88 60 89 54 90 55 91 58 92 56 93
REMARK H PARENT 17 6 21 27 80 46 48 57
REMARK Flexibility Score: inf
ROOT
ATOM      1  C   UNL A   1      37.918  19.776  24.988  1.00  0.00     0.042 C 
ENDROOT
BRANCH   1   2
ATOM      2  C   UNL A   1      36.857  20.846  24.832  1.00  0.00     0.117 C 
BRANCH   2   3
ATOM      3  N   UNL A   1      35.652  20.532  25.562  1.00  0.00    -0.356 N 
ATOM      4  C   UNL A   1      34.375  20.911  25.329  1.00  0.00     0.224 C 
ATOM      5  O   UNL A   1      33.504  20.461  26.079  1.00  0.00    -0.275 OA
ATOM      6  H   UNL A   1      35.779  19.955  26.351  1.00  0.00     0.163 HD
BRANCH   4   7
ATOM      7  C   UNL A   1      33.992  21.848  24.202  1.00  0.00     0.098 C 
ATOM      8  N   UNL A   1      32.794  23.926  23.997  1.00  0.00    -0.185 NA
ATOM      9  C   UNL A   1      31.816  22.857  23.727  1.00  0.00     0.105 C 
ATOM     10  C   UNL A   1      34.100  23.362  24.444  1.00  0.00     0.083 C 
ATOM     11  C   UNL A   1      32.634  21.591  23.547  1.00  0.00     0.032 C 
ATOM     12  C   UNL A   1      34.488  23.853  25.834  1.00  0.00     0.026 C 
BRANCH   8  13
ATOM     13  S   UNL A   1      32.738  25.258  22.974  1.00  0.00     0.282 S 
ATOM     14  O   UNL A   1      31.547  25.166  22.158  1.00  0.00    -0.195 OA
ATOM     15  O   UNL A   1      34.045  25.398  22.378  1.00  0.00    -0.195 OA
BRANCH  13  16
ATOM     16  N   UNL A   1      32.534  26.575  24.077  1.00  0.00    -0.188 NA
ATOM     17  C   UNL A   1      33.547  28.160  26.807  1.00  0.00     0.009 C 
ATOM     18  C   UNL A   1      33.804  28.424  25.320  1.00  0.00     0.001 C 
ATOM     19  C   UNL A   1      32.794  29.429  24.754  1.00  0.00     0.009 C 
ATOM     20  C   UNL A   1      33.874  27.120  24.499  1.00  0.00     0.106 C 
ATOM     21  C   UNL A   1      31.443  28.762  24.563  1.00  0.00     0.001 C 
ATOM     22  C   UNL A   1      31.625  27.629  23.571  1.00  0.00     0.106 C 
ATOM     23  C   UNL A   1      30.382  29.735  24.048  1.00  0.00     0.009 C 
ENDBRANCH  13  16
ENDBRANCH   8  13
ENDBRANCH   4   7
ENDBRANCH   2   3
ENDBRANCH   1   2
BRANCH   1  24
ATOM     24  C   UNL A   1      39.118  20.277  25.767  1.00  0.00     0.118 C 
BRANCH  24  25
ATOM     25  N   UNL A   1      40.144  19.248  25.902  1.00  0.00    -0.352 N 
ATOM     26  C   UNL A   1      41.493  19.379  26.091  1.00  0.00     0.251 C 
ATOM     27  H   UNL A   1      39.816  18.320  25.850  1.00  0.00     0.163 HD
ATOM     28  O   UNL A   1      42.235  18.415  25.939  1.00  0.00    -0.269 OA
BRANCH  26  29
ATOM     29  C   UNL A   1      42.044  20.691  26.471  1.00  0.00     0.039 A 
ATOM     30  C   UNL A   1      42.415  21.588  25.469  1.00  0.00     0.014 A 
ATOM     31  C   UNL A   1      42.188  21.030  27.819  1.00  0.00     0.014 A 
ATOM     32  C   UNL A   1      42.883  22.851  25.824  1.00  0.00     0.010 A 
ATOM     33  C   UNL A   1      42.548  22.322  28.167  1.00  0.00     0.010 A 
ATOM     34  C   UNL A   1      42.920  23.237  27.174  1.00  0.00    -0.014 A 
BRANCH  34  35
ATOM     35  C   UNL A   1      43.363  24.591  27.575  1.00  0.00     0.031 A 
ATOM     36  C   UNL A   1      42.344  25.633  27.938  1.00  0.00     0.074 A 
ATOM     37  C   UNL A   1      44.673  24.893  27.545  1.00  0.00     0.049 A 
ATOM     38  N   UNL A   1      42.524  26.887  28.270  1.00  0.00    -0.248 NA
ATOM     39  C   UNL A   1      40.932  25.223  27.890  1.00  0.00     0.031 C 
ATOM     40  C   UNL A   1      45.744  23.971  27.162  1.00  0.00     0.029 A 
ATOM     41  N   UNL A   1      45.327  26.060  27.841  1.00  0.00    -0.354 N 
ATOM     42  C   UNL A   1      41.252  27.414  28.447  1.00  0.00     0.074 A 
ATOM     43  C   UNL A   1      40.308  26.368  28.124  1.00  0.00     0.031 C 
ATOM     44  C   UNL A   1      46.925  24.594  27.291  1.00  0.00     0.029 A 
ATOM     45  C   UNL A   1      46.691  25.970  27.718  1.00  0.00     0.049 A 
ATOM     46  H   UNL A   1      44.863  26.884  28.116  1.00  0.00     0.167 HD
ATOM     47  C   UNL A   1      40.905  28.653  28.866  1.00  0.00     0.037 A 
ATOM     48  C   UNL A   1      47.643  26.898  27.927  1.00  0.00     0.037 A 
ATOM     49  C   UNL A   1      41.857  29.679  29.204  1.00  0.00     0.049 A 
ATOM     50  C   UNL A   1      47.230  28.276  28.369  1.00  0.00     0.074 A 
ATOM     51  C   UNL A   1      41.619  30.944  29.711  1.00  0.00     0.029 A 
ATOM     52  N   UNL A   1      43.232  29.558  29.056  1.00  0.00    -0.354 N 
ATOM     53  N   UNL A   1      46.031  28.742  28.618  1.00  0.00    -0.248 NA
ATOM     54  C   UNL A   1      48.308  29.254  28.562  1.00  0.00     0.031 C 
ATOM     55  C   UNL A   1      42.845  31.613  29.800  1.00  0.00     0.029 A 
ATOM     56  C   UNL A   1      43.853  30.741  29.422  1.00  0.00     0.049 A 
ATOM     57  H   UNL A   1      43.697  28.750  28.739  1.00  0.00     0.167 HD
ATOM     58  C   UNL A   1      46.209  30.055  29.030  1.00  0.00     0.074 A 
ATOM     59  C   UNL A   1      47.637  30.305  29.008  1.00  0.00     0.031 C 
ATOM     60  C   UNL A   1      45.278  30.971  29.396  1.00  0.00     0.037 A 
BRANCH  47  61
ATOM     61  C   UNL A   1      39.438  28.968  28.960  1.00  0.00     0.064 A 
ATOM     62  C   UNL A   1      38.690  29.377  27.843  1.00  0.00     0.173 A 
ATOM     63  C   UNL A   1      38.767  28.860  30.188  1.00  0.00     0.173 A 
ATOM     64  F   UNL A   1      39.281  29.508  26.645  1.00  0.00    -0.203 F 
ATOM     65  C   UNL A   1      37.343  29.710  27.963  1.00  0.00     0.198 A 
ATOM     66  C   UNL A   1      37.410  29.156  30.295  1.00  0.00     0.198 A 
ATOM     67  F   UNL A   1      39.428  28.470  31.288  1.00  0.00    -0.203 F 
ATOM     68  F   UNL A   1      36.671  30.168  26.897  1.00  0.00    -0.200 F 
ATOM     69  C   UNL A   1      36.703  29.593  29.186  1.00  0.00     0.200 A 
ATOM     70  F   UNL A   1      36.790  29.027  31.477  1.00  0.00    -0.200 F 
ATOM     71  F   UNL A   1      35.408  29.914  29.300  1.00  0.00    -0.200 F 
ENDBRANCH  47  61
BRANCH  48  72
ATOM     72  C   UNL A   1      49.076  26.539  27.767  1.00  0.00     0.064 A 
ATOM     73  C   UNL A   1      49.651  26.451  26.491  1.00  0.00     0.173 A 
ATOM     74  C   UNL A   1      49.901  26.290  28.873  1.00  0.00     0.173 A 
ATOM     75  F   UNL A   1      48.897  26.664  25.402  1.00  0.00    -0.203 F 
ATOM     76  C   UNL A   1      50.991  26.110  26.327  1.00  0.00     0.198 A 
ATOM     77  C   UNL A   1      51.249  25.979  28.708  1.00  0.00     0.198 A 
ATOM     78  F   UNL A   1      49.403  26.369  30.115  1.00  0.00    -0.203 F 
ATOM     79  F   UNL A   1      51.503  25.990  25.094  1.00  0.00    -0.200 F 
ATOM     80  C   UNL A   1      51.791  25.880  27.436  1.00  0.00     0.200 A 
ATOM     81  F   UNL A   1      52.024  25.776  29.783  1.00  0.00    -0.200 F 
ATOM     82  F   UNL A   1      53.083  25.559  27.278  1.00  0.00    -0.200 F 
ENDBRANCH  48  72
BRANCH  60  83
ATOM     83  C   UNL A   1      45.774  32.316  29.844  1.00  0.00     0.064 A 
ATOM     84  C   UNL A   1      45.913  33.390  28.953  1.00  0.00     0.173 A 
ATOM     85  C   UNL A   1      46.077  32.543  31.196  1.00  0.00     0.173 A 
ATOM     86  F   UNL A   1      45.651  33.222  27.647  1.00  0.00    -0.203 F 
ATOM     87  C   UNL A   1      46.368  34.630  29.392  1.00  0.00     0.198 A 
ATOM     88  C   UNL A   1      46.494  33.795  31.638  1.00  0.00     0.198 A 
ATOM     89  F   UNL A   1      45.954  31.553  32.093  1.00  0.00    -0.203 F 
ATOM     90  F   UNL A   1      46.548  35.625  28.511  1.00  0.00    -0.200 F 
ATOM     91  C   UNL A   1      46.649  34.834  30.734  1.00  0.00     0.200 A 
ATOM     92  F   UNL A   1      46.747  33.994  32.938  1.00  0.00    -0.200 F 
ATOM     93  F   UNL A   1      47.076  36.033  31.156  1.00  0.00    -0.200 F 
ENDBRANCH  60  83
ENDBRANCH  34  35
ENDBRANCH  26  29
ENDBRANCH  24  25
ENDBRANCH   1  24
TORSDOF 12
ENDMDL
MODEL 3
REMARK VINA RESULT:     -12.8      5.295     10.659
REMARK SMILES C[C@@H]1C[C@@H](C)CN(S(=O)(=O)N2CC[C@H](C(=O)NCCCNC(=O)c3ccc(-c4c5nc(c(-c6c(F)c(F)c(F)c(F)c6F)c6ccc([nH]6)c(-c6c(F)c(F)c(F)c(F)c6F)c6nc(c(-c7c(F)c(F)c(F)c(F)c7F)c7ccc4[nH]7)C=C6)C=C5)cc3)[C@@H]2C)C1
REMARK SMILES IDX 19 1 18 2 17 3 15 4 16 5 14 7 11 8 12 9 87 10 13 11 88 12
REMARK SMILES IDX 8 13 9 14 10 15 7 16 1 17 2 18 3 19 89 20 4 21 6 22 5 23
REMARK SMILES IDX 20 24 21 25 22 26 23 28 24 29 25 30 86 31 26 32 85 33 27 34
REMARK SMILES IDX 28 35 29 36 79 37 30 38 84 39 78 40 80 41 31 42 83 43 77 44
REMARK SMILES IDX 76 45 32 47 64 48 44 49 63 50 45 51 48 52 62 53 81 54 46 55
REMARK SMILES IDX 47 56 61 58 82 59 49 60 33 61 34 62 42 63 35 64 36 65 40 66
REMARK SMILES IDX 43 67 37 68 38 69 41 70 39 71 65 72 66 73 74 74 67 75 68 76
REMARK SMILES IDX 72 77 75 78 69 79 70 80 73 81 71 82 50 83 51 84 59 85 52 86
REMARK SMILES IDX 53 87 57 88 60 89 54 90 55 91 58 92 56 93
REMARK H PARENT 17 6 21 27 80 46 48 57
REMARK Flexibility Score: inf
ROOT
ATOM      1  C   UNL A   1      31.403  31.857  26.501  1.00  0.00     0.042 C 
ENDROOT
BRANCH   1   2
ATOM      2  C   UNL A   1      31.565  30.375  26.237  1.00  0.00     0.117 C 
BRANCH   2   3
ATOM      3  N   UNL A   1      31.658  30.078  24.826  1.00  0.00    -0.356 N 
ATOM      4  C   UNL A   1      31.404  28.925  24.166  1.00  0.00     0.224 C 
ATOM      5  O   UNL A   1      31.511  28.942  22.936  1.00  0.00    -0.275 OA
ATOM      6  H   UNL A   1      31.952  30.829  24.260  1.00  0.00     0.163 HD
BRANCH   4   7
ATOM      7  C   UNL A   1      31.005  27.647  24.873  1.00  0.00     0.098 C 
ATOM      8  N   UNL A   1      31.655  25.331  24.784  1.00  0.00    -0.185 NA
ATOM      9  C   UNL A   1      30.481  25.464  23.904  1.00  0.00     0.105 C 
ATOM     10  C   UNL A   1      32.111  26.662  25.280  1.00  0.00     0.083 C 
ATOM     11  C   UNL A   1      29.895  26.831  24.208  1.00  0.00     0.032 C 
ATOM     12  C   UNL A   1      33.547  26.964  24.865  1.00  0.00     0.026 C 
BRANCH   8  13
ATOM     13  S   UNL A   1      31.680  23.985  25.790  1.00  0.00     0.282 S 
ATOM     14  O   UNL A   1      30.653  23.063  25.355  1.00  0.00    -0.195 OA
ATOM     15  O   UNL A   1      31.730  24.464  27.150  1.00  0.00    -0.195 OA
BRANCH  13  16
ATOM     16  N   UNL A   1      33.219  23.278  25.440  1.00  0.00    -0.188 NA
ATOM     17  C   UNL A   1      36.517  23.600  25.316  1.00  0.00     0.009 C 
ATOM     18  C   UNL A   1      35.592  22.969  26.362  1.00  0.00     0.001 C 
ATOM     19  C   UNL A   1      35.435  21.463  26.126  1.00  0.00     0.009 C 
ATOM     20  C   UNL A   1      34.239  23.704  26.463  1.00  0.00     0.106 C 
ATOM     21  C   UNL A   1      34.521  21.212  24.939  1.00  0.00     0.001 C 
ATOM     22  C   UNL A   1      33.165  21.808  25.268  1.00  0.00     0.106 C 
ATOM     23  C   UNL A   1      34.370  19.724  24.626  1.00  0.00     0.009 C 
ENDBRANCH  13  16
ENDBRANCH   8  13
ENDBRANCH   4   7
ENDBRANCH   2   3
ENDBRANCH   1   2
BRANCH   1  24
ATOM     24  C   UNL A   1      32.641  32.457  27.139  1.00  0.00     0.118 C 
BRANCH  24  25
ATOM     25  N   UNL A   1      32.453  33.866  27.467  1.00  0.00    -0.352 N 
ATOM     26  C   UNL A   1      33.002  34.608  28.478  1.00  0.00     0.251 C 
ATOM     27  H   UNL A   1      31.840  34.356  26.872  1.00  0.00     0.163 HD
ATOM     28  O   UNL A   1      32.546  35.713  28.751  1.00  0.00    -0.269 OA
BRANCH  26  29
ATOM     29  C   UNL A   1      34.139  34.062  29.238  1.00  0.00     0.039 A 
ATOM     30  C   UNL A   1      33.889  33.269  30.358  1.00  0.00     0.014 A 
ATOM     31  C   UNL A   1      35.449  34.336  28.837  1.00  0.00     0.014 A 
ATOM     32  C   UNL A   1      34.961  32.705  31.047  1.00  0.00     0.010 A 
ATOM     33  C   UNL A   1      36.506  33.685  29.455  1.00  0.00     0.010 A 
ATOM     34  C   UNL A   1      36.273  32.881  30.578  1.00  0.00    -0.014 A 
BRANCH  34  35
ATOM     35  C   UNL A   1      37.424  32.250  31.260  1.00  0.00     0.031 A 
ATOM     36  C   UNL A   1      38.157  31.119  30.597  1.00  0.00     0.074 A 
ATOM     37  C   UNL A   1      37.761  32.653  32.498  1.00  0.00     0.049 A 
ATOM     38  N   UNL A   1      39.157  30.403  31.046  1.00  0.00    -0.248 NA
ATOM     39  C   UNL A   1      37.681  30.714  29.265  1.00  0.00     0.031 C 
ATOM     40  C   UNL A   1      37.088  33.710  33.255  1.00  0.00     0.029 A 
ATOM     41  N   UNL A   1      38.753  32.221  33.339  1.00  0.00    -0.354 N 
ATOM     42  C   UNL A   1      39.411  29.456  30.062  1.00  0.00     0.074 A 
ATOM     43  C   UNL A   1      38.422  29.643  29.025  1.00  0.00     0.031 C 
ATOM     44  C   UNL A   1      37.716  33.876  34.429  1.00  0.00     0.029 A 
ATOM     45  C   UNL A   1      38.801  32.906  34.527  1.00  0.00     0.049 A 
ATOM     46  H   UNL A   1      39.372  31.489  33.112  1.00  0.00     0.167 HD
ATOM     47  C   UNL A   1      40.398  28.531  30.021  1.00  0.00     0.037 A 
ATOM     48  C   UNL A   1      39.633  32.763  35.576  1.00  0.00     0.037 A 
ATOM     49  C   UNL A   1      41.388  28.369  31.053  1.00  0.00     0.049 A 
ATOM     50  C   UNL A   1      40.705  31.710  35.515  1.00  0.00     0.074 A 
ATOM     51  C   UNL A   1      42.476  27.516  31.080  1.00  0.00     0.029 A 
ATOM     52  N   UNL A   1      41.400  29.073  32.250  1.00  0.00    -0.354 N 
ATOM     53  N   UNL A   1      40.995  30.876  34.547  1.00  0.00    -0.248 NA
ATOM     54  C   UNL A   1      41.570  31.585  36.696  1.00  0.00     0.031 C 
ATOM     55  C   UNL A   1      43.103  27.652  32.323  1.00  0.00     0.029 A 
ATOM     56  C   UNL A   1      42.453  28.643  33.040  1.00  0.00     0.049 A 
ATOM     57  H   UNL A   1      40.756  29.775  32.499  1.00  0.00     0.167 HD
ATOM     58  C   UNL A   1      42.094  30.149  34.983  1.00  0.00     0.074 A 
ATOM     59  C   UNL A   1      42.425  30.653  36.302  1.00  0.00     0.031 C 
ATOM     60  C   UNL A   1      42.770  29.158  34.351  1.00  0.00     0.037 A 
BRANCH  47  61
ATOM     61  C   UNL A   1      40.436  27.612  28.831  1.00  0.00     0.064 A 
ATOM     62  C   UNL A   1      41.224  27.887  27.701  1.00  0.00     0.173 A 
ATOM     63  C   UNL A   1      39.672  26.435  28.821  1.00  0.00     0.173 A 
ATOM     64  F   UNL A   1      41.967  29.003  27.651  1.00  0.00    -0.203 F 
ATOM     65  C   UNL A   1      41.207  27.045  26.592  1.00  0.00     0.198 A 
ATOM     66  C   UNL A   1      39.689  25.575  27.725  1.00  0.00     0.198 A 
ATOM     67  F   UNL A   1      38.903  26.117  29.874  1.00  0.00    -0.203 F 
ATOM     68  F   UNL A   1      41.910  27.370  25.498  1.00  0.00    -0.200 F 
ATOM     69  C   UNL A   1      40.446  25.888  26.606  1.00  0.00     0.200 A 
ATOM     70  F   UNL A   1      38.962  24.449  27.748  1.00  0.00    -0.200 F 
ATOM     71  F   UNL A   1      40.430  25.080  25.538  1.00  0.00    -0.200 F 
ENDBRANCH  47  61
BRANCH  48  72
ATOM     72  C   UNL A   1      39.510  33.670  36.747  1.00  0.00     0.064 A 
ATOM     73  C   UNL A   1      40.170  34.906  36.764  1.00  0.00     0.173 A 
ATOM     74  C   UNL A   1      38.728  33.333  37.861  1.00  0.00     0.173 A 
ATOM     75  F   UNL A   1      40.943  35.266  35.728  1.00  0.00    -0.203 F 
ATOM     76  C   UNL A   1      40.068  35.763  37.857  1.00  0.00     0.198 A 
ATOM     77  C   UNL A   1      38.602  34.203  38.941  1.00  0.00     0.198 A 
ATOM     78  F   UNL A   1      38.069  32.165  37.892  1.00  0.00    -0.203 F 
ATOM     79  F   UNL A   1      40.745  36.920  37.865  1.00  0.00    -0.200 F 
ATOM     80  C   UNL A   1      39.279  35.413  38.943  1.00  0.00     0.200 A 
ATOM     81  F   UNL A   1      37.824  33.871  39.980  1.00  0.00    -0.200 F 
ATOM     82  F   UNL A   1      39.175  36.241  39.992  1.00  0.00    -0.200 F 
ENDBRANCH  48  72
BRANCH  60  83
ATOM     83  C   UNL A   1      43.963  28.579  35.057  1.00  0.00     0.064 A 
ATOM     84  C   UNL A   1      45.246  29.128  34.917  1.00  0.00     0.173 A 
ATOM     85  C   UNL A   1      43.810  27.480  35.916  1.00  0.00     0.173 A 
ATOM     86  F   UNL A   1      45.448  30.170  34.096  1.00  0.00    -0.203 F 
ATOM     87  C   UNL A   1      46.336  28.579  35.587  1.00  0.00     0.198 A 
ATOM     88  C   UNL A   1      44.896  26.958  36.615  1.00  0.00     0.198 A 
ATOM     89  F   UNL A   1      42.604  26.921  36.093  1.00  0.00    -0.203 F 
ATOM     90  F   UNL A   1      47.562  29.085  35.393  1.00  0.00    -0.200 F 
ATOM     91  C   UNL A   1      46.159  27.502  36.441  1.00  0.00     0.200 A 
ATOM     92  F   UNL A   1      44.718  25.930  37.454  1.00  0.00    -0.200 F 
ATOM     93  F   UNL A   1      47.208  26.983  37.094  1.00  0.00    -0.200 F 
ENDBRANCH  60  83
ENDBRANCH  34  35
ENDBRANCH  26  29
ENDBRANCH  24  25
ENDBRANCH   1  24
TORSDOF 12
ENDMDL
