MODEL 1
REMARK VINA RESULT:     -13.1      0.000      0.000
REMARK SMILES O=C(C[NH+]1CCN(c2ncc(C(F)(F)F)cc2Cl)CC1)NCCCNC(=O)c1ccc(-c2c3nc(c(-c4c(F)c(F)c(F)c(F)c4F)c4ccc([nH]4)c(-c4c(F)c(F)c(F)c(F)c4F)c4nc(c(-c5c(F)c(F)c(F)c(F)c5F)c5ccc2[nH]5)C=C4)C=C3)cc1
REMARK SMILES IDX 22 1 21 2 1 3 2 4 3 6 4 7 5 8 20 9 6 11 19 12 7 13 8 14 9 15
REMARK SMILES IDX 17 16 10 17 16 18 18 19 11 20 12 21 13 22 14 23 15 24 23 25
REMARK SMILES IDX 24 26 25 27 26 28 27 30 28 31 29 32 90 33 30 34 89 35 31 36
REMARK SMILES IDX 32 37 33 38 83 39 34 40 88 41 82 42 84 43 35 44 87 45 81 46
REMARK SMILES IDX 80 47 36 49 68 50 48 51 67 52 49 53 52 54 66 55 85 56 50 57
REMARK SMILES IDX 51 58 65 60 86 61 53 62 37 63 38 64 46 65 39 66 40 67 44 68
REMARK SMILES IDX 47 69 41 70 42 71 45 72 43 73 69 74 70 75 78 76 71 77 72 78
REMARK SMILES IDX 76 79 79 80 73 81 74 82 77 83 75 84 54 85 55 86 63 87 56 88
REMARK SMILES IDX 57 89 61 90 64 91 58 92 59 93 62 94 60 95
REMARK H PARENT 21 5 4 10 25 29 84 48 52 59
REMARK Flexibility Score: inf
ROOT
ATOM      1  C   UNL A   1      31.420  28.825  25.026  1.00  0.00     0.118 C 
ENDROOT
BRANCH   1   2
ATOM      2  N   UNL A   1      32.048  27.538  25.234  1.00  0.00    -0.351 N 
ATOM      3  O   UNL A   1      31.032  27.099  27.243  1.00  0.00    -0.269 OA
ATOM      4  C   UNL A   1      31.731  26.732  26.303  1.00  0.00     0.275 C 
ATOM      5  H   UNL A   1      32.725  27.230  24.588  1.00  0.00     0.163 HD
BRANCH   4   6
ATOM      6  C   UNL A   1      32.322  25.322  26.238  1.00  0.00     0.363 C 
BRANCH   6   7
ATOM      7  N   UNL A   1      31.319  24.268  25.937  1.00  0.00    -0.324 N 
ATOM      8  C   UNL A   1      31.540  23.780  24.535  1.00  0.00     0.284 C 
ATOM      9  C   UNL A   1      31.394  23.083  26.841  1.00  0.00     0.284 C 
ATOM     10  H   UNL A   1      30.403  24.697  26.069  1.00  0.00     0.348 HD
ATOM     11  C   UNL A   1      32.779  22.854  24.313  1.00  0.00     0.179 C 
ATOM     12  C   UNL A   1      32.666  22.226  26.697  1.00  0.00     0.179 C 
ATOM     13  N   UNL A   1      32.752  21.790  25.311  1.00  0.00    -0.344 N 
BRANCH  13  14
ATOM     14  C   UNL A   1      33.137  20.513  24.987  1.00  0.00     0.147 A 
ATOM     15  N   UNL A   1      32.153  19.601  24.792  1.00  0.00    -0.237 NA
ATOM     16  C   UNL A   1      34.489  20.129  24.913  1.00  0.00     0.084 A 
ATOM     17  C   UNL A   1      32.499  18.324  24.496  1.00  0.00     0.126 A 
ATOM     18  C   UNL A   1      34.818  18.805  24.625  1.00  0.00     0.039 A 
ATOM     19  Cl  UNL A   1      35.804  21.194  25.283  1.00  0.00    -0.080 Cl
ATOM     20  C   UNL A   1      33.806  17.873  24.412  1.00  0.00     0.075 A 
BRANCH  20  21
ATOM     21  C   UNL A   1      34.091  16.434  24.123  1.00  0.00     0.417 C 
ATOM     22  F   UNL A   1      35.148  15.958  24.836  1.00  0.00    -0.166 F 
ATOM     23  F   UNL A   1      33.040  15.624  24.420  1.00  0.00    -0.166 F 
ATOM     24  F   UNL A   1      34.388  16.196  22.815  1.00  0.00    -0.166 F 
ENDBRANCH  20  21
ENDBRANCH  13  14
ENDBRANCH   6   7
ENDBRANCH   4   6
ENDBRANCH   1   2
BRANCH   1  25
ATOM     25  C   UNL A   1      32.358  29.984  25.317  1.00  0.00     0.042 C 
BRANCH  25  26
ATOM     26  C   UNL A   1      32.320  30.452  26.766  1.00  0.00     0.118 C 
BRANCH  26  27
ATOM     27  N   UNL A   1      32.346  31.904  26.900  1.00  0.00    -0.352 N 
ATOM     28  C   UNL A   1      33.259  32.721  27.518  1.00  0.00     0.251 C 
ATOM     29  H   UNL A   1      31.588  32.371  26.481  1.00  0.00     0.163 HD
ATOM     30  O   UNL A   1      33.019  33.920  27.649  1.00  0.00    -0.269 OA
BRANCH  28  31
ATOM     31  C   UNL A   1      34.517  32.164  28.058  1.00  0.00     0.039 A 
ATOM     32  C   UNL A   1      35.638  32.995  28.143  1.00  0.00     0.014 A 
ATOM     33  C   UNL A   1      34.596  30.837  28.485  1.00  0.00     0.014 A 
ATOM     34  C   UNL A   1      36.808  32.521  28.742  1.00  0.00     0.010 A 
ATOM     35  C   UNL A   1      35.734  30.392  29.153  1.00  0.00     0.010 A 
ATOM     36  C   UNL A   1      36.846  31.234  29.300  1.00  0.00    -0.014 A 
BRANCH  36  37
ATOM     37  C   UNL A   1      38.023  30.765  30.077  1.00  0.00     0.031 A 
ATOM     38  C   UNL A   1      38.983  29.773  29.482  1.00  0.00     0.074 A 
ATOM     39  C   UNL A   1      38.182  31.175  31.350  1.00  0.00     0.049 A 
ATOM     40  N   UNL A   1      40.011  29.182  30.037  1.00  0.00    -0.248 NA
ATOM     41  C   UNL A   1      38.741  29.376  28.087  1.00  0.00     0.031 C 
ATOM     42  C   UNL A   1      37.296  32.103  32.056  1.00  0.00     0.029 A 
ATOM     43  N   UNL A   1      39.136  30.854  32.285  1.00  0.00    -0.354 N 
ATOM     44  C   UNL A   1      40.531  28.338  29.065  1.00  0.00     0.074 A 
ATOM     45  C   UNL A   1      39.676  28.454  27.903  1.00  0.00     0.031 C 
ATOM     46  C   UNL A   1      37.757  32.290  33.303  1.00  0.00     0.029 A 
ATOM     47  C   UNL A   1      38.941  31.460  33.502  1.00  0.00     0.049 A 
ATOM     48  H   UNL A   1      39.888  30.246  32.099  1.00  0.00     0.167 HD
ATOM     49  C   UNL A   1      41.634  27.553  29.129  1.00  0.00     0.037 A 
ATOM     50  C   UNL A   1      39.627  31.346  34.655  1.00  0.00     0.037 A 
ATOM     51  C   UNL A   1      42.490  27.450  30.284  1.00  0.00     0.049 A 
ATOM     52  C   UNL A   1      40.827  30.440  34.710  1.00  0.00     0.074 A 
ATOM     53  C   UNL A   1      43.663  26.728  30.426  1.00  0.00     0.029 A 
ATOM     54  N   UNL A   1      42.260  28.080  31.498  1.00  0.00    -0.354 N 
ATOM     55  N   UNL A   1      41.351  29.701  33.763  1.00  0.00    -0.248 NA
ATOM     56  C   UNL A   1      41.531  30.353  35.997  1.00  0.00     0.031 C 
ATOM     57  C   UNL A   1      44.110  26.873  31.743  1.00  0.00     0.029 A 
ATOM     58  C   UNL A   1      43.251  27.735  32.405  1.00  0.00     0.049 A 
ATOM     59  H   UNL A   1      41.505  28.682  31.688  1.00  0.00     0.167 HD
ATOM     60  C   UNL A   1      42.458  29.083  34.328  1.00  0.00     0.074 A 
ATOM     61  C   UNL A   1      42.542  29.550  35.696  1.00  0.00     0.031 C 
ATOM     62  C   UNL A   1      43.325  28.206  33.765  1.00  0.00     0.037 A 
BRANCH  49  63
ATOM     63  C   UNL A   1      41.979  26.736  27.917  1.00  0.00     0.064 A 
ATOM     64  C   UNL A   1      42.904  27.188  26.962  1.00  0.00     0.173 A 
ATOM     65  C   UNL A   1      41.410  25.468  27.728  1.00  0.00     0.173 A 
ATOM     66  F   UNL A   1      43.471  28.397  27.090  1.00  0.00    -0.203 F 
ATOM     67  C   UNL A   1      43.224  26.413  25.850  1.00  0.00     0.198 A 
ATOM     68  C   UNL A   1      41.757  24.682  26.632  1.00  0.00     0.198 A 
ATOM     69  F   UNL A   1      40.525  24.984  28.612  1.00  0.00    -0.203 F 
ATOM     70  F   UNL A   1      44.072  26.887  24.927  1.00  0.00    -0.200 F 
ATOM     71  C   UNL A   1      42.656  25.158  25.690  1.00  0.00     0.200 A 
ATOM     72  F   UNL A   1      41.219  23.462  26.487  1.00  0.00    -0.200 F 
ATOM     73  F   UNL A   1      42.971  24.410  24.624  1.00  0.00    -0.200 F 
ENDBRANCH  49  63
BRANCH  50  74
ATOM     74  C   UNL A   1      39.199  32.115  35.854  1.00  0.00     0.064 A 
ATOM     75  C   UNL A   1      38.286  31.572  36.770  1.00  0.00     0.173 A 
ATOM     76  C   UNL A   1      39.680  33.409  36.105  1.00  0.00     0.173 A 
ATOM     77  F   UNL A   1      37.780  30.348  36.564  1.00  0.00    -0.203 F 
ATOM     78  C   UNL A   1      37.855  32.302  37.876  1.00  0.00     0.198 A 
ATOM     79  C   UNL A   1      39.272  34.125  37.228  1.00  0.00     0.198 A 
ATOM     80  F   UNL A   1      40.558  33.973  35.262  1.00  0.00    -0.203 F 
ATOM     81  F   UNL A   1      36.942  31.778  38.706  1.00  0.00    -0.200 F 
ATOM     82  C   UNL A   1      38.353  33.574  38.107  1.00  0.00     0.200 A 
ATOM     83  F   UNL A   1      39.768  35.349  37.456  1.00  0.00    -0.200 F 
ATOM     84  F   UNL A   1      37.939  34.275  39.172  1.00  0.00    -0.200 F 
ENDBRANCH  50  74
BRANCH  62  85
ATOM     85  C   UNL A   1      44.457  27.712  34.619  1.00  0.00     0.064 A 
ATOM     86  C   UNL A   1      45.671  28.409  34.709  1.00  0.00     0.173 A 
ATOM     87  C   UNL A   1      44.313  26.547  35.388  1.00  0.00     0.173 A 
ATOM     88  F   UNL A   1      45.867  29.520  33.983  1.00  0.00    -0.203 F 
ATOM     89  C   UNL A   1      46.708  27.944  35.515  1.00  0.00     0.198 A 
ATOM     90  C   UNL A   1      45.338  26.103  36.219  1.00  0.00     0.198 A 
ATOM     91  F   UNL A   1      43.171  25.844  35.345  1.00  0.00    -0.203 F 
ATOM     92  F   UNL A   1      47.876  28.599  35.544  1.00  0.00    -0.200 F 
ATOM     93  C   UNL A   1      46.537  26.796  36.274  1.00  0.00     0.200 A 
ATOM     94  F   UNL A   1      45.166  25.003  36.964  1.00  0.00    -0.200 F 
ATOM     95  F   UNL A   1      47.532  26.356  37.057  1.00  0.00    -0.200 F 
ENDBRANCH  62  85
ENDBRANCH  36  37
ENDBRANCH  28  31
ENDBRANCH  26  27
ENDBRANCH  25  26
ENDBRANCH   1  25
TORSDOF 13
ENDMDL
MODEL 2
REMARK VINA RESULT:     -13.0      1.827      2.777
REMARK SMILES O=C(C[NH+]1CCN(c2ncc(C(F)(F)F)cc2Cl)CC1)NCCCNC(=O)c1ccc(-c2c3nc(c(-c4c(F)c(F)c(F)c(F)c4F)c4ccc([nH]4)c(-c4c(F)c(F)c(F)c(F)c4F)c4nc(c(-c5c(F)c(F)c(F)c(F)c5F)c5ccc2[nH]5)C=C4)C=C3)cc1
REMARK SMILES IDX 22 1 21 2 1 3 2 4 3 6 4 7 5 8 20 9 6 11 19 12 7 13 8 14 9 15
REMARK SMILES IDX 17 16 10 17 16 18 18 19 11 20 12 21 13 22 14 23 15 24 23 25
REMARK SMILES IDX 24 26 25 27 26 28 27 30 28 31 29 32 90 33 30 34 89 35 31 36
REMARK SMILES IDX 32 37 33 38 83 39 34 40 88 41 82 42 84 43 35 44 87 45 81 46
REMARK SMILES IDX 80 47 36 49 68 50 48 51 67 52 49 53 52 54 66 55 85 56 50 57
REMARK SMILES IDX 51 58 65 60 86 61 53 62 37 63 38 64 46 65 39 66 40 67 44 68
REMARK SMILES IDX 47 69 41 70 42 71 45 72 43 73 69 74 70 75 78 76 71 77 72 78
REMARK SMILES IDX 76 79 79 80 73 81 74 82 77 83 75 84 54 85 55 86 63 87 56 88
REMARK SMILES IDX 57 89 61 90 64 91 58 92 59 93 62 94 60 95
REMARK H PARENT 21 5 4 10 25 29 84 48 52 59
REMARK Flexibility Score: inf
ROOT
ATOM      1  C   UNL A   1      31.710  30.598  26.580  1.00  0.00     0.118 C 
ENDROOT
BRANCH   1   2
ATOM      2  N   UNL A   1      32.090  30.059  25.292  1.00  0.00    -0.351 N 
ATOM      3  O   UNL A   1      34.003  29.023  26.023  1.00  0.00    -0.269 OA
ATOM      4  C   UNL A   1      33.179  29.232  25.136  1.00  0.00     0.275 C 
ATOM      5  H   UNL A   1      31.552  30.292  24.501  1.00  0.00     0.163 HD
BRANCH   4   6
ATOM      6  C   UNL A   1      33.295  28.581  23.757  1.00  0.00     0.363 C 
BRANCH   6   7
ATOM      7  N   UNL A   1      32.189  27.638  23.447  1.00  0.00    -0.324 N 
ATOM      8  C   UNL A   1      32.635  26.716  22.350  1.00  0.00     0.284 C 
ATOM      9  C   UNL A   1      31.773  26.791  24.603  1.00  0.00     0.284 C 
ATOM     10  H   UNL A   1      31.388  28.211  23.183  1.00  0.00     0.348 HD
ATOM     11  C   UNL A   1      33.653  25.602  22.755  1.00  0.00     0.179 C 
ATOM     12  C   UNL A   1      32.818  25.760  25.072  1.00  0.00     0.179 C 
ATOM     13  N   UNL A   1      33.145  24.911  23.935  1.00  0.00    -0.344 N 
BRANCH  13  14
ATOM     14  C   UNL A   1      33.303  23.556  24.079  1.00  0.00     0.147 A 
ATOM     15  N   UNL A   1      32.248  22.771  23.751  1.00  0.00    -0.237 NA
ATOM     16  C   UNL A   1      34.481  22.986  24.598  1.00  0.00     0.084 A 
ATOM     17  C   UNL A   1      32.363  21.429  23.906  1.00  0.00     0.126 A 
ATOM     18  C   UNL A   1      34.566  21.604  24.764  1.00  0.00     0.039 A 
ATOM     19  Cl  UNL A   1      35.822  23.922  25.170  1.00  0.00    -0.080 Cl
ATOM     20  C   UNL A   1      33.486  20.798  24.415  1.00  0.00     0.075 A 
BRANCH  20  21
ATOM     21  C   UNL A   1      33.505  19.314  24.591  1.00  0.00     0.417 C 
ATOM     22  F   UNL A   1      32.909  18.918  25.749  1.00  0.00    -0.166 F 
ATOM     23  F   UNL A   1      32.856  18.661  23.590  1.00  0.00    -0.166 F 
ATOM     24  F   UNL A   1      34.763  18.792  24.624  1.00  0.00    -0.166 F 
ENDBRANCH  20  21
ENDBRANCH  13  14
ENDBRANCH   6   7
ENDBRANCH   4   6
ENDBRANCH   1   2
BRANCH   1  25
ATOM     25  C   UNL A   1      31.603  32.113  26.567  1.00  0.00     0.042 C 
BRANCH  25  26
ATOM     26  C   UNL A   1      32.763  32.813  27.264  1.00  0.00     0.118 C 
BRANCH  26  27
ATOM     27  N   UNL A   1      32.466  34.194  27.626  1.00  0.00    -0.352 N 
ATOM     28  C   UNL A   1      33.028  35.001  28.583  1.00  0.00     0.251 C 
ATOM     29  H   UNL A   1      31.747  34.613  27.100  1.00  0.00     0.163 HD
ATOM     30  O   UNL A   1      32.528  36.096  28.833  1.00  0.00    -0.269 OA
BRANCH  28  31
ATOM     31  C   UNL A   1      34.212  34.548  29.343  1.00  0.00     0.039 A 
ATOM     32  C   UNL A   1      34.026  34.009  30.619  1.00  0.00     0.014 A 
ATOM     33  C   UNL A   1      35.497  34.644  28.804  1.00  0.00     0.014 A 
ATOM     34  C   UNL A   1      35.118  33.483  31.314  1.00  0.00     0.010 A 
ATOM     35  C   UNL A   1      36.569  34.048  29.462  1.00  0.00     0.010 A 
ATOM     36  C   UNL A   1      36.388  33.449  30.718  1.00  0.00    -0.014 A 
BRANCH  36  37
ATOM     37  C   UNL A   1      37.529  32.757  31.372  1.00  0.00     0.031 A 
ATOM     38  C   UNL A   1      38.207  31.598  30.697  1.00  0.00     0.074 A 
ATOM     39  C   UNL A   1      37.903  33.126  32.613  1.00  0.00     0.049 A 
ATOM     40  N   UNL A   1      39.155  30.817  31.148  1.00  0.00    -0.248 NA
ATOM     41  C   UNL A   1      37.741  31.259  29.344  1.00  0.00     0.031 C 
ATOM     42  C   UNL A   1      37.297  34.208  33.392  1.00  0.00     0.029 A 
ATOM     43  N   UNL A   1      38.873  32.623  33.445  1.00  0.00    -0.354 N 
ATOM     44  C   UNL A   1      39.391  29.889  30.143  1.00  0.00     0.074 A 
ATOM     45  C   UNL A   1      38.452  30.172  29.078  1.00  0.00     0.031 C 
ATOM     46  C   UNL A   1      37.920  34.299  34.578  1.00  0.00     0.029 A 
ATOM     47  C   UNL A   1      38.934  33.253  34.664  1.00  0.00     0.049 A 
ATOM     48  H   UNL A   1      39.468  31.880  33.191  1.00  0.00     0.167 HD
ATOM     49  C   UNL A   1      40.321  28.904  30.103  1.00  0.00     0.037 A 
ATOM     50  C   UNL A   1      39.707  33.005  35.739  1.00  0.00     0.037 A 
ATOM     51  C   UNL A   1      41.261  28.632  31.160  1.00  0.00     0.049 A 
ATOM     52  C   UNL A   1      40.707  31.881  35.682  1.00  0.00     0.074 A 
ATOM     53  C   UNL A   1      42.279  27.695  31.190  1.00  0.00     0.029 A 
ATOM     54  N   UNL A   1      41.293  29.293  32.380  1.00  0.00    -0.354 N 
ATOM     55  N   UNL A   1      40.970  31.056  34.698  1.00  0.00    -0.248 NA
ATOM     56  C   UNL A   1      41.517  31.655  36.886  1.00  0.00     0.031 C 
ATOM     57  C   UNL A   1      42.888  27.747  32.447  1.00  0.00     0.029 A 
ATOM     58  C   UNL A   1      42.290  28.759  33.182  1.00  0.00     0.049 A 
ATOM     59  H   UNL A   1      40.695  30.031  32.639  1.00  0.00     0.167 HD
ATOM     60  C   UNL A   1      41.991  30.233  35.152  1.00  0.00     0.074 A 
ATOM     61  C   UNL A   1      42.313  30.671  36.494  1.00  0.00     0.031 C 
ATOM     62  C   UNL A   1      42.603  29.204  34.516  1.00  0.00     0.037 A 
BRANCH  49  63
ATOM     63  C   UNL A   1      40.365  28.038  28.877  1.00  0.00     0.064 A 
ATOM     64  C   UNL A   1      41.142  28.381  27.759  1.00  0.00     0.173 A 
ATOM     65  C   UNL A   1      39.655  26.828  28.834  1.00  0.00     0.173 A 
ATOM     66  F   UNL A   1      41.832  29.531  27.744  1.00  0.00    -0.203 F 
ATOM     67  C   UNL A   1      41.183  27.561  26.634  1.00  0.00     0.198 A 
ATOM     68  C   UNL A   1      39.726  25.994  27.720  1.00  0.00     0.198 A 
ATOM     69  F   UNL A   1      38.903  26.447  29.876  1.00  0.00    -0.203 F 
ATOM     70  F   UNL A   1      41.892  27.935  25.560  1.00  0.00    -0.200 F 
ATOM     71  C   UNL A   1      40.481  26.365  26.619  1.00  0.00     0.200 A 
ATOM     72  F   UNL A   1      39.059  24.831  27.714  1.00  0.00    -0.200 F 
ATOM     73  F   UNL A   1      40.530  25.573  25.539  1.00  0.00    -0.200 F 
ENDBRANCH  49  63
BRANCH  50  74
ATOM     74  C   UNL A   1      39.571  33.839  36.962  1.00  0.00     0.064 A 
ATOM     75  C   UNL A   1      38.759  33.428  38.028  1.00  0.00     0.173 A 
ATOM     76  C   UNL A   1      40.235  35.069  37.086  1.00  0.00     0.173 A 
ATOM     77  F   UNL A   1      38.086  32.271  37.949  1.00  0.00    -0.203 F 
ATOM     78  C   UNL A   1      38.601  34.223  39.162  1.00  0.00     0.198 A 
ATOM     79  C   UNL A   1      40.100  35.848  38.234  1.00  0.00     0.198 A 
ATOM     80  F   UNL A   1      41.026  35.508  36.097  1.00  0.00    -0.203 F 
ATOM     81  F   UNL A   1      37.777  33.829  40.143  1.00  0.00    -0.200 F 
ATOM     82  C   UNL A   1      39.276  35.429  39.266  1.00  0.00     0.200 A 
ATOM     83  F   UNL A   1      40.767  37.006  38.336  1.00  0.00    -0.200 F 
ATOM     84  F   UNL A   1      39.124  36.192  40.357  1.00  0.00    -0.200 F 
ENDBRANCH  50  74
BRANCH  62  85
ATOM     85  C   UNL A   1      43.705  28.497  35.253  1.00  0.00     0.064 A 
ATOM     86  C   UNL A   1      43.448  27.398  36.086  1.00  0.00     0.173 A 
ATOM     87  C   UNL A   1      45.040  28.899  35.092  1.00  0.00     0.173 A 
ATOM     88  F   UNL A   1      42.188  26.983  36.287  1.00  0.00    -0.203 F 
ATOM     89  C   UNL A   1      44.483  26.746  36.753  1.00  0.00     0.198 A 
ATOM     90  C   UNL A   1      46.076  28.225  35.733  1.00  0.00     0.198 A 
ATOM     91  F   UNL A   1      45.343  29.940  34.302  1.00  0.00    -0.203 F 
ATOM     92  F   UNL A   1      44.207  25.733  37.585  1.00  0.00    -0.200 F 
ATOM     93  C   UNL A   1      45.796  27.155  36.569  1.00  0.00     0.200 A 
ATOM     94  F   UNL A   1      47.345  28.610  35.542  1.00  0.00    -0.200 F 
ATOM     95  F   UNL A   1      46.791  26.520  37.204  1.00  0.00    -0.200 F 
ENDBRANCH  62  85
ENDBRANCH  36  37
ENDBRANCH  28  31
ENDBRANCH  26  27
ENDBRANCH  25  26
ENDBRANCH   1  25
TORSDOF 13
ENDMDL
MODEL 3
REMARK VINA RESULT:     -13.0      1.843      2.821
REMARK SMILES O=C(C[NH+]1CCN(c2ncc(C(F)(F)F)cc2Cl)CC1)NCCCNC(=O)c1ccc(-c2c3nc(c(-c4c(F)c(F)c(F)c(F)c4F)c4ccc([nH]4)c(-c4c(F)c(F)c(F)c(F)c4F)c4nc(c(-c5c(F)c(F)c(F)c(F)c5F)c5ccc2[nH]5)C=C4)C=C3)cc1
REMARK SMILES IDX 22 1 21 2 1 3 2 4 3 6 4 7 5 8 20 9 6 11 19 12 7 13 8 14 9 15
REMARK SMILES IDX 17 16 10 17 16 18 18 19 11 20 12 21 13 22 14 23 15 24 23 25
REMARK SMILES IDX 24 26 25 27 26 28 27 30 28 31 29 32 90 33 30 34 89 35 31 36
REMARK SMILES IDX 32 37 33 38 83 39 34 40 88 41 82 42 84 43 35 44 87 45 81 46
REMARK SMILES IDX 80 47 36 49 68 50 48 51 67 52 49 53 52 54 66 55 85 56 50 57
REMARK SMILES IDX 51 58 65 60 86 61 53 62 37 63 38 64 46 65 39 66 40 67 44 68
REMARK SMILES IDX 47 69 41 70 42 71 45 72 43 73 69 74 70 75 78 76 71 77 72 78
REMARK SMILES IDX 76 79 79 80 73 81 74 82 77 83 75 84 54 85 55 86 63 87 56 88
REMARK SMILES IDX 57 89 61 90 64 91 58 92 59 93 62 94 60 95
REMARK H PARENT 21 5 4 10 25 29 84 48 52 59
REMARK Flexibility Score: inf
ROOT
ATOM      1  C   UNL A   1      31.715  30.579  26.576  1.00  0.00     0.118 C 
ENDROOT
BRANCH   1   2
ATOM      2  N   UNL A   1      32.103  30.008  25.305  1.00  0.00    -0.351 N 
ATOM      3  O   UNL A   1      34.046  29.048  26.059  1.00  0.00    -0.269 OA
ATOM      4  C   UNL A   1      33.214  29.206  25.171  1.00  0.00     0.275 C 
ATOM      5  H   UNL A   1      31.555  30.201  24.510  1.00  0.00     0.163 HD
BRANCH   4   6
ATOM      6  C   UNL A   1      33.341  28.513  23.812  1.00  0.00     0.363 C 
BRANCH   6   7
ATOM      7  N   UNL A   1      32.221  27.585  23.509  1.00  0.00    -0.324 N 
ATOM      8  C   UNL A   1      32.639  26.678  22.388  1.00  0.00     0.284 C 
ATOM      9  C   UNL A   1      31.820  26.723  24.658  1.00  0.00     0.284 C 
ATOM     10  H   UNL A   1      31.420  28.169  23.269  1.00  0.00     0.348 HD
ATOM     11  C   UNL A   1      33.654  25.549  22.756  1.00  0.00     0.179 C 
ATOM     12  C   UNL A   1      32.863  25.676  25.091  1.00  0.00     0.179 C 
ATOM     13  N   UNL A   1      33.162  24.843  23.935  1.00  0.00    -0.344 N 
BRANCH  13  14
ATOM     14  C   UNL A   1      33.311  23.484  24.053  1.00  0.00     0.147 A 
ATOM     15  N   UNL A   1      32.226  22.716  23.787  1.00  0.00    -0.237 NA
ATOM     16  C   UNL A   1      34.513  22.893  24.488  1.00  0.00     0.084 A 
ATOM     17  C   UNL A   1      32.333  21.371  23.921  1.00  0.00     0.126 A 
ATOM     18  C   UNL A   1      34.590  21.509  24.634  1.00  0.00     0.039 A 
ATOM     19  Cl  UNL A   1      35.901  23.805  24.980  1.00  0.00    -0.080 Cl
ATOM     20  C   UNL A   1      33.479  20.721  24.348  1.00  0.00     0.075 A 
BRANCH  20  21
ATOM     21  C   UNL A   1      33.489  19.234  24.507  1.00  0.00     0.417 C 
ATOM     22  F   UNL A   1      32.923  18.592  23.450  1.00  0.00    -0.166 F 
ATOM     23  F   UNL A   1      34.747  18.731  24.625  1.00  0.00    -0.166 F 
ATOM     24  F   UNL A   1      32.811  18.807  25.608  1.00  0.00    -0.166 F 
ENDBRANCH  20  21
ENDBRANCH  13  14
ENDBRANCH   6   7
ENDBRANCH   4   6
ENDBRANCH   1   2
BRANCH   1  25
ATOM     25  C   UNL A   1      31.637  32.095  26.534  1.00  0.00     0.042 C 
BRANCH  25  26
ATOM     26  C   UNL A   1      32.773  32.786  27.277  1.00  0.00     0.118 C 
BRANCH  26  27
ATOM     27  N   UNL A   1      32.472  34.169  27.627  1.00  0.00    -0.352 N 
ATOM     28  C   UNL A   1      33.030  34.985  28.579  1.00  0.00     0.251 C 
ATOM     29  H   UNL A   1      31.755  34.583  27.095  1.00  0.00     0.163 HD
ATOM     30  O   UNL A   1      32.528  36.081  28.818  1.00  0.00    -0.269 OA
BRANCH  28  31
ATOM     31  C   UNL A   1      34.213  34.540  29.346  1.00  0.00     0.039 A 
ATOM     32  C   UNL A   1      34.027  34.035  30.636  1.00  0.00     0.014 A 
ATOM     33  C   UNL A   1      35.497  34.611  28.801  1.00  0.00     0.014 A 
ATOM     34  C   UNL A   1      35.116  33.515  31.340  1.00  0.00     0.010 A 
ATOM     35  C   UNL A   1      36.566  34.022  29.470  1.00  0.00     0.010 A 
ATOM     36  C   UNL A   1      36.384  33.456  30.741  1.00  0.00    -0.014 A 
BRANCH  36  37
ATOM     37  C   UNL A   1      37.520  32.770  31.408  1.00  0.00     0.031 A 
ATOM     38  C   UNL A   1      38.196  31.598  30.753  1.00  0.00     0.074 A 
ATOM     39  C   UNL A   1      37.893  33.156  32.645  1.00  0.00     0.049 A 
ATOM     40  N   UNL A   1      39.140  30.821  31.218  1.00  0.00    -0.248 NA
ATOM     41  C   UNL A   1      37.732  31.240  29.404  1.00  0.00     0.031 C 
ATOM     42  C   UNL A   1      37.288  34.252  33.406  1.00  0.00     0.029 A 
ATOM     43  N   UNL A   1      38.858  32.662  33.487  1.00  0.00    -0.354 N 
ATOM     44  C   UNL A   1      39.376  29.877  30.228  1.00  0.00     0.074 A 
ATOM     45  C   UNL A   1      38.441  30.148  29.156  1.00  0.00     0.031 C 
ATOM     46  C   UNL A   1      37.908  34.358  34.592  1.00  0.00     0.029 A 
ATOM     47  C   UNL A   1      38.918  33.310  34.697  1.00  0.00     0.049 A 
ATOM     48  H   UNL A   1      39.451  31.914  33.246  1.00  0.00     0.167 HD
ATOM     49  C   UNL A   1      40.302  28.889  30.205  1.00  0.00     0.037 A 
ATOM     50  C   UNL A   1      39.688  33.075  35.777  1.00  0.00     0.037 A 
ATOM     51  C   UNL A   1      41.239  28.630  31.269  1.00  0.00     0.049 A 
ATOM     52  C   UNL A   1      40.683  31.948  35.740  1.00  0.00     0.074 A 
ATOM     53  C   UNL A   1      42.254  27.690  31.315  1.00  0.00     0.029 A 
ATOM     54  N   UNL A   1      41.270  29.308  32.479  1.00  0.00    -0.354 N 
ATOM     55  N   UNL A   1      40.947  31.108  34.769  1.00  0.00    -0.248 NA
ATOM     56  C   UNL A   1      41.490  31.738  36.949  1.00  0.00     0.031 C 
ATOM     57  C   UNL A   1      42.859  27.759  32.573  1.00  0.00     0.029 A 
ATOM     58  C   UNL A   1      42.263  28.784  33.291  1.00  0.00     0.049 A 
ATOM     59  H   UNL A   1      40.673  30.053  32.725  1.00  0.00     0.167 HD
ATOM     60  C   UNL A   1      41.964  30.287  35.238  1.00  0.00     0.074 A 
ATOM     61  C   UNL A   1      42.284  30.745  36.574  1.00  0.00     0.031 C 
ATOM     62  C   UNL A   1      42.574  29.247  34.619  1.00  0.00     0.037 A 
BRANCH  49  63
ATOM     63  C   UNL A   1      40.347  28.004  28.992  1.00  0.00     0.064 A 
ATOM     64  C   UNL A   1      39.621  26.804  28.928  1.00  0.00     0.173 A 
ATOM     65  C   UNL A   1      41.089  28.381  27.862  1.00  0.00     0.173 A 
ATOM     66  F   UNL A   1      38.902  26.392  29.984  1.00  0.00    -0.203 F 
ATOM     67  C   UNL A   1      39.662  26.000  27.792  1.00  0.00     0.198 A 
ATOM     68  C   UNL A   1      41.101  27.591  26.715  1.00  0.00     0.198 A 
ATOM     69  F   UNL A   1      41.795  29.521  27.866  1.00  0.00    -0.203 F 
ATOM     70  F   UNL A   1      39.001  24.834  27.774  1.00  0.00    -0.200 F 
ATOM     71  C   UNL A   1      40.395  26.398  26.684  1.00  0.00     0.200 A 
ATOM     72  F   UNL A   1      41.797  27.985  25.640  1.00  0.00    -0.200 F 
ATOM     73  F   UNL A   1      40.425  25.628  25.587  1.00  0.00    -0.200 F 
ENDBRANCH  49  63
BRANCH  50  74
ATOM     74  C   UNL A   1      39.551  33.929  36.987  1.00  0.00     0.064 A 
ATOM     75  C   UNL A   1      38.752  33.526  38.066  1.00  0.00     0.173 A 
ATOM     76  C   UNL A   1      40.203  35.168  37.086  1.00  0.00     0.173 A 
ATOM     77  F   UNL A   1      38.092  32.361  38.011  1.00  0.00    -0.203 F 
ATOM     78  C   UNL A   1      38.593  34.338  39.187  1.00  0.00     0.198 A 
ATOM     79  C   UNL A   1      40.067  35.964  38.221  1.00  0.00     0.198 A 
ATOM     80  F   UNL A   1      40.981  35.599  36.083  1.00  0.00    -0.203 F 
ATOM     81  F   UNL A   1      37.781  33.951  40.182  1.00  0.00    -0.200 F 
ATOM     82  C   UNL A   1      39.255  35.553  39.266  1.00  0.00     0.200 A 
ATOM     83  F   UNL A   1      40.721  37.132  38.300  1.00  0.00    -0.200 F 
ATOM     84  F   UNL A   1      39.103  36.333  40.346  1.00  0.00    -0.200 F 
ENDBRANCH  50  74
BRANCH  62  85
ATOM     85  C   UNL A   1      43.672  28.547  35.369  1.00  0.00     0.064 A 
ATOM     86  C   UNL A   1      45.016  28.920  35.226  1.00  0.00     0.173 A 
ATOM     87  C   UNL A   1      43.371  27.515  36.272  1.00  0.00     0.173 A 
ATOM     88  F   UNL A   1      45.360  29.890  34.365  1.00  0.00    -0.203 F 
ATOM     89  C   UNL A   1      46.021  28.268  35.938  1.00  0.00     0.198 A 
ATOM     90  C   UNL A   1      44.373  26.889  37.007  1.00  0.00     0.198 A 
ATOM     91  F   UNL A   1      42.100  27.123  36.451  1.00  0.00    -0.203 F 
ATOM     92  F   UNL A   1      47.303  28.608  35.745  1.00  0.00    -0.200 F 
ATOM     93  C   UNL A   1      45.697  27.260  36.833  1.00  0.00     0.200 A 
ATOM     94  F   UNL A   1      44.057  25.925  37.883  1.00  0.00    -0.200 F 
ATOM     95  F   UNL A   1      46.664  26.640  37.524  1.00  0.00    -0.200 F 
ENDBRANCH  62  85
ENDBRANCH  36  37
ENDBRANCH  28  31
ENDBRANCH  26  27
ENDBRANCH  25  26
ENDBRANCH   1  25
TORSDOF 13
ENDMDL
