MODEL 1
REMARK VINA RESULT:     -11.2      0.000      0.000
REMARK SMILES CCn1cc(S(=O)(=O)N2CCC(CCc3ccc(C(=O)NCCCNC(=O)c4ccc(-c5c6nc(c(-c7c(F)c(F)c(F)c(F)c7F)c7ccc([nH]7)c(-c7c(F)c(F)c(F)c(F)c7F)c7nc(c(-c8c(F)c(F)c(F)c(F)c8F)c8ccc5[nH]8)C=C7)C=C6)cc4)cc3)CC2)cn1
REMARK SMILES IDX 19 1 20 2 21 3 18 5 15 6 16 7 92 8 17 9 91 10 14 11 13 12
REMARK SMILES IDX 12 13 9 14 10 15 94 16 11 17 93 18 6 19 7 20 8 21 5 22 3 23
REMARK SMILES IDX 4 24 96 25 95 26 2 27 1 28 22 29 23 30 24 31 25 32 26 33
REMARK SMILES IDX 27 35 28 36 29 37 90 38 30 39 89 40 31 41 32 42 33 43 83 44
REMARK SMILES IDX 34 45 88 46 82 47 84 48 35 49 87 50 81 51 80 52 36 54 68 55
REMARK SMILES IDX 48 56 67 57 49 58 52 59 66 60 85 61 50 62 51 63 65 65 86 66
REMARK SMILES IDX 53 67 37 68 38 69 46 70 39 71 40 72 44 73 47 74 41 75 42 76
REMARK SMILES IDX 45 77 43 78 69 79 70 80 78 81 71 82 72 83 76 84 79 85 73 86
REMARK SMILES IDX 74 87 77 88 75 89 54 90 55 91 63 92 56 93 57 94 61 95 64 96
REMARK SMILES IDX 58 97 59 98 62 99 60 100
REMARK H PARENT 21 4 25 34 84 53 52 64
REMARK Flexibility Score: inf
ROOT
ATOM      1  C   UNL A   1      37.584  34.097  33.412  1.00  0.00     0.251 C 
ATOM      2  O   UNL A   1      37.648  34.935  34.312  1.00  0.00    -0.269 OA
ATOM      3  N   UNL A   1      36.484  33.273  33.408  1.00  0.00    -0.352 N 
ATOM      4  H   UNL A   1      35.831  33.493  34.111  1.00  0.00     0.163 HD
ENDROOT
BRANCH   1   5
ATOM      5  C   UNL A   1      38.667  34.048  32.386  1.00  0.00     0.039 A 
ATOM      6  C   UNL A   1      40.786  33.892  30.506  1.00  0.00    -0.048 A 
ATOM      7  C   UNL A   1      40.897  33.265  31.750  1.00  0.00     0.004 A 
ATOM      8  C   UNL A   1      39.670  34.687  30.287  1.00  0.00     0.004 A 
ATOM      9  C   UNL A   1      39.860  33.373  32.694  1.00  0.00     0.014 A 
ATOM     10  C   UNL A   1      38.582  34.652  31.143  1.00  0.00     0.014 A 
BRANCH   6  11
ATOM     11  C   UNL A   1      41.790  33.700  29.392  1.00  0.00     0.036 C 
BRANCH  11  12
ATOM     12  C   UNL A   1      43.241  34.133  29.761  1.00  0.00     0.008 C 
BRANCH  12  13
ATOM     13  C   UNL A   1      43.662  35.567  29.360  1.00  0.00    -0.008 C 
ATOM     14  N   UNL A   1      43.521  38.399  28.735  1.00  0.00    -0.198 NA
ATOM     15  C   UNL A   1      43.511  37.403  27.642  1.00  0.00     0.103 C 
ATOM     16  C   UNL A   1      44.108  37.946  30.019  1.00  0.00     0.103 C 
ATOM     17  C   UNL A   1      42.929  36.076  28.112  1.00  0.00     0.020 C 
ATOM     18  C   UNL A   1      43.494  36.611  30.470  1.00  0.00     0.020 C 
BRANCH  14  19
ATOM     19  S   UNL A   1      43.904  39.995  28.258  1.00  0.00     0.246 S 
ATOM     20  O   UNL A   1      45.220  40.006  27.676  1.00  0.00    -0.207 OA
ATOM     21  O   UNL A   1      43.534  40.888  29.344  1.00  0.00    -0.207 OA
BRANCH  19  22
ATOM     22  C   UNL A   1      42.890  40.517  26.975  1.00  0.00     0.120 A 
ATOM     23  N   UNL A   1      42.007  41.323  25.148  1.00  0.00    -0.272 N 
ATOM     24  C   UNL A   1      43.200  41.160  25.797  1.00  0.00     0.130 A 
ATOM     25  N   UNL A   1      40.958  40.818  25.817  1.00  0.00    -0.180 NA
ATOM     26  C   UNL A   1      41.497  40.340  26.942  1.00  0.00     0.156 A 
BRANCH  23  27
ATOM     27  C   UNL A   1      41.805  41.958  23.863  1.00  0.00     0.141 C 
ATOM     28  C   UNL A   1      42.905  42.933  23.493  1.00  0.00     0.029 C 
ENDBRANCH  23  27
ENDBRANCH  19  22
ENDBRANCH  14  19
ENDBRANCH  12  13
ENDBRANCH  11  12
ENDBRANCH   6  11
ENDBRANCH   1   5
BRANCH   3  29
ATOM     29  C   UNL A   1      36.084  32.146  32.586  1.00  0.00     0.118 C 
BRANCH  29  30
ATOM     30  C   UNL A   1      34.766  32.444  31.859  1.00  0.00     0.042 C 
BRANCH  30  31
ATOM     31  C   UNL A   1      35.007  33.268  30.610  1.00  0.00     0.118 C 
BRANCH  31  32
ATOM     32  N   UNL A   1      34.491  32.627  29.389  1.00  0.00    -0.352 N 
ATOM     33  C   UNL A   1      35.133  31.747  28.531  1.00  0.00     0.251 C 
ATOM     34  H   UNL A   1      33.564  32.854  29.148  1.00  0.00     0.163 HD
ATOM     35  O   UNL A   1      34.717  31.557  27.396  1.00  0.00    -0.269 OA
BRANCH  33  36
ATOM     36  C   UNL A   1      36.319  31.042  29.031  1.00  0.00     0.039 A 
ATOM     37  C   UNL A   1      36.346  29.669  29.285  1.00  0.00     0.014 A 
ATOM     38  C   UNL A   1      37.464  31.815  29.151  1.00  0.00     0.014 A 
ATOM     39  C   UNL A   1      37.572  29.077  29.580  1.00  0.00     0.010 A 
ATOM     40  C   UNL A   1      38.674  31.197  29.144  1.00  0.00     0.010 A 
ATOM     41  C   UNL A   1      38.735  29.855  29.484  1.00  0.00    -0.014 A 
BRANCH  41  42
ATOM     42  C   UNL A   1      40.076  29.302  29.612  1.00  0.00     0.031 A 
ATOM     43  C   UNL A   1      40.492  29.101  31.023  1.00  0.00     0.074 A 
ATOM     44  C   UNL A   1      40.716  28.774  28.540  1.00  0.00     0.049 A 
ATOM     45  N   UNL A   1      41.453  29.693  31.649  1.00  0.00    -0.248 NA
ATOM     46  C   UNL A   1      39.636  28.277  31.899  1.00  0.00     0.031 C 
ATOM     47  C   UNL A   1      40.218  28.651  27.161  1.00  0.00     0.029 A 
ATOM     48  N   UNL A   1      41.901  28.105  28.476  1.00  0.00    -0.354 N 
ATOM     49  C   UNL A   1      41.475  29.131  32.922  1.00  0.00     0.074 A 
ATOM     50  C   UNL A   1      40.213  28.463  33.088  1.00  0.00     0.031 C 
ATOM     51  C   UNL A   1      40.960  27.753  26.478  1.00  0.00     0.029 A 
ATOM     52  C   UNL A   1      42.085  27.368  27.302  1.00  0.00     0.049 A 
ATOM     53  H   UNL A   1      42.571  28.139  29.196  1.00  0.00     0.167 HD
ATOM     54  C   UNL A   1      42.655  28.996  33.589  1.00  0.00     0.037 A 
ATOM     55  C   UNL A   1      43.082  26.477  27.058  1.00  0.00     0.037 A 
ATOM     56  C   UNL A   1      43.663  29.848  33.001  1.00  0.00     0.049 A 
ATOM     57  C   UNL A   1      44.161  26.758  28.040  1.00  0.00     0.074 A 
ATOM     58  C   UNL A   1      43.781  31.208  32.782  1.00  0.00     0.029 A 
ATOM     59  N   UNL A   1      44.575  29.256  32.163  1.00  0.00    -0.354 N 
ATOM     60  N   UNL A   1      44.864  27.856  28.043  1.00  0.00    -0.248 NA
ATOM     61  C   UNL A   1      44.103  26.045  29.306  1.00  0.00     0.031 C 
ATOM     62  C   UNL A   1      44.398  31.325  31.501  1.00  0.00     0.029 A 
ATOM     63  C   UNL A   1      44.715  30.043  31.051  1.00  0.00     0.049 A 
ATOM     64  H   UNL A   1      45.049  28.409  32.333  1.00  0.00     0.167 HD
ATOM     65  C   UNL A   1      44.951  28.209  29.382  1.00  0.00     0.074 A 
ATOM     66  C   UNL A   1      44.524  27.019  30.117  1.00  0.00     0.031 C 
ATOM     67  C   UNL A   1      45.060  29.520  29.749  1.00  0.00     0.037 A 
BRANCH  54  68
ATOM     68  C   UNL A   1      43.023  27.802  34.446  1.00  0.00     0.064 A 
ATOM     69  C   UNL A   1      43.376  26.598  33.803  1.00  0.00     0.173 A 
ATOM     70  C   UNL A   1      42.742  27.686  35.827  1.00  0.00     0.173 A 
ATOM     71  F   UNL A   1      43.659  26.581  32.492  1.00  0.00    -0.203 F 
ATOM     72  C   UNL A   1      43.343  25.367  34.464  1.00  0.00     0.198 A 
ATOM     73  C   UNL A   1      42.761  26.462  36.494  1.00  0.00     0.198 A 
ATOM     74  F   UNL A   1      42.328  28.717  36.571  1.00  0.00    -0.203 F 
ATOM     75  F   UNL A   1      43.545  24.237  33.773  1.00  0.00    -0.200 F 
ATOM     76  C   UNL A   1      43.024  25.298  35.807  1.00  0.00     0.200 A 
ATOM     77  F   UNL A   1      42.433  26.419  37.794  1.00  0.00    -0.200 F 
ATOM     78  F   UNL A   1      42.923  24.116  36.426  1.00  0.00    -0.200 F 
ENDBRANCH  54  68
BRANCH  55  79
ATOM     79  C   UNL A   1      43.030  25.206  26.291  1.00  0.00     0.064 A 
ATOM     80  C   UNL A   1      43.954  24.941  25.263  1.00  0.00     0.173 A 
ATOM     81  C   UNL A   1      42.273  24.108  26.743  1.00  0.00     0.173 A 
ATOM     82  F   UNL A   1      44.748  25.920  24.805  1.00  0.00    -0.203 F 
ATOM     83  C   UNL A   1      44.133  23.653  24.747  1.00  0.00     0.198 A 
ATOM     84  C   UNL A   1      42.449  22.823  26.222  1.00  0.00     0.198 A 
ATOM     85  F   UNL A   1      41.420  24.238  27.769  1.00  0.00    -0.203 F 
ATOM     86  F   UNL A   1      45.072  23.428  23.816  1.00  0.00    -0.200 F 
ATOM     87  C   UNL A   1      43.389  22.592  25.236  1.00  0.00     0.200 A 
ATOM     88  F   UNL A   1      41.751  21.799  26.733  1.00  0.00    -0.200 F 
ATOM     89  F   UNL A   1      43.607  21.347  24.790  1.00  0.00    -0.200 F 
ENDBRANCH  55  79
BRANCH  67  90
ATOM     90  C   UNL A   1      45.374  30.527  28.675  1.00  0.00     0.064 A 
ATOM     91  C   UNL A   1      44.414  31.201  27.900  1.00  0.00     0.173 A 
ATOM     92  C   UNL A   1      46.711  30.917  28.520  1.00  0.00     0.173 A 
ATOM     93  F   UNL A   1      43.106  30.962  28.056  1.00  0.00    -0.203 F 
ATOM     94  C   UNL A   1      44.784  32.184  26.981  1.00  0.00     0.198 A 
ATOM     95  C   UNL A   1      47.074  31.925  27.632  1.00  0.00     0.198 A 
ATOM     96  F   UNL A   1      47.666  30.347  29.271  1.00  0.00    -0.203 F 
ATOM     97  F   UNL A   1      43.851  32.801  26.241  1.00  0.00    -0.200 F 
ATOM     98  C   UNL A   1      46.114  32.549  26.854  1.00  0.00     0.200 A 
ATOM     99  F   UNL A   1      48.356  32.307  27.551  1.00  0.00    -0.200 F 
ATOM    100  F   UNL A   1      46.468  33.518  25.999  1.00  0.00    -0.200 F 
ENDBRANCH  67  90
ENDBRANCH  41  42
ENDBRANCH  33  36
ENDBRANCH  31  32
ENDBRANCH  30  31
ENDBRANCH  29  30
ENDBRANCH   3  29
TORSDOF 16
ENDMDL
MODEL 2
REMARK VINA RESULT:     -11.1      4.442      8.351
REMARK SMILES CCn1cc(S(=O)(=O)N2CCC(CCc3ccc(C(=O)NCCCNC(=O)c4ccc(-c5c6nc(c(-c7c(F)c(F)c(F)c(F)c7F)c7ccc([nH]7)c(-c7c(F)c(F)c(F)c(F)c7F)c7nc(c(-c8c(F)c(F)c(F)c(F)c8F)c8ccc5[nH]8)C=C7)C=C6)cc4)cc3)CC2)cn1
REMARK SMILES IDX 19 1 20 2 21 3 18 5 15 6 16 7 92 8 17 9 91 10 14 11 13 12
REMARK SMILES IDX 12 13 9 14 10 15 94 16 11 17 93 18 6 19 7 20 8 21 5 22 3 23
REMARK SMILES IDX 4 24 96 25 95 26 2 27 1 28 22 29 23 30 24 31 25 32 26 33
REMARK SMILES IDX 27 35 28 36 29 37 90 38 30 39 89 40 31 41 32 42 33 43 83 44
REMARK SMILES IDX 34 45 88 46 82 47 84 48 35 49 87 50 81 51 80 52 36 54 68 55
REMARK SMILES IDX 48 56 67 57 49 58 52 59 66 60 85 61 50 62 51 63 65 65 86 66
REMARK SMILES IDX 53 67 37 68 38 69 46 70 39 71 40 72 44 73 47 74 41 75 42 76
REMARK SMILES IDX 45 77 43 78 69 79 70 80 78 81 71 82 72 83 76 84 79 85 73 86
REMARK SMILES IDX 74 87 77 88 75 89 54 90 55 91 63 92 56 93 57 94 61 95 64 96
REMARK SMILES IDX 58 97 59 98 62 99 60 100
REMARK H PARENT 21 4 25 34 84 53 52 64
REMARK Flexibility Score: inf
ROOT
ATOM      1  C   UNL A   1      41.737  28.905  35.779  1.00  0.00     0.251 C 
ATOM      2  O   UNL A   1      41.942  29.706  36.692  1.00  0.00    -0.269 OA
ATOM      3  N   UNL A   1      41.625  27.580  36.128  1.00  0.00    -0.352 N 
ATOM      4  H   UNL A   1      41.666  27.429  37.100  1.00  0.00     0.163 HD
ENDROOT
BRANCH   1   5
ATOM      5  C   UNL A   1      41.599  29.415  34.383  1.00  0.00     0.039 A 
ATOM      6  C   UNL A   1      41.227  30.367  31.737  1.00  0.00    -0.048 A 
ATOM      7  C   UNL A   1      40.139  29.907  32.482  1.00  0.00     0.004 A 
ATOM      8  C   UNL A   1      42.491  30.219  32.290  1.00  0.00     0.004 A 
ATOM      9  C   UNL A   1      40.329  29.402  33.781  1.00  0.00     0.014 A 
ATOM     10  C   UNL A   1      42.657  29.886  33.624  1.00  0.00     0.014 A 
BRANCH   6  11
ATOM     11  C   UNL A   1      41.079  31.054  30.398  1.00  0.00     0.036 C 
BRANCH  11  12
ATOM     12  C   UNL A   1      40.578  32.527  30.489  1.00  0.00     0.008 C 
BRANCH  12  13
ATOM     13  C   UNL A   1      39.068  32.764  30.247  1.00  0.00    -0.008 C 
ATOM     14  N   UNL A   1      36.511  33.048  28.900  1.00  0.00    -0.198 NA
ATOM     15  C   UNL A   1      37.305  34.251  29.233  1.00  0.00     0.103 C 
ATOM     16  C   UNL A   1      36.800  31.837  29.706  1.00  0.00     0.103 C 
ATOM     17  C   UNL A   1      38.793  33.929  29.288  1.00  0.00     0.020 C 
ATOM     18  C   UNL A   1      38.307  31.536  29.734  1.00  0.00     0.020 C 
BRANCH  14  19
ATOM     19  S   UNL A   1      34.864  33.341  28.552  1.00  0.00     0.246 S 
ATOM     20  O   UNL A   1      34.104  32.159  28.860  1.00  0.00    -0.207 OA
ATOM     21  O   UNL A   1      34.789  33.988  27.253  1.00  0.00    -0.207 OA
BRANCH  19  22
ATOM     22  C   UNL A   1      34.212  34.528  29.606  1.00  0.00     0.120 A 
ATOM     23  N   UNL A   1      33.567  35.766  31.285  1.00  0.00    -0.272 N 
ATOM     24  C   UNL A   1      34.223  34.605  30.982  1.00  0.00     0.130 A 
ATOM     25  N   UNL A   1      33.149  36.446  30.206  1.00  0.00    -0.180 NA
ATOM     26  C   UNL A   1      33.529  35.679  29.179  1.00  0.00     0.156 A 
BRANCH  23  27
ATOM     27  C   UNL A   1      33.310  36.289  32.610  1.00  0.00     0.141 C 
ATOM     28  C   UNL A   1      33.729  37.737  32.777  1.00  0.00     0.029 C 
ENDBRANCH  23  27
ENDBRANCH  19  22
ENDBRANCH  14  19
ENDBRANCH  12  13
ENDBRANCH  11  12
ENDBRANCH   6  11
ENDBRANCH   1   5
BRANCH   3  29
ATOM     29  C   UNL A   1      41.459  26.358  35.364  1.00  0.00     0.118 C 
BRANCH  29  30
ATOM     30  C   UNL A   1      41.237  25.160  36.296  1.00  0.00     0.042 C 
BRANCH  30  31
ATOM     31  C   UNL A   1      42.286  24.090  36.068  1.00  0.00     0.118 C 
BRANCH  31  32
ATOM     32  N   UNL A   1      43.465  24.245  36.937  1.00  0.00    -0.352 N 
ATOM     33  C   UNL A   1      44.808  24.210  36.596  1.00  0.00     0.251 C 
ATOM     34  H   UNL A   1      43.273  24.393  37.891  1.00  0.00     0.163 HD
ATOM     35  O   UNL A   1      45.669  24.018  37.444  1.00  0.00    -0.269 OA
BRANCH  33  36
ATOM     36  C   UNL A   1      45.165  24.422  35.188  1.00  0.00     0.039 A 
ATOM     37  C   UNL A   1      45.433  23.379  34.298  1.00  0.00     0.014 A 
ATOM     38  C   UNL A   1      45.128  25.739  34.757  1.00  0.00     0.014 A 
ATOM     39  C   UNL A   1      45.580  23.687  32.947  1.00  0.00     0.010 A 
ATOM     40  C   UNL A   1      44.979  25.990  33.430  1.00  0.00     0.010 A 
ATOM     41  C   UNL A   1      45.328  25.000  32.525  1.00  0.00    -0.014 A 
BRANCH  41  42
ATOM     42  C   UNL A   1      45.294  25.393  31.124  1.00  0.00     0.031 A 
ATOM     43  C   UNL A   1      46.420  26.282  30.740  1.00  0.00     0.074 A 
ATOM     44  C   UNL A   1      44.481  24.761  30.243  1.00  0.00     0.049 A 
ATOM     45  N   UNL A   1      46.351  27.509  30.343  1.00  0.00    -0.248 NA
ATOM     46  C   UNL A   1      47.799  25.821  30.992  1.00  0.00     0.031 C 
ATOM     47  C   UNL A   1      43.564  23.640  30.504  1.00  0.00     0.029 A 
ATOM     48  N   UNL A   1      44.394  24.890  28.890  1.00  0.00    -0.354 N 
ATOM     49  C   UNL A   1      47.660  27.887  30.058  1.00  0.00     0.074 A 
ATOM     50  C   UNL A   1      48.505  26.913  30.693  1.00  0.00     0.031 C 
ATOM     51  C   UNL A   1      43.219  23.043  29.343  1.00  0.00     0.029 A 
ATOM     52  C   UNL A   1      43.738  23.835  28.249  1.00  0.00     0.049 A 
ATOM     53  H   UNL A   1      44.762  25.663  28.404  1.00  0.00     0.167 HD
ATOM     54  C   UNL A   1      47.911  28.777  29.059  1.00  0.00     0.037 A 
ATOM     55  C   UNL A   1      43.670  23.623  26.908  1.00  0.00     0.037 A 
ATOM     56  C   UNL A   1      46.707  29.499  28.716  1.00  0.00     0.049 A 
ATOM     57  C   UNL A   1      44.008  24.912  26.252  1.00  0.00     0.074 A 
ATOM     58  C   UNL A   1      45.828  30.311  29.408  1.00  0.00     0.029 A 
ATOM     59  N   UNL A   1      46.034  29.097  27.589  1.00  0.00    -0.354 N 
ATOM     60  N   UNL A   1      43.259  25.977  26.328  1.00  0.00    -0.248 NA
ATOM     61  C   UNL A   1      45.408  25.148  25.942  1.00  0.00     0.031 C 
ATOM     62  C   UNL A   1      44.536  29.963  28.914  1.00  0.00     0.029 A 
ATOM     63  C   UNL A   1      44.697  29.038  27.883  1.00  0.00     0.049 A 
ATOM     64  H   UNL A   1      46.442  28.887  26.718  1.00  0.00     0.167 HD
ATOM     65  C   UNL A   1      44.156  27.016  26.532  1.00  0.00     0.074 A 
ATOM     66  C   UNL A   1      45.468  26.454  26.215  1.00  0.00     0.031 C 
ATOM     67  C   UNL A   1      43.783  28.128  27.233  1.00  0.00     0.037 A 
BRANCH  54  68
ATOM     68  C   UNL A   1      49.083  28.684  28.103  1.00  0.00     0.064 A 
ATOM     69  C   UNL A   1      49.838  29.849  27.851  1.00  0.00     0.173 A 
ATOM     70  C   UNL A   1      49.301  27.620  27.199  1.00  0.00     0.173 A 
ATOM     71  F   UNL A   1      49.711  30.928  28.639  1.00  0.00    -0.203 F 
ATOM     72  C   UNL A   1      50.657  29.972  26.727  1.00  0.00     0.198 A 
ATOM     73  C   UNL A   1      50.161  27.730  26.107  1.00  0.00     0.198 A 
ATOM     74  F   UNL A   1      48.621  26.471  27.255  1.00  0.00    -0.203 F 
ATOM     75  F   UNL A   1      51.238  31.149  26.455  1.00  0.00    -0.200 F 
ATOM     76  C   UNL A   1      50.810  28.917  25.848  1.00  0.00     0.200 A 
ATOM     77  F   UNL A   1      50.280  26.697  25.260  1.00  0.00    -0.200 F 
ATOM     78  F   UNL A   1      51.537  29.054  24.733  1.00  0.00    -0.200 F 
ENDBRANCH  54  68
BRANCH  55  79
ATOM     79  C   UNL A   1      43.679  22.336  26.166  1.00  0.00     0.064 A 
ATOM     80  C   UNL A   1      44.889  21.740  25.764  1.00  0.00     0.173 A 
ATOM     81  C   UNL A   1      42.533  21.520  26.100  1.00  0.00     0.173 A 
ATOM     82  F   UNL A   1      46.035  22.431  25.838  1.00  0.00    -0.203 F 
ATOM     83  C   UNL A   1      44.952  20.403  25.355  1.00  0.00     0.198 A 
ATOM     84  C   UNL A   1      42.597  20.186  25.688  1.00  0.00     0.198 A 
ATOM     85  F   UNL A   1      41.346  21.968  26.532  1.00  0.00    -0.203 F 
ATOM     86  F   UNL A   1      46.134  19.852  25.045  1.00  0.00    -0.200 F 
ATOM     87  C   UNL A   1      43.807  19.624  25.330  1.00  0.00     0.200 A 
ATOM     88  F   UNL A   1      41.488  19.433  25.706  1.00  0.00    -0.200 F 
ATOM     89  F   UNL A   1      43.878  18.325  25.005  1.00  0.00    -0.200 F 
ENDBRANCH  55  79
BRANCH  67  90
ATOM     90  C   UNL A   1      42.317  28.321  27.516  1.00  0.00     0.064 A 
ATOM     91  C   UNL A   1      41.391  28.876  26.614  1.00  0.00     0.173 A 
ATOM     92  C   UNL A   1      41.810  27.797  28.713  1.00  0.00     0.173 A 
ATOM     93  F   UNL A   1      41.775  29.309  25.406  1.00  0.00    -0.203 F 
ATOM     94  C   UNL A   1      40.032  28.942  26.921  1.00  0.00     0.198 A 
ATOM     95  C   UNL A   1      40.450  27.829  29.000  1.00  0.00     0.198 A 
ATOM     96  F   UNL A   1      42.638  27.208  29.588  1.00  0.00    -0.203 F 
ATOM     97  F   UNL A   1      39.171  29.491  26.051  1.00  0.00    -0.200 F 
ATOM     98  C   UNL A   1      39.562  28.413  28.111  1.00  0.00     0.200 A 
ATOM     99  F   UNL A   1      39.998  27.270  30.130  1.00  0.00    -0.200 F 
ATOM    100  F   UNL A   1      38.252  28.442  28.392  1.00  0.00    -0.200 F 
ENDBRANCH  67  90
ENDBRANCH  41  42
ENDBRANCH  33  36
ENDBRANCH  31  32
ENDBRANCH  30  31
ENDBRANCH  29  30
ENDBRANCH   3  29
TORSDOF 16
ENDMDL
MODEL 3
REMARK VINA RESULT:     -11.0      5.445     11.612
REMARK SMILES CCn1cc(S(=O)(=O)N2CCC(CCc3ccc(C(=O)NCCCNC(=O)c4ccc(-c5c6nc(c(-c7c(F)c(F)c(F)c(F)c7F)c7ccc([nH]7)c(-c7c(F)c(F)c(F)c(F)c7F)c7nc(c(-c8c(F)c(F)c(F)c(F)c8F)c8ccc5[nH]8)C=C7)C=C6)cc4)cc3)CC2)cn1
REMARK SMILES IDX 19 1 20 2 21 3 18 5 15 6 16 7 92 8 17 9 91 10 14 11 13 12
REMARK SMILES IDX 12 13 9 14 10 15 94 16 11 17 93 18 6 19 7 20 8 21 5 22 3 23
REMARK SMILES IDX 4 24 96 25 95 26 2 27 1 28 22 29 23 30 24 31 25 32 26 33
REMARK SMILES IDX 27 35 28 36 29 37 90 38 30 39 89 40 31 41 32 42 33 43 83 44
REMARK SMILES IDX 34 45 88 46 82 47 84 48 35 49 87 50 81 51 80 52 36 54 68 55
REMARK SMILES IDX 48 56 67 57 49 58 52 59 66 60 85 61 50 62 51 63 65 65 86 66
REMARK SMILES IDX 53 67 37 68 38 69 46 70 39 71 40 72 44 73 47 74 41 75 42 76
REMARK SMILES IDX 45 77 43 78 69 79 70 80 78 81 71 82 72 83 76 84 79 85 73 86
REMARK SMILES IDX 74 87 77 88 75 89 54 90 55 91 63 92 56 93 57 94 61 95 64 96
REMARK SMILES IDX 58 97 59 98 62 99 60 100
REMARK H PARENT 21 4 25 34 84 53 52 64
REMARK Flexibility Score: inf
ROOT
ATOM      1  C   UNL A   1      39.157  22.369  26.149  1.00  0.00     0.251 C 
ATOM      2  O   UNL A   1      39.586  23.502  26.370  1.00  0.00    -0.269 OA
ATOM      3  N   UNL A   1      40.038  21.328  26.322  1.00  0.00    -0.352 N 
ATOM      4  H   UNL A   1      40.915  21.613  26.667  1.00  0.00     0.163 HD
ENDROOT
BRANCH   1   5
ATOM      5  C   UNL A   1      37.732  22.198  25.742  1.00  0.00     0.039 A 
ATOM      6  C   UNL A   1      34.998  21.968  25.018  1.00  0.00    -0.048 A 
ATOM      7  C   UNL A   1      35.440  23.055  25.777  1.00  0.00     0.004 A 
ATOM      8  C   UNL A   1      35.913  20.959  24.751  1.00  0.00     0.004 A 
ATOM      9  C   UNL A   1      36.788  23.149  26.165  1.00  0.00     0.014 A 
ATOM     10  C   UNL A   1      37.267  21.136  24.983  1.00  0.00     0.014 A 
BRANCH   6  11
ATOM     11  C   UNL A   1      33.602  21.874  24.445  1.00  0.00     0.036 C 
BRANCH  11  12
ATOM     12  C   UNL A   1      33.386  22.718  23.153  1.00  0.00     0.008 C 
BRANCH  12  13
ATOM     13  C   UNL A   1      32.938  24.186  23.348  1.00  0.00    -0.008 C 
ATOM     14  N   UNL A   1      32.644  26.842  24.484  1.00  0.00    -0.198 NA
ATOM     15  C   UNL A   1      31.608  25.815  24.735  1.00  0.00     0.103 C 
ATOM     16  C   UNL A   1      33.485  26.633  23.281  1.00  0.00     0.103 C 
ATOM     17  C   UNL A   1      32.199  24.412  24.673  1.00  0.00     0.020 C 
ATOM     18  C   UNL A   1      34.072  25.213  23.254  1.00  0.00     0.020 C 
BRANCH  14  19
ATOM     19  S   UNL A   1      32.156  28.451  24.788  1.00  0.00     0.246 S 
ATOM     20  O   UNL A   1      33.248  29.337  24.482  1.00  0.00    -0.207 OA
ATOM     21  O   UNL A   1      31.479  28.479  26.074  1.00  0.00    -0.207 OA
BRANCH  19  22
ATOM     22  C   UNL A   1      30.922  28.939  23.699  1.00  0.00     0.120 A 
ATOM     23  N   UNL A   1      29.230  29.853  22.665  1.00  0.00    -0.272 N 
ATOM     24  C   UNL A   1      29.911  29.862  23.852  1.00  0.00     0.130 A 
ATOM     25  N   UNL A   1      29.739  29.003  21.759  1.00  0.00    -0.180 NA
ATOM     26  C   UNL A   1      30.765  28.432  22.399  1.00  0.00     0.156 A 
BRANCH  23  27
ATOM     27  C   UNL A   1      28.070  30.651  22.331  1.00  0.00     0.141 C 
ATOM     28  C   UNL A   1      27.613  31.552  23.462  1.00  0.00     0.029 C 
ENDBRANCH  23  27
ENDBRANCH  19  22
ENDBRANCH  14  19
ENDBRANCH  12  13
ENDBRANCH  11  12
ENDBRANCH   6  11
ENDBRANCH   1   5
BRANCH   3  29
ATOM     29  C   UNL A   1      39.946  19.897  26.102  1.00  0.00     0.118 C 
BRANCH  29  30
ATOM     30  C   UNL A   1      41.338  19.251  26.134  1.00  0.00     0.042 C 
BRANCH  30  31
ATOM     31  C   UNL A   1      42.424  20.304  26.231  1.00  0.00     0.118 C 
BRANCH  31  32
ATOM     32  N   UNL A   1      43.564  20.039  25.336  1.00  0.00    -0.352 N 
ATOM     33  C   UNL A   1      44.350  20.943  24.639  1.00  0.00     0.251 C 
ATOM     34  H   UNL A   1      43.799  19.091  25.217  1.00  0.00     0.163 HD
ATOM     35  O   UNL A   1      45.032  20.583  23.689  1.00  0.00    -0.269 OA
BRANCH  33  36
ATOM     36  C   UNL A   1      44.349  22.341  25.084  1.00  0.00     0.039 A 
ATOM     37  C   UNL A   1      43.379  23.269  24.696  1.00  0.00     0.014 A 
ATOM     38  C   UNL A   1      45.330  22.674  26.005  1.00  0.00     0.014 A 
ATOM     39  C   UNL A   1      43.372  24.514  25.322  1.00  0.00     0.010 A 
ATOM     40  C   UNL A   1      45.137  23.754  26.806  1.00  0.00     0.010 A 
ATOM     41  C   UNL A   1      44.248  24.734  26.395  1.00  0.00    -0.014 A 
BRANCH  41  42
ATOM     42  C   UNL A   1      44.212  25.933  27.219  1.00  0.00     0.031 A 
ATOM     43  C   UNL A   1      45.282  26.906  26.882  1.00  0.00     0.074 A 
ATOM     44  C   UNL A   1      43.134  26.215  27.990  1.00  0.00     0.049 A 
ATOM     45  N   UNL A   1      46.261  27.287  27.632  1.00  0.00    -0.248 NA
ATOM     46  C   UNL A   1      45.386  27.383  25.489  1.00  0.00     0.031 C 
ATOM     47  C   UNL A   1      41.889  25.441  28.121  1.00  0.00     0.029 A 
ATOM     48  N   UNL A   1      42.855  27.328  28.725  1.00  0.00    -0.354 N 
ATOM     49  C   UNL A   1      46.956  28.238  26.891  1.00  0.00     0.074 A 
ATOM     50  C   UNL A   1      46.526  28.077  25.529  1.00  0.00     0.031 C 
ATOM     51  C   UNL A   1      40.921  26.208  28.666  1.00  0.00     0.029 A 
ATOM     52  C   UNL A   1      41.511  27.461  29.085  1.00  0.00     0.049 A 
ATOM     53  H   UNL A   1      43.543  27.984  28.980  1.00  0.00     0.167 HD
ATOM     54  C   UNL A   1      47.573  29.276  27.519  1.00  0.00     0.037 A 
ATOM     55  C   UNL A   1      40.933  28.551  29.655  1.00  0.00     0.037 A 
ATOM     56  C   UNL A   1      47.737  28.985  28.925  1.00  0.00     0.049 A 
ATOM     57  C   UNL A   1      42.032  29.370  30.229  1.00  0.00     0.074 A 
ATOM     58  C   UNL A   1      48.371  27.990  29.645  1.00  0.00     0.029 A 
ATOM     59  N   UNL A   1      46.846  29.565  29.794  1.00  0.00    -0.354 N 
ATOM     60  N   UNL A   1      42.770  28.983  31.232  1.00  0.00    -0.248 NA
ATOM     61  C   UNL A   1      42.622  30.380  29.367  1.00  0.00     0.031 C 
ATOM     62  C   UNL A   1      47.498  27.712  30.739  1.00  0.00     0.029 A 
ATOM     63  C   UNL A   1      46.434  28.613  30.688  1.00  0.00     0.049 A 
ATOM     64  H   UNL A   1      46.554  30.505  29.778  1.00  0.00     0.167 HD
ATOM     65  C   UNL A   1      44.060  29.346  30.872  1.00  0.00     0.074 A 
ATOM     66  C   UNL A   1      43.896  30.265  29.747  1.00  0.00     0.031 C 
ATOM     67  C   UNL A   1      45.133  28.628  31.318  1.00  0.00     0.037 A 
BRANCH  54  68
ATOM     68  C   UNL A   1      47.614  30.695  26.989  1.00  0.00     0.064 A 
ATOM     69  C   UNL A   1      48.834  31.400  27.054  1.00  0.00     0.173 A 
ATOM     70  C   UNL A   1      46.475  31.489  26.726  1.00  0.00     0.173 A 
ATOM     71  F   UNL A   1      49.983  30.755  27.304  1.00  0.00    -0.203 F 
ATOM     72  C   UNL A   1      48.890  32.794  26.971  1.00  0.00     0.198 A 
ATOM     73  C   UNL A   1      46.544  32.875  26.591  1.00  0.00     0.198 A 
ATOM     74  F   UNL A   1      45.236  30.991  26.697  1.00  0.00    -0.203 F 
ATOM     75  F   UNL A   1      50.054  33.425  27.184  1.00  0.00    -0.200 F 
ATOM     76  C   UNL A   1      47.743  33.532  26.750  1.00  0.00     0.200 A 
ATOM     77  F   UNL A   1      45.415  33.572  26.394  1.00  0.00    -0.200 F 
ATOM     78  F   UNL A   1      47.783  34.870  26.740  1.00  0.00    -0.200 F 
ENDBRANCH  54  68
BRANCH  55  79
ATOM     79  C   UNL A   1      39.570  29.103  29.441  1.00  0.00     0.064 A 
ATOM     80  C   UNL A   1      39.090  29.365  28.145  1.00  0.00     0.173 A 
ATOM     81  C   UNL A   1      38.609  29.102  30.470  1.00  0.00     0.173 A 
ATOM     82  F   UNL A   1      39.930  29.341  27.100  1.00  0.00    -0.203 F 
ATOM     83  C   UNL A   1      37.730  29.577  27.891  1.00  0.00     0.198 A 
ATOM     84  C   UNL A   1      37.252  29.319  30.217  1.00  0.00     0.198 A 
ATOM     85  F   UNL A   1      38.951  28.788  31.728  1.00  0.00    -0.203 F 
ATOM     86  F   UNL A   1      37.303  29.756  26.633  1.00  0.00    -0.200 F 
ATOM     87  C   UNL A   1      36.811  29.541  28.926  1.00  0.00     0.200 A 
ATOM     88  F   UNL A   1      36.368  29.241  31.222  1.00  0.00    -0.200 F 
ATOM     89  F   UNL A   1      35.500  29.676  28.675  1.00  0.00    -0.200 F 
ENDBRANCH  55  79
BRANCH  67  90
ATOM     90  C   UNL A   1      44.903  27.633  32.424  1.00  0.00     0.064 A 
ATOM     91  C   UNL A   1      44.802  27.960  33.788  1.00  0.00     0.173 A 
ATOM     92  C   UNL A   1      44.646  26.304  32.062  1.00  0.00     0.173 A 
ATOM     93  F   UNL A   1      44.934  29.223  34.210  1.00  0.00    -0.203 F 
ATOM     94  C   UNL A   1      44.502  26.988  34.744  1.00  0.00     0.198 A 
ATOM     95  C   UNL A   1      44.309  25.346  33.012  1.00  0.00     0.198 A 
ATOM     96  F   UNL A   1      44.676  25.945  30.769  1.00  0.00    -0.203 F 
ATOM     97  F   UNL A   1      44.427  27.321  36.042  1.00  0.00    -0.200 F 
ATOM     98  C   UNL A   1      44.250  25.684  34.354  1.00  0.00     0.200 A 
ATOM     99  F   UNL A   1      44.018  24.098  32.621  1.00  0.00    -0.200 F 
ATOM    100  F   UNL A   1      43.926  24.757  35.266  1.00  0.00    -0.200 F 
ENDBRANCH  67  90
ENDBRANCH  41  42
ENDBRANCH  33  36
ENDBRANCH  31  32
ENDBRANCH  30  31
ENDBRANCH  29  30
ENDBRANCH   3  29
TORSDOF 16
ENDMDL
