MODEL 1
REMARK VINA RESULT:     -11.2      0.000      0.000
REMARK SMILES COC(=O)[C@@H]([NH2+]CC(C)(C)C(=O)NCCCNC(=O)c1ccc(-c2c3nc(c(-c4c(F)c(F)c(F)c(F)c4F)c4ccc([nH]4)c(-c4c(F)c(F)c(F)c(F)c4F)c4nc(c(-c5c(F)c(F)c(F)c(F)c5F)c5ccc2[nH]5)C=C4)C=C3)cc1)c1ccccc1
REMARK SMILES IDX 11 1 12 2 13 3 8 5 9 6 10 7 7 8 6 9 5 12 3 13 4 14 2 15 1 16
REMARK SMILES IDX 83 17 84 18 88 19 85 20 87 21 86 22 14 23 15 24 16 25 17 26
REMARK SMILES IDX 18 27 19 29 20 30 21 31 82 32 22 33 81 34 23 35 24 36 25 37
REMARK SMILES IDX 75 38 26 39 80 40 74 41 76 42 27 43 79 44 73 45 72 46 28 48
REMARK SMILES IDX 60 49 40 50 59 51 41 52 44 53 58 54 77 55 42 56 43 57 57 59
REMARK SMILES IDX 78 60 45 61 29 62 30 63 38 64 31 65 32 66 36 67 39 68 33 69
REMARK SMILES IDX 34 70 37 71 35 72 61 73 62 74 70 75 63 76 64 77 68 78 71 79
REMARK SMILES IDX 65 80 66 81 69 82 67 83 46 84 47 85 55 86 48 87 49 88 53 89
REMARK SMILES IDX 56 90 50 91 51 92 54 93 52 94
REMARK H PARENT 13 4 6 10 6 11 17 28 76 47 44 58
REMARK Flexibility Score: inf
ROOT
ATOM      1  C   UNL A   1      32.149  28.746  26.716  1.00  0.00     0.231 C 
ATOM      2  O   UNL A   1      31.910  28.147  27.766  1.00  0.00    -0.274 OA
ATOM      3  N   UNL A   1      32.075  30.103  26.778  1.00  0.00    -0.355 N 
ATOM      4  H   UNL A   1      32.592  30.536  27.496  1.00  0.00     0.163 HD
ENDROOT
BRANCH   1   5
ATOM      5  C   UNL A   1      32.467  28.012  25.408  1.00  0.00     0.092 C 
ATOM      6  C   UNL A   1      33.141  28.894  24.349  1.00  0.00     0.027 C 
ATOM      7  C   UNL A   1      31.132  27.447  24.878  1.00  0.00     0.027 C 
BRANCH   5   8
ATOM      8  C   UNL A   1      33.395  26.779  25.687  1.00  0.00     0.277 C 
BRANCH   8   9
ATOM      9  N   UNL A   1      32.895  25.510  26.241  1.00  0.00    -0.330 N 
ATOM     10  H   UNL A   1      33.392  25.355  27.118  1.00  0.00     0.347 HD
ATOM     11  H   UNL A   1      31.888  25.655  26.299  1.00  0.00     0.347 HD
BRANCH   9  12
ATOM     12  C   UNL A   1      33.024  24.256  25.440  1.00  0.00     0.324 C 
BRANCH  12  13
ATOM     13  C   UNL A   1      32.204  23.168  26.200  1.00  0.00     0.369 C 
ATOM     14  O   UNL A   1      32.167  23.088  27.426  1.00  0.00    -0.245 OA
BRANCH  13  15
ATOM     15  O   UNL A   1      31.588  22.290  25.357  1.00  0.00    -0.464 OA
ATOM     16  C   UNL A   1      32.145  20.975  25.374  1.00  0.00     0.282 C 
ENDBRANCH  13  15
ENDBRANCH  12  13
BRANCH  12  17
ATOM     17  C   UNL A   1      34.432  23.757  25.053  1.00  0.00     0.021 A 
ATOM     18  C   UNL A   1      35.548  23.861  25.897  1.00  0.00     0.010 A 
ATOM     19  C   UNL A   1      34.694  23.319  23.736  1.00  0.00     0.010 A 
ATOM     20  C   UNL A   1      36.845  23.552  25.468  1.00  0.00     0.001 A 
ATOM     21  C   UNL A   1      35.985  22.983  23.309  1.00  0.00     0.001 A 
ATOM     22  C   UNL A   1      37.065  23.108  24.174  1.00  0.00     0.000 A 
ENDBRANCH  12  17
ENDBRANCH   9  12
ENDBRANCH   8   9
ENDBRANCH   5   8
ENDBRANCH   1   5
BRANCH   3  23
ATOM     23  C   UNL A   1      31.322  30.984  25.906  1.00  0.00     0.117 C 
BRANCH  23  24
ATOM     24  C   UNL A   1      31.194  32.378  26.520  1.00  0.00     0.042 C 
BRANCH  24  25
ATOM     25  C   UNL A   1      32.459  32.874  27.217  1.00  0.00     0.118 C 
BRANCH  25  26
ATOM     26  N   UNL A   1      32.357  34.263  27.635  1.00  0.00    -0.352 N 
ATOM     27  C   UNL A   1      33.006  34.950  28.630  1.00  0.00     0.251 C 
ATOM     28  H   UNL A   1      31.714  34.802  27.118  1.00  0.00     0.163 HD
ATOM     29  O   UNL A   1      32.603  36.061  28.959  1.00  0.00    -0.269 OA
BRANCH  27  30
ATOM     30  C   UNL A   1      34.174  34.361  29.322  1.00  0.00     0.039 A 
ATOM     31  C   UNL A   1      33.958  33.652  30.508  1.00  0.00     0.014 A 
ATOM     32  C   UNL A   1      35.475  34.544  28.848  1.00  0.00     0.014 A 
ATOM     33  C   UNL A   1      35.038  33.080  31.183  1.00  0.00     0.010 A 
ATOM     34  C   UNL A   1      36.543  33.906  29.476  1.00  0.00     0.010 A 
ATOM     35  C   UNL A   1      36.336  33.175  30.654  1.00  0.00    -0.014 A 
BRANCH  35  36
ATOM     36  C   UNL A   1      37.477  32.500  31.323  1.00  0.00     0.031 A 
ATOM     37  C   UNL A   1      38.172  31.336  30.673  1.00  0.00     0.074 A 
ATOM     38  C   UNL A   1      37.851  32.905  32.552  1.00  0.00     0.049 A 
ATOM     39  N   UNL A   1      39.177  30.622  31.114  1.00  0.00    -0.248 NA
ATOM     40  C   UNL A   1      37.648  30.895  29.372  1.00  0.00     0.031 C 
ATOM     41  C   UNL A   1      37.205  33.969  33.323  1.00  0.00     0.029 A 
ATOM     42  N   UNL A   1      38.860  32.465  33.373  1.00  0.00    -0.354 N 
ATOM     43  C   UNL A   1      39.392  29.640  30.156  1.00  0.00     0.074 A 
ATOM     44  C   UNL A   1      38.382  29.817  29.136  1.00  0.00     0.031 C 
ATOM     45  C   UNL A   1      37.844  34.114  34.494  1.00  0.00     0.029 A 
ATOM     46  C   UNL A   1      38.930  33.140  34.566  1.00  0.00     0.049 A 
ATOM     47  H   UNL A   1      39.474  31.736  33.129  1.00  0.00     0.167 HD
ATOM     48  C   UNL A   1      40.359  28.690  30.120  1.00  0.00     0.037 A 
ATOM     49  C   UNL A   1      39.777  32.993  35.602  1.00  0.00     0.037 A 
ATOM     50  C   UNL A   1      41.382  28.538  31.121  1.00  0.00     0.049 A 
ATOM     51  C   UNL A   1      40.875  31.971  35.514  1.00  0.00     0.074 A 
ATOM     52  C   UNL A   1      42.461  27.670  31.129  1.00  0.00     0.029 A 
ATOM     53  N   UNL A   1      41.450  29.269  32.298  1.00  0.00    -0.354 N 
ATOM     54  N   UNL A   1      41.131  31.114  34.556  1.00  0.00    -0.248 NA
ATOM     55  C   UNL A   1      41.812  31.910  36.643  1.00  0.00     0.031 C 
ATOM     56  C   UNL A   1      43.156  27.846  32.332  1.00  0.00     0.029 A 
ATOM     57  C   UNL A   1      42.538  28.856  33.051  1.00  0.00     0.049 A 
ATOM     58  H   UNL A   1      40.819  29.978  32.559  1.00  0.00     0.167 HD
ATOM     59  C   UNL A   1      42.263  30.419  34.959  1.00  0.00     0.074 A 
ATOM     60  C   UNL A   1      42.660  30.976  36.235  1.00  0.00     0.031 C 
ATOM     61  C   UNL A   1      42.912  29.409  34.328  1.00  0.00     0.037 A 
BRANCH  48  62
ATOM     62  C   UNL A   1      40.353  27.741  28.957  1.00  0.00     0.064 A 
ATOM     63  C   UNL A   1      39.592  26.561  28.971  1.00  0.00     0.173 A 
ATOM     64  C   UNL A   1      41.098  28.025  27.802  1.00  0.00     0.173 A 
ATOM     65  F   UNL A   1      38.870  26.237  30.054  1.00  0.00    -0.203 F 
ATOM     66  C   UNL A   1      39.607  25.685  27.889  1.00  0.00     0.198 A 
ATOM     67  C   UNL A   1      41.086  27.161  26.710  1.00  0.00     0.198 A 
ATOM     68  F   UNL A   1      41.837  29.142  27.733  1.00  0.00    -0.203 F 
ATOM     69  F   UNL A   1      38.915  24.538  27.948  1.00  0.00    -0.200 F 
ATOM     70  C   UNL A   1      40.348  25.989  26.757  1.00  0.00     0.200 A 
ATOM     71  F   UNL A   1      41.794  27.462  25.612  1.00  0.00    -0.200 F 
ATOM     72  F   UNL A   1      40.359  25.146  25.716  1.00  0.00    -0.200 F 
ENDBRANCH  48  62
BRANCH  49  73
ATOM     73  C   UNL A   1      39.635  33.867  36.794  1.00  0.00     0.064 A 
ATOM     74  C   UNL A   1      40.256  35.122  36.845  1.00  0.00     0.173 A 
ATOM     75  C   UNL A   1      38.858  33.476  37.893  1.00  0.00     0.173 A 
ATOM     76  F   UNL A   1      41.024  35.531  35.825  1.00  0.00    -0.203 F 
ATOM     77  C   UNL A   1      40.117  35.948  37.958  1.00  0.00     0.198 A 
ATOM     78  C   UNL A   1      38.698  34.314  38.994  1.00  0.00     0.198 A 
ATOM     79  F   UNL A   1      38.235  32.288  37.888  1.00  0.00    -0.203 F 
ATOM     80  F   UNL A   1      40.750  37.128  37.997  1.00  0.00    -0.200 F 
ATOM     81  C   UNL A   1      39.332  35.546  39.030  1.00  0.00     0.200 A 
ATOM     82  F   UNL A   1      37.925  33.930  40.020  1.00  0.00    -0.200 F 
ATOM     83  F   UNL A   1      39.189  36.346  40.095  1.00  0.00    -0.200 F 
ENDBRANCH  49  73
BRANCH  61  84
ATOM     84  C   UNL A   1      44.123  28.848  35.015  1.00  0.00     0.064 A 
ATOM     85  C   UNL A   1      44.022  27.786  35.927  1.00  0.00     0.173 A 
ATOM     86  C   UNL A   1      45.398  29.369  34.751  1.00  0.00     0.173 A 
ATOM     87  F   UNL A   1      42.822  27.264  36.225  1.00  0.00    -0.203 F 
ATOM     88  C   UNL A   1      45.149  27.289  36.574  1.00  0.00     0.198 A 
ATOM     89  C   UNL A   1      46.527  28.850  35.379  1.00  0.00     0.198 A 
ATOM     90  F   UNL A   1      45.550  30.380  33.883  1.00  0.00    -0.203 F 
ATOM     91  F   UNL A   1      45.022  26.313  37.484  1.00  0.00    -0.200 F 
ATOM     92  C   UNL A   1      46.401  27.818  36.296  1.00  0.00     0.200 A 
ATOM     93  F   UNL A   1      47.738  29.354  35.101  1.00  0.00    -0.200 F 
ATOM     94  F   UNL A   1      47.485  27.340  36.923  1.00  0.00    -0.200 F 
ENDBRANCH  61  84
ENDBRANCH  35  36
ENDBRANCH  27  30
ENDBRANCH  25  26
ENDBRANCH  24  25
ENDBRANCH  23  24
ENDBRANCH   3  23
TORSDOF 16
ENDMDL
MODEL 2
REMARK VINA RESULT:     -11.1      0.578      1.751
REMARK SMILES COC(=O)[C@@H]([NH2+]CC(C)(C)C(=O)NCCCNC(=O)c1ccc(-c2c3nc(c(-c4c(F)c(F)c(F)c(F)c4F)c4ccc([nH]4)c(-c4c(F)c(F)c(F)c(F)c4F)c4nc(c(-c5c(F)c(F)c(F)c(F)c5F)c5ccc2[nH]5)C=C4)C=C3)cc1)c1ccccc1
REMARK SMILES IDX 11 1 12 2 13 3 8 5 9 6 10 7 7 8 6 9 5 12 3 13 4 14 2 15 1 16
REMARK SMILES IDX 83 17 84 18 88 19 85 20 87 21 86 22 14 23 15 24 16 25 17 26
REMARK SMILES IDX 18 27 19 29 20 30 21 31 82 32 22 33 81 34 23 35 24 36 25 37
REMARK SMILES IDX 75 38 26 39 80 40 74 41 76 42 27 43 79 44 73 45 72 46 28 48
REMARK SMILES IDX 60 49 40 50 59 51 41 52 44 53 58 54 77 55 42 56 43 57 57 59
REMARK SMILES IDX 78 60 45 61 29 62 30 63 38 64 31 65 32 66 36 67 39 68 33 69
REMARK SMILES IDX 34 70 37 71 35 72 61 73 62 74 70 75 63 76 64 77 68 78 71 79
REMARK SMILES IDX 65 80 66 81 69 82 67 83 46 84 47 85 55 86 48 87 49 88 53 89
REMARK SMILES IDX 56 90 50 91 51 92 54 93 52 94
REMARK H PARENT 13 4 6 10 6 11 17 28 76 47 44 58
REMARK Flexibility Score: inf
ROOT
ATOM      1  C   UNL A   1      31.755  28.593  26.990  1.00  0.00     0.231 C 
ATOM      2  O   UNL A   1      31.247  28.112  28.004  1.00  0.00    -0.274 OA
ATOM      3  N   UNL A   1      31.887  29.947  26.978  1.00  0.00    -0.355 N 
ATOM      4  H   UNL A   1      32.333  30.349  27.758  1.00  0.00     0.163 HD
ENDROOT
BRANCH   1   5
ATOM      5  C   UNL A   1      32.175  27.728  25.795  1.00  0.00     0.092 C 
ATOM      6  C   UNL A   1      33.566  28.068  25.242  1.00  0.00     0.027 C 
ATOM      7  C   UNL A   1      31.096  27.917  24.707  1.00  0.00     0.027 C 
BRANCH   5   8
ATOM      8  C   UNL A   1      32.156  26.210  26.186  1.00  0.00     0.277 C 
BRANCH   8   9
ATOM      9  N   UNL A   1      33.374  25.390  26.274  1.00  0.00    -0.330 N 
ATOM     10  H   UNL A   1      34.124  25.928  25.838  1.00  0.00     0.347 HD
ATOM     11  H   UNL A   1      33.462  25.197  27.271  1.00  0.00     0.347 HD
BRANCH   9  12
ATOM     12  C   UNL A   1      33.395  24.033  25.650  1.00  0.00     0.324 C 
BRANCH  12  13
ATOM     13  C   UNL A   1      32.393  23.163  26.469  1.00  0.00     0.369 C 
ATOM     14  O   UNL A   1      32.410  23.094  27.696  1.00  0.00    -0.245 OA
BRANCH  13  15
ATOM     15  O   UNL A   1      31.545  22.448  25.674  1.00  0.00    -0.464 OA
ATOM     16  C   UNL A   1      31.015  23.187  24.573  1.00  0.00     0.282 C 
ENDBRANCH  13  15
ENDBRANCH  12  13
BRANCH  12  17
ATOM     17  C   UNL A   1      34.750  23.323  25.447  1.00  0.00     0.021 A 
ATOM     18  C   UNL A   1      34.878  21.937  25.270  1.00  0.00     0.010 A 
ATOM     19  C   UNL A   1      35.957  24.038  25.606  1.00  0.00     0.010 A 
ATOM     20  C   UNL A   1      36.123  21.295  25.250  1.00  0.00     0.001 A 
ATOM     21  C   UNL A   1      37.207  23.405  25.561  1.00  0.00     0.001 A 
ATOM     22  C   UNL A   1      37.289  22.029  25.391  1.00  0.00     0.000 A 
ENDBRANCH  12  17
ENDBRANCH   9  12
ENDBRANCH   8   9
ENDBRANCH   5   8
ENDBRANCH   1   5
BRANCH   3  23
ATOM     23  C   UNL A   1      31.443  30.865  25.945  1.00  0.00     0.117 C 
BRANCH  23  24
ATOM     24  C   UNL A   1      31.305  32.282  26.500  1.00  0.00     0.042 C 
BRANCH  24  25
ATOM     25  C   UNL A   1      32.532  32.778  27.264  1.00  0.00     0.118 C 
BRANCH  25  26
ATOM     26  N   UNL A   1      32.419  34.175  27.652  1.00  0.00    -0.352 N 
ATOM     27  C   UNL A   1      33.050  34.883  28.644  1.00  0.00     0.251 C 
ATOM     28  H   UNL A   1      31.784  34.702  27.113  1.00  0.00     0.163 HD
ATOM     29  O   UNL A   1      32.639  36.000  28.943  1.00  0.00    -0.269 OA
BRANCH  27  30
ATOM     30  C   UNL A   1      34.207  34.312  29.367  1.00  0.00     0.039 A 
ATOM     31  C   UNL A   1      33.978  33.661  30.583  1.00  0.00     0.014 A 
ATOM     32  C   UNL A   1      35.512  34.456  28.891  1.00  0.00     0.014 A 
ATOM     33  C   UNL A   1      35.047  33.106  31.288  1.00  0.00     0.010 A 
ATOM     34  C   UNL A   1      36.569  33.834  29.553  1.00  0.00     0.010 A 
ATOM     35  C   UNL A   1      36.349  33.160  30.761  1.00  0.00    -0.014 A 
BRANCH  35  36
ATOM     36  C   UNL A   1      37.478  32.502  31.466  1.00  0.00     0.031 A 
ATOM     37  C   UNL A   1      38.191  31.331  30.850  1.00  0.00     0.074 A 
ATOM     38  C   UNL A   1      37.824  32.929  32.695  1.00  0.00     0.049 A 
ATOM     39  N   UNL A   1      39.190  30.629  31.324  1.00  0.00    -0.248 NA
ATOM     40  C   UNL A   1      37.697  30.865  29.547  1.00  0.00     0.031 C 
ATOM     41  C   UNL A   1      37.157  34.003  33.435  1.00  0.00     0.029 A 
ATOM     42  N   UNL A   1      38.817  32.508  33.545  1.00  0.00    -0.354 N 
ATOM     43  C   UNL A   1      39.430  29.631  30.389  1.00  0.00     0.074 A 
ATOM     44  C   UNL A   1      38.440  29.787  29.344  1.00  0.00     0.031 C 
ATOM     45  C   UNL A   1      37.771  34.171  34.616  1.00  0.00     0.029 A 
ATOM     46  C   UNL A   1      38.859  33.203  34.728  1.00  0.00     0.049 A 
ATOM     47  H   UNL A   1      39.439  31.778  33.326  1.00  0.00     0.167 HD
ATOM     48  C   UNL A   1      40.401  28.686  30.389  1.00  0.00     0.037 A 
ATOM     49  C   UNL A   1      39.684  33.077  35.783  1.00  0.00     0.037 A 
ATOM     50  C   UNL A   1      41.403  28.555  31.414  1.00  0.00     0.049 A 
ATOM     51  C   UNL A   1      40.788  32.060  35.736  1.00  0.00     0.074 A 
ATOM     52  C   UNL A   1      42.485  27.693  31.459  1.00  0.00     0.029 A 
ATOM     53  N   UNL A   1      41.443  29.306  32.579  1.00  0.00    -0.354 N 
ATOM     54  N   UNL A   1      41.068  31.187  34.799  1.00  0.00    -0.248 NA
ATOM     55  C   UNL A   1      41.701  32.022  36.885  1.00  0.00     0.031 C 
ATOM     56  C   UNL A   1      43.154  27.892  32.673  1.00  0.00     0.029 A 
ATOM     57  C   UNL A   1      42.517  28.912  33.362  1.00  0.00     0.049 A 
ATOM     58  H   UNL A   1      40.804  30.017  32.815  1.00  0.00     0.167 HD
ATOM     59  C   UNL A   1      42.194  30.505  35.237  1.00  0.00     0.074 A 
ATOM     60  C   UNL A   1      42.562  31.085  36.512  1.00  0.00     0.031 C 
ATOM     61  C   UNL A   1      42.861  29.488  34.637  1.00  0.00     0.037 A 
BRANCH  48  62
ATOM     62  C   UNL A   1      40.424  27.718  29.242  1.00  0.00     0.064 A 
ATOM     63  C   UNL A   1      39.581  26.595  29.206  1.00  0.00     0.173 A 
ATOM     64  C   UNL A   1      41.282  27.925  28.151  1.00  0.00     0.173 A 
ATOM     65  F   UNL A   1      38.748  26.344  30.228  1.00  0.00    -0.203 F 
ATOM     66  C   UNL A   1      39.623  25.700  28.141  1.00  0.00     0.198 A 
ATOM     67  C   UNL A   1      41.299  27.044  27.073  1.00  0.00     0.198 A 
ATOM     68  F   UNL A   1      42.103  28.986  28.130  1.00  0.00    -0.203 F 
ATOM     69  F   UNL A   1      38.847  24.606  28.156  1.00  0.00    -0.200 F 
ATOM     70  C   UNL A   1      40.477  25.928  27.073  1.00  0.00     0.200 A 
ATOM     71  F   UNL A   1      42.117  27.273  26.036  1.00  0.00    -0.200 F 
ATOM     72  F   UNL A   1      40.514  25.067  26.047  1.00  0.00    -0.200 F 
ENDBRANCH  48  62
BRANCH  49  73
ATOM     73  C   UNL A   1      39.513  33.971  36.957  1.00  0.00     0.064 A 
ATOM     74  C   UNL A   1      38.764  33.564  38.070  1.00  0.00     0.173 A 
ATOM     75  C   UNL A   1      40.113  35.237  37.000  1.00  0.00     0.173 A 
ATOM     76  F   UNL A   1      38.158  32.368  38.067  1.00  0.00    -0.203 F 
ATOM     77  C   UNL A   1      38.611  34.396  39.176  1.00  0.00     0.198 A 
ATOM     78  C   UNL A   1      39.980  36.058  38.117  1.00  0.00     0.198 A 
ATOM     79  F   UNL A   1      40.846  35.668  35.963  1.00  0.00    -0.203 F 
ATOM     80  F   UNL A   1      37.861  33.998  40.212  1.00  0.00    -0.200 F 
ATOM     81  C   UNL A   1      39.224  35.641  39.202  1.00  0.00     0.200 A 
ATOM     82  F   UNL A   1      40.588  37.252  38.145  1.00  0.00    -0.200 F 
ATOM     83  F   UNL A   1      39.085  36.436  40.270  1.00  0.00    -0.200 F 
ENDBRANCH  49  73
BRANCH  61  84
ATOM     84  C   UNL A   1      44.060  28.943  35.359  1.00  0.00     0.064 A 
ATOM     85  C   UNL A   1      45.345  29.462  35.139  1.00  0.00     0.173 A 
ATOM     86  C   UNL A   1      43.921  27.902  36.288  1.00  0.00     0.173 A 
ATOM     87  F   UNL A   1      45.531  30.449  34.249  1.00  0.00    -0.203 F 
ATOM     88  C   UNL A   1      46.452  28.935  35.798  1.00  0.00     0.198 A 
ATOM     89  C   UNL A   1      45.027  27.396  36.966  1.00  0.00     0.198 A 
ATOM     90  F   UNL A   1      42.713  27.374  36.539  1.00  0.00    -0.203 F 
ATOM     91  F   UNL A   1      47.677  29.407  35.530  1.00  0.00    -0.200 F 
ATOM     92  C   UNL A   1      46.291  27.906  36.714  1.00  0.00     0.200 A 
ATOM     93  F   UNL A   1      44.869  26.409  37.859  1.00  0.00    -0.200 F 
ATOM     94  F   UNL A   1      47.359  27.397  37.345  1.00  0.00    -0.200 F 
ENDBRANCH  61  84
ENDBRANCH  35  36
ENDBRANCH  27  30
ENDBRANCH  25  26
ENDBRANCH  24  25
ENDBRANCH  23  24
ENDBRANCH   3  23
TORSDOF 16
ENDMDL
MODEL 3
REMARK VINA RESULT:     -11.1      5.337     10.856
REMARK SMILES COC(=O)[C@@H]([NH2+]CC(C)(C)C(=O)NCCCNC(=O)c1ccc(-c2c3nc(c(-c4c(F)c(F)c(F)c(F)c4F)c4ccc([nH]4)c(-c4c(F)c(F)c(F)c(F)c4F)c4nc(c(-c5c(F)c(F)c(F)c(F)c5F)c5ccc2[nH]5)C=C4)C=C3)cc1)c1ccccc1
REMARK SMILES IDX 11 1 12 2 13 3 8 5 9 6 10 7 7 8 6 9 5 12 3 13 4 14 2 15 1 16
REMARK SMILES IDX 83 17 84 18 88 19 85 20 87 21 86 22 14 23 15 24 16 25 17 26
REMARK SMILES IDX 18 27 19 29 20 30 21 31 82 32 22 33 81 34 23 35 24 36 25 37
REMARK SMILES IDX 75 38 26 39 80 40 74 41 76 42 27 43 79 44 73 45 72 46 28 48
REMARK SMILES IDX 60 49 40 50 59 51 41 52 44 53 58 54 77 55 42 56 43 57 57 59
REMARK SMILES IDX 78 60 45 61 29 62 30 63 38 64 31 65 32 66 36 67 39 68 33 69
REMARK SMILES IDX 34 70 37 71 35 72 61 73 62 74 70 75 63 76 64 77 68 78 71 79
REMARK SMILES IDX 65 80 66 81 69 82 67 83 46 84 47 85 55 86 48 87 49 88 53 89
REMARK SMILES IDX 56 90 50 91 51 92 54 93 52 94
REMARK H PARENT 13 4 6 10 6 11 17 28 76 47 44 58
REMARK Flexibility Score: inf
ROOT
ATOM      1  C   UNL A   1      36.023  22.634  23.970  1.00  0.00     0.231 C 
ATOM      2  O   UNL A   1      36.213  23.062  22.830  1.00  0.00    -0.274 OA
ATOM      3  N   UNL A   1      36.939  21.739  24.427  1.00  0.00    -0.355 N 
ATOM      4  H   UNL A   1      37.884  22.008  24.360  1.00  0.00     0.163 HD
ENDROOT
BRANCH   1   5
ATOM      5  C   UNL A   1      34.808  23.050  24.809  1.00  0.00     0.092 C 
ATOM      6  C   UNL A   1      35.050  22.988  26.323  1.00  0.00     0.027 C 
ATOM      7  C   UNL A   1      33.647  22.116  24.405  1.00  0.00     0.027 C 
BRANCH   5   8
ATOM      8  C   UNL A   1      34.362  24.506  24.438  1.00  0.00     0.277 C 
BRANCH   8   9
ATOM      9  N   UNL A   1      33.007  25.019  24.700  1.00  0.00    -0.330 N 
ATOM     10  H   UNL A   1      32.783  25.663  23.941  1.00  0.00     0.347 HD
ATOM     11  H   UNL A   1      32.441  24.174  24.772  1.00  0.00     0.347 HD
BRANCH   9  12
ATOM     12  C   UNL A   1      32.727  25.739  25.979  1.00  0.00     0.324 C 
BRANCH  12  13
ATOM     13  C   UNL A   1      31.396  25.143  26.531  1.00  0.00     0.369 C 
ATOM     14  O   UNL A   1      30.295  25.649  26.322  1.00  0.00    -0.245 OA
BRANCH  13  15
ATOM     15  O   UNL A   1      31.596  24.044  27.313  1.00  0.00    -0.464 OA
ATOM     16  C   UNL A   1      30.967  22.858  26.826  1.00  0.00     0.282 C 
ENDBRANCH  13  15
ENDBRANCH  12  13
BRANCH  12  17
ATOM     17  C   UNL A   1      32.718  27.282  25.981  1.00  0.00     0.021 A 
ATOM     18  C   UNL A   1      32.922  28.058  24.830  1.00  0.00     0.010 A 
ATOM     19  C   UNL A   1      32.672  27.990  27.202  1.00  0.00     0.010 A 
ATOM     20  C   UNL A   1      33.072  29.450  24.880  1.00  0.00     0.001 A 
ATOM     21  C   UNL A   1      32.794  29.385  27.256  1.00  0.00     0.001 A 
ATOM     22  C   UNL A   1      33.004  30.116  26.093  1.00  0.00     0.000 A 
ENDBRANCH  12  17
ENDBRANCH   9  12
ENDBRANCH   8   9
ENDBRANCH   5   8
ENDBRANCH   1   5
BRANCH   3  23
ATOM     23  C   UNL A   1      36.681  20.432  25.004  1.00  0.00     0.117 C 
BRANCH  23  24
ATOM     24  C   UNL A   1      37.938  19.563  24.965  1.00  0.00     0.042 C 
BRANCH  24  25
ATOM     25  C   UNL A   1      39.059  20.042  25.886  1.00  0.00     0.118 C 
BRANCH  25  26
ATOM     26  N   UNL A   1      40.171  19.106  25.943  1.00  0.00    -0.352 N 
ATOM     27  C   UNL A   1      41.521  19.325  26.064  1.00  0.00     0.251 C 
ATOM     28  H   UNL A   1      39.913  18.157  25.885  1.00  0.00     0.163 HD
ATOM     29  O   UNL A   1      42.302  18.400  25.864  1.00  0.00    -0.269 OA
BRANCH  27  30
ATOM     30  C   UNL A   1      42.045  20.662  26.416  1.00  0.00     0.039 A 
ATOM     31  C   UNL A   1      42.323  21.562  25.382  1.00  0.00     0.014 A 
ATOM     32  C   UNL A   1      42.315  21.018  27.739  1.00  0.00     0.014 A 
ATOM     33  C   UNL A   1      42.814  22.835  25.681  1.00  0.00     0.010 A 
ATOM     34  C   UNL A   1      42.729  22.314  28.043  1.00  0.00     0.010 A 
ATOM     35  C   UNL A   1      42.990  23.232  27.017  1.00  0.00    -0.014 A 
BRANCH  35  36
ATOM     36  C   UNL A   1      43.436  24.610  27.344  1.00  0.00     0.031 A 
ATOM     37  C   UNL A   1      42.444  25.659  27.763  1.00  0.00     0.074 A 
ATOM     38  C   UNL A   1      44.736  24.932  27.205  1.00  0.00     0.049 A 
ATOM     39  N   UNL A   1      42.651  26.914  28.077  1.00  0.00    -0.248 NA
ATOM     40  C   UNL A   1      41.031  25.257  27.803  1.00  0.00     0.031 C 
ATOM     41  C   UNL A   1      45.783  24.026  26.728  1.00  0.00     0.029 A 
ATOM     42  N   UNL A   1      45.399  26.109  27.444  1.00  0.00    -0.354 N 
ATOM     43  C   UNL A   1      41.397  27.453  28.333  1.00  0.00     0.074 A 
ATOM     44  C   UNL A   1      40.430  26.403  28.089  1.00  0.00     0.031 C 
ATOM     45  C   UNL A   1      46.958  24.672  26.729  1.00  0.00     0.029 A 
ATOM     46  C   UNL A   1      46.746  26.044  27.184  1.00  0.00     0.049 A 
ATOM     47  H   UNL A   1      44.952  26.923  27.770  1.00  0.00     0.167 HD
ATOM     48  C   UNL A   1      41.082  28.701  28.755  1.00  0.00     0.037 A 
ATOM     49  C   UNL A   1      47.703  26.982  27.303  1.00  0.00     0.037 A 
ATOM     50  C   UNL A   1      42.049  29.732  29.028  1.00  0.00     0.049 A 
ATOM     51  C   UNL A   1      47.337  28.342  27.827  1.00  0.00     0.074 A 
ATOM     52  C   UNL A   1      41.840  30.997  29.549  1.00  0.00     0.029 A 
ATOM     53  N   UNL A   1      43.412  29.617  28.797  1.00  0.00    -0.354 N 
ATOM     54  N   UNL A   1      46.160  28.809  28.163  1.00  0.00    -0.248 NA
ATOM     55  C   UNL A   1      48.437  29.298  28.006  1.00  0.00     0.031 C 
ATOM     56  C   UNL A   1      43.071  31.663  29.591  1.00  0.00     0.029 A 
ATOM     57  C   UNL A   1      44.054  30.796  29.141  1.00  0.00     0.049 A 
ATOM     58  H   UNL A   1      43.858  28.815  28.441  1.00  0.00     0.167 HD
ATOM     59  C   UNL A   1      46.376  30.108  28.603  1.00  0.00     0.074 A 
ATOM     60  C   UNL A   1      47.802  30.344  28.518  1.00  0.00     0.031 C 
ATOM     61  C   UNL A   1      45.473  31.022  29.035  1.00  0.00     0.037 A 
BRANCH  48  62
ATOM     62  C   UNL A   1      39.627  29.020  28.948  1.00  0.00     0.064 A 
ATOM     63  C   UNL A   1      38.806  29.396  27.873  1.00  0.00     0.173 A 
ATOM     64  C   UNL A   1      39.039  28.926  30.218  1.00  0.00     0.173 A 
ATOM     65  F   UNL A   1      39.320  29.511  26.639  1.00  0.00    -0.203 F 
ATOM     66  C   UNL A   1      37.462  29.700  28.069  1.00  0.00     0.198 A 
ATOM     67  C   UNL A   1      37.687  29.201  30.406  1.00  0.00     0.198 A 
ATOM     68  F   UNL A   1      39.777  28.564  31.279  1.00  0.00    -0.203 F 
ATOM     69  F   UNL A   1      36.711  30.109  27.036  1.00  0.00    -0.200 F 
ATOM     70  C   UNL A   1      36.902  29.597  29.334  1.00  0.00     0.200 A 
ATOM     71  F   UNL A   1      37.145  29.089  31.627  1.00  0.00    -0.200 F 
ATOM     72  F   UNL A   1      35.607  29.887  29.521  1.00  0.00    -0.200 F 
ENDBRANCH  48  62
BRANCH  49  73
ATOM     73  C   UNL A   1      49.106  26.646  26.952  1.00  0.00     0.064 A 
ATOM     74  C   UNL A   1      50.009  26.210  27.931  1.00  0.00     0.173 A 
ATOM     75  C   UNL A   1      49.564  26.731  25.629  1.00  0.00     0.173 A 
ATOM     76  F   UNL A   1      49.621  26.130  29.211  1.00  0.00    -0.203 F 
ATOM     77  C   UNL A   1      51.323  25.885  27.602  1.00  0.00     0.198 A 
ATOM     78  C   UNL A   1      50.871  26.381  25.298  1.00  0.00     0.198 A 
ATOM     79  F   UNL A   1      48.735  27.134  24.655  1.00  0.00    -0.203 F 
ATOM     80  F   UNL A   1      52.177  25.504  28.562  1.00  0.00    -0.200 F 
ATOM     81  C   UNL A   1      51.752  25.964  26.284  1.00  0.00     0.200 A 
ATOM     82  F   UNL A   1      51.276  26.442  24.022  1.00  0.00    -0.200 F 
ATOM     83  F   UNL A   1      53.012  25.640  25.967  1.00  0.00    -0.200 F 
ENDBRANCH  49  73
BRANCH  61  84
ATOM     84  C   UNL A   1      46.009  32.361  29.452  1.00  0.00     0.064 A 
ATOM     85  C   UNL A   1      46.094  33.430  28.547  1.00  0.00     0.173 A 
ATOM     86  C   UNL A   1      46.432  32.580  30.771  1.00  0.00     0.173 A 
ATOM     87  F   UNL A   1      45.716  33.265  27.271  1.00  0.00    -0.203 F 
ATOM     88  C   UNL A   1      46.614  34.660  28.941  1.00  0.00     0.198 A 
ATOM     89  C   UNL A   1      46.925  33.820  31.168  1.00  0.00     0.198 A 
ATOM     90  F   UNL A   1      46.367  31.592  31.677  1.00  0.00    -0.203 F 
ATOM     91  F   UNL A   1      46.739  35.650  28.046  1.00  0.00    -0.200 F 
ATOM     92  C   UNL A   1      47.024  34.855  30.251  1.00  0.00     0.200 A 
ATOM     93  F   UNL A   1      47.310  34.011  32.437  1.00  0.00    -0.200 F 
ATOM     94  F   UNL A   1      47.528  36.039  30.627  1.00  0.00    -0.200 F 
ENDBRANCH  61  84
ENDBRANCH  35  36
ENDBRANCH  27  30
ENDBRANCH  25  26
ENDBRANCH  24  25
ENDBRANCH  23  24
ENDBRANCH   3  23
TORSDOF 16
ENDMDL
