MODEL 1
REMARK VINA RESULT:     -11.6      0.000      0.000
REMARK SMILES O=C(NCCCNC(=O)[C@H]1CC[C@@H](CNc2ncccn2)O1)c1ccc(-c2c3nc(c(-c4c(F)c(F)c(F)c(F)c4F)c4ccc([nH]4)c(-c4c(F)c(F)c(F)c(F)c4F)c4nc(c(-c5c(F)c(F)c(F)c(F)c5F)c5ccc2[nH]5)C=C4)C=C3)cc1
REMARK SMILES IDX 5 1 4 2 3 3 1 4 2 5 23 7 24 8 85 9 25 10 84 11 26 12 27 13
REMARK SMILES IDX 28 14 78 15 29 16 83 17 77 18 79 19 30 20 82 21 76 22 75 23
REMARK SMILES IDX 31 25 63 26 43 27 62 28 44 29 47 30 61 31 80 32 45 33 46 34
REMARK SMILES IDX 60 36 81 37 48 38 32 39 33 40 41 41 34 42 35 43 39 44 42 45
REMARK SMILES IDX 36 46 37 47 40 48 38 49 64 50 65 51 73 52 66 53 67 54 71 55
REMARK SMILES IDX 74 56 68 57 69 58 72 59 70 60 49 61 50 62 58 63 51 64 52 65
REMARK SMILES IDX 56 66 59 67 53 68 54 69 57 70 55 71 6 72 7 73 8 74 9 76
REMARK SMILES IDX 10 77 11 78 22 79 12 80 13 81 14 82 15 83 16 85 17 86 21 87
REMARK SMILES IDX 18 88 20 89 19 90
REMARK H PARENT 3 6 79 24 47 35 7 75 15 84
REMARK Flexibility Score: inf
ROOT
ATOM      1  C   UNL A   1      31.447  32.111  26.864  1.00  0.00     0.042 C 
ENDROOT
BRANCH   1   2
ATOM      2  C   UNL A   1      32.736  32.917  26.947  1.00  0.00     0.118 C 
BRANCH   2   3
ATOM      3  N   UNL A   1      32.529  34.205  27.600  1.00  0.00    -0.352 N 
ATOM      4  O   UNL A   1      32.529  35.686  29.292  1.00  0.00    -0.269 OA
ATOM      5  C   UNL A   1      33.046  34.704  28.769  1.00  0.00     0.251 C 
ATOM      6  H   UNL A   1      31.919  34.815  27.125  1.00  0.00     0.163 HD
BRANCH   5   7
ATOM      7  C   UNL A   1      34.218  34.067  29.405  1.00  0.00     0.039 A 
ATOM      8  C   UNL A   1      34.056  33.060  30.359  1.00  0.00     0.014 A 
ATOM      9  C   UNL A   1      35.501  34.435  28.991  1.00  0.00     0.014 A 
ATOM     10  C   UNL A   1      35.164  32.529  31.005  1.00  0.00     0.010 A 
ATOM     11  C   UNL A   1      36.618  33.828  29.570  1.00  0.00     0.010 A 
ATOM     12  C   UNL A   1      36.457  32.889  30.600  1.00  0.00    -0.014 A 
BRANCH  12  13
ATOM     13  C   UNL A   1      37.630  32.226  31.221  1.00  0.00     0.031 A 
ATOM     14  C   UNL A   1      38.379  31.150  30.491  1.00  0.00     0.074 A 
ATOM     15  C   UNL A   1      38.011  32.606  32.455  1.00  0.00     0.049 A 
ATOM     16  N   UNL A   1      39.388  30.424  30.900  1.00  0.00    -0.248 NA
ATOM     17  C   UNL A   1      37.928  30.840  29.126  1.00  0.00     0.031 C 
ATOM     18  C   UNL A   1      37.356  33.642  33.257  1.00  0.00     0.029 A 
ATOM     19  N   UNL A   1      39.037  32.170  33.252  1.00  0.00    -0.354 N 
ATOM     20  C   UNL A   1      39.678  29.556  29.856  1.00  0.00     0.074 A 
ATOM     21  C   UNL A   1      38.722  29.828  28.804  1.00  0.00     0.031 C 
ATOM     22  C   UNL A   1      38.010  33.781  34.418  1.00  0.00     0.029 A 
ATOM     23  C   UNL A   1      39.085  32.797  34.472  1.00  0.00     0.049 A 
ATOM     24  H   UNL A   1      39.677  31.474  32.977  1.00  0.00     0.167 HD
ATOM     25  C   UNL A   1      40.657  28.622  29.786  1.00  0.00     0.037 A 
ATOM     26  C   UNL A   1      39.887  32.584  35.532  1.00  0.00     0.037 A 
ATOM     27  C   UNL A   1      41.607  28.370  30.839  1.00  0.00     0.049 A 
ATOM     28  C   UNL A   1      40.940  31.520  35.442  1.00  0.00     0.074 A 
ATOM     29  C   UNL A   1      42.658  27.468  30.858  1.00  0.00     0.029 A 
ATOM     30  N   UNL A   1      41.617  29.017  32.068  1.00  0.00    -0.354 N 
ATOM     31  N   UNL A   1      41.222  30.720  34.442  1.00  0.00    -0.248 NA
ATOM     32  C   UNL A   1      41.784  31.325  36.627  1.00  0.00     0.031 C 
ATOM     33  C   UNL A   1      43.268  27.533  32.115  1.00  0.00     0.029 A 
ATOM     34  C   UNL A   1      42.639  28.517  32.860  1.00  0.00     0.049 A 
ATOM     35  H   UNL A   1      40.990  29.727  32.336  1.00  0.00     0.167 HD
ATOM     36  C   UNL A   1      42.292  29.945  34.864  1.00  0.00     0.074 A 
ATOM     37  C   UNL A   1      42.614  30.377  36.209  1.00  0.00     0.031 C 
ATOM     38  C   UNL A   1      42.949  28.966  34.194  1.00  0.00     0.037 A 
BRANCH  25  39
ATOM     39  C   UNL A   1      40.727  27.781  28.543  1.00  0.00     0.064 A 
ATOM     40  C   UNL A   1      41.498  28.161  27.433  1.00  0.00     0.173 A 
ATOM     41  C   UNL A   1      40.026  26.568  28.466  1.00  0.00     0.173 A 
ATOM     42  F   UNL A   1      42.179  29.317  27.446  1.00  0.00    -0.203 F 
ATOM     43  C   UNL A   1      41.535  27.376  26.282  1.00  0.00     0.198 A 
ATOM     44  C   UNL A   1      40.091  25.770  27.327  1.00  0.00     0.198 A 
ATOM     45  F   UNL A   1      39.278  26.152  29.500  1.00  0.00    -0.203 F 
ATOM     46  F   UNL A   1      42.232  27.788  25.214  1.00  0.00    -0.200 F 
ATOM     47  C   UNL A   1      40.837  26.179  26.232  1.00  0.00     0.200 A 
ATOM     48  F   UNL A   1      39.425  24.607  27.287  1.00  0.00    -0.200 F 
ATOM     49  F   UNL A   1      40.873  25.425  25.125  1.00  0.00    -0.200 F 
ENDBRANCH  25  39
BRANCH  26  50
ATOM     50  C   UNL A   1      39.702  33.399  36.759  1.00  0.00     0.064 A 
ATOM     51  C   UNL A   1      40.408  34.594  36.945  1.00  0.00     0.173 A 
ATOM     52  C   UNL A   1      38.784  33.020  37.751  1.00  0.00     0.173 A 
ATOM     53  F   UNL A   1      41.308  34.989  36.032  1.00  0.00    -0.203 F 
ATOM     54  C   UNL A   1      40.209  35.378  38.080  1.00  0.00     0.198 A 
ATOM     55  C   UNL A   1      38.563  33.819  38.870  1.00  0.00     0.198 A 
ATOM     56  F   UNL A   1      38.078  31.889  37.615  1.00  0.00    -0.203 F 
ATOM     57  F   UNL A   1      40.918  36.502  38.248  1.00  0.00    -0.200 F 
ATOM     58  C   UNL A   1      39.280  34.995  39.037  1.00  0.00     0.200 A 
ATOM     59  F   UNL A   1      37.652  33.455  39.781  1.00  0.00    -0.200 F 
ATOM     60  F   UNL A   1      39.077  35.758  40.119  1.00  0.00    -0.200 F 
ENDBRANCH  26  50
BRANCH  38  61
ATOM     61  C   UNL A   1      44.114  28.324  34.890  1.00  0.00     0.064 A 
ATOM     62  C   UNL A   1      45.404  28.869  34.827  1.00  0.00     0.173 A 
ATOM     63  C   UNL A   1      43.922  27.172  35.669  1.00  0.00     0.173 A 
ATOM     64  F   UNL A   1      45.641  29.958  34.082  1.00  0.00    -0.203 F 
ATOM     65  C   UNL A   1      46.464  28.273  35.505  1.00  0.00     0.198 A 
ATOM     66  C   UNL A   1      44.977  26.597  36.368  1.00  0.00     0.198 A 
ATOM     67  F   UNL A   1      42.705  26.615  35.764  1.00  0.00    -0.203 F 
ATOM     68  F   UNL A   1      47.698  28.785  35.398  1.00  0.00    -0.200 F 
ATOM     69  C   UNL A   1      46.248  27.144  36.281  1.00  0.00     0.200 A 
ATOM     70  F   UNL A   1      44.764  25.514  37.130  1.00  0.00    -0.200 F 
ATOM     71  F   UNL A   1      47.268  26.580  36.942  1.00  0.00    -0.200 F 
ENDBRANCH  38  61
ENDBRANCH  12  13
ENDBRANCH   5   7
ENDBRANCH   2   3
ENDBRANCH   1   2
BRANCH   1  72
ATOM     72  C   UNL A   1      31.700  30.624  26.650  1.00  0.00     0.117 C 
BRANCH  72  73
ATOM     73  N   UNL A   1      33.074  30.273  26.943  1.00  0.00    -0.354 N 
ATOM     74  C   UNL A   1      33.781  29.118  26.943  1.00  0.00     0.249 C 
ATOM     75  H   UNL A   1      33.620  31.052  27.201  1.00  0.00     0.163 HD
ATOM     76  O   UNL A   1      34.893  29.194  27.487  1.00  0.00    -0.272 OA
BRANCH  74  77
ATOM     77  C   UNL A   1      33.365  27.797  26.257  1.00  0.00     0.207 C 
ATOM     78  C   UNL A   1      32.019  27.153  26.499  1.00  0.00     0.045 C 
ATOM     79  O   UNL A   1      33.467  27.959  24.830  1.00  0.00    -0.363 OA
ATOM     80  C   UNL A   1      31.170  27.669  25.358  1.00  0.00     0.037 C 
ATOM     81  C   UNL A   1      32.170  27.797  24.224  1.00  0.00     0.138 C 
BRANCH  81  82
ATOM     82  C   UNL A   1      31.865  28.953  23.246  1.00  0.00     0.148 C 
BRANCH  82  83
ATOM     83  N   UNL A   1      30.651  28.689  22.488  1.00  0.00    -0.352 N 
ATOM     84  H   UNL A   1      30.491  27.823  22.048  1.00  0.00     0.163 HD
BRANCH  83  85
ATOM     85  C   UNL A   1      29.737  29.723  22.423  1.00  0.00     0.222 A 
ATOM     86  N   UNL A   1      29.520  30.369  23.576  1.00  0.00    -0.222 NA
ATOM     87  N   UNL A   1      29.189  30.076  21.251  1.00  0.00    -0.222 NA
ATOM     88  C   UNL A   1      28.753  31.472  23.523  1.00  0.00     0.117 A 
ATOM     89  C   UNL A   1      28.405  31.170  21.254  1.00  0.00     0.117 A 
ATOM     90  C   UNL A   1      28.163  31.928  22.372  1.00  0.00     0.040 A 
ENDBRANCH  83  85
ENDBRANCH  82  83
ENDBRANCH  81  82
ENDBRANCH  74  77
ENDBRANCH  72  73
ENDBRANCH   1  72
TORSDOF 13
ENDMDL
MODEL 2
REMARK VINA RESULT:     -11.6      6.565     11.726
REMARK SMILES O=C(NCCCNC(=O)[C@H]1CC[C@@H](CNc2ncccn2)O1)c1ccc(-c2c3nc(c(-c4c(F)c(F)c(F)c(F)c4F)c4ccc([nH]4)c(-c4c(F)c(F)c(F)c(F)c4F)c4nc(c(-c5c(F)c(F)c(F)c(F)c5F)c5ccc2[nH]5)C=C4)C=C3)cc1
REMARK SMILES IDX 5 1 4 2 3 3 1 4 2 5 23 7 24 8 85 9 25 10 84 11 26 12 27 13
REMARK SMILES IDX 28 14 78 15 29 16 83 17 77 18 79 19 30 20 82 21 76 22 75 23
REMARK SMILES IDX 31 25 63 26 43 27 62 28 44 29 47 30 61 31 80 32 45 33 46 34
REMARK SMILES IDX 60 36 81 37 48 38 32 39 33 40 41 41 34 42 35 43 39 44 42 45
REMARK SMILES IDX 36 46 37 47 40 48 38 49 64 50 65 51 73 52 66 53 67 54 71 55
REMARK SMILES IDX 74 56 68 57 69 58 72 59 70 60 49 61 50 62 58 63 51 64 52 65
REMARK SMILES IDX 56 66 59 67 53 68 54 69 57 70 55 71 6 72 7 73 8 74 9 76
REMARK SMILES IDX 10 77 11 78 22 79 12 80 13 81 14 82 15 83 16 85 17 86 21 87
REMARK SMILES IDX 18 88 20 89 19 90
REMARK H PARENT 3 6 79 24 47 35 7 75 15 84
REMARK Flexibility Score: inf
ROOT
ATOM      1  C   UNL A   1      38.363  19.844  24.962  1.00  0.00     0.042 C 
ENDROOT
BRANCH   1   2
ATOM      2  C   UNL A   1      39.226  19.949  26.211  1.00  0.00     0.118 C 
BRANCH   2   3
ATOM      3  N   UNL A   1      40.405  19.094  26.129  1.00  0.00    -0.352 N 
ATOM      4  O   UNL A   1      42.544  18.563  25.682  1.00  0.00    -0.269 OA
ATOM      5  C   UNL A   1      41.735  19.418  26.028  1.00  0.00     0.251 C 
ATOM      6  H   UNL A   1      40.216  18.128  26.148  1.00  0.00     0.163 HD
BRANCH   5   7
ATOM      7  C   UNL A   1      42.200  20.787  26.331  1.00  0.00     0.039 A 
ATOM      8  C   UNL A   1      42.280  21.755  25.327  1.00  0.00     0.014 A 
ATOM      9  C   UNL A   1      42.496  21.130  27.654  1.00  0.00     0.014 A 
ATOM     10  C   UNL A   1      42.795  23.012  25.612  1.00  0.00     0.010 A 
ATOM     11  C   UNL A   1      42.918  22.426  27.958  1.00  0.00     0.010 A 
ATOM     12  C   UNL A   1      43.096  23.369  26.934  1.00  0.00    -0.014 A 
BRANCH  12  13
ATOM     13  C   UNL A   1      43.534  24.753  27.237  1.00  0.00     0.031 A 
ATOM     14  C   UNL A   1      42.576  25.753  27.814  1.00  0.00     0.074 A 
ATOM     15  C   UNL A   1      44.810  25.099  26.983  1.00  0.00     0.049 A 
ATOM     16  N   UNL A   1      42.768  27.018  28.088  1.00  0.00    -0.248 NA
ATOM     17  C   UNL A   1      41.219  25.272  28.113  1.00  0.00     0.031 C 
ATOM     18  C   UNL A   1      45.828  24.208  26.423  1.00  0.00     0.029 A 
ATOM     19  N   UNL A   1      45.471  26.287  27.161  1.00  0.00    -0.354 N 
ATOM     20  C   UNL A   1      41.555  27.491  28.567  1.00  0.00     0.074 A 
ATOM     21  C   UNL A   1      40.624  26.383  28.523  1.00  0.00     0.031 C 
ATOM     22  C   UNL A   1      46.990  24.869  26.328  1.00  0.00     0.029 A 
ATOM     23  C   UNL A   1      46.781  26.248  26.753  1.00  0.00     0.049 A 
ATOM     24  H   UNL A   1      45.048  27.089  27.543  1.00  0.00     0.167 HD
ATOM     25  C   UNL A   1      41.250  28.737  29.006  1.00  0.00     0.037 A 
ATOM     26  C   UNL A   1      47.707  27.223  26.698  1.00  0.00     0.037 A 
ATOM     27  C   UNL A   1      42.192  29.827  29.053  1.00  0.00     0.049 A 
ATOM     28  C   UNL A   1      47.336  28.603  27.157  1.00  0.00     0.074 A 
ATOM     29  C   UNL A   1      41.996  31.119  29.509  1.00  0.00     0.029 A 
ATOM     30  N   UNL A   1      43.508  29.754  28.618  1.00  0.00    -0.354 N 
ATOM     31  N   UNL A   1      46.192  29.035  27.631  1.00  0.00    -0.248 NA
ATOM     32  C   UNL A   1      48.380  29.631  27.071  1.00  0.00     0.031 C 
ATOM     33  C   UNL A   1      43.176  31.841  29.301  1.00  0.00     0.029 A 
ATOM     34  C   UNL A   1      44.128  30.984  28.772  1.00  0.00     0.049 A 
ATOM     35  H   UNL A   1      43.939  28.946  28.255  1.00  0.00     0.167 HD
ATOM     36  C   UNL A   1      46.384  30.377  27.925  1.00  0.00     0.074 A 
ATOM     37  C   UNL A   1      47.758  30.685  27.583  1.00  0.00     0.031 C 
ATOM     38  C   UNL A   1      45.500  31.269  28.434  1.00  0.00     0.037 A 
BRANCH  25  39
ATOM     39  C   UNL A   1      39.835  28.995  29.440  1.00  0.00     0.064 A 
ATOM     40  C   UNL A   1      39.413  28.783  30.762  1.00  0.00     0.173 A 
ATOM     41  C   UNL A   1      38.889  29.478  28.522  1.00  0.00     0.173 A 
ATOM     42  F   UNL A   1      40.272  28.311  31.678  1.00  0.00    -0.203 F 
ATOM     43  C   UNL A   1      38.091  29.012  31.139  1.00  0.00     0.198 A 
ATOM     44  C   UNL A   1      37.577  29.735  28.909  1.00  0.00     0.198 A 
ATOM     45  F   UNL A   1      39.239  29.704  27.246  1.00  0.00    -0.203 F 
ATOM     46  F   UNL A   1      37.699  28.747  32.392  1.00  0.00    -0.200 F 
ATOM     47  C   UNL A   1      37.176  29.493  30.214  1.00  0.00     0.200 A 
ATOM     48  F   UNL A   1      36.698  30.212  28.017  1.00  0.00    -0.200 F 
ATOM     49  F   UNL A   1      35.905  29.712  30.578  1.00  0.00    -0.200 F 
ENDBRANCH  25  39
BRANCH  26  50
ATOM     50  C   UNL A   1      49.062  26.912  26.178  1.00  0.00     0.064 A 
ATOM     51  C   UNL A   1      50.065  26.423  27.025  1.00  0.00     0.173 A 
ATOM     52  C   UNL A   1      49.369  27.057  24.816  1.00  0.00     0.173 A 
ATOM     53  F   UNL A   1      49.824  26.283  28.337  1.00  0.00    -0.203 F 
ATOM     54  C   UNL A   1      51.326  26.096  26.531  1.00  0.00     0.198 A 
ATOM     55  C   UNL A   1      50.620  26.701  24.318  1.00  0.00     0.198 A 
ATOM     56  F   UNL A   1      48.440  27.513  23.964  1.00  0.00    -0.203 F 
ATOM     57  F   UNL A   1      52.278  25.657  27.367  1.00  0.00    -0.200 F 
ATOM     58  C   UNL A   1      51.600  26.226  25.177  1.00  0.00     0.200 A 
ATOM     59  F   UNL A   1      50.873  26.810  23.008  1.00  0.00    -0.200 F 
ATOM     60  F   UNL A   1      52.808  25.895  24.701  1.00  0.00    -0.200 F 
ENDBRANCH  26  50
BRANCH  38  61
ATOM     61  C   UNL A   1      46.006  32.658  28.698  1.00  0.00     0.064 A 
ATOM     62  C   UNL A   1      46.617  33.004  29.912  1.00  0.00     0.173 A 
ATOM     63  C   UNL A   1      45.919  33.641  27.700  1.00  0.00     0.173 A 
ATOM     64  F   UNL A   1      46.708  32.105  30.903  1.00  0.00    -0.203 F 
ATOM     65  C   UNL A   1      47.106  34.291  30.123  1.00  0.00     0.198 A 
ATOM     66  C   UNL A   1      46.435  34.917  27.904  1.00  0.00     0.198 A 
ATOM     67  F   UNL A   1      45.347  33.358  26.520  1.00  0.00    -0.203 F 
ATOM     68  F   UNL A   1      47.647  34.613  31.306  1.00  0.00    -0.200 F 
ATOM     69  C   UNL A   1      47.022  35.242  29.118  1.00  0.00     0.200 A 
ATOM     70  F   UNL A   1      46.367  35.830  26.926  1.00  0.00    -0.200 F 
ATOM     71  F   UNL A   1      47.504  36.476  29.320  1.00  0.00    -0.200 F 
ENDBRANCH  38  61
ENDBRANCH  12  13
ENDBRANCH   5   7
ENDBRANCH   2   3
ENDBRANCH   1   2
BRANCH   1  72
ATOM     72  C   UNL A   1      37.336  20.964  24.864  1.00  0.00     0.117 C 
BRANCH  72  73
ATOM     73  N   UNL A   1      37.762  22.138  25.599  1.00  0.00    -0.354 N 
ATOM     74  C   UNL A   1      37.287  23.400  25.733  1.00  0.00     0.249 C 
ATOM     75  H   UNL A   1      38.583  21.984  26.121  1.00  0.00     0.163 HD
ATOM     76  O   UNL A   1      38.074  24.191  26.273  1.00  0.00    -0.272 OA
BRANCH  74  77
ATOM     77  C   UNL A   1      35.864  23.880  25.369  1.00  0.00     0.207 C 
ATOM     78  C   UNL A   1      35.270  23.672  23.995  1.00  0.00     0.045 C 
ATOM     79  O   UNL A   1      34.924  23.296  26.291  1.00  0.00    -0.363 OA
ATOM     80  C   UNL A   1      34.481  22.390  24.141  1.00  0.00     0.037 C 
ATOM     81  C   UNL A   1      33.999  22.451  25.579  1.00  0.00     0.138 C 
BRANCH  81  82
ATOM     82  C   UNL A   1      33.873  21.069  26.257  1.00  0.00     0.148 C 
BRANCH  82  83
ATOM     83  N   UNL A   1      32.736  20.330  25.728  1.00  0.00    -0.352 N 
ATOM     84  H   UNL A   1      31.826  20.705  25.728  1.00  0.00     0.163 HD
BRANCH  83  85
ATOM     85  C   UNL A   1      33.010  19.073  25.225  1.00  0.00     0.222 A 
ATOM     86  N   UNL A   1      34.199  18.943  24.622  1.00  0.00    -0.222 NA
ATOM     87  N   UNL A   1      32.153  18.060  25.419  1.00  0.00    -0.222 NA
ATOM     88  C   UNL A   1      34.564  17.702  24.252  1.00  0.00     0.117 A 
ATOM     89  C   UNL A   1      32.550  16.842  25.006  1.00  0.00     0.117 A 
ATOM     90  C   UNL A   1      33.770  16.597  24.425  1.00  0.00     0.040 A 
ENDBRANCH  83  85
ENDBRANCH  82  83
ENDBRANCH  81  82
ENDBRANCH  74  77
ENDBRANCH  72  73
ENDBRANCH   1  72
TORSDOF 13
ENDMDL
MODEL 3
REMARK VINA RESULT:     -11.6      0.139      1.712
REMARK SMILES O=C(NCCCNC(=O)[C@H]1CC[C@@H](CNc2ncccn2)O1)c1ccc(-c2c3nc(c(-c4c(F)c(F)c(F)c(F)c4F)c4ccc([nH]4)c(-c4c(F)c(F)c(F)c(F)c4F)c4nc(c(-c5c(F)c(F)c(F)c(F)c5F)c5ccc2[nH]5)C=C4)C=C3)cc1
REMARK SMILES IDX 5 1 4 2 3 3 1 4 2 5 23 7 24 8 85 9 25 10 84 11 26 12 27 13
REMARK SMILES IDX 28 14 78 15 29 16 83 17 77 18 79 19 30 20 82 21 76 22 75 23
REMARK SMILES IDX 31 25 63 26 43 27 62 28 44 29 47 30 61 31 80 32 45 33 46 34
REMARK SMILES IDX 60 36 81 37 48 38 32 39 33 40 41 41 34 42 35 43 39 44 42 45
REMARK SMILES IDX 36 46 37 47 40 48 38 49 64 50 65 51 73 52 66 53 67 54 71 55
REMARK SMILES IDX 74 56 68 57 69 58 72 59 70 60 49 61 50 62 58 63 51 64 52 65
REMARK SMILES IDX 56 66 59 67 53 68 54 69 57 70 55 71 6 72 7 73 8 74 9 76
REMARK SMILES IDX 10 77 11 78 22 79 12 80 13 81 14 82 15 83 16 85 17 86 21 87
REMARK SMILES IDX 18 88 20 89 19 90
REMARK H PARENT 3 6 79 24 47 35 7 75 15 84
REMARK Flexibility Score: inf
ROOT
ATOM      1  C   UNL A   1      31.463  32.102  26.874  1.00  0.00     0.042 C 
ENDROOT
BRANCH   1   2
ATOM      2  C   UNL A   1      32.746  32.920  26.936  1.00  0.00     0.118 C 
BRANCH   2   3
ATOM      3  N   UNL A   1      32.533  34.214  27.575  1.00  0.00    -0.352 N 
ATOM      4  O   UNL A   1      32.526  35.714  29.250  1.00  0.00    -0.269 OA
ATOM      5  C   UNL A   1      33.047  34.727  28.739  1.00  0.00     0.251 C 
ATOM      6  H   UNL A   1      31.922  34.816  27.092  1.00  0.00     0.163 HD
BRANCH   5   7
ATOM      7  C   UNL A   1      34.220  34.101  29.384  1.00  0.00     0.039 A 
ATOM      8  C   UNL A   1      34.060  33.110  30.354  1.00  0.00     0.014 A 
ATOM      9  C   UNL A   1      35.503  34.462  28.962  1.00  0.00     0.014 A 
ATOM     10  C   UNL A   1      35.169  32.590  31.007  1.00  0.00     0.010 A 
ATOM     11  C   UNL A   1      36.620  33.865  29.549  1.00  0.00     0.010 A 
ATOM     12  C   UNL A   1      36.461  32.943  30.595  1.00  0.00    -0.014 A 
BRANCH  12  13
ATOM     13  C   UNL A   1      37.635  32.291  31.224  1.00  0.00     0.031 A 
ATOM     14  C   UNL A   1      38.389  31.209  30.508  1.00  0.00     0.074 A 
ATOM     15  C   UNL A   1      38.013  32.685  32.455  1.00  0.00     0.049 A 
ATOM     16  N   UNL A   1      39.400  30.492  30.926  1.00  0.00    -0.248 NA
ATOM     17  C   UNL A   1      37.942  30.884  29.145  1.00  0.00     0.031 C 
ATOM     18  C   UNL A   1      37.353  33.727  33.244  1.00  0.00     0.029 A 
ATOM     19  N   UNL A   1      39.040  32.261  33.258  1.00  0.00    -0.354 N 
ATOM     20  C   UNL A   1      39.694  29.614  29.892  1.00  0.00     0.074 A 
ATOM     21  C   UNL A   1      38.739  29.871  28.835  1.00  0.00     0.031 C 
ATOM     22  C   UNL A   1      38.005  33.881  34.405  1.00  0.00     0.029 A 
ATOM     23  C   UNL A   1      39.083  32.901  34.472  1.00  0.00     0.049 A 
ATOM     24  H   UNL A   1      39.682  31.564  32.992  1.00  0.00     0.167 HD
ATOM     25  C   UNL A   1      40.677  28.682  29.833  1.00  0.00     0.037 A 
ATOM     26  C   UNL A   1      39.883  32.703  35.535  1.00  0.00     0.037 A 
ATOM     27  C   UNL A   1      41.626  28.444  30.891  1.00  0.00     0.049 A 
ATOM     28  C   UNL A   1      40.941  31.641  35.459  1.00  0.00     0.074 A 
ATOM     29  C   UNL A   1      42.680  27.546  30.921  1.00  0.00     0.029 A 
ATOM     30  N   UNL A   1      41.631  29.105  32.112  1.00  0.00    -0.354 N 
ATOM     31  N   UNL A   1      41.227  30.831  34.467  1.00  0.00    -0.248 NA
ATOM     32  C   UNL A   1      41.783  31.461  36.647  1.00  0.00     0.031 C 
ATOM     33  C   UNL A   1      43.287  27.626  32.178  1.00  0.00     0.029 A 
ATOM     34  C   UNL A   1      42.654  28.617  32.911  1.00  0.00     0.049 A 
ATOM     35  H   UNL A   1      41.002  29.816  32.372  1.00  0.00     0.167 HD
ATOM     36  C   UNL A   1      42.299  30.064  34.900  1.00  0.00     0.074 A 
ATOM     37  C   UNL A   1      42.616  30.512  36.241  1.00  0.00     0.031 C 
ATOM     38  C   UNL A   1      42.960  29.081  34.241  1.00  0.00     0.037 A 
BRANCH  25  39
ATOM     39  C   UNL A   1      40.752  27.828  28.599  1.00  0.00     0.064 A 
ATOM     40  C   UNL A   1      40.031  26.630  28.479  1.00  0.00     0.173 A 
ATOM     41  C   UNL A   1      41.546  28.224  27.511  1.00  0.00     0.173 A 
ATOM     42  F   UNL A   1      39.266  26.198  29.493  1.00  0.00    -0.203 F 
ATOM     43  C   UNL A   1      40.129  25.844  27.333  1.00  0.00     0.198 A 
ATOM     44  C   UNL A   1      41.618  27.452  26.354  1.00  0.00     0.198 A 
ATOM     45  F   UNL A   1      42.252  29.364  27.567  1.00  0.00    -0.203 F 
ATOM     46  F   UNL A   1      39.476  24.676  27.265  1.00  0.00    -0.200 F 
ATOM     47  C   UNL A   1      40.917  26.259  26.269  1.00  0.00     0.200 A 
ATOM     48  F   UNL A   1      42.369  27.862  25.323  1.00  0.00    -0.200 F 
ATOM     49  F   UNL A   1      41.011  25.502  25.168  1.00  0.00    -0.200 F 
ENDBRANCH  25  39
BRANCH  26  50
ATOM     50  C   UNL A   1      39.694  33.530  36.754  1.00  0.00     0.064 A 
ATOM     51  C   UNL A   1      40.349  34.759  36.900  1.00  0.00     0.173 A 
ATOM     52  C   UNL A   1      38.821  33.127  37.776  1.00  0.00     0.173 A 
ATOM     53  F   UNL A   1      41.205  35.178  35.956  1.00  0.00    -0.203 F 
ATOM     54  C   UNL A   1      40.144  35.553  38.027  1.00  0.00     0.198 A 
ATOM     55  C   UNL A   1      38.593  33.935  38.888  1.00  0.00     0.198 A 
ATOM     56  F   UNL A   1      38.164  31.962  37.678  1.00  0.00    -0.203 F 
ATOM     57  F   UNL A   1      40.804  36.711  38.157  1.00  0.00    -0.200 F 
ATOM     58  C   UNL A   1      39.259  35.144  39.015  1.00  0.00     0.200 A 
ATOM     59  F   UNL A   1      37.725  33.546  39.829  1.00  0.00    -0.200 F 
ATOM     60  F   UNL A   1      39.050  35.916  40.090  1.00  0.00    -0.200 F 
ENDBRANCH  26  50
BRANCH  38  61
ATOM     61  C   UNL A   1      44.126  28.450  34.946  1.00  0.00     0.064 A 
ATOM     62  C   UNL A   1      43.972  27.324  35.767  1.00  0.00     0.173 A 
ATOM     63  C   UNL A   1      45.422  28.955  34.754  1.00  0.00     0.173 A 
ATOM     64  F   UNL A   1      42.753  26.816  35.995  1.00  0.00    -0.203 F 
ATOM     65  C   UNL A   1      45.074  26.737  36.386  1.00  0.00     0.198 A 
ATOM     66  C   UNL A   1      46.522  28.349  35.351  1.00  0.00     0.198 A 
ATOM     67  F   UNL A   1      45.621  30.029  33.974  1.00  0.00    -0.203 F 
ATOM     68  F   UNL A   1      44.900  25.688  37.201  1.00  0.00    -0.200 F 
ATOM     69  C   UNL A   1      46.346  27.244  36.171  1.00  0.00     0.200 A 
ATOM     70  F   UNL A   1      47.753  28.831  35.130  1.00  0.00    -0.200 F 
ATOM     71  F   UNL A   1      47.405  26.671  36.758  1.00  0.00    -0.200 F 
ENDBRANCH  38  61
ENDBRANCH  12  13
ENDBRANCH   5   7
ENDBRANCH   2   3
ENDBRANCH   1   2
BRANCH   1  72
ATOM     72  C   UNL A   1      31.718  30.637  26.545  1.00  0.00     0.117 C 
BRANCH  72  73
ATOM     73  N   UNL A   1      33.048  30.228  26.948  1.00  0.00    -0.354 N 
ATOM     74  C   UNL A   1      33.702  29.043  27.006  1.00  0.00     0.249 C 
ATOM     75  H   UNL A   1      33.605  30.983  27.248  1.00  0.00     0.163 HD
ATOM     76  O   UNL A   1      34.768  29.073  27.637  1.00  0.00    -0.272 OA
BRANCH  74  77
ATOM     77  C   UNL A   1      33.284  27.738  26.291  1.00  0.00     0.207 C 
ATOM     78  C   UNL A   1      31.912  27.128  26.463  1.00  0.00     0.045 C 
ATOM     79  O   UNL A   1      33.458  27.907  24.871  1.00  0.00    -0.363 OA
ATOM     80  C   UNL A   1      31.132  27.674  25.286  1.00  0.00     0.037 C 
ATOM     81  C   UNL A   1      32.188  27.784  24.203  1.00  0.00     0.138 C 
BRANCH  81  82
ATOM     82  C   UNL A   1      31.960  28.955  23.221  1.00  0.00     0.148 C 
BRANCH  82  83
ATOM     83  N   UNL A   1      30.749  28.753  22.441  1.00  0.00    -0.352 N 
ATOM     84  H   UNL A   1      30.580  27.918  21.947  1.00  0.00     0.163 HD
BRANCH  83  85
ATOM     85  C   UNL A   1      29.848  29.801  22.434  1.00  0.00     0.222 A 
ATOM     86  N   UNL A   1      29.277  30.059  21.251  1.00  0.00    -0.222 NA
ATOM     87  N   UNL A   1      29.534  30.437  23.573  1.00  0.00    -0.222 NA
ATOM     88  C   UNL A   1      28.288  30.970  21.235  1.00  0.00     0.117 A 
ATOM     89  C   UNL A   1      28.559  31.361  23.501  1.00  0.00     0.117 A 
ATOM     90  C   UNL A   1      27.879  31.661  22.347  1.00  0.00     0.040 A 
ENDBRANCH  83  85
ENDBRANCH  82  83
ENDBRANCH  81  82
ENDBRANCH  74  77
ENDBRANCH  72  73
ENDBRANCH   1  72
TORSDOF 13
ENDMDL
