MODEL 1
REMARK VINA RESULT:     -12.8      0.000      0.000
REMARK SMILES O=C(NCCCNC(=O)c1cccnc1C(=O)Nc1ccc(Cl)cn1)c1ccc(-c2c3nc(c(-c4c(F)c(F)c(F)c(F)c4F)c4ccc([nH]4)c(-c4c(F)c(F)c(F)c(F)c4F)c4nc(c(-c5c(F)c(F)c(F)c(F)c5F)c5ccc2[nH]5)C=C4)C=C3)cc1
REMARK SMILES IDX 5 1 4 2 3 3 1 4 2 5 26 7 27 8 88 9 28 10 87 11 29 12 30 13
REMARK SMILES IDX 31 14 81 15 32 16 86 17 80 18 82 19 33 20 85 21 79 22 78 23
REMARK SMILES IDX 34 25 66 26 46 27 65 28 47 29 50 30 64 31 83 32 48 33 49 34
REMARK SMILES IDX 63 36 84 37 51 38 35 39 36 40 44 41 37 42 38 43 42 44 45 45
REMARK SMILES IDX 39 46 40 47 43 48 41 49 67 50 68 51 76 52 69 53 70 54 74 55
REMARK SMILES IDX 77 56 71 57 72 58 75 59 73 60 52 61 53 62 61 63 54 64 55 65
REMARK SMILES IDX 59 66 62 67 56 68 57 69 60 70 58 71 6 72 7 73 8 74 9 76
REMARK SMILES IDX 10 77 11 78 15 79 12 80 14 81 13 82 16 83 17 84 18 85 19 87
REMARK SMILES IDX 20 88 25 89 21 90 24 91 22 92 23 93
REMARK H PARENT 3 6 82 24 50 35 7 75 18 86
REMARK Flexibility Score: inf
ROOT
ATOM      1  C   UNL A   1      31.425  32.139  26.535  1.00  0.00     0.042 C 
ENDROOT
BRANCH   1   2
ATOM      2  C   UNL A   1      32.584  32.877  27.209  1.00  0.00     0.118 C 
BRANCH   2   3
ATOM      3  N   UNL A   1      32.300  34.218  27.683  1.00  0.00    -0.352 N 
ATOM      4  O   UNL A   1      32.573  36.075  28.930  1.00  0.00    -0.269 OA
ATOM      5  C   UNL A   1      32.985  34.965  28.611  1.00  0.00     0.251 C 
ATOM      6  H   UNL A   1      31.510  34.651  27.287  1.00  0.00     0.163 HD
BRANCH   5   7
ATOM      7  C   UNL A   1      34.200  34.422  29.255  1.00  0.00     0.039 A 
ATOM      8  C   UNL A   1      35.475  34.687  28.746  1.00  0.00     0.014 A 
ATOM      9  C   UNL A   1      34.048  33.664  30.418  1.00  0.00     0.014 A 
ATOM     10  C   UNL A   1      36.597  34.119  29.355  1.00  0.00     0.010 A 
ATOM     11  C   UNL A   1      35.172  33.120  31.041  1.00  0.00     0.010 A 
ATOM     12  C   UNL A   1      36.453  33.322  30.501  1.00  0.00    -0.014 A 
BRANCH  12  13
ATOM     13  C   UNL A   1      37.628  32.689  31.150  1.00  0.00     0.031 A 
ATOM     14  C   UNL A   1      38.326  31.538  30.485  1.00  0.00     0.074 A 
ATOM     15  C   UNL A   1      38.032  33.108  32.362  1.00  0.00     0.049 A 
ATOM     16  N   UNL A   1      39.293  30.779  30.939  1.00  0.00    -0.248 NA
ATOM     17  C   UNL A   1      37.869  31.187  29.133  1.00  0.00     0.031 C 
ATOM     18  C   UNL A   1      37.435  34.212  33.113  1.00  0.00     0.029 A 
ATOM     19  N   UNL A   1      39.023  32.636  33.186  1.00  0.00    -0.354 N 
ATOM     20  C   UNL A   1      39.546  29.851  29.938  1.00  0.00     0.074 A 
ATOM     21  C   UNL A   1      38.619  30.128  28.861  1.00  0.00     0.031 C 
ATOM     22  C   UNL A   1      38.061  34.323  34.295  1.00  0.00     0.029 A 
ATOM     23  C   UNL A   1      39.073  33.274  34.400  1.00  0.00     0.049 A 
ATOM     24  H   UNL A   1      39.638  31.911  32.932  1.00  0.00     0.167 HD
ATOM     25  C   UNL A   1      40.470  28.859  29.922  1.00  0.00     0.037 A 
ATOM     26  C   UNL A   1      39.827  33.023  35.488  1.00  0.00     0.037 A 
ATOM     27  C   UNL A   1      41.397  28.591  30.988  1.00  0.00     0.049 A 
ATOM     28  C   UNL A   1      40.823  31.898  35.461  1.00  0.00     0.074 A 
ATOM     29  C   UNL A   1      42.404  27.643  31.040  1.00  0.00     0.029 A 
ATOM     30  N   UNL A   1      41.425  29.268  32.199  1.00  0.00    -0.354 N 
ATOM     31  N   UNL A   1      41.084  31.052  34.496  1.00  0.00    -0.248 NA
ATOM     32  C   UNL A   1      41.628  31.694  36.673  1.00  0.00     0.031 C 
ATOM     33  C   UNL A   1      43.011  27.716  32.298  1.00  0.00     0.029 A 
ATOM     34  C   UNL A   1      42.413  28.740  33.014  1.00  0.00     0.049 A 
ATOM     35  H   UNL A   1      40.829  30.013  32.443  1.00  0.00     0.167 HD
ATOM     36  C   UNL A   1      42.098  30.231  34.970  1.00  0.00     0.074 A 
ATOM     37  C   UNL A   1      42.406  30.681  36.311  1.00  0.00     0.031 C 
ATOM     38  C   UNL A   1      42.718  29.201  34.345  1.00  0.00     0.037 A 
BRANCH  25  39
ATOM     39  C   UNL A   1      40.506  27.971  28.713  1.00  0.00     0.064 A 
ATOM     40  C   UNL A   1      41.267  28.297  27.581  1.00  0.00     0.173 A 
ATOM     41  C   UNL A   1      39.789  26.765  28.699  1.00  0.00     0.173 A 
ATOM     42  F   UNL A   1      41.960  29.444  27.540  1.00  0.00    -0.203 F 
ATOM     43  C   UNL A   1      41.285  27.461  26.467  1.00  0.00     0.198 A 
ATOM     44  C   UNL A   1      39.829  25.920  27.593  1.00  0.00     0.198 A 
ATOM     45  F   UNL A   1      39.049  26.405  29.759  1.00  0.00    -0.203 F 
ATOM     46  F   UNL A   1      41.980  27.815  25.376  1.00  0.00    -0.200 F 
ATOM     47  C   UNL A   1      40.571  26.272  26.476  1.00  0.00     0.200 A 
ATOM     48  F   UNL A   1      39.146  24.767  27.607  1.00  0.00    -0.200 F 
ATOM     49  F   UNL A   1      40.589  25.470  25.402  1.00  0.00    -0.200 F 
ENDBRANCH  25  39
BRANCH  26  50
ATOM     50  C   UNL A   1      39.647  33.862  36.699  1.00  0.00     0.064 A 
ATOM     51  C   UNL A   1      40.276  35.109  36.812  1.00  0.00     0.173 A 
ATOM     52  C   UNL A   1      38.807  33.453  37.745  1.00  0.00     0.173 A 
ATOM     53  F   UNL A   1      41.105  35.529  35.846  1.00  0.00    -0.203 F 
ATOM     54  C   UNL A   1      40.069  35.917  37.928  1.00  0.00     0.198 A 
ATOM     55  C   UNL A   1      38.584  34.272  38.849  1.00  0.00     0.198 A 
ATOM     56  F   UNL A   1      38.182  32.268  37.679  1.00  0.00    -0.203 F 
ATOM     57  F   UNL A   1      40.699  37.095  38.023  1.00  0.00    -0.200 F 
ATOM     58  C   UNL A   1      39.217  35.502  38.940  1.00  0.00     0.200 A 
ATOM     59  F   UNL A   1      37.750  33.873  39.819  1.00  0.00    -0.200 F 
ATOM     60  F   UNL A   1      39.007  36.288  40.005  1.00  0.00    -0.200 F 
ENDBRANCH  26  50
BRANCH  38  61
ATOM     61  C   UNL A   1      43.820  28.504  35.084  1.00  0.00     0.064 A 
ATOM     62  C   UNL A   1      43.576  27.368  35.868  1.00  0.00     0.173 A 
ATOM     63  C   UNL A   1      45.147  28.940  34.951  1.00  0.00     0.173 A 
ATOM     64  F   UNL A   1      42.322  26.922  36.037  1.00  0.00    -0.203 F 
ATOM     65  C   UNL A   1      44.620  26.697  36.499  1.00  0.00     0.198 A 
ATOM     66  C   UNL A   1      46.192  28.254  35.565  1.00  0.00     0.198 A 
ATOM     67  F   UNL A   1      45.432  30.020  34.208  1.00  0.00    -0.203 F 
ATOM     68  F   UNL A   1      44.363  25.627  37.265  1.00  0.00    -0.200 F 
ATOM     69  C   UNL A   1      45.927  27.135  36.340  1.00  0.00     0.200 A 
ATOM     70  F   UNL A   1      47.454  28.673  35.402  1.00  0.00    -0.200 F 
ATOM     71  F   UNL A   1      46.933  26.481  36.937  1.00  0.00    -0.200 F 
ENDBRANCH  38  61
ENDBRANCH  12  13
ENDBRANCH   5   7
ENDBRANCH   2   3
ENDBRANCH   1   2
BRANCH   1  72
ATOM     72  C   UNL A   1      31.473  30.617  26.459  1.00  0.00     0.118 C 
BRANCH  72  73
ATOM     73  N   UNL A   1      32.644  30.045  25.807  1.00  0.00    -0.352 N 
ATOM     74  C   UNL A   1      32.729  29.091  24.811  1.00  0.00     0.253 C 
ATOM     75  H   UNL A   1      33.508  30.392  26.126  1.00  0.00     0.163 HD
ATOM     76  O   UNL A   1      33.763  28.963  24.169  1.00  0.00    -0.269 OA
BRANCH  74  77
ATOM     77  C   UNL A   1      31.556  28.299  24.446  1.00  0.00     0.071 A 
ATOM     78  C   UNL A   1      31.036  28.579  23.167  1.00  0.00     0.018 A 
ATOM     79  C   UNL A   1      30.965  27.291  25.205  1.00  0.00     0.141 A 
ATOM     80  C   UNL A   1      29.901  27.929  22.705  1.00  0.00     0.021 A 
ATOM     81  N   UNL A   1      29.818  26.684  24.751  1.00  0.00    -0.250 NA
ATOM     82  C   UNL A   1      29.320  27.003  23.539  1.00  0.00     0.112 A 
BRANCH  79  83
ATOM     83  C   UNL A   1      31.433  26.618  26.495  1.00  0.00     0.276 C 
ATOM     84  O   UNL A   1      31.322  27.225  27.565  1.00  0.00    -0.267 OA
ATOM     85  N   UNL A   1      31.710  25.280  26.561  1.00  0.00    -0.305 N 
ATOM     86  H   UNL A   1      31.017  24.734  26.998  1.00  0.00     0.171 HD
BRANCH  85  87
ATOM     87  C   UNL A   1      32.813  24.571  26.107  1.00  0.00     0.132 A 
ATOM     88  C   UNL A   1      33.973  25.179  25.648  1.00  0.00     0.049 A 
ATOM     89  N   UNL A   1      32.652  23.232  26.139  1.00  0.00    -0.238 NA
ATOM     90  C   UNL A   1      34.953  24.371  25.067  1.00  0.00     0.026 A 
ATOM     91  C   UNL A   1      33.599  22.478  25.531  1.00  0.00     0.134 A 
ATOM     92  C   UNL A   1      34.744  23.004  24.965  1.00  0.00     0.059 A 
ATOM     93  Cl  UNL A   1      35.874  22.010  24.145  1.00  0.00    -0.083 Cl
ENDBRANCH  85  87
ENDBRANCH  79  83
ENDBRANCH  74  77
ENDBRANCH  72  73
ENDBRANCH   1  72
TORSDOF 12
ENDMDL
MODEL 2
REMARK VINA RESULT:     -12.8      0.350      1.639
REMARK SMILES O=C(NCCCNC(=O)c1cccnc1C(=O)Nc1ccc(Cl)cn1)c1ccc(-c2c3nc(c(-c4c(F)c(F)c(F)c(F)c4F)c4ccc([nH]4)c(-c4c(F)c(F)c(F)c(F)c4F)c4nc(c(-c5c(F)c(F)c(F)c(F)c5F)c5ccc2[nH]5)C=C4)C=C3)cc1
REMARK SMILES IDX 5 1 4 2 3 3 1 4 2 5 26 7 27 8 88 9 28 10 87 11 29 12 30 13
REMARK SMILES IDX 31 14 81 15 32 16 86 17 80 18 82 19 33 20 85 21 79 22 78 23
REMARK SMILES IDX 34 25 66 26 46 27 65 28 47 29 50 30 64 31 83 32 48 33 49 34
REMARK SMILES IDX 63 36 84 37 51 38 35 39 36 40 44 41 37 42 38 43 42 44 45 45
REMARK SMILES IDX 39 46 40 47 43 48 41 49 67 50 68 51 76 52 69 53 70 54 74 55
REMARK SMILES IDX 77 56 71 57 72 58 75 59 73 60 52 61 53 62 61 63 54 64 55 65
REMARK SMILES IDX 59 66 62 67 56 68 57 69 60 70 58 71 6 72 7 73 8 74 9 76
REMARK SMILES IDX 10 77 11 78 15 79 12 80 14 81 13 82 16 83 17 84 18 85 19 87
REMARK SMILES IDX 20 88 25 89 21 90 24 91 22 92 23 93
REMARK H PARENT 3 6 82 24 50 35 7 75 18 86
REMARK Flexibility Score: inf
ROOT
ATOM      1  C   UNL A   1      31.412  32.114  26.515  1.00  0.00     0.042 C 
ENDROOT
BRANCH   1   2
ATOM      2  C   UNL A   1      32.570  32.882  27.154  1.00  0.00     0.118 C 
BRANCH   2   3
ATOM      3  N   UNL A   1      32.265  34.215  27.639  1.00  0.00    -0.352 N 
ATOM      4  O   UNL A   1      32.505  36.065  28.903  1.00  0.00    -0.269 OA
ATOM      5  C   UNL A   1      32.935  34.964  28.577  1.00  0.00     0.251 C 
ATOM      6  H   UNL A   1      31.472  34.641  27.242  1.00  0.00     0.163 HD
BRANCH   5   7
ATOM      7  C   UNL A   1      34.153  34.432  29.224  1.00  0.00     0.039 A 
ATOM      8  C   UNL A   1      35.420  34.637  28.671  1.00  0.00     0.014 A 
ATOM      9  C   UNL A   1      34.013  33.747  30.433  1.00  0.00     0.014 A 
ATOM     10  C   UNL A   1      36.544  34.080  29.287  1.00  0.00     0.010 A 
ATOM     11  C   UNL A   1      35.140  33.214  31.061  1.00  0.00     0.010 A 
ATOM     12  C   UNL A   1      36.411  33.356  30.481  1.00  0.00    -0.014 A 
BRANCH  12  13
ATOM     13  C   UNL A   1      37.588  32.735  31.139  1.00  0.00     0.031 A 
ATOM     14  C   UNL A   1      38.300  31.587  30.482  1.00  0.00     0.074 A 
ATOM     15  C   UNL A   1      37.982  33.163  32.351  1.00  0.00     0.049 A 
ATOM     16  N   UNL A   1      39.270  30.839  30.944  1.00  0.00    -0.248 NA
ATOM     17  C   UNL A   1      37.853  31.227  29.129  1.00  0.00     0.031 C 
ATOM     18  C   UNL A   1      37.372  34.264  33.094  1.00  0.00     0.029 A 
ATOM     19  N   UNL A   1      38.973  32.702  33.182  1.00  0.00    -0.354 N 
ATOM     20  C   UNL A   1      39.536  29.908  29.949  1.00  0.00     0.074 A 
ATOM     21  C   UNL A   1      38.613  30.173  28.866  1.00  0.00     0.031 C 
ATOM     22  C   UNL A   1      37.990  34.386  34.279  1.00  0.00     0.029 A 
ATOM     23  C   UNL A   1      39.010  33.346  34.394  1.00  0.00     0.049 A 
ATOM     24  H   UNL A   1      39.595  31.981  32.935  1.00  0.00     0.167 HD
ATOM     25  C   UNL A   1      40.469  28.924  29.942  1.00  0.00     0.037 A 
ATOM     26  C   UNL A   1      39.760  33.106  35.487  1.00  0.00     0.037 A 
ATOM     27  C   UNL A   1      41.393  28.669  31.015  1.00  0.00     0.049 A 
ATOM     28  C   UNL A   1      40.766  31.989  35.470  1.00  0.00     0.074 A 
ATOM     29  C   UNL A   1      42.407  27.729  31.076  1.00  0.00     0.029 A 
ATOM     30  N   UNL A   1      41.408  29.351  32.223  1.00  0.00    -0.354 N 
ATOM     31  N   UNL A   1      41.040  31.142  34.510  1.00  0.00    -0.248 NA
ATOM     32  C   UNL A   1      41.566  31.796  36.687  1.00  0.00     0.031 C 
ATOM     33  C   UNL A   1      43.006  27.812  32.336  1.00  0.00     0.029 A 
ATOM     34  C   UNL A   1      42.396  28.835  33.045  1.00  0.00     0.049 A 
ATOM     35  H   UNL A   1      40.805  30.092  32.460  1.00  0.00     0.167 HD
ATOM     36  C   UNL A   1      42.057  30.331  34.993  1.00  0.00     0.074 A 
ATOM     37  C   UNL A   1      42.355  30.788  36.334  1.00  0.00     0.031 C 
ATOM     38  C   UNL A   1      42.690  29.303  34.376  1.00  0.00     0.037 A 
BRANCH  25  39
ATOM     39  C   UNL A   1      40.519  28.032  28.737  1.00  0.00     0.064 A 
ATOM     40  C   UNL A   1      41.284  28.359  27.608  1.00  0.00     0.173 A 
ATOM     41  C   UNL A   1      39.811  26.820  28.724  1.00  0.00     0.173 A 
ATOM     42  F   UNL A   1      41.968  29.511  27.567  1.00  0.00    -0.203 F 
ATOM     43  C   UNL A   1      41.316  27.518  26.498  1.00  0.00     0.198 A 
ATOM     44  C   UNL A   1      39.865  25.971  27.622  1.00  0.00     0.198 A 
ATOM     45  F   UNL A   1      39.068  26.459  29.781  1.00  0.00    -0.203 F 
ATOM     46  F   UNL A   1      42.014  27.874  25.410  1.00  0.00    -0.200 F 
ATOM     47  C   UNL A   1      40.611  26.324  26.508  1.00  0.00     0.200 A 
ATOM     48  F   UNL A   1      39.190  24.812  27.636  1.00  0.00    -0.200 F 
ATOM     49  F   UNL A   1      40.641  25.518  25.437  1.00  0.00    -0.200 F 
ENDBRANCH  25  39
BRANCH  26  50
ATOM     50  C   UNL A   1      39.567  33.948  36.693  1.00  0.00     0.064 A 
ATOM     51  C   UNL A   1      38.763  33.514  37.755  1.00  0.00     0.173 A 
ATOM     52  C   UNL A   1      40.221  35.182  36.827  1.00  0.00     0.173 A 
ATOM     53  F   UNL A   1      38.102  32.351  37.661  1.00  0.00    -0.203 F 
ATOM     54  C   UNL A   1      38.621  34.284  38.907  1.00  0.00     0.198 A 
ATOM     55  C   UNL A   1      40.096  35.939  37.988  1.00  0.00     0.198 A 
ATOM     56  F   UNL A   1      41.004  35.637  35.837  1.00  0.00    -0.203 F 
ATOM     57  F   UNL A   1      37.829  33.857  39.900  1.00  0.00    -0.200 F 
ATOM     58  C   UNL A   1      39.294  35.490  39.027  1.00  0.00     0.200 A 
ATOM     59  F   UNL A   1      40.758  37.098  38.105  1.00  0.00    -0.200 F 
ATOM     60  F   UNL A   1      39.169  36.222  40.143  1.00  0.00    -0.200 F 
ENDBRANCH  26  50
BRANCH  38  61
ATOM     61  C   UNL A   1      43.794  28.619  35.124  1.00  0.00     0.064 A 
ATOM     62  C   UNL A   1      45.120  29.068  35.048  1.00  0.00     0.173 A 
ATOM     63  C   UNL A   1      43.509  27.544  35.978  1.00  0.00     0.173 A 
ATOM     64  F   UNL A   1      45.443  30.083  34.234  1.00  0.00    -0.203 F 
ATOM     65  C   UNL A   1      46.124  28.457  35.797  1.00  0.00     0.198 A 
ATOM     66  C   UNL A   1      44.511  26.950  36.741  1.00  0.00     0.198 A 
ATOM     67  F   UNL A   1      42.255  27.081  36.087  1.00  0.00    -0.203 F 
ATOM     68  F   UNL A   1      47.390  28.884  35.692  1.00  0.00    -0.200 F 
ATOM     69  C   UNL A   1      45.818  27.406  36.648  1.00  0.00     0.200 A 
ATOM     70  F   UNL A   1      44.211  25.941  37.571  1.00  0.00    -0.200 F 
ATOM     71  F   UNL A   1      46.782  26.828  37.378  1.00  0.00    -0.200 F 
ENDBRANCH  38  61
ENDBRANCH  12  13
ENDBRANCH   5   7
ENDBRANCH   2   3
ENDBRANCH   1   2
BRANCH   1  72
ATOM     72  C   UNL A   1      31.496  30.593  26.441  1.00  0.00     0.118 C 
BRANCH  72  73
ATOM     73  N   UNL A   1      32.637  30.050  25.714  1.00  0.00    -0.352 N 
ATOM     74  C   UNL A   1      32.677  29.137  24.678  1.00  0.00     0.253 C 
ATOM     75  H   UNL A   1      33.515  30.385  26.009  1.00  0.00     0.163 HD
ATOM     76  O   UNL A   1      33.681  29.037  23.986  1.00  0.00    -0.269 OA
BRANCH  74  77
ATOM     77  C   UNL A   1      31.489  28.359  24.334  1.00  0.00     0.071 A 
ATOM     78  C   UNL A   1      30.875  28.734  23.122  1.00  0.00     0.018 A 
ATOM     79  C   UNL A   1      30.964  27.284  25.048  1.00  0.00     0.141 A 
ATOM     80  C   UNL A   1      29.717  28.105  22.690  1.00  0.00     0.021 A 
ATOM     81  N   UNL A   1      29.793  26.697  24.628  1.00  0.00    -0.250 NA
ATOM     82  C   UNL A   1      29.207  27.105  23.484  1.00  0.00     0.112 A 
BRANCH  79  83
ATOM     83  C   UNL A   1      31.530  26.516  26.242  1.00  0.00     0.276 C 
ATOM     84  O   UNL A   1      31.445  27.010  27.370  1.00  0.00    -0.267 OA
ATOM     85  N   UNL A   1      31.875  25.195  26.162  1.00  0.00    -0.305 N 
ATOM     86  H   UNL A   1      31.234  24.573  26.575  1.00  0.00     0.171 HD
BRANCH  85  87
ATOM     87  C   UNL A   1      32.988  24.593  25.591  1.00  0.00     0.132 A 
ATOM     88  C   UNL A   1      34.290  24.996  25.852  1.00  0.00     0.049 A 
ATOM     89  N   UNL A   1      32.689  23.588  24.743  1.00  0.00    -0.238 NA
ATOM     90  C   UNL A   1      35.318  24.426  25.099  1.00  0.00     0.026 A 
ATOM     91  C   UNL A   1      33.700  23.085  23.996  1.00  0.00     0.134 A 
ATOM     92  C   UNL A   1      35.015  23.488  24.123  1.00  0.00     0.059 A 
ATOM     93  Cl  UNL A   1      36.244  22.869  23.101  1.00  0.00    -0.083 Cl
ENDBRANCH  85  87
ENDBRANCH  79  83
ENDBRANCH  74  77
ENDBRANCH  72  73
ENDBRANCH   1  72
TORSDOF 12
ENDMDL
MODEL 3
REMARK VINA RESULT:     -12.7      5.875     11.146
REMARK SMILES O=C(NCCCNC(=O)c1cccnc1C(=O)Nc1ccc(Cl)cn1)c1ccc(-c2c3nc(c(-c4c(F)c(F)c(F)c(F)c4F)c4ccc([nH]4)c(-c4c(F)c(F)c(F)c(F)c4F)c4nc(c(-c5c(F)c(F)c(F)c(F)c5F)c5ccc2[nH]5)C=C4)C=C3)cc1
REMARK SMILES IDX 5 1 4 2 3 3 1 4 2 5 26 7 27 8 88 9 28 10 87 11 29 12 30 13
REMARK SMILES IDX 31 14 81 15 32 16 86 17 80 18 82 19 33 20 85 21 79 22 78 23
REMARK SMILES IDX 34 25 66 26 46 27 65 28 47 29 50 30 64 31 83 32 48 33 49 34
REMARK SMILES IDX 63 36 84 37 51 38 35 39 36 40 44 41 37 42 38 43 42 44 45 45
REMARK SMILES IDX 39 46 40 47 43 48 41 49 67 50 68 51 76 52 69 53 70 54 74 55
REMARK SMILES IDX 77 56 71 57 72 58 75 59 73 60 52 61 53 62 61 63 54 64 55 65
REMARK SMILES IDX 59 66 62 67 56 68 57 69 60 70 58 71 6 72 7 73 8 74 9 76
REMARK SMILES IDX 10 77 11 78 15 79 12 80 14 81 13 82 16 83 17 84 18 85 19 87
REMARK SMILES IDX 20 88 25 89 21 90 24 91 22 92 23 93
REMARK H PARENT 3 6 82 24 50 35 7 75 18 86
REMARK Flexibility Score: inf
ROOT
ATOM      1  C   UNL A   1      37.742  19.956  24.957  1.00  0.00     0.042 C 
ENDROOT
BRANCH   1   2
ATOM      2  C   UNL A   1      39.001  20.252  25.775  1.00  0.00     0.118 C 
BRANCH   2   3
ATOM      3  N   UNL A   1      40.035  19.235  25.751  1.00  0.00    -0.352 N 
ATOM      4  O   UNL A   1      42.122  18.398  25.896  1.00  0.00    -0.269 OA
ATOM      5  C   UNL A   1      41.378  19.366  26.010  1.00  0.00     0.251 C 
ATOM      6  H   UNL A   1      39.733  18.328  25.518  1.00  0.00     0.163 HD
BRANCH   5   7
ATOM      7  C   UNL A   1      41.938  20.680  26.391  1.00  0.00     0.039 A 
ATOM      8  C   UNL A   1      42.223  20.992  27.723  1.00  0.00     0.014 A 
ATOM      9  C   UNL A   1      42.217  21.598  25.376  1.00  0.00     0.014 A 
ATOM     10  C   UNL A   1      42.710  22.261  28.050  1.00  0.00     0.010 A 
ATOM     11  C   UNL A   1      42.729  22.855  25.701  1.00  0.00     0.010 A 
ATOM     12  C   UNL A   1      42.956  23.206  27.042  1.00  0.00    -0.014 A 
BRANCH  12  13
ATOM     13  C   UNL A   1      43.449  24.567  27.368  1.00  0.00     0.031 A 
ATOM     14  C   UNL A   1      42.506  25.598  27.919  1.00  0.00     0.074 A 
ATOM     15  C   UNL A   1      44.728  24.895  27.116  1.00  0.00     0.049 A 
ATOM     16  N   UNL A   1      42.714  26.868  28.159  1.00  0.00    -0.248 NA
ATOM     17  C   UNL A   1      41.145  25.140  28.233  1.00  0.00     0.031 C 
ATOM     18  C   UNL A   1      45.740  23.987  26.579  1.00  0.00     0.029 A 
ATOM     19  N   UNL A   1      45.387  26.092  27.253  1.00  0.00    -0.354 N 
ATOM     20  C   UNL A   1      41.507  27.366  28.632  1.00  0.00     0.074 A 
ATOM     21  C   UNL A   1      40.566  26.266  28.627  1.00  0.00     0.031 C 
ATOM     22  C   UNL A   1      46.888  24.661  26.415  1.00  0.00     0.029 A 
ATOM     23  C   UNL A   1      46.682  26.057  26.798  1.00  0.00     0.049 A 
ATOM     24  H   UNL A   1      44.972  26.897  27.639  1.00  0.00     0.167 HD
ATOM     25  C   UNL A   1      41.214  28.626  29.035  1.00  0.00     0.037 A 
ATOM     26  C   UNL A   1      47.590  27.043  26.673  1.00  0.00     0.037 A 
ATOM     27  C   UNL A   1      42.153  29.717  29.049  1.00  0.00     0.049 A 
ATOM     28  C   UNL A   1      47.235  28.441  27.095  1.00  0.00     0.074 A 
ATOM     29  C   UNL A   1      41.962  31.015  29.489  1.00  0.00     0.029 A 
ATOM     30  N   UNL A   1      43.460  29.639  28.591  1.00  0.00    -0.354 N 
ATOM     31  N   UNL A   1      46.105  28.893  27.580  1.00  0.00    -0.248 NA
ATOM     32  C   UNL A   1      48.279  29.465  26.953  1.00  0.00     0.031 C 
ATOM     33  C   UNL A   1      43.139  31.734  29.256  1.00  0.00     0.029 A 
ATOM     34  C   UNL A   1      44.079  30.872  28.714  1.00  0.00     0.049 A 
ATOM     35  H   UNL A   1      43.885  28.827  28.231  1.00  0.00     0.167 HD
ATOM     36  C   UNL A   1      46.307  30.245  27.824  1.00  0.00     0.074 A 
ATOM     37  C   UNL A   1      47.669  30.541  27.434  1.00  0.00     0.031 C 
ATOM     38  C   UNL A   1      45.439  31.154  28.330  1.00  0.00     0.037 A 
BRANCH  25  39
ATOM     39  C   UNL A   1      39.806  28.899  29.474  1.00  0.00     0.064 A 
ATOM     40  C   UNL A   1      39.395  28.700  30.800  1.00  0.00     0.173 A 
ATOM     41  C   UNL A   1      38.862  29.393  28.560  1.00  0.00     0.173 A 
ATOM     42  F   UNL A   1      40.255  28.218  31.708  1.00  0.00    -0.203 F 
ATOM     43  C   UNL A   1      38.082  28.956  31.188  1.00  0.00     0.198 A 
ATOM     44  C   UNL A   1      37.557  29.672  28.957  1.00  0.00     0.198 A 
ATOM     45  F   UNL A   1      39.206  29.606  27.281  1.00  0.00    -0.203 F 
ATOM     46  F   UNL A   1      37.697  28.711  32.449  1.00  0.00    -0.200 F 
ATOM     47  C   UNL A   1      37.166  29.446  30.268  1.00  0.00     0.200 A 
ATOM     48  F   UNL A   1      36.676  30.153  28.069  1.00  0.00    -0.200 F 
ATOM     49  F   UNL A   1      35.903  29.690  30.643  1.00  0.00    -0.200 F 
ENDBRANCH  25  39
BRANCH  26  50
ATOM     50  C   UNL A   1      48.925  26.727  26.108  1.00  0.00     0.064 A 
ATOM     51  C   UNL A   1      49.209  26.955  24.756  1.00  0.00     0.173 A 
ATOM     52  C   UNL A   1      49.956  26.234  26.921  1.00  0.00     0.173 A 
ATOM     53  F   UNL A   1      48.247  27.405  23.938  1.00  0.00    -0.203 F 
ATOM     54  C   UNL A   1      50.477  26.703  24.237  1.00  0.00     0.198 A 
ATOM     55  C   UNL A   1      51.229  26.004  26.406  1.00  0.00     0.198 A 
ATOM     56  F   UNL A   1      49.732  26.003  28.223  1.00  0.00    -0.203 F 
ATOM     57  F   UNL A   1      50.718  26.909  22.935  1.00  0.00    -0.200 F 
ATOM     58  C   UNL A   1      51.488  26.237  25.064  1.00  0.00     0.200 A 
ATOM     59  F   UNL A   1      52.207  25.566  27.211  1.00  0.00    -0.200 F 
ATOM     60  F   UNL A   1      52.712  26.011  24.567  1.00  0.00    -0.200 F 
ENDBRANCH  26  50
BRANCH  38  61
ATOM     61  C   UNL A   1      45.939  32.553  28.530  1.00  0.00     0.064 A 
ATOM     62  C   UNL A   1      45.778  33.539  27.546  1.00  0.00     0.173 A 
ATOM     63  C   UNL A   1      46.526  32.928  29.748  1.00  0.00     0.173 A 
ATOM     64  F   UNL A   1      45.236  33.225  26.360  1.00  0.00    -0.203 F 
ATOM     65  C   UNL A   1      46.194  34.849  27.772  1.00  0.00     0.198 A 
ATOM     66  C   UNL A   1      46.921  34.243  29.979  1.00  0.00     0.198 A 
ATOM     67  F   UNL A   1      46.698  32.021  30.722  1.00  0.00    -0.203 F 
ATOM     68  F   UNL A   1      46.055  35.771  26.809  1.00  0.00    -0.200 F 
ATOM     69  C   UNL A   1      46.757  35.201  28.990  1.00  0.00     0.200 A 
ATOM     70  F   UNL A   1      47.455  34.583  31.160  1.00  0.00    -0.200 F 
ATOM     71  F   UNL A   1      47.145  36.465  29.211  1.00  0.00    -0.200 F 
ENDBRANCH  38  61
ENDBRANCH  12  13
ENDBRANCH   5   7
ENDBRANCH   2   3
ENDBRANCH   1   2
BRANCH   1  72
ATOM     72  C   UNL A   1      36.595  20.961  24.992  1.00  0.00     0.118 C 
BRANCH  72  73
ATOM     73  N   UNL A   1      35.932  21.132  26.278  1.00  0.00    -0.352 N 
ATOM     74  C   UNL A   1      34.783  21.828  26.600  1.00  0.00     0.253 C 
ATOM     75  H   UNL A   1      36.372  20.682  27.036  1.00  0.00     0.163 HD
ATOM     76  O   UNL A   1      34.204  21.606  27.654  1.00  0.00    -0.269 OA
BRANCH  74  77
ATOM     77  C   UNL A   1      34.193  22.760  25.641  1.00  0.00     0.071 A 
ATOM     78  C   UNL A   1      35.065  23.773  25.197  1.00  0.00     0.018 A 
ATOM     79  C   UNL A   1      32.906  22.700  25.108  1.00  0.00     0.141 A 
ATOM     80  C   UNL A   1      34.628  24.749  24.314  1.00  0.00     0.021 A 
ATOM     81  N   UNL A   1      32.474  23.697  24.265  1.00  0.00    -0.250 NA
ATOM     82  C   UNL A   1      33.322  24.677  23.890  1.00  0.00     0.112 A 
BRANCH  79  83
ATOM     83  C   UNL A   1      31.838  21.612  25.215  1.00  0.00     0.276 C 
ATOM     84  O   UNL A   1      30.759  21.879  25.751  1.00  0.00    -0.267 OA
ATOM     85  N   UNL A   1      31.912  20.445  24.504  1.00  0.00    -0.305 N 
ATOM     86  H   UNL A   1      31.316  20.397  23.723  1.00  0.00     0.171 HD
BRANCH  85  87
ATOM     87  C   UNL A   1      32.698  19.320  24.711  1.00  0.00     0.132 A 
ATOM     88  C   UNL A   1      33.923  19.122  24.092  1.00  0.00     0.049 A 
ATOM     89  N   UNL A   1      32.153  18.425  25.561  1.00  0.00    -0.238 NA
ATOM     90  C   UNL A   1      34.548  17.883  24.251  1.00  0.00     0.026 A 
ATOM     91  C   UNL A   1      32.759  17.217  25.661  1.00  0.00     0.134 A 
ATOM     92  C   UNL A   1      33.934  16.897  25.011  1.00  0.00     0.059 A 
ATOM     93  Cl  UNL A   1      34.618  15.329  25.116  1.00  0.00    -0.083 Cl
ENDBRANCH  85  87
ENDBRANCH  79  83
ENDBRANCH  74  77
ENDBRANCH  72  73
ENDBRANCH   1  72
TORSDOF 12
ENDMDL
