MODEL 1
REMARK VINA RESULT:     -12.0      0.000      0.000
REMARK SMILES O=C(CSc1ccccc1C(=O)NCCCNC(=O)c1ccc(-c2c3nc(c(-c4c(F)c(F)c(F)c(F)c4F)c4ccc([nH]4)c(-c4c(F)c(F)c(F)c(F)c4F)c4nc(c(-c5c(F)c(F)c(F)c(F)c5F)c5ccc2[nH]5)C=C4)C=C3)cc1)c1ccc(Cl)cc1
REMARK SMILES IDX 14 1 13 2 11 3 12 4 10 6 5 7 6 8 7 9 9 10 8 11 4 12 3 13
REMARK SMILES IDX 2 14 1 15 83 16 84 17 89 18 85 19 88 20 86 21 87 22 15 23
REMARK SMILES IDX 16 24 17 25 18 26 19 28 20 29 21 30 82 31 22 32 81 33 23 34
REMARK SMILES IDX 24 35 25 36 75 37 26 38 80 39 74 40 76 41 27 42 79 43 73 44
REMARK SMILES IDX 72 45 28 47 60 48 40 49 59 50 41 51 44 52 58 53 77 54 42 55
REMARK SMILES IDX 43 56 57 58 78 59 45 60 29 61 30 62 38 63 31 64 32 65 36 66
REMARK SMILES IDX 39 67 33 68 34 69 37 70 35 71 61 72 62 73 70 74 63 75 64 76
REMARK SMILES IDX 68 77 71 78 65 79 66 80 69 81 67 82 46 83 47 84 55 85 48 86
REMARK SMILES IDX 49 87 53 88 56 89 50 90 51 91 54 92 52 93
REMARK H PARENT 13 5 17 27 76 46 44 57
REMARK Flexibility Score: inf
ROOT
ATOM      1  C   UNL A   1      31.436  30.540  25.493  1.00  0.00     0.118 C 
ENDROOT
BRANCH   1   2
ATOM      2  N   UNL A   1      32.698  29.944  25.855  1.00  0.00    -0.352 N 
ATOM      3  C   UNL A   1      33.262  28.734  25.558  1.00  0.00     0.252 C 
ATOM      4  O   UNL A   1      34.301  28.456  26.163  1.00  0.00    -0.269 OA
ATOM      5  H   UNL A   1      33.260  30.517  26.425  1.00  0.00     0.163 HD
BRANCH   3   6
ATOM      6  C   UNL A   1      32.816  27.825  24.460  1.00  0.00     0.053 A 
ATOM      7  C   UNL A   1      31.751  26.900  24.445  1.00  0.00     0.020 A 
ATOM      8  C   UNL A   1      31.676  25.995  23.364  1.00  0.00     0.016 A 
ATOM      9  C   UNL A   1      32.589  26.013  22.309  1.00  0.00     0.001 A 
ATOM     10  C   UNL A   1      33.731  27.826  23.379  1.00  0.00     0.015 A 
ATOM     11  C   UNL A   1      33.622  26.932  22.316  1.00  0.00     0.001 A 
BRANCH   7  12
ATOM     12  S   UNL A   1      30.640  26.514  25.790  1.00  0.00    -0.117 SA
BRANCH  12  13
ATOM     13  C   UNL A   1      30.584  24.688  25.906  1.00  0.00     0.156 C 
BRANCH  13  14
ATOM     14  C   UNL A   1      31.705  23.953  26.608  1.00  0.00     0.173 C 
ATOM     15  O   UNL A   1      31.607  23.419  27.707  1.00  0.00    -0.293 OA
BRANCH  14  16
ATOM     16  C   UNL A   1      32.926  23.696  25.804  1.00  0.00     0.018 A 
ATOM     17  C   UNL A   1      34.030  24.546  25.885  1.00  0.00     0.013 A 
ATOM     18  C   UNL A   1      32.933  22.611  24.922  1.00  0.00     0.013 A 
ATOM     19  C   UNL A   1      35.118  24.354  25.030  1.00  0.00     0.021 A 
ATOM     20  C   UNL A   1      34.033  22.409  24.083  1.00  0.00     0.021 A 
ATOM     21  C   UNL A   1      35.113  23.290  24.129  1.00  0.00     0.041 A 
ATOM     22  Cl  UNL A   1      36.453  23.060  23.074  1.00  0.00    -0.084 Cl
ENDBRANCH  14  16
ENDBRANCH  13  14
ENDBRANCH  12  13
ENDBRANCH   7  12
ENDBRANCH   3   6
ENDBRANCH   1   2
BRANCH   1  23
ATOM     23  C   UNL A   1      31.220  31.825  26.285  1.00  0.00     0.042 C 
BRANCH  23  24
ATOM     24  C   UNL A   1      32.414  32.190  27.149  1.00  0.00     0.118 C 
BRANCH  24  25
ATOM     25  N   UNL A   1      32.440  33.618  27.437  1.00  0.00    -0.352 N 
ATOM     26  C   UNL A   1      33.161  34.321  28.368  1.00  0.00     0.251 C 
ATOM     27  H   UNL A   1      31.845  34.164  26.875  1.00  0.00     0.163 HD
ATOM     28  O   UNL A   1      32.819  35.473  28.640  1.00  0.00    -0.269 OA
BRANCH  26  29
ATOM     29  C   UNL A   1      34.334  33.726  29.051  1.00  0.00     0.039 A 
ATOM     30  C   UNL A   1      35.613  34.180  28.712  1.00  0.00     0.014 A 
ATOM     31  C   UNL A   1      34.197  32.677  29.963  1.00  0.00     0.014 A 
ATOM     32  C   UNL A   1      36.740  33.605  29.306  1.00  0.00     0.010 A 
ATOM     33  C   UNL A   1      35.311  32.178  30.633  1.00  0.00     0.010 A 
ATOM     34  C   UNL A   1      36.597  32.610  30.285  1.00  0.00    -0.014 A 
BRANCH  34  35
ATOM     35  C   UNL A   1      37.781  31.961  30.905  1.00  0.00     0.031 A 
ATOM     36  C   UNL A   1      38.218  32.362  32.291  1.00  0.00     0.074 A 
ATOM     37  C   UNL A   1      38.489  31.051  30.210  1.00  0.00     0.049 A 
ATOM     38  N   UNL A   1      39.249  31.953  32.988  1.00  0.00    -0.248 NA
ATOM     39  C   UNL A   1      37.408  33.386  32.972  1.00  0.00     0.031 C 
ATOM     40  C   UNL A   1      38.205  30.623  28.840  1.00  0.00     0.029 A 
ATOM     41  N   UNL A   1      39.597  30.323  30.562  1.00  0.00    -0.354 N 
ATOM     42  C   UNL A   1      39.224  32.686  34.168  1.00  0.00     0.074 A 
ATOM     43  C   UNL A   1      38.113  33.607  34.070  1.00  0.00     0.031 C 
ATOM     44  C   UNL A   1      39.095  29.686  28.479  1.00  0.00     0.029 A 
ATOM     45  C   UNL A   1      40.028  29.466  29.580  1.00  0.00     0.049 A 
ATOM     46  H   UNL A   1      40.042  30.406  31.437  1.00  0.00     0.167 HD
ATOM     47  C   UNL A   1      40.033  32.583  35.249  1.00  0.00     0.037 A 
ATOM     48  C   UNL A   1      41.055  28.596  29.574  1.00  0.00     0.037 A 
ATOM     49  C   UNL A   1      41.107  31.634  35.361  1.00  0.00     0.049 A 
ATOM     50  C   UNL A   1      41.908  28.463  30.806  1.00  0.00     0.074 A 
ATOM     51  C   UNL A   1      41.952  31.406  36.434  1.00  0.00     0.029 A 
ATOM     52  N   UNL A   1      41.479  30.744  34.363  1.00  0.00    -0.354 N 
ATOM     53  N   UNL A   1      41.834  29.117  31.940  1.00  0.00    -0.248 NA
ATOM     54  C   UNL A   1      42.976  27.455  30.763  1.00  0.00     0.031 C 
ATOM     55  C   UNL A   1      42.853  30.398  36.074  1.00  0.00     0.029 A 
ATOM     56  C   UNL A   1      42.543  29.969  34.793  1.00  0.00     0.049 A 
ATOM     57  H   UNL A   1      41.050  30.676  33.480  1.00  0.00     0.167 HD
ATOM     58  C   UNL A   1      42.823  28.582  32.754  1.00  0.00     0.074 A 
ATOM     59  C   UNL A   1      43.471  27.537  31.990  1.00  0.00     0.031 C 
ATOM     60  C   UNL A   1      43.164  28.924  34.020  1.00  0.00     0.037 A 
BRANCH  47  61
ATOM     61  C   UNL A   1      39.775  33.513  36.399  1.00  0.00     0.064 A 
ATOM     62  C   UNL A   1      40.407  34.764  36.490  1.00  0.00     0.173 A 
ATOM     63  C   UNL A   1      38.871  33.162  37.413  1.00  0.00     0.173 A 
ATOM     64  F   UNL A   1      41.291  35.143  35.555  1.00  0.00    -0.203 F 
ATOM     65  C   UNL A   1      40.169  35.611  37.569  1.00  0.00     0.198 A 
ATOM     66  C   UNL A   1      38.613  34.025  38.475  1.00  0.00     0.198 A 
ATOM     67  F   UNL A   1      38.236  31.980  37.374  1.00  0.00    -0.203 F 
ATOM     68  F   UNL A   1      40.828  36.776  37.662  1.00  0.00    -0.200 F 
ATOM     69  C   UNL A   1      39.268  35.244  38.557  1.00  0.00     0.200 A 
ATOM     70  F   UNL A   1      37.733  33.675  39.423  1.00  0.00    -0.200 F 
ATOM     71  F   UNL A   1      39.038  36.063  39.593  1.00  0.00    -0.200 F 
ENDBRANCH  47  61
BRANCH  48  72
ATOM     72  C   UNL A   1      41.299  27.745  28.381  1.00  0.00     0.064 A 
ATOM     73  C   UNL A   1      42.198  28.149  27.384  1.00  0.00     0.173 A 
ATOM     74  C   UNL A   1      40.646  26.517  28.212  1.00  0.00     0.173 A 
ATOM     75  F   UNL A   1      42.834  29.325  27.493  1.00  0.00    -0.203 F 
ATOM     76  C   UNL A   1      42.418  27.368  26.252  1.00  0.00     0.198 A 
ATOM     77  C   UNL A   1      40.885  25.724  27.092  1.00  0.00     0.198 A 
ATOM     78  F   UNL A   1      39.782  26.082  29.141  1.00  0.00    -0.203 F 
ATOM     79  F   UNL A   1      43.250  27.799  25.294  1.00  0.00    -0.200 F 
ATOM     80  C   UNL A   1      41.765  26.153  26.109  1.00  0.00     0.200 A 
ATOM     81  F   UNL A   1      40.265  24.543  26.963  1.00  0.00    -0.200 F 
ATOM     82  F   UNL A   1      41.979  25.399  25.021  1.00  0.00    -0.200 F 
ENDBRANCH  48  72
BRANCH  60  83
ATOM     83  C   UNL A   1      44.260  28.131  34.671  1.00  0.00     0.064 A 
ATOM     84  C   UNL A   1      43.993  26.953  35.383  1.00  0.00     0.173 A 
ATOM     85  C   UNL A   1      45.594  28.549  34.562  1.00  0.00     0.173 A 
ATOM     86  F   UNL A   1      42.731  26.522  35.527  1.00  0.00    -0.203 F 
ATOM     87  C   UNL A   1      45.022  26.239  35.992  1.00  0.00     0.198 A 
ATOM     88  C   UNL A   1      46.623  27.817  35.147  1.00  0.00     0.198 A 
ATOM     89  F   UNL A   1      45.901  29.665  33.885  1.00  0.00    -0.203 F 
ATOM     90  F   UNL A   1      44.739  25.146  36.714  1.00  0.00    -0.200 F 
ATOM     91  C   UNL A   1      46.335  26.668  35.870  1.00  0.00     0.200 A 
ATOM     92  F   UNL A   1      47.893  28.226  35.018  1.00  0.00    -0.200 F 
ATOM     93  F   UNL A   1      47.323  25.980  36.457  1.00  0.00    -0.200 F 
ENDBRANCH  60  83
ENDBRANCH  34  35
ENDBRANCH  26  29
ENDBRANCH  24  25
ENDBRANCH  23  24
ENDBRANCH   1  23
TORSDOF 14
ENDMDL
MODEL 2
REMARK VINA RESULT:     -12.0      3.291      4.906
REMARK SMILES O=C(CSc1ccccc1C(=O)NCCCNC(=O)c1ccc(-c2c3nc(c(-c4c(F)c(F)c(F)c(F)c4F)c4ccc([nH]4)c(-c4c(F)c(F)c(F)c(F)c4F)c4nc(c(-c5c(F)c(F)c(F)c(F)c5F)c5ccc2[nH]5)C=C4)C=C3)cc1)c1ccc(Cl)cc1
REMARK SMILES IDX 14 1 13 2 11 3 12 4 10 6 5 7 6 8 7 9 9 10 8 11 4 12 3 13
REMARK SMILES IDX 2 14 1 15 83 16 84 17 89 18 85 19 88 20 86 21 87 22 15 23
REMARK SMILES IDX 16 24 17 25 18 26 19 28 20 29 21 30 82 31 22 32 81 33 23 34
REMARK SMILES IDX 24 35 25 36 75 37 26 38 80 39 74 40 76 41 27 42 79 43 73 44
REMARK SMILES IDX 72 45 28 47 60 48 40 49 59 50 41 51 44 52 58 53 77 54 42 55
REMARK SMILES IDX 43 56 57 58 78 59 45 60 29 61 30 62 38 63 31 64 32 65 36 66
REMARK SMILES IDX 39 67 33 68 34 69 37 70 35 71 61 72 62 73 70 74 63 75 64 76
REMARK SMILES IDX 68 77 71 78 65 79 66 80 69 81 67 82 46 83 47 84 55 85 48 86
REMARK SMILES IDX 49 87 53 88 56 89 50 90 51 91 54 92 52 93
REMARK H PARENT 13 5 17 27 76 46 44 57
REMARK Flexibility Score: inf
ROOT
ATOM      1  C   UNL A   1      32.266  26.278  26.175  1.00  0.00     0.118 C 
ENDROOT
BRANCH   1   2
ATOM      2  N   UNL A   1      31.270  25.419  26.764  1.00  0.00    -0.352 N 
ATOM      3  C   UNL A   1      31.122  24.060  26.782  1.00  0.00     0.252 C 
ATOM      4  O   UNL A   1      30.058  23.635  27.242  1.00  0.00    -0.269 OA
ATOM      5  H   UNL A   1      30.560  25.904  27.245  1.00  0.00     0.163 HD
BRANCH   3   6
ATOM      6  C   UNL A   1      32.195  23.075  26.453  1.00  0.00     0.053 A 
ATOM      7  C   UNL A   1      32.526  22.499  25.208  1.00  0.00     0.020 A 
ATOM      8  C   UNL A   1      33.437  21.422  25.199  1.00  0.00     0.016 A 
ATOM      9  C   UNL A   1      34.038  20.940  26.362  1.00  0.00     0.001 A 
ATOM     10  C   UNL A   1      32.817  22.571  27.621  1.00  0.00     0.015 A 
ATOM     11  C   UNL A   1      33.727  21.517  27.580  1.00  0.00     0.001 A 
BRANCH   7  12
ATOM     12  S   UNL A   1      31.698  22.760  23.646  1.00  0.00    -0.117 SA
BRANCH  12  13
ATOM     13  C   UNL A   1      32.977  23.348  22.476  1.00  0.00     0.156 C 
BRANCH  13  14
ATOM     14  C   UNL A   1      33.957  24.411  22.918  1.00  0.00     0.173 C 
ATOM     15  O   UNL A   1      33.752  25.618  22.855  1.00  0.00    -0.293 OA
BRANCH  14  16
ATOM     16  C   UNL A   1      35.147  23.936  23.666  1.00  0.00     0.018 A 
ATOM     17  C   UNL A   1      36.000  22.974  23.122  1.00  0.00     0.013 A 
ATOM     18  C   UNL A   1      35.376  24.435  24.953  1.00  0.00     0.013 A 
ATOM     19  C   UNL A   1      37.042  22.453  23.894  1.00  0.00     0.021 A 
ATOM     20  C   UNL A   1      36.433  23.928  25.714  1.00  0.00     0.021 A 
ATOM     21  C   UNL A   1      37.251  22.928  25.188  1.00  0.00     0.041 A 
ATOM     22  Cl  UNL A   1      38.532  22.281  26.137  1.00  0.00    -0.084 Cl
ENDBRANCH  14  16
ENDBRANCH  13  14
ENDBRANCH  12  13
ENDBRANCH   7  12
ENDBRANCH   3   6
ENDBRANCH   1   2
BRANCH   1  23
ATOM     23  C   UNL A   1      32.368  27.577  26.966  1.00  0.00     0.042 C 
BRANCH  23  24
ATOM     24  C   UNL A   1      33.680  28.307  26.730  1.00  0.00     0.118 C 
BRANCH  24  25
ATOM     25  N   UNL A   1      33.580  29.708  27.116  1.00  0.00    -0.352 N 
ATOM     26  C   UNL A   1      34.420  30.477  27.880  1.00  0.00     0.251 C 
ATOM     27  H   UNL A   1      32.785  30.176  26.776  1.00  0.00     0.163 HD
ATOM     28  O   UNL A   1      34.006  31.549  28.324  1.00  0.00    -0.269 OA
BRANCH  26  29
ATOM     29  C   UNL A   1      35.806  30.048  28.182  1.00  0.00     0.039 A 
ATOM     30  C   UNL A   1      36.093  29.542  29.454  1.00  0.00     0.014 A 
ATOM     31  C   UNL A   1      36.841  30.207  27.257  1.00  0.00     0.014 A 
ATOM     32  C   UNL A   1      37.400  29.173  29.782  1.00  0.00     0.010 A 
ATOM     33  C   UNL A   1      38.120  29.740  27.547  1.00  0.00     0.010 A 
ATOM     34  C   UNL A   1      38.423  29.253  28.825  1.00  0.00    -0.014 A 
BRANCH  34  35
ATOM     35  C   UNL A   1      39.826  28.898  29.161  1.00  0.00     0.031 A 
ATOM     36  C   UNL A   1      40.660  29.840  29.992  1.00  0.00     0.074 A 
ATOM     37  C   UNL A   1      40.363  27.760  28.684  1.00  0.00     0.049 A 
ATOM     38  N   UNL A   1      41.915  29.739  30.352  1.00  0.00    -0.248 NA
ATOM     39  C   UNL A   1      40.007  31.077  30.449  1.00  0.00     0.031 C 
ATOM     40  C   UNL A   1      39.680  26.797  27.820  1.00  0.00     0.029 A 
ATOM     41  N   UNL A   1      41.614  27.223  28.857  1.00  0.00    -0.354 N 
ATOM     42  C   UNL A   1      42.203  30.906  31.049  1.00  0.00     0.074 A 
ATOM     43  C   UNL A   1      41.014  31.726  31.011  1.00  0.00     0.031 C 
ATOM     44  C   UNL A   1      40.508  25.772  27.565  1.00  0.00     0.029 A 
ATOM     45  C   UNL A   1      41.787  26.018  28.222  1.00  0.00     0.049 A 
ATOM     46  H   UNL A   1      42.320  27.658  29.386  1.00  0.00     0.167 HD
ATOM     47  C   UNL A   1      43.346  31.252  31.690  1.00  0.00     0.037 A 
ATOM     48  C   UNL A   1      42.857  25.201  28.184  1.00  0.00     0.037 A 
ATOM     49  C   UNL A   1      44.511  30.412  31.765  1.00  0.00     0.049 A 
ATOM     50  C   UNL A   1      44.096  25.582  28.947  1.00  0.00     0.074 A 
ATOM     51  C   UNL A   1      45.700  30.640  32.436  1.00  0.00     0.029 A 
ATOM     52  N   UNL A   1      44.629  29.173  31.153  1.00  0.00    -0.354 N 
ATOM     53  N   UNL A   1      44.334  26.658  29.656  1.00  0.00    -0.248 NA
ATOM     54  C   UNL A   1      45.209  24.624  28.919  1.00  0.00     0.031 C 
ATOM     55  C   UNL A   1      46.548  29.551  32.206  1.00  0.00     0.029 A 
ATOM     56  C   UNL A   1      45.871  28.626  31.427  1.00  0.00     0.049 A 
ATOM     57  H   UNL A   1      43.931  28.746  30.604  1.00  0.00     0.167 HD
ATOM     58  C   UNL A   1      45.608  26.496  30.181  1.00  0.00     0.074 A 
ATOM     59  C   UNL A   1      46.086  25.208  29.723  1.00  0.00     0.031 C 
ATOM     60  C   UNL A   1      46.320  27.335  30.972  1.00  0.00     0.037 A 
BRANCH  47  61
ATOM     61  C   UNL A   1      43.381  32.590  32.370  1.00  0.00     0.064 A 
ATOM     62  C   UNL A   1      43.785  33.750  31.691  1.00  0.00     0.173 A 
ATOM     63  C   UNL A   1      42.987  32.720  33.710  1.00  0.00     0.173 A 
ATOM     64  F   UNL A   1      44.185  33.679  30.412  1.00  0.00    -0.203 F 
ATOM     65  C   UNL A   1      43.826  34.983  32.337  1.00  0.00     0.198 A 
ATOM     66  C   UNL A   1      43.001  33.960  34.345  1.00  0.00     0.198 A 
ATOM     67  F   UNL A   1      42.588  31.645  34.406  1.00  0.00    -0.203 F 
ATOM     68  F   UNL A   1      44.271  36.066  31.683  1.00  0.00    -0.200 F 
ATOM     69  C   UNL A   1      43.429  35.088  33.661  1.00  0.00     0.200 A 
ATOM     70  F   UNL A   1      42.605  34.063  35.621  1.00  0.00    -0.200 F 
ATOM     71  F   UNL A   1      43.466  36.276  34.281  1.00  0.00    -0.200 F 
ENDBRANCH  47  61
BRANCH  48  72
ATOM     72  C   UNL A   1      42.782  23.916  27.442  1.00  0.00     0.064 A 
ATOM     73  C   UNL A   1      43.171  23.842  26.097  1.00  0.00     0.173 A 
ATOM     74  C   UNL A   1      42.326  22.741  28.055  1.00  0.00     0.173 A 
ATOM     75  F   UNL A   1      43.599  24.944  25.463  1.00  0.00    -0.203 F 
ATOM     76  C   UNL A   1      43.086  22.647  25.387  1.00  0.00     0.198 A 
ATOM     77  C   UNL A   1      42.265  21.540  27.351  1.00  0.00     0.198 A 
ATOM     78  F   UNL A   1      41.950  22.758  29.342  1.00  0.00    -0.203 F 
ATOM     79  F   UNL A   1      43.423  22.615  24.090  1.00  0.00    -0.200 F 
ATOM     80  C   UNL A   1      42.638  21.496  26.015  1.00  0.00     0.200 A 
ATOM     81  F   UNL A   1      41.846  20.426  27.965  1.00  0.00    -0.200 F 
ATOM     82  F   UNL A   1      42.559  20.345  25.333  1.00  0.00    -0.200 F 
ENDBRANCH  48  72
BRANCH  60  83
ATOM     83  C   UNL A   1      47.672  26.866  31.425  1.00  0.00     0.064 A 
ATOM     84  C   UNL A   1      47.832  26.088  32.580  1.00  0.00     0.173 A 
ATOM     85  C   UNL A   1      48.817  27.185  30.680  1.00  0.00     0.173 A 
ATOM     86  F   UNL A   1      46.769  25.770  33.333  1.00  0.00    -0.203 F 
ATOM     87  C   UNL A   1      49.097  25.675  32.992  1.00  0.00     0.198 A 
ATOM     88  C   UNL A   1      50.076  26.746  31.078  1.00  0.00     0.198 A 
ATOM     89  F   UNL A   1      48.715  27.921  29.562  1.00  0.00    -0.203 F 
ATOM     90  F   UNL A   1      49.234  24.979  34.129  1.00  0.00    -0.200 F 
ATOM     91  C   UNL A   1      50.216  25.999  32.240  1.00  0.00     0.200 A 
ATOM     92  F   UNL A   1      51.154  27.049  30.344  1.00  0.00    -0.200 F 
ATOM     93  F   UNL A   1      51.431  25.601  32.638  1.00  0.00    -0.200 F 
ENDBRANCH  60  83
ENDBRANCH  34  35
ENDBRANCH  26  29
ENDBRANCH  24  25
ENDBRANCH  23  24
ENDBRANCH   1  23
TORSDOF 14
ENDMDL
MODEL 3
REMARK VINA RESULT:     -11.9      0.194      1.683
REMARK SMILES O=C(CSc1ccccc1C(=O)NCCCNC(=O)c1ccc(-c2c3nc(c(-c4c(F)c(F)c(F)c(F)c4F)c4ccc([nH]4)c(-c4c(F)c(F)c(F)c(F)c4F)c4nc(c(-c5c(F)c(F)c(F)c(F)c5F)c5ccc2[nH]5)C=C4)C=C3)cc1)c1ccc(Cl)cc1
REMARK SMILES IDX 14 1 13 2 11 3 12 4 10 6 5 7 6 8 7 9 9 10 8 11 4 12 3 13
REMARK SMILES IDX 2 14 1 15 83 16 84 17 89 18 85 19 88 20 86 21 87 22 15 23
REMARK SMILES IDX 16 24 17 25 18 26 19 28 20 29 21 30 82 31 22 32 81 33 23 34
REMARK SMILES IDX 24 35 25 36 75 37 26 38 80 39 74 40 76 41 27 42 79 43 73 44
REMARK SMILES IDX 72 45 28 47 60 48 40 49 59 50 41 51 44 52 58 53 77 54 42 55
REMARK SMILES IDX 43 56 57 58 78 59 45 60 29 61 30 62 38 63 31 64 32 65 36 66
REMARK SMILES IDX 39 67 33 68 34 69 37 70 35 71 61 72 62 73 70 74 63 75 64 76
REMARK SMILES IDX 68 77 71 78 65 79 66 80 69 81 67 82 46 83 47 84 55 85 48 86
REMARK SMILES IDX 49 87 53 88 56 89 50 90 51 91 54 92 52 93
REMARK H PARENT 13 5 17 27 76 46 44 57
REMARK Flexibility Score: inf
ROOT
ATOM      1  C   UNL A   1      31.413  30.422  25.448  1.00  0.00     0.118 C 
ENDROOT
BRANCH   1   2
ATOM      2  N   UNL A   1      32.541  29.672  25.941  1.00  0.00    -0.352 N 
ATOM      3  C   UNL A   1      33.017  28.426  25.640  1.00  0.00     0.252 C 
ATOM      4  O   UNL A   1      33.922  28.001  26.364  1.00  0.00    -0.269 OA
ATOM      5  H   UNL A   1      33.068  30.146  26.624  1.00  0.00     0.163 HD
BRANCH   3   6
ATOM      6  C   UNL A   1      32.650  27.635  24.428  1.00  0.00     0.053 A 
ATOM      7  C   UNL A   1      31.559  26.762  24.228  1.00  0.00     0.020 A 
ATOM      8  C   UNL A   1      31.559  25.959  23.068  1.00  0.00     0.016 A 
ATOM      9  C   UNL A   1      32.570  26.027  22.111  1.00  0.00     0.001 A 
ATOM     10  C   UNL A   1      33.666  27.688  23.443  1.00  0.00     0.015 A 
ATOM     11  C   UNL A   1      33.630  26.895  22.297  1.00  0.00     0.001 A 
BRANCH   7  12
ATOM     12  S   UNL A   1      30.308  26.312  25.422  1.00  0.00    -0.117 SA
BRANCH  12  13
ATOM     13  C   UNL A   1      30.505  24.517  25.723  1.00  0.00     0.156 C 
BRANCH  13  14
ATOM     14  C   UNL A   1      31.751  24.012  26.416  1.00  0.00     0.173 C 
ATOM     15  O   UNL A   1      31.789  23.602  27.571  1.00  0.00    -0.293 OA
BRANCH  14  16
ATOM     16  C   UNL A   1      32.945  23.814  25.558  1.00  0.00     0.018 A 
ATOM     17  C   UNL A   1      32.929  22.895  24.507  1.00  0.00     0.013 A 
ATOM     18  C   UNL A   1      34.110  24.532  25.850  1.00  0.00     0.013 A 
ATOM     19  C   UNL A   1      34.101  22.637  23.792  1.00  0.00     0.021 A 
ATOM     20  C   UNL A   1      35.275  24.288  25.117  1.00  0.00     0.021 A 
ATOM     21  C   UNL A   1      35.270  23.331  24.103  1.00  0.00     0.041 A 
ATOM     22  Cl  UNL A   1      36.713  23.008  23.222  1.00  0.00    -0.084 Cl
ENDBRANCH  14  16
ENDBRANCH  13  14
ENDBRANCH  12  13
ENDBRANCH   7  12
ENDBRANCH   3   6
ENDBRANCH   1   2
BRANCH   1  23
ATOM     23  C   UNL A   1      31.233  31.692  26.273  1.00  0.00     0.042 C 
BRANCH  23  24
ATOM     24  C   UNL A   1      32.494  32.092  27.019  1.00  0.00     0.118 C 
BRANCH  24  25
ATOM     25  N   UNL A   1      32.488  33.513  27.340  1.00  0.00    -0.352 N 
ATOM     26  C   UNL A   1      33.181  34.207  28.298  1.00  0.00     0.251 C 
ATOM     27  H   UNL A   1      31.891  34.062  26.783  1.00  0.00     0.163 HD
ATOM     28  O   UNL A   1      32.814  35.346  28.591  1.00  0.00    -0.269 OA
BRANCH  26  29
ATOM     29  C   UNL A   1      34.355  33.619  28.985  1.00  0.00     0.039 A 
ATOM     30  C   UNL A   1      35.637  33.994  28.570  1.00  0.00     0.014 A 
ATOM     31  C   UNL A   1      34.213  32.647  29.978  1.00  0.00     0.014 A 
ATOM     32  C   UNL A   1      36.763  33.420  29.167  1.00  0.00     0.010 A 
ATOM     33  C   UNL A   1      35.331  32.156  30.647  1.00  0.00     0.010 A 
ATOM     34  C   UNL A   1      36.619  32.508  30.224  1.00  0.00    -0.014 A 
BRANCH  34  35
ATOM     35  C   UNL A   1      37.799  31.860  30.851  1.00  0.00     0.031 A 
ATOM     36  C   UNL A   1      38.219  32.252  32.245  1.00  0.00     0.074 A 
ATOM     37  C   UNL A   1      38.519  30.958  30.157  1.00  0.00     0.049 A 
ATOM     38  N   UNL A   1      39.245  31.843  32.950  1.00  0.00    -0.248 NA
ATOM     39  C   UNL A   1      37.398  33.267  32.925  1.00  0.00     0.031 C 
ATOM     40  C   UNL A   1      38.251  30.540  28.781  1.00  0.00     0.029 A 
ATOM     41  N   UNL A   1      39.627  30.233  30.516  1.00  0.00    -0.354 N 
ATOM     42  C   UNL A   1      39.204  32.568  34.134  1.00  0.00     0.074 A 
ATOM     43  C   UNL A   1      38.090  33.483  34.032  1.00  0.00     0.031 C 
ATOM     44  C   UNL A   1      39.150  29.609  28.423  1.00  0.00     0.029 A 
ATOM     45  C   UNL A   1      40.072  29.386  29.532  1.00  0.00     0.049 A 
ATOM     46  H   UNL A   1      40.062  30.312  31.395  1.00  0.00     0.167 HD
ATOM     47  C   UNL A   1      40.002  32.460  35.223  1.00  0.00     0.037 A 
ATOM     48  C   UNL A   1      41.104  28.521  29.530  1.00  0.00     0.037 A 
ATOM     49  C   UNL A   1      41.080  31.515  35.340  1.00  0.00     0.049 A 
ATOM     50  C   UNL A   1      41.944  28.382  30.770  1.00  0.00     0.074 A 
ATOM     51  C   UNL A   1      41.914  31.283  36.420  1.00  0.00     0.029 A 
ATOM     52  N   UNL A   1      41.466  30.635  34.339  1.00  0.00    -0.354 N 
ATOM     53  N   UNL A   1      41.855  29.027  31.908  1.00  0.00    -0.248 NA
ATOM     54  C   UNL A   1      43.017  27.380  30.731  1.00  0.00     0.031 C 
ATOM     55  C   UNL A   1      42.824  30.282  36.062  1.00  0.00     0.029 A 
ATOM     56  C   UNL A   1      42.529  29.861  34.775  1.00  0.00     0.049 A 
ATOM     57  H   UNL A   1      41.047  30.571  33.451  1.00  0.00     0.167 HD
ATOM     58  C   UNL A   1      42.837  28.491  32.729  1.00  0.00     0.074 A 
ATOM     59  C   UNL A   1      43.499  27.456  31.963  1.00  0.00     0.031 C 
ATOM     60  C   UNL A   1      43.164  28.825  34.001  1.00  0.00     0.037 A 
BRANCH  47  61
ATOM     61  C   UNL A   1      39.728  33.381  36.377  1.00  0.00     0.064 A 
ATOM     62  C   UNL A   1      38.869  33.012  37.425  1.00  0.00     0.173 A 
ATOM     63  C   UNL A   1      40.344  34.639  36.449  1.00  0.00     0.173 A 
ATOM     64  F   UNL A   1      38.243  31.825  37.398  1.00  0.00    -0.203 F 
ATOM     65  C   UNL A   1      38.612  33.880  38.482  1.00  0.00     0.198 A 
ATOM     66  C   UNL A   1      40.108  35.493  37.524  1.00  0.00     0.198 A 
ATOM     67  F   UNL A   1      41.176  35.042  35.477  1.00  0.00    -0.203 F 
ATOM     68  F   UNL A   1      37.744  33.527  39.442  1.00  0.00    -0.200 F 
ATOM     69  C   UNL A   1      39.236  35.117  38.534  1.00  0.00     0.200 A 
ATOM     70  F   UNL A   1      40.721  36.684  37.579  1.00  0.00    -0.200 F 
ATOM     71  F   UNL A   1      38.991  35.951  39.555  1.00  0.00    -0.200 F 
ENDBRANCH  47  61
BRANCH  48  72
ATOM     72  C   UNL A   1      41.364  27.680  28.333  1.00  0.00     0.064 A 
ATOM     73  C   UNL A   1      42.238  28.116  27.327  1.00  0.00     0.173 A 
ATOM     74  C   UNL A   1      40.752  26.430  28.169  1.00  0.00     0.173 A 
ATOM     75  F   UNL A   1      42.835  29.313  27.432  1.00  0.00    -0.203 F 
ATOM     76  C   UNL A   1      42.473  27.344  26.192  1.00  0.00     0.198 A 
ATOM     77  C   UNL A   1      41.007  25.647  27.046  1.00  0.00     0.198 A 
ATOM     78  F   UNL A   1      39.914  25.965  29.107  1.00  0.00    -0.203 F 
ATOM     79  F   UNL A   1      43.279  27.805  25.226  1.00  0.00    -0.200 F 
ATOM     80  C   UNL A   1      41.861  26.108  26.055  1.00  0.00     0.200 A 
ATOM     81  F   UNL A   1      40.426  24.446  26.922  1.00  0.00    -0.200 F 
ATOM     82  F   UNL A   1      42.090  25.363  24.963  1.00  0.00    -0.200 F 
ENDBRANCH  48  72
BRANCH  60  83
ATOM     83  C   UNL A   1      44.256  28.033  34.657  1.00  0.00     0.064 A 
ATOM     84  C   UNL A   1      45.596  28.441  34.604  1.00  0.00     0.173 A 
ATOM     85  C   UNL A   1      43.951  26.860  35.364  1.00  0.00     0.173 A 
ATOM     86  F   UNL A   1      45.939  29.548  33.928  1.00  0.00    -0.203 F 
ATOM     87  C   UNL A   1      46.597  27.684  35.207  1.00  0.00     0.198 A 
ATOM     88  C   UNL A   1      44.950  26.122  35.991  1.00  0.00     0.198 A 
ATOM     89  F   UNL A   1      42.683  26.432  35.450  1.00  0.00    -0.203 F 
ATOM     90  F   UNL A   1      47.878  28.063  35.097  1.00  0.00    -0.200 F 
ATOM     91  C   UNL A   1      46.274  26.529  35.903  1.00  0.00     0.200 A 
ATOM     92  F   UNL A   1      44.635  25.013  36.673  1.00  0.00    -0.200 F 
ATOM     93  F   UNL A   1      47.238  25.802  36.483  1.00  0.00    -0.200 F 
ENDBRANCH  60  83
ENDBRANCH  34  35
ENDBRANCH  26  29
ENDBRANCH  24  25
ENDBRANCH  23  24
ENDBRANCH   1  23
TORSDOF 14
ENDMDL
