MODEL 1
REMARK VINA RESULT:     -11.9      0.000      0.000
REMARK SMILES C[C@H](C(=O)NCCCNC(=O)c1ccc(-c2c3nc(c(-c4c(F)c(F)c(F)c(F)c4F)c4ccc([nH]4)c(-c4c(F)c(F)c(F)c(F)c4F)c4nc(c(-c5c(F)c(F)c(F)c(F)c5F)c5ccc2[nH]5)C=C4)C=C3)cc1)[C@@H](C)[N@@H+](C)C[C@H]1C[C@H](O)C1
REMARK SMILES IDX 3 1 4 2 5 3 2 5 1 6 75 7 76 8 77 9 78 10 79 12 80 13 84 14
REMARK SMILES IDX 81 15 82 16 83 17 6 19 7 20 8 21 9 22 10 23 11 25 12 26
REMARK SMILES IDX 13 27 74 28 14 29 73 30 15 31 16 32 17 33 67 34 18 35 72 36
REMARK SMILES IDX 66 37 68 38 19 39 71 40 65 41 64 42 20 44 52 45 32 46 51 47
REMARK SMILES IDX 33 48 36 49 50 50 69 51 34 52 35 53 49 55 70 56 37 57 21 58
REMARK SMILES IDX 22 59 30 60 23 61 24 62 28 63 31 64 25 65 26 66 29 67 27 68
REMARK SMILES IDX 53 69 54 70 62 71 55 72 56 73 60 74 63 75 57 76 58 77 61 78
REMARK SMILES IDX 59 79 38 80 39 81 47 82 40 83 41 84 45 85 48 86 42 87 43 88
REMARK SMILES IDX 46 89 44 90
REMARK H PARENT 5 4 77 11 83 18 9 24 68 43 36 54
REMARK Flexibility Score: inf
ROOT
ATOM      1  C   UNL A   1      31.787  24.951  26.505  1.00  0.00     0.228 C 
ATOM      2  O   UNL A   1      31.383  24.053  27.257  1.00  0.00    -0.275 OA
ATOM      3  N   UNL A   1      30.972  26.043  26.431  1.00  0.00    -0.356 N 
ATOM      4  H   UNL A   1      30.101  25.905  26.869  1.00  0.00     0.163 HD
ENDROOT
BRANCH   1   5
ATOM      5  C   UNL A   1      33.086  24.716  25.694  1.00  0.00     0.133 C 
ATOM      6  C   UNL A   1      33.916  23.697  26.480  1.00  0.00     0.024 C 
BRANCH   5   7
ATOM      7  C   UNL A   1      32.899  24.416  24.186  1.00  0.00     0.192 C 
ATOM      8  C   UNL A   1      34.299  24.311  23.560  1.00  0.00     0.076 C 
BRANCH   7   9
ATOM      9  N   UNL A   1      31.949  23.334  23.853  1.00  0.00    -0.334 N 
ATOM     10  C   UNL A   1      30.658  23.796  23.357  1.00  0.00     0.332 C 
ATOM     11  H   UNL A   1      31.801  22.977  24.797  1.00  0.00     0.348 HD
BRANCH   9  12
ATOM     12  C   UNL A   1      32.423  22.092  23.251  1.00  0.00     0.265 C 
BRANCH  12  13
ATOM     13  C   UNL A   1      32.477  20.818  24.106  1.00  0.00     0.049 C 
ATOM     14  C   UNL A   1      33.674  20.313  24.971  1.00  0.00     0.041 C 
ATOM     15  C   UNL A   1      32.521  19.404  23.446  1.00  0.00     0.041 C 
ATOM     16  C   UNL A   1      33.120  18.888  24.783  1.00  0.00     0.115 C 
BRANCH  16  17
ATOM     17  O   UNL A   1      32.171  18.457  25.777  1.00  0.00    -0.393 OA
ATOM     18  H   UNL A   1      32.615  18.380  26.637  1.00  0.00     0.210 HD
ENDBRANCH  16  17
ENDBRANCH  12  13
ENDBRANCH   9  12
ENDBRANCH   7   9
ENDBRANCH   5   7
ENDBRANCH   1   5
BRANCH   3  19
ATOM     19  C   UNL A   1      31.112  27.370  25.839  1.00  0.00     0.117 C 
BRANCH  19  20
ATOM     20  C   UNL A   1      31.760  28.406  26.747  1.00  0.00     0.042 C 
BRANCH  20  21
ATOM     21  C   UNL A   1      32.554  29.469  26.004  1.00  0.00     0.118 C 
BRANCH  21  22
ATOM     22  N   UNL A   1      32.323  30.826  26.492  1.00  0.00    -0.352 N 
ATOM     23  C   UNL A   1      33.096  31.686  27.240  1.00  0.00     0.251 C 
ATOM     24  H   UNL A   1      31.448  31.198  26.236  1.00  0.00     0.163 HD
ATOM     25  O   UNL A   1      32.609  32.750  27.622  1.00  0.00    -0.269 OA
BRANCH  23  26
ATOM     26  C   UNL A   1      34.474  31.332  27.653  1.00  0.00     0.039 A 
ATOM     27  C   UNL A   1      35.425  32.350  27.799  1.00  0.00     0.014 A 
ATOM     28  C   UNL A   1      34.846  30.016  27.906  1.00  0.00     0.014 A 
ATOM     29  C   UNL A   1      36.686  32.060  28.332  1.00  0.00     0.010 A 
ATOM     30  C   UNL A   1      36.048  29.745  28.552  1.00  0.00     0.010 A 
ATOM     31  C   UNL A   1      36.977  30.768  28.794  1.00  0.00    -0.014 A 
BRANCH  31  32
ATOM     32  C   UNL A   1      38.208  30.454  29.573  1.00  0.00     0.031 A 
ATOM     33  C   UNL A   1      39.221  29.481  29.029  1.00  0.00     0.074 A 
ATOM     34  C   UNL A   1      38.340  30.927  30.830  1.00  0.00     0.049 A 
ATOM     35  N   UNL A   1      40.234  28.914  29.635  1.00  0.00    -0.248 NA
ATOM     36  C   UNL A   1      39.046  29.050  27.632  1.00  0.00     0.031 C 
ATOM     37  C   UNL A   1      37.397  31.823  31.505  1.00  0.00     0.029 A 
ATOM     38  N   UNL A   1      39.305  30.695  31.781  1.00  0.00    -0.354 N 
ATOM     39  C   UNL A   1      40.779  28.028  28.715  1.00  0.00     0.074 A 
ATOM     40  C   UNL A   1      39.968  28.105  27.520  1.00  0.00     0.031 C 
ATOM     41  C   UNL A   1      37.835  32.075  32.749  1.00  0.00     0.029 A 
ATOM     42  C   UNL A   1      39.058  31.317  32.983  1.00  0.00     0.049 A 
ATOM     43  H   UNL A   1      40.099  30.136  31.617  1.00  0.00     0.167 HD
ATOM     44  C   UNL A   1      41.870  27.237  28.849  1.00  0.00     0.037 A 
ATOM     45  C   UNL A   1      39.723  31.260  34.153  1.00  0.00     0.037 A 
ATOM     46  C   UNL A   1      42.723  27.227  30.007  1.00  0.00     0.049 A 
ATOM     47  C   UNL A   1      40.951  30.396  34.259  1.00  0.00     0.074 A 
ATOM     48  C   UNL A   1      43.929  26.572  30.180  1.00  0.00     0.029 A 
ATOM     49  N   UNL A   1      42.463  27.908  31.186  1.00  0.00    -0.354 N 
ATOM     50  N   UNL A   1      41.507  29.638  33.347  1.00  0.00    -0.248 NA
ATOM     51  C   UNL A   1      41.639  30.376  35.558  1.00  0.00     0.031 C 
ATOM     52  C   UNL A   1      44.378  26.819  31.480  1.00  0.00     0.029 A 
ATOM     53  C   UNL A   1      43.470  27.659  32.103  1.00  0.00     0.049 A 
ATOM     54  H   UNL A   1      41.679  28.481  31.346  1.00  0.00     0.167 HD
ATOM     55  C   UNL A   1      42.615  29.065  33.955  1.00  0.00     0.074 A 
ATOM     56  C   UNL A   1      42.668  29.579  35.307  1.00  0.00     0.031 C 
ATOM     57  C   UNL A   1      43.508  28.185  33.441  1.00  0.00     0.037 A 
BRANCH  44  58
ATOM     58  C   UNL A   1      42.227  26.324  27.715  1.00  0.00     0.064 A 
ATOM     59  C   UNL A   1      43.199  26.671  26.766  1.00  0.00     0.173 A 
ATOM     60  C   UNL A   1      41.646  25.049  27.625  1.00  0.00     0.173 A 
ATOM     61  F   UNL A   1      43.778  27.880  26.805  1.00  0.00    -0.203 F 
ATOM     62  C   UNL A   1      43.566  25.782  25.760  1.00  0.00     0.198 A 
ATOM     63  C   UNL A   1      42.035  24.152  26.633  1.00  0.00     0.198 A 
ATOM     64  F   UNL A   1      40.715  24.665  28.511  1.00  0.00    -0.203 F 
ATOM     65  F   UNL A   1      44.476  26.147  24.846  1.00  0.00    -0.200 F 
ATOM     66  C   UNL A   1      42.993  24.520  25.700  1.00  0.00     0.200 A 
ATOM     67  F   UNL A   1      41.488  22.930  26.584  1.00  0.00    -0.200 F 
ATOM     68  F   UNL A   1      43.361  23.660  24.741  1.00  0.00    -0.200 F 
ENDBRANCH  44  58
BRANCH  45  69
ATOM     69  C   UNL A   1      39.242  32.033  35.330  1.00  0.00     0.064 A 
ATOM     70  C   UNL A   1      39.622  33.370  35.514  1.00  0.00     0.173 A 
ATOM     71  C   UNL A   1      38.422  31.447  36.305  1.00  0.00     0.173 A 
ATOM     72  F   UNL A   1      40.423  33.966  34.620  1.00  0.00    -0.203 F 
ATOM     73  C   UNL A   1      39.225  34.082  36.644  1.00  0.00     0.198 A 
ATOM     74  C   UNL A   1      38.001  32.170  37.420  1.00  0.00     0.198 A 
ATOM     75  F   UNL A   1      38.025  30.173  36.174  1.00  0.00    -0.203 F 
ATOM     76  F   UNL A   1      39.649  35.341  36.823  1.00  0.00    -0.200 F 
ATOM     77  C   UNL A   1      38.411  33.483  37.594  1.00  0.00     0.200 A 
ATOM     78  F   UNL A   1      37.202  31.593  38.328  1.00  0.00    -0.200 F 
ATOM     79  F   UNL A   1      38.033  34.167  38.682  1.00  0.00    -0.200 F 
ENDBRANCH  45  69
BRANCH  57  80
ATOM     80  C   UNL A   1      44.623  27.733  34.334  1.00  0.00     0.064 A 
ATOM     81  C   UNL A   1      44.517  26.561  35.097  1.00  0.00     0.173 A 
ATOM     82  C   UNL A   1      45.831  28.445  34.383  1.00  0.00     0.173 A 
ATOM     83  F   UNL A   1      43.374  25.858  35.096  1.00  0.00    -0.203 F 
ATOM     84  C   UNL A   1      45.576  26.125  35.886  1.00  0.00     0.198 A 
ATOM     85  C   UNL A   1      46.898  27.992  35.152  1.00  0.00     0.198 A 
ATOM     86  F   UNL A   1      45.983  29.570  33.667  1.00  0.00    -0.203 F 
ATOM     87  F   UNL A   1      45.441  25.021  36.634  1.00  0.00    -0.200 F 
ATOM     88  C   UNL A   1      46.767  26.834  35.907  1.00  0.00     0.200 A 
ATOM     89  F   UNL A   1      48.052  28.671  35.162  1.00  0.00    -0.200 F 
ATOM     90  F   UNL A   1      47.792  26.404  36.656  1.00  0.00    -0.200 F 
ENDBRANCH  57  80
ENDBRANCH  31  32
ENDBRANCH  23  26
ENDBRANCH  21  22
ENDBRANCH  20  21
ENDBRANCH  19  20
ENDBRANCH   3  19
TORSDOF 15
ENDMDL
MODEL 2
REMARK VINA RESULT:     -11.7      0.535      1.876
REMARK SMILES C[C@H](C(=O)NCCCNC(=O)c1ccc(-c2c3nc(c(-c4c(F)c(F)c(F)c(F)c4F)c4ccc([nH]4)c(-c4c(F)c(F)c(F)c(F)c4F)c4nc(c(-c5c(F)c(F)c(F)c(F)c5F)c5ccc2[nH]5)C=C4)C=C3)cc1)[C@@H](C)[N@@H+](C)C[C@H]1C[C@H](O)C1
REMARK SMILES IDX 3 1 4 2 5 3 2 5 1 6 75 7 76 8 77 9 78 10 79 12 80 13 84 14
REMARK SMILES IDX 81 15 82 16 83 17 6 19 7 20 8 21 9 22 10 23 11 25 12 26
REMARK SMILES IDX 13 27 74 28 14 29 73 30 15 31 16 32 17 33 67 34 18 35 72 36
REMARK SMILES IDX 66 37 68 38 19 39 71 40 65 41 64 42 20 44 52 45 32 46 51 47
REMARK SMILES IDX 33 48 36 49 50 50 69 51 34 52 35 53 49 55 70 56 37 57 21 58
REMARK SMILES IDX 22 59 30 60 23 61 24 62 28 63 31 64 25 65 26 66 29 67 27 68
REMARK SMILES IDX 53 69 54 70 62 71 55 72 56 73 60 74 63 75 57 76 58 77 61 78
REMARK SMILES IDX 59 79 38 80 39 81 47 82 40 83 41 84 45 85 48 86 42 87 43 88
REMARK SMILES IDX 46 89 44 90
REMARK H PARENT 5 4 77 11 83 18 9 24 68 43 36 54
REMARK Flexibility Score: inf
ROOT
ATOM      1  C   UNL A   1      30.846  24.361  26.416  1.00  0.00     0.228 C 
ATOM      2  O   UNL A   1      30.102  23.806  27.237  1.00  0.00    -0.275 OA
ATOM      3  N   UNL A   1      30.892  25.720  26.516  1.00  0.00    -0.356 N 
ATOM      4  H   UNL A   1      30.215  26.086  27.129  1.00  0.00     0.163 HD
ENDROOT
BRANCH   1   5
ATOM      5  C   UNL A   1      31.556  23.491  25.348  1.00  0.00     0.133 C 
ATOM      6  C   UNL A   1      30.808  23.716  24.031  1.00  0.00     0.024 C 
BRANCH   5   7
ATOM      7  C   UNL A   1      33.098  23.626  25.280  1.00  0.00     0.192 C 
ATOM      8  C   UNL A   1      33.646  23.364  26.693  1.00  0.00     0.076 C 
BRANCH   7   9
ATOM      9  N   UNL A   1      33.764  22.906  24.175  1.00  0.00    -0.334 N 
ATOM     10  C   UNL A   1      34.283  23.770  23.120  1.00  0.00     0.332 C 
ATOM     11  H   UNL A   1      32.944  22.429  23.800  1.00  0.00     0.348 HD
BRANCH   9  12
ATOM     12  C   UNL A   1      34.571  21.722  24.443  1.00  0.00     0.265 C 
BRANCH  12  13
ATOM     13  C   UNL A   1      33.891  20.462  24.999  1.00  0.00     0.049 C 
ATOM     14  C   UNL A   1      34.266  18.977  24.698  1.00  0.00     0.041 C 
ATOM     15  C   UNL A   1      32.451  20.058  24.553  1.00  0.00     0.041 C 
ATOM     16  C   UNL A   1      32.801  18.616  25.011  1.00  0.00     0.115 C 
BRANCH  16  17
ATOM     17  O   UNL A   1      32.522  18.304  26.390  1.00  0.00    -0.393 OA
ATOM     18  H   UNL A   1      32.602  19.108  26.927  1.00  0.00     0.210 HD
ENDBRANCH  16  17
ENDBRANCH  12  13
ENDBRANCH   9  12
ENDBRANCH   7   9
ENDBRANCH   5   7
ENDBRANCH   1   5
BRANCH   3  19
ATOM     19  C   UNL A   1      31.730  26.750  25.907  1.00  0.00     0.117 C 
BRANCH  19  20
ATOM     20  C   UNL A   1      31.741  28.080  26.647  1.00  0.00     0.042 C 
BRANCH  20  21
ATOM     21  C   UNL A   1      32.662  29.122  26.030  1.00  0.00     0.118 C 
BRANCH  21  22
ATOM     22  N   UNL A   1      32.407  30.483  26.496  1.00  0.00    -0.352 N 
ATOM     23  C   UNL A   1      33.166  31.370  27.226  1.00  0.00     0.251 C 
ATOM     24  H   UNL A   1      31.524  30.834  26.237  1.00  0.00     0.163 HD
ATOM     25  O   UNL A   1      32.661  32.431  27.593  1.00  0.00    -0.269 OA
BRANCH  23  26
ATOM     26  C   UNL A   1      34.552  31.048  27.640  1.00  0.00     0.039 A 
ATOM     27  C   UNL A   1      35.485  32.085  27.764  1.00  0.00     0.014 A 
ATOM     28  C   UNL A   1      34.949  29.743  27.915  1.00  0.00     0.014 A 
ATOM     29  C   UNL A   1      36.753  31.828  28.297  1.00  0.00     0.010 A 
ATOM     30  C   UNL A   1      36.158  29.507  28.561  1.00  0.00     0.010 A 
ATOM     31  C   UNL A   1      37.069  30.550  28.781  1.00  0.00    -0.014 A 
BRANCH  31  32
ATOM     32  C   UNL A   1      38.308  30.273  29.560  1.00  0.00     0.031 A 
ATOM     33  C   UNL A   1      39.327  29.293  29.040  1.00  0.00     0.074 A 
ATOM     34  C   UNL A   1      38.445  30.787  30.801  1.00  0.00     0.049 A 
ATOM     35  N   UNL A   1      40.350  28.755  29.656  1.00  0.00    -0.248 NA
ATOM     36  C   UNL A   1      39.147  28.817  27.658  1.00  0.00     0.031 C 
ATOM     37  C   UNL A   1      37.498  31.694  31.454  1.00  0.00     0.029 A 
ATOM     38  N   UNL A   1      39.418  30.593  31.751  1.00  0.00    -0.354 N 
ATOM     39  C   UNL A   1      40.898  27.846  28.760  1.00  0.00     0.074 A 
ATOM     40  C   UNL A   1      40.077  27.877  27.569  1.00  0.00     0.031 C 
ATOM     41  C   UNL A   1      37.942  31.989  32.686  1.00  0.00     0.029 A 
ATOM     42  C   UNL A   1      39.174  31.251  32.935  1.00  0.00     0.049 A 
ATOM     43  H   UNL A   1      40.217  30.037  31.599  1.00  0.00     0.167 HD
ATOM     44  C   UNL A   1      41.997  27.070  28.911  1.00  0.00     0.037 A 
ATOM     45  C   UNL A   1      39.848  31.237  34.101  1.00  0.00     0.037 A 
ATOM     46  C   UNL A   1      42.858  27.104  30.062  1.00  0.00     0.049 A 
ATOM     47  C   UNL A   1      41.085  30.389  34.225  1.00  0.00     0.074 A 
ATOM     48  C   UNL A   1      44.072  26.466  30.247  1.00  0.00     0.029 A 
ATOM     49  N   UNL A   1      42.600  27.819  31.221  1.00  0.00    -0.354 N 
ATOM     50  N   UNL A   1      41.642  29.607  33.334  1.00  0.00    -0.248 NA
ATOM     51  C   UNL A   1      41.782  30.416  35.519  1.00  0.00     0.031 C 
ATOM     52  C   UNL A   1      44.527  26.758  31.535  1.00  0.00     0.029 A 
ATOM     53  C   UNL A   1      43.616  27.609  32.138  1.00  0.00     0.049 A 
ATOM     54  H   UNL A   1      41.812  28.390  31.369  1.00  0.00     0.167 HD
ATOM     55  C   UNL A   1      42.760  29.065  33.951  1.00  0.00     0.074 A 
ATOM     56  C   UNL A   1      42.817  29.622  35.286  1.00  0.00     0.031 C 
ATOM     57  C   UNL A   1      43.658  28.177  33.459  1.00  0.00     0.037 A 
BRANCH  44  58
ATOM     58  C   UNL A   1      42.354  26.125  27.803  1.00  0.00     0.064 A 
ATOM     59  C   UNL A   1      41.725  24.880  27.664  1.00  0.00     0.173 A 
ATOM     60  C   UNL A   1      43.281  26.507  26.820  1.00  0.00     0.173 A 
ATOM     61  F   UNL A   1      40.838  24.466  28.581  1.00  0.00    -0.203 F 
ATOM     62  C   UNL A   1      42.021  24.045  26.590  1.00  0.00     0.198 A 
ATOM     63  C   UNL A   1      43.555  25.680  25.733  1.00  0.00     0.198 A 
ATOM     64  F   UNL A   1      43.906  27.691  26.903  1.00  0.00    -0.203 F 
ATOM     65  F   UNL A   1      41.430  22.845  26.494  1.00  0.00    -0.200 F 
ATOM     66  C   UNL A   1      42.927  24.449  25.621  1.00  0.00     0.200 A 
ATOM     67  F   UNL A   1      44.421  26.078  24.792  1.00  0.00    -0.200 F 
ATOM     68  F   UNL A   1      43.197  23.651  24.579  1.00  0.00    -0.200 F 
ENDBRANCH  44  58
BRANCH  45  69
ATOM     69  C   UNL A   1      39.368  32.042  35.257  1.00  0.00     0.064 A 
ATOM     70  C   UNL A   1      38.550  31.468  36.240  1.00  0.00     0.173 A 
ATOM     71  C   UNL A   1      39.688  33.401  35.386  1.00  0.00     0.173 A 
ATOM     72  F   UNL A   1      38.198  30.177  36.147  1.00  0.00    -0.203 F 
ATOM     73  C   UNL A   1      38.045  32.230  37.293  1.00  0.00     0.198 A 
ATOM     74  C   UNL A   1      39.208  34.155  36.456  1.00  0.00     0.198 A 
ATOM     75  F   UNL A   1      40.471  33.997  34.477  1.00  0.00    -0.203 F 
ATOM     76  F   UNL A   1      37.220  31.669  38.187  1.00  0.00    -0.200 F 
ATOM     77  C   UNL A   1      38.379  33.571  37.402  1.00  0.00     0.200 A 
ATOM     78  F   UNL A   1      39.543  35.447  36.567  1.00  0.00    -0.200 F 
ATOM     79  F   UNL A   1      37.891  34.304  38.412  1.00  0.00    -0.200 F 
ENDBRANCH  45  69
BRANCH  57  80
ATOM     80  C   UNL A   1      44.784  27.765  34.357  1.00  0.00     0.064 A 
ATOM     81  C   UNL A   1      44.729  26.572  35.093  1.00  0.00     0.173 A 
ATOM     82  C   UNL A   1      45.952  28.538  34.438  1.00  0.00     0.173 A 
ATOM     83  F   UNL A   1      43.625  25.810  35.061  1.00  0.00    -0.203 F 
ATOM     84  C   UNL A   1      45.800  26.174  35.888  1.00  0.00     0.198 A 
ATOM     85  C   UNL A   1      47.031  28.124  35.213  1.00  0.00     0.198 A 
ATOM     86  F   UNL A   1      46.053  29.684  33.749  1.00  0.00    -0.203 F 
ATOM     87  F   UNL A   1      45.713  25.048  36.609  1.00  0.00    -0.200 F 
ATOM     88  C   UNL A   1      46.952  26.945  35.940  1.00  0.00     0.200 A 
ATOM     89  F   UNL A   1      48.148  28.862  35.253  1.00  0.00    -0.200 F 
ATOM     90  F   UNL A   1      47.988  26.552  36.694  1.00  0.00    -0.200 F 
ENDBRANCH  57  80
ENDBRANCH  31  32
ENDBRANCH  23  26
ENDBRANCH  21  22
ENDBRANCH  20  21
ENDBRANCH  19  20
ENDBRANCH   3  19
TORSDOF 15
ENDMDL
MODEL 3
REMARK VINA RESULT:     -11.6      1.884      3.872
REMARK SMILES C[C@H](C(=O)NCCCNC(=O)c1ccc(-c2c3nc(c(-c4c(F)c(F)c(F)c(F)c4F)c4ccc([nH]4)c(-c4c(F)c(F)c(F)c(F)c4F)c4nc(c(-c5c(F)c(F)c(F)c(F)c5F)c5ccc2[nH]5)C=C4)C=C3)cc1)[C@@H](C)[N@@H+](C)C[C@H]1C[C@H](O)C1
REMARK SMILES IDX 3 1 4 2 5 3 2 5 1 6 75 7 76 8 77 9 78 10 79 12 80 13 84 14
REMARK SMILES IDX 81 15 82 16 83 17 6 19 7 20 8 21 9 22 10 23 11 25 12 26
REMARK SMILES IDX 13 27 74 28 14 29 73 30 15 31 16 32 17 33 67 34 18 35 72 36
REMARK SMILES IDX 66 37 68 38 19 39 71 40 65 41 64 42 20 44 52 45 32 46 51 47
REMARK SMILES IDX 33 48 36 49 50 50 69 51 34 52 35 53 49 55 70 56 37 57 21 58
REMARK SMILES IDX 22 59 30 60 23 61 24 62 28 63 31 64 25 65 26 66 29 67 27 68
REMARK SMILES IDX 53 69 54 70 62 71 55 72 56 73 60 74 63 75 57 76 58 77 61 78
REMARK SMILES IDX 59 79 38 80 39 81 47 82 40 83 41 84 45 85 48 86 42 87 43 88
REMARK SMILES IDX 46 89 44 90
REMARK H PARENT 5 4 77 11 83 18 9 24 68 43 36 54
REMARK Flexibility Score: inf
ROOT
ATOM      1  C   UNL A   1      31.030  26.663  25.710  1.00  0.00     0.228 C 
ATOM      2  O   UNL A   1      30.418  26.101  26.629  1.00  0.00    -0.275 OA
ATOM      3  N   UNL A   1      31.767  27.745  26.093  1.00  0.00    -0.356 N 
ATOM      4  H   UNL A   1      31.593  28.021  27.021  1.00  0.00     0.163 HD
ENDROOT
BRANCH   1   5
ATOM      5  C   UNL A   1      30.838  26.147  24.261  1.00  0.00     0.133 C 
ATOM      6  C   UNL A   1      30.722  24.623  24.349  1.00  0.00     0.024 C 
BRANCH   5   7
ATOM      7  C   UNL A   1      29.744  26.860  23.427  1.00  0.00     0.192 C 
ATOM      8  C   UNL A   1      28.380  26.359  23.931  1.00  0.00     0.076 C 
BRANCH   7   9
ATOM      9  N   UNL A   1      29.891  28.323  23.281  1.00  0.00    -0.334 N 
ATOM     10  C   UNL A   1      30.974  28.733  22.394  1.00  0.00     0.332 C 
ATOM     11  H   UNL A   1      30.184  28.534  24.234  1.00  0.00     0.348 HD
BRANCH   9  12
ATOM     12  C   UNL A   1      28.715  29.185  23.244  1.00  0.00     0.265 C 
BRANCH  12  13
ATOM     13  C   UNL A   1      28.904  30.708  23.192  1.00  0.00     0.049 C 
ATOM     14  C   UNL A   1      27.875  31.801  23.620  1.00  0.00     0.041 C 
ATOM     15  C   UNL A   1      28.958  31.469  21.831  1.00  0.00     0.041 C 
ATOM     16  C   UNL A   1      28.571  32.747  22.623  1.00  0.00     0.115 C 
BRANCH  16  17
ATOM     17  O   UNL A   1      29.665  33.516  23.160  1.00  0.00    -0.393 OA
ATOM     18  H   UNL A   1      29.497  33.710  24.096  1.00  0.00     0.210 HD
ENDBRANCH  16  17
ENDBRANCH  12  13
ENDBRANCH   9  12
ENDBRANCH   7   9
ENDBRANCH   5   7
ENDBRANCH   1   5
BRANCH   3  19
ATOM     19  C   UNL A   1      32.756  28.583  25.421  1.00  0.00     0.117 C 
BRANCH  19  20
ATOM     20  C   UNL A   1      32.489  30.078  25.510  1.00  0.00     0.042 C 
BRANCH  20  21
ATOM     21  C   UNL A   1      32.124  30.559  26.905  1.00  0.00     0.118 C 
BRANCH  21  22
ATOM     22  N   UNL A   1      32.215  32.008  27.072  1.00  0.00    -0.352 N 
ATOM     23  C   UNL A   1      33.213  32.824  27.555  1.00  0.00     0.251 C 
ATOM     24  H   UNL A   1      31.409  32.494  26.783  1.00  0.00     0.163 HD
ATOM     25  O   UNL A   1      32.987  34.025  27.702  1.00  0.00    -0.269 OA
BRANCH  23  26
ATOM     26  C   UNL A   1      34.529  32.281  27.967  1.00  0.00     0.039 A 
ATOM     27  C   UNL A   1      35.640  33.133  27.996  1.00  0.00     0.014 A 
ATOM     28  C   UNL A   1      34.688  30.948  28.332  1.00  0.00     0.014 A 
ATOM     29  C   UNL A   1      36.855  32.684  28.524  1.00  0.00     0.010 A 
ATOM     30  C   UNL A   1      35.853  30.537  28.971  1.00  0.00     0.010 A 
ATOM     31  C   UNL A   1      36.947  31.406  29.096  1.00  0.00    -0.014 A 
BRANCH  31  32
ATOM     32  C   UNL A   1      38.138  30.960  29.871  1.00  0.00     0.031 A 
ATOM     33  C   UNL A   1      39.085  29.944  29.287  1.00  0.00     0.074 A 
ATOM     34  C   UNL A   1      38.284  31.354  31.155  1.00  0.00     0.049 A 
ATOM     35  N   UNL A   1      40.043  29.271  29.873  1.00  0.00    -0.248 NA
ATOM     36  C   UNL A   1      38.901  29.604  27.867  1.00  0.00     0.031 C 
ATOM     37  C   UNL A   1      37.400  32.280  31.866  1.00  0.00     0.029 A 
ATOM     38  N   UNL A   1      39.214  30.998  32.102  1.00  0.00    -0.354 N 
ATOM     39  C   UNL A   1      40.536  28.398  28.912  1.00  0.00     0.074 A 
ATOM     40  C   UNL A   1      39.752  28.600  27.714  1.00  0.00     0.031 C 
ATOM     41  C   UNL A   1      37.835  32.430  33.127  1.00  0.00     0.029 A 
ATOM     42  C   UNL A   1      38.995  31.571  33.334  1.00  0.00     0.049 A 
ATOM     43  H   UNL A   1      39.967  30.391  31.918  1.00  0.00     0.167 HD
ATOM     44  C   UNL A   1      41.562  27.521  29.017  1.00  0.00     0.037 A 
ATOM     45  C   UNL A   1      39.635  31.402  34.507  1.00  0.00     0.037 A 
ATOM     46  C   UNL A   1      42.394  27.385  30.182  1.00  0.00     0.049 A 
ATOM     47  C   UNL A   1      40.793  30.444  34.580  1.00  0.00     0.074 A 
ATOM     48  C   UNL A   1      43.545  26.632  30.333  1.00  0.00     0.029 A 
ATOM     49  N   UNL A   1      42.166  28.018  31.393  1.00  0.00    -0.354 N 
ATOM     50  N   UNL A   1      41.306  29.696  33.635  1.00  0.00    -0.248 NA
ATOM     51  C   UNL A   1      41.457  30.302  35.884  1.00  0.00     0.031 C 
ATOM     52  C   UNL A   1      43.990  26.774  31.651  1.00  0.00     0.029 A 
ATOM     53  C   UNL A   1      43.137  27.646  32.307  1.00  0.00     0.049 A 
ATOM     54  H   UNL A   1      41.425  28.640  31.575  1.00  0.00     0.167 HD
ATOM     55  C   UNL A   1      42.359  29.010  34.224  1.00  0.00     0.074 A 
ATOM     56  C   UNL A   1      42.428  29.446  35.603  1.00  0.00     0.031 C 
ATOM     57  C   UNL A   1      43.192  28.094  33.673  1.00  0.00     0.037 A 
BRANCH  44  58
ATOM     58  C   UNL A   1      41.869  26.646  27.838  1.00  0.00     0.064 A 
ATOM     59  C   UNL A   1      42.835  27.002  26.887  1.00  0.00     0.173 A 
ATOM     60  C   UNL A   1      41.245  25.395  27.705  1.00  0.00     0.173 A 
ATOM     61  F   UNL A   1      43.454  28.189  26.965  1.00  0.00    -0.203 F 
ATOM     62  C   UNL A   1      43.155  26.145  25.837  1.00  0.00     0.198 A 
ATOM     63  C   UNL A   1      41.586  24.530  26.669  1.00  0.00     0.198 A 
ATOM     64  F   UNL A   1      40.318  25.004  28.592  1.00  0.00    -0.203 F 
ATOM     65  F   UNL A   1      44.060  26.519  24.922  1.00  0.00    -0.200 F 
ATOM     66  C   UNL A   1      42.539  24.907  25.734  1.00  0.00     0.200 A 
ATOM     67  F   UNL A   1      40.999  23.329  26.579  1.00  0.00    -0.200 F 
ATOM     68  F   UNL A   1      42.861  24.076  24.733  1.00  0.00    -0.200 F 
ENDBRANCH  44  58
BRANCH  45  69
ATOM     69  C   UNL A   1      39.193  32.144  35.718  1.00  0.00     0.064 A 
ATOM     70  C   UNL A   1      39.651  33.445  35.969  1.00  0.00     0.173 A 
ATOM     71  C   UNL A   1      38.333  31.562  36.661  1.00  0.00     0.173 A 
ATOM     72  F   UNL A   1      40.493  34.035  35.108  1.00  0.00    -0.203 F 
ATOM     73  C   UNL A   1      39.291  34.124  37.132  1.00  0.00     0.198 A 
ATOM     74  C   UNL A   1      37.950  32.254  37.808  1.00  0.00     0.198 A 
ATOM     75  F   UNL A   1      37.862  30.322  36.467  1.00  0.00    -0.203 F 
ATOM     76  F   UNL A   1      39.789  35.345  37.373  1.00  0.00    -0.200 F 
ATOM     77  C   UNL A   1      38.437  33.530  38.048  1.00  0.00     0.200 A 
ATOM     78  F   UNL A   1      37.113  31.682  38.685  1.00  0.00    -0.200 F 
ATOM     79  F   UNL A   1      38.093  34.182  39.167  1.00  0.00    -0.200 F 
ENDBRANCH  45  69
BRANCH  57  80
ATOM     80  C   UNL A   1      44.256  27.513  34.553  1.00  0.00     0.064 A 
ATOM     81  C   UNL A   1      45.500  28.143  34.705  1.00  0.00     0.173 A 
ATOM     82  C   UNL A   1      44.010  26.350  35.298  1.00  0.00     0.173 A 
ATOM     83  F   UNL A   1      45.787  29.247  33.999  1.00  0.00    -0.203 F 
ATOM     84  C   UNL A   1      46.464  27.621  35.562  1.00  0.00     0.198 A 
ATOM     85  C   UNL A   1      44.966  25.846  36.174  1.00  0.00     0.198 A 
ATOM     86  F   UNL A   1      42.833  25.715  35.190  1.00  0.00    -0.203 F 
ATOM     87  F   UNL A   1      47.659  28.220  35.666  1.00  0.00    -0.200 F 
ATOM     88  C   UNL A   1      46.194  26.480  36.302  1.00  0.00     0.200 A 
ATOM     89  F   UNL A   1      44.699  24.751  36.897  1.00  0.00    -0.200 F 
ATOM     90  F   UNL A   1      47.118  25.987  37.138  1.00  0.00    -0.200 F 
ENDBRANCH  57  80
ENDBRANCH  31  32
ENDBRANCH  23  26
ENDBRANCH  21  22
ENDBRANCH  20  21
ENDBRANCH  19  20
ENDBRANCH   3  19
TORSDOF 15
ENDMDL
