MODEL 1
REMARK VINA RESULT:     -11.8      0.000      0.000
REMARK SMILES O=C(NCCCNC(=O)[C@@H](F)[C@H](O)c1cccc(Cl)c1)c1ccc(-c2c3nc(c(-c4c(F)c(F)c(F)c(F)c4F)c4ccc([nH]4)c(-c4c(F)c(F)c(F)c(F)c4F)c4nc(c(-c5c(F)c(F)c(F)c(F)c5F)c5ccc2[nH]5)C=C4)C=C3)cc1
REMARK SMILES IDX 5 1 4 2 3 3 1 4 2 5 21 7 22 8 83 9 23 10 82 11 24 12 25 13
REMARK SMILES IDX 26 14 76 15 27 16 81 17 75 18 77 19 28 20 80 21 74 22 73 23
REMARK SMILES IDX 29 25 61 26 41 27 60 28 42 29 45 30 59 31 78 32 43 33 44 34
REMARK SMILES IDX 58 36 79 37 46 38 30 39 31 40 39 41 32 42 33 43 37 44 40 45
REMARK SMILES IDX 34 46 35 47 38 48 36 49 62 50 63 51 71 52 64 53 65 54 69 55
REMARK SMILES IDX 72 56 66 57 67 58 70 59 68 60 47 61 48 62 56 63 49 64 50 65
REMARK SMILES IDX 54 66 57 67 51 68 52 69 55 70 53 71 6 72 7 73 8 74 9 76
REMARK SMILES IDX 10 77 11 78 12 79 14 80 15 81 20 82 16 83 18 84 17 85 19 86
REMARK SMILES IDX 13 87
REMARK H PARENT 3 6 77 24 45 35 7 75 13 88
REMARK Flexibility Score: inf
ROOT
ATOM      1  C   UNL A   1      31.238  31.937  26.434  1.00  0.00     0.042 C 
ENDROOT
BRANCH   1   2
ATOM      2  C   UNL A   1      32.530  32.440  27.050  1.00  0.00     0.118 C 
BRANCH   2   3
ATOM      3  N   UNL A   1      32.435  33.826  27.501  1.00  0.00    -0.352 N 
ATOM      4  O   UNL A   1      32.779  35.612  28.830  1.00  0.00    -0.269 OA
ATOM      5  C   UNL A   1      33.146  34.499  28.463  1.00  0.00     0.251 C 
ATOM      6  H   UNL A   1      31.751  34.363  27.042  1.00  0.00     0.163 HD
BRANCH   5   7
ATOM      7  C   UNL A   1      34.344  33.883  29.068  1.00  0.00     0.039 A 
ATOM      8  C   UNL A   1      34.216  32.798  29.933  1.00  0.00     0.014 A 
ATOM      9  C   UNL A   1      35.613  34.380  28.753  1.00  0.00     0.014 A 
ATOM     10  C   UNL A   1      35.323  32.333  30.625  1.00  0.00     0.010 A 
ATOM     11  C   UNL A   1      36.745  33.824  29.355  1.00  0.00     0.010 A 
ATOM     12  C   UNL A   1      36.605  32.815  30.318  1.00  0.00    -0.014 A 
BRANCH  12  13
ATOM     13  C   UNL A   1      37.774  32.168  30.964  1.00  0.00     0.031 A 
ATOM     14  C   UNL A   1      38.183  32.506  32.367  1.00  0.00     0.074 A 
ATOM     15  C   UNL A   1      38.430  31.217  30.269  1.00  0.00     0.049 A 
ATOM     16  N   UNL A   1      39.153  31.996  33.084  1.00  0.00    -0.248 NA
ATOM     17  C   UNL A   1      37.415  33.553  33.058  1.00  0.00     0.031 C 
ATOM     18  C   UNL A   1      38.124  30.821  28.891  1.00  0.00     0.029 A 
ATOM     19  N   UNL A   1      39.461  30.389  30.627  1.00  0.00    -0.354 N 
ATOM     20  C   UNL A   1      39.126  32.669  34.298  1.00  0.00     0.074 A 
ATOM     21  C   UNL A   1      38.057  33.643  34.215  1.00  0.00     0.031 C 
ATOM     22  C   UNL A   1      38.900  29.786  28.545  1.00  0.00     0.029 A 
ATOM     23  C   UNL A   1      39.811  29.496  29.644  1.00  0.00     0.049 A 
ATOM     24  H   UNL A   1      39.907  30.430  31.505  1.00  0.00     0.167 HD
ATOM     25  C   UNL A   1      39.918  32.482  35.381  1.00  0.00     0.037 A 
ATOM     26  C   UNL A   1      40.775  28.559  29.619  1.00  0.00     0.037 A 
ATOM     27  C   UNL A   1      40.967  31.496  35.456  1.00  0.00     0.049 A 
ATOM     28  C   UNL A   1      41.645  28.390  30.831  1.00  0.00     0.074 A 
ATOM     29  C   UNL A   1      41.808  31.210  36.518  1.00  0.00     0.029 A 
ATOM     30  N   UNL A   1      41.319  30.635  34.427  1.00  0.00    -0.354 N 
ATOM     31  N   UNL A   1      41.592  29.018  31.979  1.00  0.00    -0.248 NA
ATOM     32  C   UNL A   1      42.712  27.386  30.739  1.00  0.00     0.031 C 
ATOM     33  C   UNL A   1      42.698  30.207  36.116  1.00  0.00     0.029 A 
ATOM     34  C   UNL A   1      42.379  29.832  34.821  1.00  0.00     0.049 A 
ATOM     35  H   UNL A   1      40.882  30.598  33.546  1.00  0.00     0.167 HD
ATOM     36  C   UNL A   1      42.612  28.483  32.751  1.00  0.00     0.074 A 
ATOM     37  C   UNL A   1      43.245  27.455  31.949  1.00  0.00     0.031 C 
ATOM     38  C   UNL A   1      42.998  28.819  34.005  1.00  0.00     0.037 A 
BRANCH  25  39
ATOM     39  C   UNL A   1      39.697  33.365  36.575  1.00  0.00     0.064 A 
ATOM     40  C   UNL A   1      40.324  34.614  36.693  1.00  0.00     0.173 A 
ATOM     41  C   UNL A   1      38.795  32.986  37.581  1.00  0.00     0.173 A 
ATOM     42  F   UNL A   1      41.204  35.019  35.765  1.00  0.00    -0.203 F 
ATOM     43  C   UNL A   1      40.066  35.445  37.781  1.00  0.00     0.198 A 
ATOM     44  C   UNL A   1      38.520  33.830  38.655  1.00  0.00     0.198 A 
ATOM     45  F   UNL A   1      38.164  31.804  37.513  1.00  0.00    -0.203 F 
ATOM     46  F   UNL A   1      40.699  36.621  37.890  1.00  0.00    -0.200 F 
ATOM     47  C   UNL A   1      39.157  35.057  38.756  1.00  0.00     0.200 A 
ATOM     48  F   UNL A   1      37.632  33.459  39.587  1.00  0.00    -0.200 F 
ATOM     49  F   UNL A   1      38.900  35.864  39.793  1.00  0.00    -0.200 F 
ENDBRANCH  25  39
BRANCH  26  50
ATOM     50  C   UNL A   1      40.973  27.732  28.402  1.00  0.00     0.064 A 
ATOM     51  C   UNL A   1      41.821  28.155  27.369  1.00  0.00     0.173 A 
ATOM     52  C   UNL A   1      40.323  26.498  28.250  1.00  0.00     0.173 A 
ATOM     53  F   UNL A   1      42.451  29.334  27.461  1.00  0.00    -0.203 F 
ATOM     54  C   UNL A   1      41.995  27.383  26.222  1.00  0.00     0.198 A 
ATOM     55  C   UNL A   1      40.525  25.712  27.119  1.00  0.00     0.198 A 
ATOM     56  F   UNL A   1      39.507  26.045  29.213  1.00  0.00    -0.203 F 
ATOM     57  F   UNL A   1      42.773  27.831  25.229  1.00  0.00    -0.200 F 
ATOM     58  C   UNL A   1      41.353  26.159  26.101  1.00  0.00     0.200 A 
ATOM     59  F   UNL A   1      39.918  24.521  27.016  1.00  0.00    -0.200 F 
ATOM     60  F   UNL A   1      41.527  25.416  25.001  1.00  0.00    -0.200 F 
ENDBRANCH  26  50
BRANCH  38  61
ATOM     61  C   UNL A   1      44.147  28.050  34.585  1.00  0.00     0.064 A 
ATOM     62  C   UNL A   1      45.469  28.504  34.463  1.00  0.00     0.173 A 
ATOM     63  C   UNL A   1      43.924  26.850  35.276  1.00  0.00     0.173 A 
ATOM     64  F   UNL A   1      45.733  29.637  33.794  1.00  0.00    -0.203 F 
ATOM     65  C   UNL A   1      46.528  27.767  34.984  1.00  0.00     0.198 A 
ATOM     66  C   UNL A   1      44.983  26.132  35.822  1.00  0.00     0.198 A 
ATOM     67  F   UNL A   1      42.678  26.375  35.424  1.00  0.00    -0.203 F 
ATOM     68  F   UNL A   1      47.788  28.191  34.804  1.00  0.00    -0.200 F 
ATOM     69  C   UNL A   1      46.285  26.585  35.666  1.00  0.00     0.200 A 
ATOM     70  F   UNL A   1      44.746  24.995  36.491  1.00  0.00    -0.200 F 
ATOM     71  F   UNL A   1      47.306  25.876  36.165  1.00  0.00    -0.200 F 
ENDBRANCH  38  61
ENDBRANCH  12  13
ENDBRANCH   5   7
ENDBRANCH   2   3
ENDBRANCH   1   2
BRANCH   1  72
ATOM     72  C   UNL A   1      31.404  30.611  25.716  1.00  0.00     0.117 C 
BRANCH  72  73
ATOM     73  N   UNL A   1      30.592  30.522  24.511  1.00  0.00    -0.353 N 
ATOM     74  C   UNL A   1      30.384  29.426  23.716  1.00  0.00     0.257 C 
ATOM     75  H   UNL A   1      30.136  31.350  24.236  1.00  0.00     0.163 HD
ATOM     76  O   UNL A   1      29.576  29.510  22.788  1.00  0.00    -0.272 OA
BRANCH  74  77
ATOM     77  C   UNL A   1      31.136  28.135  24.008  1.00  0.00     0.288 C 
ATOM     78  F   UNL A   1      30.288  27.173  24.486  1.00  0.00    -0.234 F 
BRANCH  77  79
ATOM     79  C   UNL A   1      31.900  27.638  22.759  1.00  0.00     0.188 C 
BRANCH  79  80
ATOM     80  C   UNL A   1      32.684  26.340  22.894  1.00  0.00    -0.015 A 
ATOM     81  C   UNL A   1      32.440  25.324  21.948  1.00  0.00     0.006 A 
ATOM     82  C   UNL A   1      33.570  26.063  23.945  1.00  0.00     0.027 A 
ATOM     83  C   UNL A   1      33.038  24.068  22.065  1.00  0.00     0.002 A 
ATOM     84  C   UNL A   1      34.165  24.804  24.058  1.00  0.00     0.041 A 
ATOM     85  C   UNL A   1      33.900  23.806  23.126  1.00  0.00     0.020 A 
ATOM     86  Cl  UNL A   1      35.219  24.479  25.381  1.00  0.00    -0.084 Cl
ENDBRANCH  79  80
BRANCH  79  87
ATOM     87  O   UNL A   1      31.028  27.471  21.626  1.00  0.00    -0.385 OA
ATOM     88  H   UNL A   1      31.501  27.007  20.918  1.00  0.00     0.211 HD
ENDBRANCH  79  87
ENDBRANCH  77  79
ENDBRANCH  74  77
ENDBRANCH  72  73
ENDBRANCH   1  72
TORSDOF 13
ENDMDL
MODEL 2
REMARK VINA RESULT:     -11.7      0.119      1.653
REMARK SMILES O=C(NCCCNC(=O)[C@@H](F)[C@H](O)c1cccc(Cl)c1)c1ccc(-c2c3nc(c(-c4c(F)c(F)c(F)c(F)c4F)c4ccc([nH]4)c(-c4c(F)c(F)c(F)c(F)c4F)c4nc(c(-c5c(F)c(F)c(F)c(F)c5F)c5ccc2[nH]5)C=C4)C=C3)cc1
REMARK SMILES IDX 5 1 4 2 3 3 1 4 2 5 21 7 22 8 83 9 23 10 82 11 24 12 25 13
REMARK SMILES IDX 26 14 76 15 27 16 81 17 75 18 77 19 28 20 80 21 74 22 73 23
REMARK SMILES IDX 29 25 61 26 41 27 60 28 42 29 45 30 59 31 78 32 43 33 44 34
REMARK SMILES IDX 58 36 79 37 46 38 30 39 31 40 39 41 32 42 33 43 37 44 40 45
REMARK SMILES IDX 34 46 35 47 38 48 36 49 62 50 63 51 71 52 64 53 65 54 69 55
REMARK SMILES IDX 72 56 66 57 67 58 70 59 68 60 47 61 48 62 56 63 49 64 50 65
REMARK SMILES IDX 54 66 57 67 51 68 52 69 55 70 53 71 6 72 7 73 8 74 9 76
REMARK SMILES IDX 10 77 11 78 12 79 14 80 15 81 20 82 16 83 18 84 17 85 19 86
REMARK SMILES IDX 13 87
REMARK H PARENT 3 6 77 24 45 35 7 75 13 88
REMARK Flexibility Score: inf
ROOT
ATOM      1  C   UNL A   1      31.289  31.885  26.488  1.00  0.00     0.042 C 
ENDROOT
BRANCH   1   2
ATOM      2  C   UNL A   1      32.588  32.449  27.032  1.00  0.00     0.118 C 
BRANCH   2   3
ATOM      3  N   UNL A   1      32.443  33.813  27.532  1.00  0.00    -0.352 N 
ATOM      4  O   UNL A   1      32.712  35.561  28.929  1.00  0.00    -0.269 OA
ATOM      5  C   UNL A   1      33.119  34.474  28.527  1.00  0.00     0.251 C 
ATOM      6  H   UNL A   1      31.748  34.346  27.082  1.00  0.00     0.163 HD
BRANCH   5   7
ATOM      7  C   UNL A   1      34.327  33.874  29.127  1.00  0.00     0.039 A 
ATOM      8  C   UNL A   1      34.218  32.792  29.999  1.00  0.00     0.014 A 
ATOM      9  C   UNL A   1      35.589  34.382  28.801  1.00  0.00     0.014 A 
ATOM     10  C   UNL A   1      35.334  32.343  30.685  1.00  0.00     0.010 A 
ATOM     11  C   UNL A   1      36.731  33.842  29.398  1.00  0.00     0.010 A 
ATOM     12  C   UNL A   1      36.609  32.837  30.368  1.00  0.00    -0.014 A 
BRANCH  12  13
ATOM     13  C   UNL A   1      37.789  32.206  31.008  1.00  0.00     0.031 A 
ATOM     14  C   UNL A   1      38.200  32.551  32.409  1.00  0.00     0.074 A 
ATOM     15  C   UNL A   1      38.454  31.263  30.312  1.00  0.00     0.049 A 
ATOM     16  N   UNL A   1      39.180  32.055  33.123  1.00  0.00    -0.248 NA
ATOM     17  C   UNL A   1      37.422  33.590  33.102  1.00  0.00     0.031 C 
ATOM     18  C   UNL A   1      38.146  30.860  28.936  1.00  0.00     0.029 A 
ATOM     19  N   UNL A   1      39.497  30.449  30.667  1.00  0.00    -0.354 N 
ATOM     20  C   UNL A   1      39.150  32.730  34.336  1.00  0.00     0.074 A 
ATOM     21  C   UNL A   1      38.069  33.690  34.257  1.00  0.00     0.031 C 
ATOM     22  C   UNL A   1      38.934  29.835  28.588  1.00  0.00     0.029 A 
ATOM     23  C   UNL A   1      39.854  29.559  29.683  1.00  0.00     0.049 A 
ATOM     24  H   UNL A   1      39.947  30.496  31.542  1.00  0.00     0.167 HD
ATOM     25  C   UNL A   1      39.949  32.554  35.415  1.00  0.00     0.037 A 
ATOM     26  C   UNL A   1      40.830  28.634  29.655  1.00  0.00     0.037 A 
ATOM     27  C   UNL A   1      41.012  31.582  35.486  1.00  0.00     0.049 A 
ATOM     28  C   UNL A   1      41.708  28.478  30.863  1.00  0.00     0.074 A 
ATOM     29  C   UNL A   1      41.862  31.309  36.545  1.00  0.00     0.029 A 
ATOM     30  N   UNL A   1      41.370  30.724  34.457  1.00  0.00    -0.354 N 
ATOM     31  N   UNL A   1      41.653  29.107  32.010  1.00  0.00    -0.248 NA
ATOM     32  C   UNL A   1      42.788  27.488  30.767  1.00  0.00     0.031 C 
ATOM     33  C   UNL A   1      42.762  30.317  36.140  1.00  0.00     0.029 A 
ATOM     34  C   UNL A   1      42.442  29.936  34.847  1.00  0.00     0.049 A 
ATOM     35  H   UNL A   1      40.929  30.681  33.578  1.00  0.00     0.167 HD
ATOM     36  C   UNL A   1      42.683  28.587  32.778  1.00  0.00     0.074 A 
ATOM     37  C   UNL A   1      43.325  27.565  31.975  1.00  0.00     0.031 C 
ATOM     38  C   UNL A   1      43.070  28.930  34.030  1.00  0.00     0.037 A 
BRANCH  25  39
ATOM     39  C   UNL A   1      39.723  33.437  36.609  1.00  0.00     0.064 A 
ATOM     40  C   UNL A   1      40.367  34.676  36.741  1.00  0.00     0.173 A 
ATOM     41  C   UNL A   1      38.800  33.068  37.599  1.00  0.00     0.173 A 
ATOM     42  F   UNL A   1      41.267  35.071  35.828  1.00  0.00    -0.203 F 
ATOM     43  C   UNL A   1      40.103  35.507  37.828  1.00  0.00     0.198 A 
ATOM     44  C   UNL A   1      38.520  33.912  38.671  1.00  0.00     0.198 A 
ATOM     45  F   UNL A   1      38.153  31.895  37.517  1.00  0.00    -0.203 F 
ATOM     46  F   UNL A   1      40.752  36.673  37.951  1.00  0.00    -0.200 F 
ATOM     47  C   UNL A   1      39.174  35.129  38.787  1.00  0.00     0.200 A 
ATOM     48  F   UNL A   1      37.612  33.551  39.588  1.00  0.00    -0.200 F 
ATOM     49  F   UNL A   1      38.912  35.936  39.823  1.00  0.00    -0.200 F 
ENDBRANCH  25  39
BRANCH  26  50
ATOM     50  C   UNL A   1      41.033  27.808  28.438  1.00  0.00     0.064 A 
ATOM     51  C   UNL A   1      40.356  26.593  28.266  1.00  0.00     0.173 A 
ATOM     52  C   UNL A   1      41.904  28.221  27.418  1.00  0.00     0.173 A 
ATOM     53  F   UNL A   1      39.526  26.148  29.220  1.00  0.00    -0.203 F 
ATOM     54  C   UNL A   1      40.558  25.814  27.129  1.00  0.00     0.198 A 
ATOM     55  C   UNL A   1      42.079  27.458  26.267  1.00  0.00     0.198 A 
ATOM     56  F   UNL A   1      42.570  29.379  27.532  1.00  0.00    -0.203 F 
ATOM     57  F   UNL A   1      39.935  24.634  27.010  1.00  0.00    -0.200 F 
ATOM     58  C   UNL A   1      41.413  26.250  26.127  1.00  0.00     0.200 A 
ATOM     59  F   UNL A   1      42.891  27.894  25.294  1.00  0.00    -0.200 F 
ATOM     60  F   UNL A   1      41.601  25.503  25.032  1.00  0.00    -0.200 F 
ENDBRANCH  26  50
BRANCH  38  61
ATOM     61  C   UNL A   1      44.232  28.176  34.605  1.00  0.00     0.064 A 
ATOM     62  C   UNL A   1      44.050  26.985  35.324  1.00  0.00     0.173 A 
ATOM     63  C   UNL A   1      45.542  28.646  34.431  1.00  0.00     0.173 A 
ATOM     64  F   UNL A   1      42.813  26.506  35.533  1.00  0.00    -0.203 F 
ATOM     65  C   UNL A   1      45.134  26.310  35.875  1.00  0.00     0.198 A 
ATOM     66  C   UNL A   1      46.626  27.952  34.957  1.00  0.00     0.198 A 
ATOM     67  F   UNL A   1      45.769  29.778  33.747  1.00  0.00    -0.203 F 
ATOM     68  F   UNL A   1      44.931  25.206  36.608  1.00  0.00    -0.200 F 
ATOM     69  C   UNL A   1      46.422  26.791  35.687  1.00  0.00     0.200 A 
ATOM     70  F   UNL A   1      47.871  28.411  34.765  1.00  0.00    -0.200 F 
ATOM     71  F   UNL A   1      47.464  26.140  36.220  1.00  0.00    -0.200 F 
ENDBRANCH  38  61
ENDBRANCH  12  13
ENDBRANCH   5   7
ENDBRANCH   2   3
ENDBRANCH   1   2
BRANCH   1  72
ATOM     72  C   UNL A   1      31.480  30.580  25.738  1.00  0.00     0.117 C 
BRANCH  72  73
ATOM     73  N   UNL A   1      30.659  30.499  24.540  1.00  0.00    -0.353 N 
ATOM     74  C   UNL A   1      30.433  29.405  23.747  1.00  0.00     0.257 C 
ATOM     75  H   UNL A   1      30.210  31.331  24.266  1.00  0.00     0.163 HD
ATOM     76  O   UNL A   1      29.619  29.496  22.825  1.00  0.00    -0.272 OA
BRANCH  74  77
ATOM     77  C   UNL A   1      31.173  28.106  24.035  1.00  0.00     0.288 C 
ATOM     78  F   UNL A   1      30.319  27.157  24.530  1.00  0.00    -0.234 F 
BRANCH  77  79
ATOM     79  C   UNL A   1      31.912  27.593  22.778  1.00  0.00     0.188 C 
BRANCH  79  80
ATOM     80  C   UNL A   1      32.717  26.308  22.920  1.00  0.00    -0.015 A 
ATOM     81  C   UNL A   1      32.490  25.283  21.979  1.00  0.00     0.006 A 
ATOM     82  C   UNL A   1      33.605  26.049  23.974  1.00  0.00     0.027 A 
ATOM     83  C   UNL A   1      33.107  24.038  22.102  1.00  0.00     0.002 A 
ATOM     84  C   UNL A   1      34.220  24.800  24.094  1.00  0.00     0.041 A 
ATOM     85  C   UNL A   1      33.971  23.794  23.166  1.00  0.00     0.020 A 
ATOM     86  Cl  UNL A   1      35.277  24.498  25.419  1.00  0.00    -0.084 Cl
ENDBRANCH  79  80
BRANCH  79  87
ATOM     87  O   UNL A   1      31.016  27.391  21.671  1.00  0.00    -0.385 OA
ATOM     88  H   UNL A   1      30.584  28.230  21.447  1.00  0.00     0.211 HD
ENDBRANCH  79  87
ENDBRANCH  77  79
ENDBRANCH  74  77
ENDBRANCH  72  73
ENDBRANCH   1  72
TORSDOF 13
ENDMDL
MODEL 3
REMARK VINA RESULT:     -11.6      5.833     11.143
REMARK SMILES O=C(NCCCNC(=O)[C@@H](F)[C@H](O)c1cccc(Cl)c1)c1ccc(-c2c3nc(c(-c4c(F)c(F)c(F)c(F)c4F)c4ccc([nH]4)c(-c4c(F)c(F)c(F)c(F)c4F)c4nc(c(-c5c(F)c(F)c(F)c(F)c5F)c5ccc2[nH]5)C=C4)C=C3)cc1
REMARK SMILES IDX 5 1 4 2 3 3 1 4 2 5 21 7 22 8 83 9 23 10 82 11 24 12 25 13
REMARK SMILES IDX 26 14 76 15 27 16 81 17 75 18 77 19 28 20 80 21 74 22 73 23
REMARK SMILES IDX 29 25 61 26 41 27 60 28 42 29 45 30 59 31 78 32 43 33 44 34
REMARK SMILES IDX 58 36 79 37 46 38 30 39 31 40 39 41 32 42 33 43 37 44 40 45
REMARK SMILES IDX 34 46 35 47 38 48 36 49 62 50 63 51 71 52 64 53 65 54 69 55
REMARK SMILES IDX 72 56 66 57 67 58 70 59 68 60 47 61 48 62 56 63 49 64 50 65
REMARK SMILES IDX 54 66 57 67 51 68 52 69 55 70 53 71 6 72 7 73 8 74 9 76
REMARK SMILES IDX 10 77 11 78 12 79 14 80 15 81 20 82 16 83 18 84 17 85 19 86
REMARK SMILES IDX 13 87
REMARK H PARENT 3 6 77 24 45 35 7 75 13 88
REMARK Flexibility Score: inf
ROOT
ATOM      1  C   UNL A   1      37.831  19.523  24.943  1.00  0.00     0.042 C 
ENDROOT
BRANCH   1   2
ATOM      2  C   UNL A   1      38.974  20.110  25.751  1.00  0.00     0.118 C 
BRANCH   2   3
ATOM      3  N   UNL A   1      40.122  19.211  25.837  1.00  0.00    -0.352 N 
ATOM      4  O   UNL A   1      42.289  18.597  25.875  1.00  0.00    -0.269 OA
ATOM      5  C   UNL A   1      41.453  19.483  26.030  1.00  0.00     0.251 C 
ATOM      6  H   UNL A   1      39.906  18.256  25.740  1.00  0.00     0.163 HD
BRANCH   5   7
ATOM      7  C   UNL A   1      41.885  20.843  26.411  1.00  0.00     0.039 A 
ATOM      8  C   UNL A   1      41.973  21.849  25.450  1.00  0.00     0.014 A 
ATOM      9  C   UNL A   1      42.185  21.126  27.747  1.00  0.00     0.014 A 
ATOM     10  C   UNL A   1      42.536  23.070  25.780  1.00  0.00     0.010 A 
ATOM     11  C   UNL A   1      42.632  22.401  28.103  1.00  0.00     0.010 A 
ATOM     12  C   UNL A   1      42.839  23.375  27.116  1.00  0.00    -0.014 A 
BRANCH  12  13
ATOM     13  C   UNL A   1      43.280  24.753  27.442  1.00  0.00     0.031 A 
ATOM     14  C   UNL A   1      44.668  25.229  27.129  1.00  0.00     0.074 A 
ATOM     15  C   UNL A   1      42.373  25.594  27.980  1.00  0.00     0.049 A 
ATOM     16  N   UNL A   1      45.190  26.416  27.312  1.00  0.00    -0.248 NA
ATOM     17  C   UNL A   1      45.597  24.251  26.541  1.00  0.00     0.031 C 
ATOM     18  C   UNL A   1      40.999  25.230  28.338  1.00  0.00     0.029 A 
ATOM     19  N   UNL A   1      42.451  26.926  28.289  1.00  0.00    -0.354 N 
ATOM     20  C   UNL A   1      46.507  26.325  26.883  1.00  0.00     0.074 A 
ATOM     21  C   UNL A   1      46.715  24.959  26.450  1.00  0.00     0.031 C 
ATOM     22  C   UNL A   1      40.345  26.323  28.752  1.00  0.00     0.029 A 
ATOM     23  C   UNL A   1      41.273  27.446  28.766  1.00  0.00     0.049 A 
ATOM     24  H   UNL A   1      43.272  27.459  28.179  1.00  0.00     0.167 HD
ATOM     25  C   UNL A   1      47.448  27.298  26.849  1.00  0.00     0.037 A 
ATOM     26  C   UNL A   1      40.975  28.687  29.189  1.00  0.00     0.037 A 
ATOM     27  C   UNL A   1      47.222  28.659  27.268  1.00  0.00     0.049 A 
ATOM     28  C   UNL A   1      42.047  29.736  29.152  1.00  0.00     0.074 A 
ATOM     29  C   UNL A   1      48.105  29.726  27.247  1.00  0.00     0.029 A 
ATOM     30  N   UNL A   1      46.027  29.141  27.781  1.00  0.00    -0.354 N 
ATOM     31  N   UNL A   1      43.280  29.641  28.723  1.00  0.00    -0.248 NA
ATOM     32  C   UNL A   1      41.686  31.063  29.667  1.00  0.00     0.031 C 
ATOM     33  C   UNL A   1      47.457  30.841  27.791  1.00  0.00     0.029 A 
ATOM     34  C   UNL A   1      46.156  30.483  28.102  1.00  0.00     0.049 A 
ATOM     35  H   UNL A   1      45.208  28.608  27.901  1.00  0.00     0.167 HD
ATOM     36  C   UNL A   1      43.844  30.895  28.907  1.00  0.00     0.074 A 
ATOM     37  C   UNL A   1      42.804  31.742  29.457  1.00  0.00     0.031 C 
ATOM     38  C   UNL A   1      45.109  31.306  28.654  1.00  0.00     0.037 A 
BRANCH  25  39
ATOM     39  C   UNL A   1      48.819  26.933  26.356  1.00  0.00     0.064 A 
ATOM     40  C   UNL A   1      49.800  26.421  27.218  1.00  0.00     0.173 A 
ATOM     41  C   UNL A   1      49.133  27.034  24.992  1.00  0.00     0.173 A 
ATOM     42  F   UNL A   1      49.555  26.315  28.533  1.00  0.00    -0.203 F 
ATOM     43  C   UNL A   1      51.049  26.036  26.734  1.00  0.00     0.198 A 
ATOM     44  C   UNL A   1      50.373  26.625  24.508  1.00  0.00     0.198 A 
ATOM     45  F   UNL A   1      48.229  27.512  24.124  1.00  0.00    -0.203 F 
ATOM     46  F   UNL A   1      51.982  25.578  27.580  1.00  0.00    -0.200 F 
ATOM     47  C   UNL A   1      51.331  26.129  25.379  1.00  0.00     0.200 A 
ATOM     48  F   UNL A   1      50.639  26.703  23.196  1.00  0.00    -0.200 F 
ATOM     49  F   UNL A   1      52.527  25.745  24.914  1.00  0.00    -0.200 F 
ENDBRANCH  25  39
BRANCH  26  50
ATOM     50  C   UNL A   1      39.612  28.989  29.697  1.00  0.00     0.064 A 
ATOM     51  C   UNL A   1      39.280  28.786  31.043  1.00  0.00     0.173 A 
ATOM     52  C   UNL A   1      38.617  29.494  28.846  1.00  0.00     0.173 A 
ATOM     53  F   UNL A   1      40.192  28.290  31.890  1.00  0.00    -0.203 F 
ATOM     54  C   UNL A   1      37.997  29.059  31.514  1.00  0.00     0.198 A 
ATOM     55  C   UNL A   1      37.345  29.798  29.326  1.00  0.00     0.198 A 
ATOM     56  F   UNL A   1      38.886  29.712  27.551  1.00  0.00    -0.203 F 
ATOM     57  F   UNL A   1      37.691  28.811  32.794  1.00  0.00    -0.200 F 
ATOM     58  C   UNL A   1      37.033  29.570  30.658  1.00  0.00     0.200 A 
ATOM     59  F   UNL A   1      36.424  30.310  28.499  1.00  0.00    -0.200 F 
ATOM     60  F   UNL A   1      35.803  29.837  31.114  1.00  0.00    -0.200 F 
ENDBRANCH  26  50
BRANCH  38  61
ATOM     61  C   UNL A   1      45.424  32.741  28.957  1.00  0.00     0.064 A 
ATOM     62  C   UNL A   1      45.950  33.129  30.198  1.00  0.00     0.173 A 
ATOM     63  C   UNL A   1      45.205  33.736  27.994  1.00  0.00     0.173 A 
ATOM     64  F   UNL A   1      46.159  32.215  31.158  1.00  0.00    -0.203 F 
ATOM     65  C   UNL A   1      46.214  34.467  30.475  1.00  0.00     0.198 A 
ATOM     66  C   UNL A   1      45.499  35.069  28.263  1.00  0.00     0.198 A 
ATOM     67  F   UNL A   1      44.708  33.415  26.789  1.00  0.00    -0.203 F 
ATOM     68  F   UNL A   1      46.660  34.822  31.689  1.00  0.00    -0.200 F 
ATOM     69  C   UNL A   1      45.993  35.435  29.507  1.00  0.00     0.200 A 
ATOM     70  F   UNL A   1      45.295  36.003  27.323  1.00  0.00    -0.200 F 
ATOM     71  F   UNL A   1      46.246  36.722  29.776  1.00  0.00    -0.200 F 
ENDBRANCH  38  61
ENDBRANCH  12  13
ENDBRANCH   5   7
ENDBRANCH   2   3
ENDBRANCH   1   2
BRANCH   1  72
ATOM     72  C   UNL A   1      36.573  20.368  25.001  1.00  0.00     0.117 C 
BRANCH  72  73
ATOM     73  N   UNL A   1      35.360  19.564  25.001  1.00  0.00    -0.353 N 
ATOM     74  C   UNL A   1      34.062  19.999  24.938  1.00  0.00     0.257 C 
ATOM     75  H   UNL A   1      35.487  18.589  25.051  1.00  0.00     0.163 HD
ATOM     76  O   UNL A   1      33.159  19.165  24.842  1.00  0.00    -0.272 OA
BRANCH  74  77
ATOM     77  C   UNL A   1      33.771  21.493  24.966  1.00  0.00     0.288 C 
ATOM     78  F   UNL A   1      33.445  21.951  23.719  1.00  0.00    -0.234 F 
BRANCH  77  79
ATOM     79  C   UNL A   1      32.664  21.827  25.993  1.00  0.00     0.188 C 
BRANCH  79  80
ATOM     80  C   UNL A   1      32.243  23.286  26.113  1.00  0.00    -0.015 A 
ATOM     81  C   UNL A   1      30.863  23.573  26.126  1.00  0.00     0.006 A 
ATOM     82  C   UNL A   1      33.141  24.363  26.126  1.00  0.00     0.027 A 
ATOM     83  C   UNL A   1      30.398  24.889  26.126  1.00  0.00     0.002 A 
ATOM     84  C   UNL A   1      32.670  25.679  26.125  1.00  0.00     0.041 A 
ATOM     85  C   UNL A   1      31.305  25.945  26.120  1.00  0.00     0.020 A 
ATOM     86  Cl  UNL A   1      33.794  26.983  26.103  1.00  0.00    -0.084 Cl
ENDBRANCH  79  80
BRANCH  79  87
ATOM     87  O   UNL A   1      31.461  21.076  25.751  1.00  0.00    -0.385 OA
ATOM     88  H   UNL A   1      31.101  20.759  26.594  1.00  0.00     0.211 HD
ENDBRANCH  79  87
ENDBRANCH  77  79
ENDBRANCH  74  77
ENDBRANCH  72  73
ENDBRANCH   1  72
TORSDOF 13
ENDMDL
