MODEL 1
REMARK VINA RESULT:     -12.1      0.000      0.000
REMARK SMILES Cc1cc(N2CCO[C@@H](C)C2)cc(C(=O)NCCCNC(=O)c2ccc(-c3c4nc(c(-c5c(F)c(F)c(F)c(F)c5F)c5ccc([nH]5)c(-c5c(F)c(F)c(F)c(F)c5F)c5nc(c(-c6c(F)c(F)c(F)c(F)c6F)c6ccc3[nH]6)C=C5)C=C4)cc2)c1N
REMARK SMILES IDX 18 1 17 2 16 3 14 4 15 5 13 7 1 8 2 9 3 10 86 11 4 12 12 13
REMARK SMILES IDX 87 14 5 17 6 18 11 19 7 20 9 21 8 22 10 23 19 24 20 25 21 26
REMARK SMILES IDX 22 28 23 29 24 30 85 31 25 32 84 33 26 34 27 35 28 36 78 37
REMARK SMILES IDX 29 38 83 39 77 40 79 41 30 42 82 43 76 44 75 45 31 47 63 48
REMARK SMILES IDX 43 49 62 50 44 51 47 52 61 53 80 54 45 55 46 56 60 58 81 59
REMARK SMILES IDX 48 60 32 61 33 62 41 63 34 64 35 65 39 66 42 67 36 68 37 69
REMARK SMILES IDX 40 70 38 71 64 72 65 73 73 74 66 75 67 76 71 77 74 78 68 79
REMARK SMILES IDX 69 80 72 81 70 82 49 83 50 84 58 85 51 86 52 87 56 88 59 89
REMARK SMILES IDX 53 90 54 91 57 92 55 93
REMARK H PARENT 16 6 87 15 87 16 20 27 79 46 47 57
REMARK Flexibility Score: inf
ROOT
ATOM      1  C   UNL A   1      31.432  31.669  26.812  1.00  0.00     0.042 C 
ENDROOT
BRANCH   1   2
ATOM      2  C   UNL A   1      31.696  30.162  26.849  1.00  0.00     0.118 C 
BRANCH   2   3
ATOM      3  N   UNL A   1      33.091  29.891  27.142  1.00  0.00    -0.352 N 
ATOM      4  C   UNL A   1      33.977  28.919  26.746  1.00  0.00     0.253 C 
ATOM      5  O   UNL A   1      35.104  29.000  27.246  1.00  0.00    -0.269 OA
ATOM      6  H   UNL A   1      33.488  30.547  27.760  1.00  0.00     0.163 HD
BRANCH   4   7
ATOM      7  C   UNL A   1      33.672  27.827  25.761  1.00  0.00     0.065 A 
ATOM      8  C   UNL A   1      33.186  27.400  21.977  1.00  0.00     0.046 C 
ATOM      9  C   UNL A   1      33.314  27.121  23.450  1.00  0.00    -0.025 A 
ATOM     10  C   UNL A   1      33.122  25.805  23.901  1.00  0.00     0.031 A 
ATOM     11  C   UNL A   1      33.607  28.143  24.377  1.00  0.00     0.047 A 
ATOM     12  C   UNL A   1      33.188  25.476  25.253  1.00  0.00     0.038 A 
ATOM     13  C   UNL A   1      33.508  26.492  26.157  1.00  0.00     0.042 A 
BRANCH  11  14
ATOM     14  N   UNL A   1      33.668  29.470  23.929  1.00  0.00    -0.398 N 
ATOM     15  H   UNL A   1      33.295  30.194  24.481  1.00  0.00     0.156 HD
ATOM     16  H   UNL A   1      34.085  29.677  23.061  1.00  0.00     0.156 HD
ENDBRANCH  11  14
BRANCH  12  17
ATOM     17  N   UNL A   1      32.900  24.206  25.687  1.00  0.00    -0.367 N 
ATOM     18  C   UNL A   1      31.662  23.899  26.407  1.00  0.00     0.145 C 
ATOM     19  C   UNL A   1      33.856  23.105  25.571  1.00  0.00     0.148 C 
ATOM     20  C   UNL A   1      31.028  22.635  25.804  1.00  0.00     0.182 C 
ATOM     21  C   UNL A   1      33.157  21.842  25.025  1.00  0.00     0.134 C 
ATOM     22  O   UNL A   1      31.949  21.533  25.751  1.00  0.00    -0.375 OA
ATOM     23  C   UNL A   1      32.902  21.923  23.521  1.00  0.00     0.040 C 
ENDBRANCH  12  17
ENDBRANCH   4   7
ENDBRANCH   2   3
ENDBRANCH   1   2
BRANCH   1  24
ATOM     24  C   UNL A   1      32.711  32.504  26.773  1.00  0.00     0.118 C 
BRANCH  24  25
ATOM     25  N   UNL A   1      32.495  33.847  27.293  1.00  0.00    -0.352 N 
ATOM     26  C   UNL A   1      33.048  34.470  28.382  1.00  0.00     0.251 C 
ATOM     27  H   UNL A   1      31.853  34.392  26.783  1.00  0.00     0.163 HD
ATOM     28  O   UNL A   1      32.557  35.516  28.796  1.00  0.00    -0.269 OA
BRANCH  26  29
ATOM     29  C   UNL A   1      34.226  33.894  29.065  1.00  0.00     0.039 A 
ATOM     30  C   UNL A   1      34.028  32.876  30.004  1.00  0.00     0.014 A 
ATOM     31  C   UNL A   1      35.512  34.390  28.834  1.00  0.00     0.014 A 
ATOM     32  C   UNL A   1      35.123  32.323  30.673  1.00  0.00     0.010 A 
ATOM     33  C   UNL A   1      36.608  33.796  29.454  1.00  0.00     0.010 A 
ATOM     34  C   UNL A   1      36.423  32.762  30.384  1.00  0.00    -0.014 A 
BRANCH  34  35
ATOM     35  C   UNL A   1      37.607  32.155  31.044  1.00  0.00     0.031 A 
ATOM     36  C   UNL A   1      38.412  31.103  30.333  1.00  0.00     0.074 A 
ATOM     37  C   UNL A   1      37.909  32.500  32.310  1.00  0.00     0.049 A 
ATOM     38  N   UNL A   1      39.411  30.384  30.778  1.00  0.00    -0.248 NA
ATOM     39  C   UNL A   1      38.025  30.802  28.947  1.00  0.00     0.031 C 
ATOM     40  C   UNL A   1      37.178  33.477  33.116  1.00  0.00     0.029 A 
ATOM     41  N   UNL A   1      38.899  32.051  33.148  1.00  0.00    -0.354 N 
ATOM     42  C   UNL A   1      39.756  29.531  29.737  1.00  0.00     0.074 A 
ATOM     43  C   UNL A   1      38.833  29.794  28.653  1.00  0.00     0.031 C 
ATOM     44  C   UNL A   1      37.749  33.563  34.329  1.00  0.00     0.029 A 
ATOM     45  C   UNL A   1      38.861  32.619  34.397  1.00  0.00     0.049 A 
ATOM     46  H   UNL A   1      39.572  31.385  32.879  1.00  0.00     0.167 HD
ATOM     47  C   UNL A   1      40.760  28.625  29.686  1.00  0.00     0.037 A 
ATOM     48  C   UNL A   1      39.628  32.395  35.482  1.00  0.00     0.037 A 
ATOM     49  C   UNL A   1      41.693  28.390  30.756  1.00  0.00     0.049 A 
ATOM     50  C   UNL A   1      40.741  31.386  35.396  1.00  0.00     0.074 A 
ATOM     51  C   UNL A   1      42.786  27.541  30.779  1.00  0.00     0.029 A 
ATOM     52  N   UNL A   1      41.641  29.008  31.998  1.00  0.00    -0.354 N 
ATOM     53  N   UNL A   1      41.096  30.631  34.386  1.00  0.00    -0.248 NA
ATOM     54  C   UNL A   1      41.564  31.203  36.600  1.00  0.00     0.031 C 
ATOM     55  C   UNL A   1      43.371  27.614  32.048  1.00  0.00     0.029 A 
ATOM     56  C   UNL A   1      42.671  28.544  32.800  1.00  0.00     0.049 A 
ATOM     57  H   UNL A   1      40.971  29.678  32.268  1.00  0.00     0.167 HD
ATOM     58  C   UNL A   1      42.195  29.903  34.821  1.00  0.00     0.074 A 
ATOM     59  C   UNL A   1      42.458  30.318  36.183  1.00  0.00     0.031 C 
ATOM     60  C   UNL A   1      42.922  28.975  34.151  1.00  0.00     0.037 A 
BRANCH  47  61
ATOM     61  C   UNL A   1      40.908  27.819  28.428  1.00  0.00     0.064 A 
ATOM     62  C   UNL A   1      41.725  28.245  27.371  1.00  0.00     0.173 A 
ATOM     63  C   UNL A   1      40.255  26.583  28.295  1.00  0.00     0.173 A 
ATOM     64  F   UNL A   1      42.363  29.423  27.444  1.00  0.00    -0.203 F 
ATOM     65  C   UNL A   1      41.863  27.478  26.217  1.00  0.00     0.198 A 
ATOM     66  C   UNL A   1      40.418  25.805  27.152  1.00  0.00     0.198 A 
ATOM     67  F   UNL A   1      39.467  26.124  29.279  1.00  0.00    -0.203 F 
ATOM     68  F   UNL A   1      42.613  27.928  25.202  1.00  0.00    -0.200 F 
ATOM     69  C   UNL A   1      41.216  26.257  26.111  1.00  0.00     0.200 A 
ATOM     70  F   UNL A   1      39.803  24.618  27.056  1.00  0.00    -0.200 F 
ATOM     71  F   UNL A   1      41.356  25.516  25.002  1.00  0.00    -0.200 F 
ENDBRANCH  47  61
BRANCH  48  72
ATOM     72  C   UNL A   1      39.379  33.153  36.734  1.00  0.00     0.064 A 
ATOM     73  C   UNL A   1      38.476  32.679  37.695  1.00  0.00     0.173 A 
ATOM     74  C   UNL A   1      40.040  34.362  37.000  1.00  0.00     0.173 A 
ATOM     75  F   UNL A   1      37.805  31.538  37.475  1.00  0.00    -0.203 F 
ATOM     76  C   UNL A   1      38.230  33.392  38.865  1.00  0.00     0.198 A 
ATOM     77  C   UNL A   1      39.814  35.060  38.183  1.00  0.00     0.198 A 
ATOM     78  F   UNL A   1      40.918  34.856  36.114  1.00  0.00    -0.203 F 
ATOM     79  F   UNL A   1      37.330  32.936  39.749  1.00  0.00    -0.200 F 
ATOM     80  C   UNL A   1      38.904  34.578  39.112  1.00  0.00     0.200 A 
ATOM     81  F   UNL A   1      40.478  36.198  38.425  1.00  0.00    -0.200 F 
ATOM     82  F   UNL A   1      38.671  35.261  40.242  1.00  0.00    -0.200 F 
ENDBRANCH  48  72
BRANCH  60  83
ATOM     83  C   UNL A   1      44.092  28.368  34.869  1.00  0.00     0.064 A 
ATOM     84  C   UNL A   1      45.359  28.968  34.848  1.00  0.00     0.173 A 
ATOM     85  C   UNL A   1      43.928  27.199  35.627  1.00  0.00     0.173 A 
ATOM     86  F   UNL A   1      45.569  30.078  34.125  1.00  0.00    -0.203 F 
ATOM     87  C   UNL A   1      46.426  28.406  35.544  1.00  0.00     0.198 A 
ATOM     88  C   UNL A   1      44.990  26.657  36.345  1.00  0.00     0.198 A 
ATOM     89  F   UNL A   1      42.734  26.592  35.684  1.00  0.00    -0.203 F 
ATOM     90  F   UNL A   1      47.639  28.973  35.478  1.00  0.00    -0.200 F 
ATOM     91  C   UNL A   1      46.239  27.258  36.299  1.00  0.00     0.200 A 
ATOM     92  F   UNL A   1      44.805  25.554  37.083  1.00  0.00    -0.200 F 
ATOM     93  F   UNL A   1      47.265  26.725  36.975  1.00  0.00    -0.200 F 
ENDBRANCH  60  83
ENDBRANCH  34  35
ENDBRANCH  26  29
ENDBRANCH  24  25
ENDBRANCH   1  24
TORSDOF 12
ENDMDL
MODEL 2
REMARK VINA RESULT:     -12.1      5.369     10.903
REMARK SMILES Cc1cc(N2CCO[C@@H](C)C2)cc(C(=O)NCCCNC(=O)c2ccc(-c3c4nc(c(-c5c(F)c(F)c(F)c(F)c5F)c5ccc([nH]5)c(-c5c(F)c(F)c(F)c(F)c5F)c5nc(c(-c6c(F)c(F)c(F)c(F)c6F)c6ccc3[nH]6)C=C5)C=C4)cc2)c1N
REMARK SMILES IDX 18 1 17 2 16 3 14 4 15 5 13 7 1 8 2 9 3 10 86 11 4 12 12 13
REMARK SMILES IDX 87 14 5 17 6 18 11 19 7 20 9 21 8 22 10 23 19 24 20 25 21 26
REMARK SMILES IDX 22 28 23 29 24 30 85 31 25 32 84 33 26 34 27 35 28 36 78 37
REMARK SMILES IDX 29 38 83 39 77 40 79 41 30 42 82 43 76 44 75 45 31 47 63 48
REMARK SMILES IDX 43 49 62 50 44 51 47 52 61 53 80 54 45 55 46 56 60 58 81 59
REMARK SMILES IDX 48 60 32 61 33 62 41 63 34 64 35 65 39 66 42 67 36 68 37 69
REMARK SMILES IDX 40 70 38 71 64 72 65 73 73 74 66 75 67 76 71 77 74 78 68 79
REMARK SMILES IDX 69 80 72 81 70 82 49 83 50 84 58 85 51 86 52 87 56 88 59 89
REMARK SMILES IDX 53 90 54 91 57 92 55 93
REMARK H PARENT 16 6 87 15 87 16 20 27 79 46 47 57
REMARK Flexibility Score: inf
ROOT
ATOM      1  C   UNL A   1      38.039  19.954  24.838  1.00  0.00     0.042 C 
ENDROOT
BRANCH   1   2
ATOM      2  C   UNL A   1      37.221  21.200  24.490  1.00  0.00     0.118 C 
BRANCH   2   3
ATOM      3  N   UNL A   1      37.689  22.350  25.241  1.00  0.00    -0.352 N 
ATOM      4  C   UNL A   1      37.080  23.474  25.740  1.00  0.00     0.253 C 
ATOM      5  O   UNL A   1      37.831  24.269  26.315  1.00  0.00    -0.269 OA
ATOM      6  H   UNL A   1      38.654  22.315  25.435  1.00  0.00     0.163 HD
BRANCH   4   7
ATOM      7  C   UNL A   1      35.609  23.765  25.655  1.00  0.00     0.065 A 
ATOM      8  C   UNL A   1      32.328  22.575  27.254  1.00  0.00     0.046 C 
ATOM      9  C   UNL A   1      33.330  23.324  26.418  1.00  0.00    -0.025 A 
ATOM     10  C   UNL A   1      32.862  24.302  25.526  1.00  0.00     0.031 A 
ATOM     11  C   UNL A   1      34.713  23.057  26.501  1.00  0.00     0.047 A 
ATOM     12  C   UNL A   1      33.725  25.009  24.693  1.00  0.00     0.038 A 
ATOM     13  C   UNL A   1      35.094  24.757  24.807  1.00  0.00     0.042 A 
BRANCH  11  14
ATOM     14  N   UNL A   1      35.153  21.992  27.299  1.00  0.00    -0.398 N 
ATOM     15  H   UNL A   1      34.995  22.007  28.271  1.00  0.00     0.156 HD
ATOM     16  H   UNL A   1      35.619  21.229  26.887  1.00  0.00     0.156 HD
ENDBRANCH  11  14
BRANCH  12  17
ATOM     17  N   UNL A   1      33.242  25.890  23.758  1.00  0.00    -0.367 N 
ATOM     18  C   UNL A   1      33.276  25.588  22.325  1.00  0.00     0.145 C 
ATOM     19  C   UNL A   1      32.776  27.231  24.113  1.00  0.00     0.148 C 
ATOM     20  C   UNL A   1      31.907  25.915  21.708  1.00  0.00     0.182 C 
ATOM     21  C   UNL A   1      31.433  27.535  23.417  1.00  0.00     0.134 C 
ATOM     22  O   UNL A   1      31.479  27.256  22.002  1.00  0.00    -0.375 OA
ATOM     23  C   UNL A   1      30.257  26.831  24.090  1.00  0.00     0.040 C 
ENDBRANCH  12  17
ENDBRANCH   4   7
ENDBRANCH   2   3
ENDBRANCH   1   2
BRANCH   1  24
ATOM     24  C   UNL A   1      38.934  20.144  26.061  1.00  0.00     0.118 C 
BRANCH  24  25
ATOM     25  N   UNL A   1      40.045  19.202  26.069  1.00  0.00    -0.352 N 
ATOM     26  C   UNL A   1      41.396  19.433  26.100  1.00  0.00     0.251 C 
ATOM     27  H   UNL A   1      39.785  18.253  26.049  1.00  0.00     0.163 HD
ATOM     28  O   UNL A   1      42.174  18.515  25.855  1.00  0.00    -0.269 OA
BRANCH  26  29
ATOM     29  C   UNL A   1      41.927  20.775  26.420  1.00  0.00     0.039 A 
ATOM     30  C   UNL A   1      42.142  21.680  25.376  1.00  0.00     0.014 A 
ATOM     31  C   UNL A   1      42.271  21.125  27.729  1.00  0.00     0.014 A 
ATOM     32  C   UNL A   1      42.655  22.951  25.650  1.00  0.00     0.010 A 
ATOM     33  C   UNL A   1      42.722  22.412  28.009  1.00  0.00     0.010 A 
ATOM     34  C   UNL A   1      42.924  23.335  26.972  1.00  0.00    -0.014 A 
BRANCH  34  35
ATOM     35  C   UNL A   1      43.421  24.696  27.295  1.00  0.00     0.031 A 
ATOM     36  C   UNL A   1      42.484  25.730  27.854  1.00  0.00     0.074 A 
ATOM     37  C   UNL A   1      44.698  25.020  27.012  1.00  0.00     0.049 A 
ATOM     38  N   UNL A   1      42.701  26.997  28.101  1.00  0.00    -0.248 NA
ATOM     39  C   UNL A   1      41.114  25.286  28.150  1.00  0.00     0.031 C 
ATOM     40  C   UNL A   1      45.689  24.115  26.431  1.00  0.00     0.029 A 
ATOM     41  N   UNL A   1      45.374  26.205  27.159  1.00  0.00    -0.354 N 
ATOM     42  C   UNL A   1      41.492  27.505  28.558  1.00  0.00     0.074 A 
ATOM     43  C   UNL A   1      40.534  26.420  28.516  1.00  0.00     0.031 C 
ATOM     44  C   UNL A   1      46.849  24.774  26.278  1.00  0.00     0.029 A 
ATOM     45  C   UNL A   1      46.672  26.156  26.716  1.00  0.00     0.049 A 
ATOM     46  H   UNL A   1      44.967  27.014  27.545  1.00  0.00     0.167 HD
ATOM     47  C   UNL A   1      41.212  28.758  28.989  1.00  0.00     0.037 A 
ATOM     48  C   UNL A   1      47.611  27.120  26.654  1.00  0.00     0.037 A 
ATOM     49  C   UNL A   1      42.175  29.824  29.058  1.00  0.00     0.049 A 
ATOM     50  C   UNL A   1      47.275  28.502  27.146  1.00  0.00     0.074 A 
ATOM     51  C   UNL A   1      42.009  31.110  29.542  1.00  0.00     0.029 A 
ATOM     52  N   UNL A   1      43.491  29.727  28.628  1.00  0.00    -0.354 N 
ATOM     53  N   UNL A   1      46.146  28.954  27.634  1.00  0.00    -0.248 NA
ATOM     54  C   UNL A   1      48.346  29.506  27.082  1.00  0.00     0.031 C 
ATOM     55  C   UNL A   1      43.210  31.804  29.367  1.00  0.00     0.029 A 
ATOM     56  C   UNL A   1      44.141  30.936  28.817  1.00  0.00     0.049 A 
ATOM     57  H   UNL A   1      43.903  28.918  28.245  1.00  0.00     0.167 HD
ATOM     58  C   UNL A   1      46.376  30.284  27.959  1.00  0.00     0.074 A 
ATOM     59  C   UNL A   1      47.757  30.562  27.626  1.00  0.00     0.031 C 
ATOM     60  C   UNL A   1      45.519  31.192  28.487  1.00  0.00     0.037 A 
BRANCH  47  61
ATOM     61  C   UNL A   1      39.804  29.045  29.426  1.00  0.00     0.064 A 
ATOM     62  C   UNL A   1      38.827  29.482  28.521  1.00  0.00     0.173 A 
ATOM     63  C   UNL A   1      39.418  28.841  30.761  1.00  0.00     0.173 A 
ATOM     64  F   UNL A   1      39.145  29.703  27.237  1.00  0.00    -0.203 F 
ATOM     65  C   UNL A   1      37.521  29.731  28.940  1.00  0.00     0.198 A 
ATOM     66  C   UNL A   1      38.105  29.062  31.169  1.00  0.00     0.198 A 
ATOM     67  F   UNL A   1      40.312  28.416  31.667  1.00  0.00    -0.203 F 
ATOM     68  F   UNL A   1      36.616  30.192  28.065  1.00  0.00    -0.200 F 
ATOM     69  C   UNL A   1      37.160  29.513  30.260  1.00  0.00     0.200 A 
ATOM     70  F   UNL A   1      37.754  28.838  32.443  1.00  0.00    -0.200 F 
ATOM     71  F   UNL A   1      35.901  29.745  30.659  1.00  0.00    -0.200 F 
ENDBRANCH  47  61
BRANCH  48  72
ATOM     72  C   UNL A   1      48.961  26.805  26.125  1.00  0.00     0.064 A 
ATOM     73  C   UNL A   1      49.274  27.021  24.776  1.00  0.00     0.173 A 
ATOM     74  C   UNL A   1      49.969  26.288  26.953  1.00  0.00     0.173 A 
ATOM     75  F   UNL A   1      48.337  27.495  23.941  1.00  0.00    -0.203 F 
ATOM     76  C   UNL A   1      50.535  26.717  24.270  1.00  0.00     0.198 A 
ATOM     77  C   UNL A   1      51.239  26.010  26.453  1.00  0.00     0.198 A 
ATOM     78  F   UNL A   1      49.723  26.068  28.253  1.00  0.00    -0.203 F 
ATOM     79  F   UNL A   1      50.794  26.895  22.967  1.00  0.00    -0.200 F 
ATOM     80  C   UNL A   1      51.519  26.218  25.111  1.00  0.00     0.200 A 
ATOM     81  F   UNL A   1      52.191  25.542  27.270  1.00  0.00    -0.200 F 
ATOM     82  F   UNL A   1      52.735  25.931  24.626  1.00  0.00    -0.200 F 
ENDBRANCH  48  72
BRANCH  60  83
ATOM     83  C   UNL A   1      46.059  32.563  28.769  1.00  0.00     0.064 A 
ATOM     84  C   UNL A   1      45.970  33.597  27.826  1.00  0.00     0.173 A 
ATOM     85  C   UNL A   1      46.628  32.858  30.018  1.00  0.00     0.173 A 
ATOM     86  F   UNL A   1      45.449  33.360  26.613  1.00  0.00    -0.203 F 
ATOM     87  C   UNL A   1      46.450  34.871  28.116  1.00  0.00     0.198 A 
ATOM     88  C   UNL A   1      47.080  34.140  30.314  1.00  0.00     0.198 A 
ATOM     89  F   UNL A   1      46.730  31.905  30.956  1.00  0.00    -0.203 F 
ATOM     90  F   UNL A   1      46.392  35.834  27.185  1.00  0.00    -0.200 F 
ATOM     91  C   UNL A   1      46.996  35.144  29.361  1.00  0.00     0.200 A 
ATOM     92  F   UNL A   1      47.596  34.405  31.522  1.00  0.00    -0.200 F 
ATOM     93  F   UNL A   1      47.448  36.374  29.641  1.00  0.00    -0.200 F 
ENDBRANCH  60  83
ENDBRANCH  34  35
ENDBRANCH  26  29
ENDBRANCH  24  25
ENDBRANCH   1  24
TORSDOF 12
ENDMDL
MODEL 3
REMARK VINA RESULT:     -12.1      0.433      1.667
REMARK SMILES Cc1cc(N2CCO[C@@H](C)C2)cc(C(=O)NCCCNC(=O)c2ccc(-c3c4nc(c(-c5c(F)c(F)c(F)c(F)c5F)c5ccc([nH]5)c(-c5c(F)c(F)c(F)c(F)c5F)c5nc(c(-c6c(F)c(F)c(F)c(F)c6F)c6ccc3[nH]6)C=C5)C=C4)cc2)c1N
REMARK SMILES IDX 18 1 17 2 16 3 14 4 15 5 13 7 1 8 2 9 3 10 86 11 4 12 12 13
REMARK SMILES IDX 87 14 5 17 6 18 11 19 7 20 9 21 8 22 10 23 19 24 20 25 21 26
REMARK SMILES IDX 22 28 23 29 24 30 85 31 25 32 84 33 26 34 27 35 28 36 78 37
REMARK SMILES IDX 29 38 83 39 77 40 79 41 30 42 82 43 76 44 75 45 31 47 63 48
REMARK SMILES IDX 43 49 62 50 44 51 47 52 61 53 80 54 45 55 46 56 60 58 81 59
REMARK SMILES IDX 48 60 32 61 33 62 41 63 34 64 35 65 39 66 42 67 36 68 37 69
REMARK SMILES IDX 40 70 38 71 64 72 65 73 73 74 66 75 67 76 71 77 74 78 68 79
REMARK SMILES IDX 69 80 72 81 70 82 49 83 50 84 58 85 51 86 52 87 56 88 59 89
REMARK SMILES IDX 53 90 54 91 57 92 55 93
REMARK H PARENT 16 6 87 15 87 16 20 27 79 46 47 57
REMARK Flexibility Score: inf
ROOT
ATOM      1  C   UNL A   1      31.423  31.637  26.882  1.00  0.00     0.042 C 
ENDROOT
BRANCH   1   2
ATOM      2  C   UNL A   1      31.711  30.136  26.820  1.00  0.00     0.118 C 
BRANCH   2   3
ATOM      3  N   UNL A   1      33.107  29.866  27.114  1.00  0.00    -0.352 N 
ATOM      4  C   UNL A   1      33.996  28.901  26.711  1.00  0.00     0.253 C 
ATOM      5  O   UNL A   1      35.122  28.980  27.213  1.00  0.00    -0.269 OA
ATOM      6  H   UNL A   1      33.500  30.518  27.737  1.00  0.00     0.163 HD
BRANCH   4   7
ATOM      7  C   UNL A   1      33.696  27.816  25.717  1.00  0.00     0.065 A 
ATOM      8  C   UNL A   1      33.323  27.398  21.919  1.00  0.00     0.046 C 
ATOM      9  C   UNL A   1      33.397  27.117  23.395  1.00  0.00    -0.025 A 
ATOM     10  C   UNL A   1      33.157  25.807  23.840  1.00  0.00     0.031 A 
ATOM     11  C   UNL A   1      33.684  28.132  24.331  1.00  0.00     0.047 A 
ATOM     12  C   UNL A   1      33.170  25.477  25.193  1.00  0.00     0.038 A 
ATOM     13  C   UNL A   1      33.486  26.485  26.107  1.00  0.00     0.042 A 
BRANCH  11  14
ATOM     14  N   UNL A   1      33.794  29.457  23.885  1.00  0.00    -0.398 N 
ATOM     15  H   UNL A   1      34.665  29.806  23.588  1.00  0.00     0.156 HD
ATOM     16  H   UNL A   1      32.998  30.037  23.869  1.00  0.00     0.156 HD
ENDBRANCH  11  14
BRANCH  12  17
ATOM     17  N   UNL A   1      32.836  24.215  25.617  1.00  0.00    -0.367 N 
ATOM     18  C   UNL A   1      31.682  23.974  26.486  1.00  0.00     0.145 C 
ATOM     19  C   UNL A   1      33.673  23.049  25.335  1.00  0.00     0.148 C 
ATOM     20  C   UNL A   1      30.871  22.792  25.931  1.00  0.00     0.182 C 
ATOM     21  C   UNL A   1      32.805  21.871  24.844  1.00  0.00     0.134 C 
ATOM     22  O   UNL A   1      31.682  21.625  25.715  1.00  0.00    -0.375 OA
ATOM     23  C   UNL A   1      32.362  22.040  23.392  1.00  0.00     0.040 C 
ENDBRANCH  12  17
ENDBRANCH   4   7
ENDBRANCH   2   3
ENDBRANCH   1   2
BRANCH   1  24
ATOM     24  C   UNL A   1      32.687  32.494  26.845  1.00  0.00     0.118 C 
BRANCH  24  25
ATOM     25  N   UNL A   1      32.441  33.840  27.345  1.00  0.00    -0.352 N 
ATOM     26  C   UNL A   1      32.995  34.499  28.413  1.00  0.00     0.251 C 
ATOM     27  H   UNL A   1      31.774  34.357  26.838  1.00  0.00     0.163 HD
ATOM     28  O   UNL A   1      32.481  35.537  28.818  1.00  0.00    -0.269 OA
BRANCH  26  29
ATOM     29  C   UNL A   1      34.201  33.970  29.084  1.00  0.00     0.039 A 
ATOM     30  C   UNL A   1      34.046  33.007  30.086  1.00  0.00     0.014 A 
ATOM     31  C   UNL A   1      35.474  34.460  28.778  1.00  0.00     0.014 A 
ATOM     32  C   UNL A   1      35.168  32.499  30.746  1.00  0.00     0.010 A 
ATOM     33  C   UNL A   1      36.597  33.909  29.391  1.00  0.00     0.010 A 
ATOM     34  C   UNL A   1      36.454  32.929  30.384  1.00  0.00    -0.014 A 
BRANCH  34  35
ATOM     35  C   UNL A   1      37.666  32.368  31.034  1.00  0.00     0.031 A 
ATOM     36  C   UNL A   1      38.448  31.276  30.360  1.00  0.00     0.074 A 
ATOM     37  C   UNL A   1      38.015  32.792  32.264  1.00  0.00     0.049 A 
ATOM     38  N   UNL A   1      39.467  30.589  30.809  1.00  0.00    -0.248 NA
ATOM     39  C   UNL A   1      38.010  30.887  29.011  1.00  0.00     0.031 C 
ATOM     40  C   UNL A   1      37.310  33.816  33.035  1.00  0.00     0.029 A 
ATOM     41  N   UNL A   1      39.039  32.399  33.089  1.00  0.00    -0.354 N 
ATOM     42  C   UNL A   1      39.776  29.674  29.811  1.00  0.00     0.074 A 
ATOM     43  C   UNL A   1      38.811  29.865  28.749  1.00  0.00     0.031 C 
ATOM     44  C   UNL A   1      37.927  33.979  34.217  1.00  0.00     0.029 A 
ATOM     45  C   UNL A   1      39.047  33.045  34.301  1.00  0.00     0.049 A 
ATOM     46  H   UNL A   1      39.705  31.720  32.836  1.00  0.00     0.167 HD
ATOM     47  C   UNL A   1      40.783  28.769  29.778  1.00  0.00     0.037 A 
ATOM     48  C   UNL A   1      39.855  32.891  35.366  1.00  0.00     0.037 A 
ATOM     49  C   UNL A   1      41.758  28.604  30.823  1.00  0.00     0.049 A 
ATOM     50  C   UNL A   1      40.970  31.882  35.301  1.00  0.00     0.074 A 
ATOM     51  C   UNL A   1      42.855  27.762  30.857  1.00  0.00     0.029 A 
ATOM     52  N   UNL A   1      41.751  29.298  32.025  1.00  0.00    -0.354 N 
ATOM     53  N   UNL A   1      41.290  31.066  34.326  1.00  0.00    -0.248 NA
ATOM     54  C   UNL A   1      41.840  31.777  36.481  1.00  0.00     0.031 C 
ATOM     55  C   UNL A   1      43.489  27.916  32.094  1.00  0.00     0.029 A 
ATOM     56  C   UNL A   1      42.814  28.889  32.814  1.00  0.00     0.049 A 
ATOM     57  H   UNL A   1      41.088  29.982  32.279  1.00  0.00     0.167 HD
ATOM     58  C   UNL A   1      42.409  30.370  34.763  1.00  0.00     0.074 A 
ATOM     59  C   UNL A   1      42.722  30.870  36.085  1.00  0.00     0.031 C 
ATOM     60  C   UNL A   1      43.114  29.404  34.124  1.00  0.00     0.037 A 
BRANCH  47  61
ATOM     61  C   UNL A   1      40.886  27.886  28.568  1.00  0.00     0.064 A 
ATOM     62  C   UNL A   1      40.179  26.678  28.474  1.00  0.00     0.173 A 
ATOM     63  C   UNL A   1      41.669  28.274  27.469  1.00  0.00     0.173 A 
ATOM     64  F   UNL A   1      39.424  26.256  29.500  1.00  0.00    -0.203 F 
ATOM     65  C   UNL A   1      40.274  25.878  27.339  1.00  0.00     0.198 A 
ATOM     66  C   UNL A   1      41.738  27.486  26.323  1.00  0.00     0.198 A 
ATOM     67  F   UNL A   1      42.359  29.424  27.502  1.00  0.00    -0.203 F 
ATOM     68  F   UNL A   1      39.626  24.705  27.292  1.00  0.00    -0.200 F 
ATOM     69  C   UNL A   1      41.047  26.285  26.262  1.00  0.00     0.200 A 
ATOM     70  F   UNL A   1      42.474  27.887  25.277  1.00  0.00    -0.200 F 
ATOM     71  F   UNL A   1      41.130  25.517  25.166  1.00  0.00    -0.200 F 
ENDBRANCH  47  61
BRANCH  48  72
ATOM     72  C   UNL A   1      39.651  33.725  36.577  1.00  0.00     0.064 A 
ATOM     73  C   UNL A   1      38.871  33.264  37.646  1.00  0.00     0.173 A 
ATOM     74  C   UNL A   1      40.234  34.996  36.696  1.00  0.00     0.173 A 
ATOM     75  F   UNL A   1      38.277  32.064  37.570  1.00  0.00    -0.203 F 
ATOM     76  C   UNL A   1      38.666  34.047  38.779  1.00  0.00     0.198 A 
ATOM     77  C   UNL A   1      40.052  35.767  37.841  1.00  0.00     0.198 A 
ATOM     78  F   UNL A   1      40.994  35.481  35.703  1.00  0.00    -0.203 F 
ATOM     79  F   UNL A   1      37.882  33.598  39.769  1.00  0.00    -0.200 F 
ATOM     80  C   UNL A   1      39.262  35.295  38.879  1.00  0.00     0.200 A 
ATOM     81  F   UNL A   1      40.641  36.966  37.941  1.00  0.00    -0.200 F 
ATOM     82  F   UNL A   1      39.070  36.046  39.973  1.00  0.00    -0.200 F 
ENDBRANCH  48  72
BRANCH  60  83
ATOM     83  C   UNL A   1      44.314  28.847  34.833  1.00  0.00     0.064 A 
ATOM     84  C   UNL A   1      44.224  27.710  35.647  1.00  0.00     0.173 A 
ATOM     85  C   UNL A   1      45.577  29.432  34.654  1.00  0.00     0.173 A 
ATOM     86  F   UNL A   1      43.037  27.124  35.861  1.00  0.00    -0.203 F 
ATOM     87  C   UNL A   1      45.354  27.189  36.273  1.00  0.00     0.198 A 
ATOM     88  C   UNL A   1      46.708  28.892  35.258  1.00  0.00     0.198 A 
ATOM     89  F   UNL A   1      45.715  30.518  33.880  1.00  0.00    -0.203 F 
ATOM     90  F   UNL A   1      45.240  26.125  37.080  1.00  0.00    -0.200 F 
ATOM     91  C   UNL A   1      46.595  27.774  36.072  1.00  0.00     0.200 A 
ATOM     92  F   UNL A   1      47.908  29.452  35.053  1.00  0.00    -0.200 F 
ATOM     93  F   UNL A   1      47.682  27.266  36.668  1.00  0.00    -0.200 F 
ENDBRANCH  60  83
ENDBRANCH  34  35
ENDBRANCH  26  29
ENDBRANCH  24  25
ENDBRANCH   1  24
TORSDOF 12
ENDMDL
