MODEL 1
REMARK VINA RESULT:     -12.5      0.000      0.000
REMARK SMILES Cc1cc(C)n([C@H](C)[C@H](C)C(=O)NCCCNC(=O)c2ccc(-c3c4nc(c(-c5c(F)c(F)c(F)c(F)c5F)c5ccc([nH]5)c(-c5c(F)c(F)c(F)c(F)c5F)c5nc(c(-c6c(F)c(F)c(F)c(F)c6F)c6ccc3[nH]6)C=C5)C=C4)cc2)n1
REMARK SMILES IDX 15 1 14 2 13 3 11 4 12 5 9 7 10 8 7 9 8 10 6 11 1 12 2 13
REMARK SMILES IDX 3 14 83 15 4 16 5 17 16 18 17 19 18 20 19 22 20 23 21 24
REMARK SMILES IDX 82 25 22 26 81 27 23 28 24 29 25 30 75 31 26 32 80 33 74 34
REMARK SMILES IDX 76 35 27 36 79 37 73 38 72 39 28 41 60 42 40 43 59 44 41 45
REMARK SMILES IDX 44 46 58 47 77 48 42 49 43 50 57 52 78 53 45 54 29 55 30 56
REMARK SMILES IDX 38 57 31 58 32 59 36 60 39 61 33 62 34 63 37 64 35 65 61 66
REMARK SMILES IDX 62 67 70 68 63 69 64 70 68 71 71 72 65 73 66 74 69 75 67 76
REMARK SMILES IDX 46 77 47 78 55 79 48 80 49 81 53 82 56 83 50 84 51 85 54 86
REMARK SMILES IDX 52 87
REMARK H PARENT 13 6 17 21 76 40 44 51
REMARK Flexibility Score: inf
ROOT
ATOM      1  C   UNL A   1      38.323  21.500  25.342  1.00  0.00     0.042 C 
ENDROOT
BRANCH   1   2
ATOM      2  C   UNL A   1      37.196  22.520  25.386  1.00  0.00     0.117 C 
BRANCH   2   3
ATOM      3  N   UNL A   1      36.185  22.252  26.395  1.00  0.00    -0.356 N 
ATOM      4  C   UNL A   1      34.980  21.631  26.253  1.00  0.00     0.224 C 
ATOM      5  O   UNL A   1      34.343  21.361  27.274  1.00  0.00    -0.275 OA
ATOM      6  H   UNL A   1      36.400  22.560  27.305  1.00  0.00     0.163 HD
BRANCH   4   7
ATOM      7  C   UNL A   1      34.391  21.334  24.880  1.00  0.00     0.100 C 
ATOM      8  C   UNL A   1      34.096  19.824  24.802  1.00  0.00     0.020 C 
BRANCH   7   9
ATOM      9  C   UNL A   1      33.340  22.355  24.324  1.00  0.00     0.116 C 
ATOM     10  C   UNL A   1      32.561  21.820  23.106  1.00  0.00     0.034 C 
BRANCH   9  11
ATOM     11  N   UNL A   1      32.450  23.008  25.293  1.00  0.00    -0.266 N 
ATOM     12  C   UNL A   1      29.477  22.804  27.236  1.00  0.00     0.069 C 
ATOM     13  C   UNL A   1      30.723  23.199  26.536  1.00  0.00     0.060 A 
ATOM     14  C   UNL A   1      31.446  24.399  26.671  1.00  0.00     0.048 A 
ATOM     15  N   UNL A   1      31.328  22.359  25.692  1.00  0.00    -0.178 NA
ATOM     16  C   UNL A   1      32.543  24.268  25.842  1.00  0.00     0.036 A 
ATOM     17  C   UNL A   1      33.641  25.238  25.604  1.00  0.00     0.066 C 
ENDBRANCH   9  11
ENDBRANCH   7   9
ENDBRANCH   4   7
ENDBRANCH   2   3
ENDBRANCH   1   2
BRANCH   1  18
ATOM     18  C   UNL A   1      39.340  21.720  26.450  1.00  0.00     0.118 C 
BRANCH  18  19
ATOM     19  N   UNL A   1      40.716  21.774  25.957  1.00  0.00    -0.352 N 
ATOM     20  C   UNL A   1      41.578  22.857  25.948  1.00  0.00     0.251 C 
ATOM     21  H   UNL A   1      41.074  20.935  25.587  1.00  0.00     0.163 HD
ATOM     22  O   UNL A   1      42.587  22.868  25.282  1.00  0.00    -0.269 OA
BRANCH  20  23
ATOM     23  C   UNL A   1      41.194  24.024  26.764  1.00  0.00     0.039 A 
ATOM     24  C   UNL A   1      41.898  24.309  27.931  1.00  0.00     0.014 A 
ATOM     25  C   UNL A   1      40.226  24.895  26.266  1.00  0.00     0.014 A 
ATOM     26  C   UNL A   1      41.706  25.548  28.537  1.00  0.00     0.010 A 
ATOM     27  C   UNL A   1      40.117  26.160  26.809  1.00  0.00     0.010 A 
ATOM     28  C   UNL A   1      40.851  26.498  27.947  1.00  0.00    -0.014 A 
BRANCH  28  29
ATOM     29  C   UNL A   1      40.845  27.867  28.473  1.00  0.00     0.031 A 
ATOM     30  C   UNL A   1      41.938  28.764  27.991  1.00  0.00     0.074 A 
ATOM     31  C   UNL A   1      39.863  28.411  29.221  1.00  0.00     0.049 A 
ATOM     32  N   UNL A   1      42.899  29.278  28.688  1.00  0.00    -0.248 NA
ATOM     33  C   UNL A   1      42.009  29.083  26.558  1.00  0.00     0.031 C 
ATOM     34  C   UNL A   1      38.551  27.857  29.562  1.00  0.00     0.029 A 
ATOM     35  N   UNL A   1      39.822  29.658  29.775  1.00  0.00    -0.354 N 
ATOM     36  C   UNL A   1      43.616  30.108  27.828  1.00  0.00     0.074 A 
ATOM     37  C   UNL A   1      43.092  29.862  26.508  1.00  0.00     0.031 C 
ATOM     38  C   UNL A   1      37.769  28.833  30.074  1.00  0.00     0.029 A 
ATOM     39  C   UNL A   1      38.579  30.022  30.264  1.00  0.00     0.049 A 
ATOM     40  H   UNL A   1      40.610  30.248  29.823  1.00  0.00     0.167 HD
ATOM     41  C   UNL A   1      44.463  31.065  28.306  1.00  0.00     0.037 A 
ATOM     42  C   UNL A   1      38.228  31.218  30.789  1.00  0.00     0.037 A 
ATOM     43  C   UNL A   1      44.790  30.829  29.689  1.00  0.00     0.049 A 
ATOM     44  C   UNL A   1      39.464  31.896  31.240  1.00  0.00     0.074 A 
ATOM     45  C   UNL A   1      45.381  29.796  30.392  1.00  0.00     0.029 A 
ATOM     46  N   UNL A   1      44.197  31.620  30.640  1.00  0.00    -0.354 N 
ATOM     47  N   UNL A   1      40.179  31.513  32.260  1.00  0.00    -0.248 NA
ATOM     48  C   UNL A   1      40.126  32.809  30.323  1.00  0.00     0.031 C 
ATOM     49  C   UNL A   1      44.683  29.751  31.637  1.00  0.00     0.029 A 
ATOM     50  C   UNL A   1      43.750  30.788  31.632  1.00  0.00     0.049 A 
ATOM     51  H   UNL A   1      44.108  32.601  30.614  1.00  0.00     0.167 HD
ATOM     52  C   UNL A   1      41.486  31.765  31.883  1.00  0.00     0.074 A 
ATOM     53  C   UNL A   1      41.383  32.681  30.753  1.00  0.00     0.031 C 
ATOM     54  C   UNL A   1      42.511  30.989  32.342  1.00  0.00     0.037 A 
BRANCH  41  55
ATOM     55  C   UNL A   1      44.736  32.401  27.650  1.00  0.00     0.064 A 
ATOM     56  C   UNL A   1      45.946  32.585  26.943  1.00  0.00     0.173 A 
ATOM     57  C   UNL A   1      44.029  33.582  27.953  1.00  0.00     0.173 A 
ATOM     58  F   UNL A   1      46.708  31.535  26.603  1.00  0.00    -0.203 F 
ATOM     59  C   UNL A   1      46.452  33.857  26.658  1.00  0.00     0.198 A 
ATOM     60  C   UNL A   1      44.512  34.848  27.619  1.00  0.00     0.198 A 
ATOM     61  F   UNL A   1      42.905  33.570  28.681  1.00  0.00    -0.203 F 
ATOM     62  F   UNL A   1      47.670  33.981  26.114  1.00  0.00    -0.200 F 
ATOM     63  C   UNL A   1      45.740  34.987  27.007  1.00  0.00     0.200 A 
ATOM     64  F   UNL A   1      43.813  35.935  27.977  1.00  0.00    -0.200 F 
ATOM     65  F   UNL A   1      46.254  36.207  26.801  1.00  0.00    -0.200 F 
ENDBRANCH  41  55
BRANCH  42  66
ATOM     66  C   UNL A   1      36.914  31.893  30.761  1.00  0.00     0.064 A 
ATOM     67  C   UNL A   1      36.078  31.898  31.887  1.00  0.00     0.173 A 
ATOM     68  C   UNL A   1      36.580  32.782  29.721  1.00  0.00     0.173 A 
ATOM     69  F   UNL A   1      36.349  31.106  32.934  1.00  0.00    -0.203 F 
ATOM     70  C   UNL A   1      34.992  32.771  31.985  1.00  0.00     0.198 A 
ATOM     71  C   UNL A   1      35.489  33.646  29.817  1.00  0.00     0.198 A 
ATOM     72  F   UNL A   1      37.361  32.897  28.637  1.00  0.00    -0.203 F 
ATOM     73  F   UNL A   1      34.257  32.797  33.106  1.00  0.00    -0.200 F 
ATOM     74  C   UNL A   1      34.706  33.653  30.956  1.00  0.00     0.200 A 
ATOM     75  F   UNL A   1      35.243  34.517  28.828  1.00  0.00    -0.200 F 
ATOM     76  F   UNL A   1      33.706  34.536  31.079  1.00  0.00    -0.200 F 
ENDBRANCH  42  66
BRANCH  54  77
ATOM     77  C   UNL A   1      42.244  30.096  33.520  1.00  0.00     0.064 A 
ATOM     78  C   UNL A   1      41.786  28.770  33.425  1.00  0.00     0.173 A 
ATOM     79  C   UNL A   1      42.572  30.575  34.796  1.00  0.00     0.173 A 
ATOM     80  F   UNL A   1      41.555  28.201  32.235  1.00  0.00    -0.203 F 
ATOM     81  C   UNL A   1      41.607  27.987  34.564  1.00  0.00     0.198 A 
ATOM     82  C   UNL A   1      42.432  29.776  35.927  1.00  0.00     0.198 A 
ATOM     83  F   UNL A   1      43.069  31.814  34.944  1.00  0.00    -0.203 F 
ATOM     84  F   UNL A   1      41.141  26.734  34.450  1.00  0.00    -0.200 F 
ATOM     85  C   UNL A   1      41.935  28.488  35.812  1.00  0.00     0.200 A 
ATOM     86  F   UNL A   1      42.799  30.248  37.127  1.00  0.00    -0.200 F 
ATOM     87  F   UNL A   1      41.794  27.723  36.904  1.00  0.00    -0.200 F 
ENDBRANCH  54  77
ENDBRANCH  28  29
ENDBRANCH  20  23
ENDBRANCH  18  19
ENDBRANCH   1  18
TORSDOF 12
ENDMDL
MODEL 2
REMARK VINA RESULT:     -12.1      3.647      9.088
REMARK SMILES Cc1cc(C)n([C@H](C)[C@H](C)C(=O)NCCCNC(=O)c2ccc(-c3c4nc(c(-c5c(F)c(F)c(F)c(F)c5F)c5ccc([nH]5)c(-c5c(F)c(F)c(F)c(F)c5F)c5nc(c(-c6c(F)c(F)c(F)c(F)c6F)c6ccc3[nH]6)C=C5)C=C4)cc2)n1
REMARK SMILES IDX 15 1 14 2 13 3 11 4 12 5 9 7 10 8 7 9 8 10 6 11 1 12 2 13
REMARK SMILES IDX 3 14 83 15 4 16 5 17 16 18 17 19 18 20 19 22 20 23 21 24
REMARK SMILES IDX 82 25 22 26 81 27 23 28 24 29 25 30 75 31 26 32 80 33 74 34
REMARK SMILES IDX 76 35 27 36 79 37 73 38 72 39 28 41 60 42 40 43 59 44 41 45
REMARK SMILES IDX 44 46 58 47 77 48 42 49 43 50 57 52 78 53 45 54 29 55 30 56
REMARK SMILES IDX 38 57 31 58 32 59 36 60 39 61 33 62 34 63 37 64 35 65 61 66
REMARK SMILES IDX 62 67 70 68 63 69 64 70 68 71 71 72 65 73 66 74 69 75 67 76
REMARK SMILES IDX 46 77 47 78 55 79 48 80 49 81 53 82 56 83 50 84 51 85 54 86
REMARK SMILES IDX 52 87
REMARK H PARENT 13 6 17 21 76 40 44 51
REMARK Flexibility Score: inf
ROOT
ATOM      1  C   UNL A   1      32.649  30.222  27.166  1.00  0.00     0.042 C 
ENDROOT
BRANCH   1   2
ATOM      2  C   UNL A   1      31.851  30.276  25.872  1.00  0.00     0.117 C 
BRANCH   2   3
ATOM      3  N   UNL A   1      32.550  29.741  24.715  1.00  0.00    -0.356 N 
ATOM      4  C   UNL A   1      32.070  28.942  23.721  1.00  0.00     0.224 C 
ATOM      5  O   UNL A   1      32.793  28.734  22.744  1.00  0.00    -0.275 OA
ATOM      6  H   UNL A   1      33.500  29.988  24.640  1.00  0.00     0.163 HD
BRANCH   4   7
ATOM      7  C   UNL A   1      30.710  28.264  23.827  1.00  0.00     0.100 C 
ATOM      8  C   UNL A   1      29.924  28.560  22.535  1.00  0.00     0.020 C 
BRANCH   7   9
ATOM      9  C   UNL A   1      30.685  26.817  24.431  1.00  0.00     0.116 C 
ATOM     10  C   UNL A   1      29.346  26.089  24.204  1.00  0.00     0.034 C 
BRANCH   9  11
ATOM     11  N   UNL A   1      31.832  25.944  24.147  1.00  0.00    -0.266 N 
ATOM     12  C   UNL A   1      33.271  23.496  22.005  1.00  0.00     0.069 C 
ATOM     13  C   UNL A   1      32.934  24.453  23.086  1.00  0.00     0.060 A 
ATOM     14  C   UNL A   1      33.722  24.820  24.192  1.00  0.00     0.048 A 
ATOM     15  N   UNL A   1      31.781  25.129  23.065  1.00  0.00    -0.178 NA
ATOM     16  C   UNL A   1      32.985  25.764  24.880  1.00  0.00     0.036 A 
ATOM     17  C   UNL A   1      33.344  26.492  26.122  1.00  0.00     0.066 C 
ENDBRANCH   9  11
ENDBRANCH   7   9
ENDBRANCH   4   7
ENDBRANCH   2   3
ENDBRANCH   1   2
BRANCH   1  18
ATOM     18  C   UNL A   1      33.843  31.163  27.143  1.00  0.00     0.118 C 
BRANCH  18  19
ATOM     19  N   UNL A   1      33.913  32.023  28.325  1.00  0.00    -0.352 N 
ATOM     20  C   UNL A   1      34.881  32.036  29.314  1.00  0.00     0.251 C 
ATOM     21  H   UNL A   1      33.181  32.672  28.429  1.00  0.00     0.163 HD
ATOM     22  O   UNL A   1      34.707  32.592  30.374  1.00  0.00    -0.269 OA
BRANCH  20  23
ATOM     23  C   UNL A   1      36.133  31.308  29.036  1.00  0.00     0.039 A 
ATOM     24  C   UNL A   1      37.356  31.956  29.197  1.00  0.00     0.014 A 
ATOM     25  C   UNL A   1      36.062  29.945  28.756  1.00  0.00     0.014 A 
ATOM     26  C   UNL A   1      38.518  31.189  29.195  1.00  0.00     0.010 A 
ATOM     27  C   UNL A   1      37.205  29.176  28.860  1.00  0.00     0.010 A 
ATOM     28  C   UNL A   1      38.441  29.789  29.077  1.00  0.00    -0.014 A 
BRANCH  28  29
ATOM     29  C   UNL A   1      39.649  28.992  29.309  1.00  0.00     0.031 A 
ATOM     30  C   UNL A   1      40.018  28.752  30.737  1.00  0.00     0.074 A 
ATOM     31  C   UNL A   1      40.351  28.344  28.357  1.00  0.00     0.049 A 
ATOM     32  N   UNL A   1      41.065  29.185  31.363  1.00  0.00    -0.248 NA
ATOM     33  C   UNL A   1      39.091  27.992  31.587  1.00  0.00     0.031 C 
ATOM     34  C   UNL A   1      40.027  28.155  26.942  1.00  0.00     0.029 A 
ATOM     35  N   UNL A   1      41.504  27.628  28.505  1.00  0.00    -0.354 N 
ATOM     36  C   UNL A   1      41.019  28.637  32.644  1.00  0.00     0.074 A 
ATOM     37  C   UNL A   1      39.729  28.004  32.761  1.00  0.00     0.031 C 
ATOM     38  C   UNL A   1      40.836  27.209  26.416  1.00  0.00     0.029 A 
ATOM     39  C   UNL A   1      41.844  26.864  27.401  1.00  0.00     0.049 A 
ATOM     40  H   UNL A   1      42.048  27.653  29.326  1.00  0.00     0.167 HD
ATOM     41  C   UNL A   1      42.127  28.597  33.439  1.00  0.00     0.037 A 
ATOM     42  C   UNL A   1      42.880  26.001  27.294  1.00  0.00     0.037 A 
ATOM     43  C   UNL A   1      43.145  29.498  32.962  1.00  0.00     0.049 A 
ATOM     44  C   UNL A   1      43.885  26.370  28.316  1.00  0.00     0.074 A 
ATOM     45  C   UNL A   1      43.218  30.859  32.738  1.00  0.00     0.029 A 
ATOM     46  N   UNL A   1      44.231  28.965  32.314  1.00  0.00    -0.354 N 
ATOM     47  N   UNL A   1      44.612  27.451  28.272  1.00  0.00    -0.248 NA
ATOM     48  C   UNL A   1      43.831  25.708  29.609  1.00  0.00     0.031 C 
ATOM     49  C   UNL A   1      44.028  30.996  31.569  1.00  0.00     0.029 A 
ATOM     50  C   UNL A   1      44.435  29.717  31.189  1.00  0.00     0.049 A 
ATOM     51  H   UNL A   1      44.762  28.188  32.604  1.00  0.00     0.167 HD
ATOM     52  C   UNL A   1      44.733  27.843  29.594  1.00  0.00     0.074 A 
ATOM     53  C   UNL A   1      44.356  26.670  30.372  1.00  0.00     0.031 C 
ATOM     54  C   UNL A   1      44.854  29.162  29.926  1.00  0.00     0.037 A 
BRANCH  41  55
ATOM     55  C   UNL A   1      42.444  27.511  34.445  1.00  0.00     0.064 A 
ATOM     56  C   UNL A   1      43.031  26.307  33.994  1.00  0.00     0.173 A 
ATOM     57  C   UNL A   1      41.914  27.472  35.750  1.00  0.00     0.173 A 
ATOM     58  F   UNL A   1      43.564  26.221  32.766  1.00  0.00    -0.203 F 
ATOM     59  C   UNL A   1      42.991  25.133  34.753  1.00  0.00     0.198 A 
ATOM     60  C   UNL A   1      41.925  26.312  36.526  1.00  0.00     0.198 A 
ATOM     61  F   UNL A   1      41.264  28.514  36.284  1.00  0.00    -0.203 F 
ATOM     62  F   UNL A   1      43.432  23.984  34.224  1.00  0.00    -0.200 F 
ATOM     63  C   UNL A   1      42.427  25.135  36.014  1.00  0.00     0.200 A 
ATOM     64  F   UNL A   1      41.362  26.329  37.742  1.00  0.00    -0.200 F 
ATOM     65  F   UNL A   1      42.323  23.998  36.715  1.00  0.00    -0.200 F 
ENDBRANCH  41  55
BRANCH  42  66
ATOM     66  C   UNL A   1      42.980  24.767  26.489  1.00  0.00     0.064 A 
ATOM     67  C   UNL A   1      43.911  24.655  25.445  1.00  0.00     0.173 A 
ATOM     68  C   UNL A   1      42.357  23.576  26.911  1.00  0.00     0.173 A 
ATOM     69  F   UNL A   1      44.573  25.737  25.011  1.00  0.00    -0.203 F 
ATOM     70  C   UNL A   1      44.230  23.417  24.882  1.00  0.00     0.198 A 
ATOM     71  C   UNL A   1      42.669  22.342  26.341  1.00  0.00     0.198 A 
ATOM     72  F   UNL A   1      41.506  23.576  27.947  1.00  0.00    -0.203 F 
ATOM     73  F   UNL A   1      45.176  23.339  23.936  1.00  0.00    -0.200 F 
ATOM     74  C   UNL A   1      43.618  22.260  25.339  1.00  0.00     0.200 A 
ATOM     75  F   UNL A   1      42.095  21.228  26.814  1.00  0.00    -0.200 F 
ATOM     76  F   UNL A   1      43.974  21.067  24.846  1.00  0.00    -0.200 F 
ENDBRANCH  42  66
BRANCH  54  77
ATOM     77  C   UNL A   1      45.205  30.132  28.834  1.00  0.00     0.064 A 
ATOM     78  C   UNL A   1      44.280  30.681  27.929  1.00  0.00     0.173 A 
ATOM     79  C   UNL A   1      46.523  30.608  28.776  1.00  0.00     0.173 A 
ATOM     80  F   UNL A   1      42.981  30.363  27.989  1.00  0.00    -0.203 F 
ATOM     81  C   UNL A   1      44.675  31.615  26.973  1.00  0.00     0.198 A 
ATOM     82  C   UNL A   1      46.905  31.571  27.847  1.00  0.00     0.198 A 
ATOM     83  F   UNL A   1      47.439  30.164  29.652  1.00  0.00    -0.203 F 
ATOM     84  F   UNL A   1      43.779  32.102  26.100  1.00  0.00    -0.200 F 
ATOM     85  C   UNL A   1      45.985  32.062  26.936  1.00  0.00     0.200 A 
ATOM     86  F   UNL A   1      48.162  32.039  27.849  1.00  0.00    -0.200 F 
ATOM     87  F   UNL A   1      46.357  32.985  26.036  1.00  0.00    -0.200 F 
ENDBRANCH  54  77
ENDBRANCH  28  29
ENDBRANCH  20  23
ENDBRANCH  18  19
ENDBRANCH   1  18
TORSDOF 12
ENDMDL
MODEL 3
REMARK VINA RESULT:     -12.1      3.697      9.013
REMARK SMILES Cc1cc(C)n([C@H](C)[C@H](C)C(=O)NCCCNC(=O)c2ccc(-c3c4nc(c(-c5c(F)c(F)c(F)c(F)c5F)c5ccc([nH]5)c(-c5c(F)c(F)c(F)c(F)c5F)c5nc(c(-c6c(F)c(F)c(F)c(F)c6F)c6ccc3[nH]6)C=C5)C=C4)cc2)n1
REMARK SMILES IDX 15 1 14 2 13 3 11 4 12 5 9 7 10 8 7 9 8 10 6 11 1 12 2 13
REMARK SMILES IDX 3 14 83 15 4 16 5 17 16 18 17 19 18 20 19 22 20 23 21 24
REMARK SMILES IDX 82 25 22 26 81 27 23 28 24 29 25 30 75 31 26 32 80 33 74 34
REMARK SMILES IDX 76 35 27 36 79 37 73 38 72 39 28 41 60 42 40 43 59 44 41 45
REMARK SMILES IDX 44 46 58 47 77 48 42 49 43 50 57 52 78 53 45 54 29 55 30 56
REMARK SMILES IDX 38 57 31 58 32 59 36 60 39 61 33 62 34 63 37 64 35 65 61 66
REMARK SMILES IDX 62 67 70 68 63 69 64 70 68 71 71 72 65 73 66 74 69 75 67 76
REMARK SMILES IDX 46 77 47 78 55 79 48 80 49 81 53 82 56 83 50 84 51 85 54 86
REMARK SMILES IDX 52 87
REMARK H PARENT 13 6 17 21 76 40 44 51
REMARK Flexibility Score: inf
ROOT
ATOM      1  C   UNL A   1      32.461  29.809  27.020  1.00  0.00     0.042 C 
ENDROOT
BRANCH   1   2
ATOM      2  C   UNL A   1      32.658  28.319  26.781  1.00  0.00     0.117 C 
BRANCH   2   3
ATOM      3  N   UNL A   1      31.431  27.541  26.812  1.00  0.00    -0.356 N 
ATOM      4  C   UNL A   1      31.163  26.345  26.216  1.00  0.00     0.224 C 
ATOM      5  O   UNL A   1      30.107  25.777  26.505  1.00  0.00    -0.275 OA
ATOM      6  H   UNL A   1      30.694  27.930  27.335  1.00  0.00     0.163 HD
BRANCH   4   7
ATOM      7  C   UNL A   1      32.096  25.746  25.171  1.00  0.00     0.100 C 
ATOM      8  C   UNL A   1      32.433  24.305  25.599  1.00  0.00     0.020 C 
BRANCH   7   9
ATOM      9  C   UNL A   1      31.762  26.046  23.668  1.00  0.00     0.116 C 
ATOM     10  C   UNL A   1      31.104  24.854  22.945  1.00  0.00     0.034 C 
BRANCH   9  11
ATOM     11  N   UNL A   1      31.078  27.310  23.365  1.00  0.00    -0.266 N 
ATOM     12  C   UNL A   1      27.989  28.981  22.805  1.00  0.00     0.069 C 
ATOM     13  C   UNL A   1      29.407  28.574  22.948  1.00  0.00     0.060 A 
ATOM     14  C   UNL A   1      30.553  29.384  22.854  1.00  0.00     0.048 A 
ATOM     15  N   UNL A   1      29.727  27.311  23.248  1.00  0.00    -0.178 NA
ATOM     16  C   UNL A   1      31.624  28.547  23.100  1.00  0.00     0.036 A 
ATOM     17  C   UNL A   1      33.069  28.882  23.133  1.00  0.00     0.066 C 
ENDBRANCH   9  11
ENDBRANCH   7   9
ENDBRANCH   4   7
ENDBRANCH   2   3
ENDBRANCH   1   2
BRANCH   1  18
ATOM     18  C   UNL A   1      33.783  30.557  27.099  1.00  0.00     0.118 C 
BRANCH  18  19
ATOM     19  N   UNL A   1      33.802  31.566  28.159  1.00  0.00    -0.352 N 
ATOM     20  C   UNL A   1      34.786  31.790  29.105  1.00  0.00     0.251 C 
ATOM     21  H   UNL A   1      33.018  32.159  28.203  1.00  0.00     0.163 HD
ATOM     22  O   UNL A   1      34.588  32.463  30.090  1.00  0.00    -0.269 OA
BRANCH  20  23
ATOM     23  C   UNL A   1      36.091  31.142  28.880  1.00  0.00     0.039 A 
ATOM     24  C   UNL A   1      37.260  31.791  29.273  1.00  0.00     0.014 A 
ATOM     25  C   UNL A   1      36.110  29.830  28.411  1.00  0.00     0.014 A 
ATOM     26  C   UNL A   1      38.446  31.062  29.304  1.00  0.00     0.010 A 
ATOM     27  C   UNL A   1      37.265  29.083  28.544  1.00  0.00     0.010 A 
ATOM     28  C   UNL A   1      38.441  29.691  28.988  1.00  0.00    -0.014 A 
BRANCH  28  29
ATOM     29  C   UNL A   1      39.648  28.900  29.251  1.00  0.00     0.031 A 
ATOM     30  C   UNL A   1      39.997  28.686  30.688  1.00  0.00     0.074 A 
ATOM     31  C   UNL A   1      40.365  28.238  28.320  1.00  0.00     0.049 A 
ATOM     32  N   UNL A   1      41.033  29.131  31.321  1.00  0.00    -0.248 NA
ATOM     33  C   UNL A   1      39.059  27.938  31.537  1.00  0.00     0.031 C 
ATOM     34  C   UNL A   1      40.061  28.025  26.904  1.00  0.00     0.029 A 
ATOM     35  N   UNL A   1      41.517  27.527  28.496  1.00  0.00    -0.354 N 
ATOM     36  C   UNL A   1      40.969  28.605  32.610  1.00  0.00     0.074 A 
ATOM     37  C   UNL A   1      39.679  27.971  32.719  1.00  0.00     0.031 C 
ATOM     38  C   UNL A   1      40.880  27.072  26.406  1.00  0.00     0.029 A 
ATOM     39  C   UNL A   1      41.875  26.745  27.410  1.00  0.00     0.049 A 
ATOM     40  H   UNL A   1      42.049  27.567  29.325  1.00  0.00     0.167 HD
ATOM     41  C   UNL A   1      42.066  28.580  33.422  1.00  0.00     0.037 A 
ATOM     42  C   UNL A   1      42.914  25.883  27.333  1.00  0.00     0.037 A 
ATOM     43  C   UNL A   1      43.089  29.475  32.945  1.00  0.00     0.049 A 
ATOM     44  C   UNL A   1      43.903  26.272  28.363  1.00  0.00     0.074 A 
ATOM     45  C   UNL A   1      43.163  30.833  32.699  1.00  0.00     0.029 A 
ATOM     46  N   UNL A   1      44.185  28.934  32.322  1.00  0.00    -0.354 N 
ATOM     47  N   UNL A   1      44.628  27.353  28.312  1.00  0.00    -0.248 NA
ATOM     48  C   UNL A   1      43.831  25.631  29.667  1.00  0.00     0.031 C 
ATOM     49  C   UNL A   1      43.989  30.952  31.540  1.00  0.00     0.029 A 
ATOM     50  C   UNL A   1      44.404  29.668  31.187  1.00  0.00     0.049 A 
ATOM     51  H   UNL A   1      44.714  28.163  32.632  1.00  0.00     0.167 HD
ATOM     52  C   UNL A   1      44.729  27.768  29.628  1.00  0.00     0.074 A 
ATOM     53  C   UNL A   1      44.343  26.607  30.421  1.00  0.00     0.031 C 
ATOM     54  C   UNL A   1      44.843  29.092  29.940  1.00  0.00     0.037 A 
BRANCH  41  55
ATOM     55  C   UNL A   1      42.371  27.513  34.451  1.00  0.00     0.064 A 
ATOM     56  C   UNL A   1      42.971  26.304  34.030  1.00  0.00     0.173 A 
ATOM     57  C   UNL A   1      41.818  27.492  35.747  1.00  0.00     0.173 A 
ATOM     58  F   UNL A   1      43.526  26.202  32.813  1.00  0.00    -0.203 F 
ATOM     59  C   UNL A   1      42.923  25.142  34.807  1.00  0.00     0.198 A 
ATOM     60  C   UNL A   1      41.821  26.344  36.541  1.00  0.00     0.198 A 
ATOM     61  F   UNL A   1      41.154  28.539  36.252  1.00  0.00    -0.203 F 
ATOM     62  F   UNL A   1      43.379  23.987  34.303  1.00  0.00    -0.200 F 
ATOM     63  C   UNL A   1      42.338  25.161  36.057  1.00  0.00     0.200 A 
ATOM     64  F   UNL A   1      41.237  26.377  37.747  1.00  0.00    -0.200 F 
ATOM     65  F   UNL A   1      42.226  24.035  36.774  1.00  0.00    -0.200 F 
ENDBRANCH  41  55
BRANCH  42  66
ATOM     66  C   UNL A   1      43.028  24.636  26.551  1.00  0.00     0.064 A 
ATOM     67  C   UNL A   1      43.863  24.558  25.426  1.00  0.00     0.173 A 
ATOM     68  C   UNL A   1      42.534  23.417  27.057  1.00  0.00     0.173 A 
ATOM     69  F   UNL A   1      44.402  25.671  24.907  1.00  0.00    -0.203 F 
ATOM     70  C   UNL A   1      44.217  23.330  24.864  1.00  0.00     0.198 A 
ATOM     71  C   UNL A   1      42.880  22.192  26.488  1.00  0.00     0.198 A 
ATOM     72  F   UNL A   1      41.785  23.388  28.169  1.00  0.00    -0.203 F 
ATOM     73  F   UNL A   1      45.075  23.290  23.834  1.00  0.00    -0.200 F 
ATOM     74  C   UNL A   1      43.736  22.147  25.403  1.00  0.00     0.200 A 
ATOM     75  F   UNL A   1      42.435  21.055  27.038  1.00  0.00    -0.200 F 
ATOM     76  F   UNL A   1      44.130  20.968  24.905  1.00  0.00    -0.200 F 
ENDBRANCH  42  66
BRANCH  54  77
ATOM     77  C   UNL A   1      45.208  30.045  28.837  1.00  0.00     0.064 A 
ATOM     78  C   UNL A   1      44.284  30.637  27.958  1.00  0.00     0.173 A 
ATOM     79  C   UNL A   1      46.545  30.458  28.741  1.00  0.00     0.173 A 
ATOM     80  F   UNL A   1      42.974  30.380  28.055  1.00  0.00    -0.203 F 
ATOM     81  C   UNL A   1      44.695  31.550  26.989  1.00  0.00     0.198 A 
ATOM     82  C   UNL A   1      46.945  31.402  27.800  1.00  0.00     0.198 A 
ATOM     83  F   UNL A   1      47.463  29.971  29.591  1.00  0.00    -0.203 F 
ATOM     84  F   UNL A   1      43.798  32.079  26.142  1.00  0.00    -0.200 F 
ATOM     85  C   UNL A   1      46.023  31.935  26.914  1.00  0.00     0.200 A 
ATOM     86  F   UNL A   1      48.221  31.810  27.765  1.00  0.00    -0.200 F 
ATOM     87  F   UNL A   1      46.412  32.839  26.003  1.00  0.00    -0.200 F 
ENDBRANCH  54  77
ENDBRANCH  28  29
ENDBRANCH  20  23
ENDBRANCH  18  19
ENDBRANCH   1  18
TORSDOF 12
ENDMDL
