MODEL 1
REMARK VINA RESULT:     -12.0      0.000      0.000
REMARK SMILES CC(C)[C@@H](C)NC(=O)N1CCO[C@H](CC(=O)NCCCNC(=O)c2ccc(-c3c4nc(c(-c5c(F)c(F)c(F)c(F)c5F)c5ccc([nH]5)c(-c5c(F)c(F)c(F)c(F)c5F)c5nc(c(-c6c(F)c(F)c(F)c(F)c6F)c6ccc3[nH]6)C=C5)C=C4)cc2)C1
REMARK SMILES IDX 18 1 17 2 15 3 16 4 14 6 13 7 9 8 10 9 87 10 11 11 12 12
REMARK SMILES IDX 7 13 6 14 8 16 4 17 5 18 2 19 1 20 3 21 19 22 20 23 21 24
REMARK SMILES IDX 22 25 23 27 24 28 25 29 86 30 26 31 85 32 27 33 28 34 29 35
REMARK SMILES IDX 79 36 30 37 84 38 78 39 80 40 31 41 83 42 77 43 76 44 32 46
REMARK SMILES IDX 64 47 44 48 63 49 45 50 48 51 62 52 81 53 46 54 47 55 61 57
REMARK SMILES IDX 82 58 49 59 33 60 34 61 42 62 35 63 36 64 40 65 43 66 37 67
REMARK SMILES IDX 38 68 41 69 39 70 65 71 66 72 74 73 67 74 68 75 72 76 75 77
REMARK SMILES IDX 69 78 70 79 73 80 71 81 50 82 51 83 59 84 52 85 53 86 57 87
REMARK SMILES IDX 60 88 54 89 55 90 58 91 56 92
REMARK H PARENT 17 5 6 15 21 26 80 45 48 56
REMARK Flexibility Score: inf
ROOT
ATOM      1  C   UNL A   1      31.479  31.118  25.728  1.00  0.00     0.117 C 
ENDROOT
BRANCH   1   2
ATOM      2  N   UNL A   1      30.372  31.216  24.791  1.00  0.00    -0.356 N 
ATOM      3  C   UNL A   1      29.957  30.327  23.848  1.00  0.00     0.222 C 
ATOM      4  O   UNL A   1      29.022  30.639  23.112  1.00  0.00    -0.275 OA
ATOM      5  H   UNL A   1      29.847  32.048  24.847  1.00  0.00     0.163 HD
BRANCH   3   6
ATOM      6  C   UNL A   1      30.638  28.987  23.738  1.00  0.00     0.133 C 
BRANCH   6   7
ATOM      7  C   UNL A   1      29.754  27.949  23.044  1.00  0.00     0.147 C 
ATOM      8  N   UNL A   1      30.412  25.951  24.315  1.00  0.00    -0.320 N 
ATOM      9  C   UNL A   1      31.066  25.405  23.126  1.00  0.00     0.150 C 
ATOM     10  C   UNL A   1      29.290  26.828  23.994  1.00  0.00     0.154 C 
ATOM     11  C   UNL A   1      31.523  26.548  22.216  1.00  0.00     0.182 C 
ATOM     12  O   UNL A   1      30.424  27.413  21.878  1.00  0.00    -0.374 OA
BRANCH   8  13
ATOM     13  C   UNL A   1      30.597  25.567  25.608  1.00  0.00     0.317 C 
ATOM     14  N   UNL A   1      31.786  25.759  26.220  1.00  0.00    -0.335 N 
ATOM     15  H   UNL A   1      31.925  25.195  27.014  1.00  0.00     0.165 HD
ATOM     16  O   UNL A   1      29.688  25.084  26.285  1.00  0.00    -0.249 OA
BRANCH  14  17
ATOM     17  C   UNL A   1      32.904  26.652  25.917  1.00  0.00     0.083 C 
ATOM     18  C   UNL A   1      34.133  25.785  25.638  1.00  0.00     0.031 C 
BRANCH  17  19
ATOM     19  C   UNL A   1      33.147  27.666  27.069  1.00  0.00     0.005 C 
ATOM     20  C   UNL A   1      34.058  28.817  26.620  1.00  0.00     0.009 C 
ATOM     21  C   UNL A   1      31.839  28.269  27.595  1.00  0.00     0.009 C 
ENDBRANCH  17  19
ENDBRANCH  14  17
ENDBRANCH   8  13
ENDBRANCH   6   7
ENDBRANCH   3   6
ENDBRANCH   1   2
BRANCH   1  22
ATOM     22  C   UNL A   1      31.336  32.101  26.886  1.00  0.00     0.042 C 
BRANCH  22  23
ATOM     23  C   UNL A   1      32.626  32.823  27.254  1.00  0.00     0.118 C 
BRANCH  23  24
ATOM     24  N   UNL A   1      32.407  34.220  27.595  1.00  0.00    -0.352 N 
ATOM     25  C   UNL A   1      33.007  34.996  28.555  1.00  0.00     0.251 C 
ATOM     26  H   UNL A   1      31.725  34.680  27.055  1.00  0.00     0.163 HD
ATOM     27  O   UNL A   1      32.548  36.108  28.814  1.00  0.00    -0.269 OA
BRANCH  25  28
ATOM     28  C   UNL A   1      34.183  34.498  29.300  1.00  0.00     0.039 A 
ATOM     29  C   UNL A   1      33.979  33.869  30.532  1.00  0.00     0.014 A 
ATOM     30  C   UNL A   1      35.479  34.658  28.803  1.00  0.00     0.014 A 
ATOM     31  C   UNL A   1      35.066  33.335  31.226  1.00  0.00     0.010 A 
ATOM     32  C   UNL A   1      36.554  34.062  29.460  1.00  0.00     0.010 A 
ATOM     33  C   UNL A   1      36.357  33.388  30.675  1.00  0.00    -0.014 A 
BRANCH  33  34
ATOM     34  C   UNL A   1      37.502  32.713  31.335  1.00  0.00     0.031 A 
ATOM     35  C   UNL A   1      38.197  31.561  30.670  1.00  0.00     0.074 A 
ATOM     36  C   UNL A   1      37.867  33.097  32.573  1.00  0.00     0.049 A 
ATOM     37  N   UNL A   1      39.168  30.807  31.121  1.00  0.00    -0.248 NA
ATOM     38  C   UNL A   1      37.724  31.190  29.327  1.00  0.00     0.031 C 
ATOM     39  C   UNL A   1      37.240  34.171  33.343  1.00  0.00     0.029 A 
ATOM     40  N   UNL A   1      38.847  32.618  33.408  1.00  0.00    -0.354 N 
ATOM     41  C   UNL A   1      39.414  29.870  30.127  1.00  0.00     0.074 A 
ATOM     42  C   UNL A   1      38.458  30.117  29.069  1.00  0.00     0.031 C 
ATOM     43  C   UNL A   1      37.862  34.286  34.527  1.00  0.00     0.029 A 
ATOM     44  C   UNL A   1      38.903  33.266  34.617  1.00  0.00     0.049 A 
ATOM     45  H   UNL A   1      39.450  31.880  33.163  1.00  0.00     0.167 HD
ATOM     46  C   UNL A   1      40.364  28.905  30.093  1.00  0.00     0.037 A 
ATOM     47  C   UNL A   1      39.697  33.056  35.684  1.00  0.00     0.037 A 
ATOM     48  C   UNL A   1      41.324  28.674  31.141  1.00  0.00     0.049 A 
ATOM     49  C   UNL A   1      40.723  31.961  35.632  1.00  0.00     0.074 A 
ATOM     50  C   UNL A   1      42.376  27.774  31.166  1.00  0.00     0.029 A 
ATOM     51  N   UNL A   1      41.343  29.342  32.356  1.00  0.00    -0.354 N 
ATOM     52  N   UNL A   1      40.999  31.130  34.656  1.00  0.00    -0.248 NA
ATOM     53  C   UNL A   1      41.549  31.770  36.833  1.00  0.00     0.031 C 
ATOM     54  C   UNL A   1      42.999  27.863  32.416  1.00  0.00     0.029 A 
ATOM     55  C   UNL A   1      42.365  28.850  33.154  1.00  0.00     0.049 A 
ATOM     56  H   UNL A   1      40.722  30.061  32.616  1.00  0.00     0.167 HD
ATOM     57  C   UNL A   1      42.035  30.330  35.116  1.00  0.00     0.074 A 
ATOM     58  C   UNL A   1      42.353  30.787  36.453  1.00  0.00     0.031 C 
ATOM     59  C   UNL A   1      42.662  29.306  34.487  1.00  0.00     0.037 A 
BRANCH  46  60
ATOM     60  C   UNL A   1      40.410  28.022  28.880  1.00  0.00     0.064 A 
ATOM     61  C   UNL A   1      39.706  26.808  28.827  1.00  0.00     0.173 A 
ATOM     62  C   UNL A   1      41.143  28.404  27.747  1.00  0.00     0.173 A 
ATOM     63  F   UNL A   1      38.997  26.392  29.887  1.00  0.00    -0.203 F 
ATOM     64  C   UNL A   1      39.762  25.996  27.697  1.00  0.00     0.198 A 
ATOM     65  C   UNL A   1      41.172  27.603  26.608  1.00  0.00     0.198 A 
ATOM     66  F   UNL A   1      41.828  29.558  27.741  1.00  0.00    -0.203 F 
ATOM     67  F   UNL A   1      39.123  24.817  27.689  1.00  0.00    -0.200 F 
ATOM     68  C   UNL A   1      40.490  26.397  26.588  1.00  0.00     0.200 A 
ATOM     69  F   UNL A   1      41.866  27.997  25.531  1.00  0.00    -0.200 F 
ATOM     70  F   UNL A   1      40.540  25.615  25.500  1.00  0.00    -0.200 F 
ENDBRANCH  46  60
BRANCH  47  71
ATOM     71  C   UNL A   1      39.560  33.920  36.884  1.00  0.00     0.064 A 
ATOM     72  C   UNL A   1      40.190  35.171  36.942  1.00  0.00     0.173 A 
ATOM     73  C   UNL A   1      38.787  33.525  37.985  1.00  0.00     0.173 A 
ATOM     74  F   UNL A   1      40.957  35.582  35.921  1.00  0.00    -0.203 F 
ATOM     75  C   UNL A   1      40.058  35.990  38.060  1.00  0.00     0.198 A 
ATOM     76  C   UNL A   1      38.635  34.356  39.093  1.00  0.00     0.198 A 
ATOM     77  F   UNL A   1      38.161  32.340  37.975  1.00  0.00    -0.203 F 
ATOM     78  F   UNL A   1      40.698  37.168  38.104  1.00  0.00    -0.200 F 
ATOM     79  C   UNL A   1      39.276  35.587  39.131  1.00  0.00     0.200 A 
ATOM     80  F   UNL A   1      37.867  33.969  40.119  1.00  0.00    -0.200 F 
ATOM     81  F   UNL A   1      39.141  36.380  40.203  1.00  0.00    -0.200 F 
ENDBRANCH  47  71
BRANCH  59  82
ATOM     82  C   UNL A   1      43.761  28.613  35.238  1.00  0.00     0.064 A 
ATOM     83  C   UNL A   1      43.500  27.506  36.059  1.00  0.00     0.173 A 
ATOM     84  C   UNL A   1      45.093  29.036  35.108  1.00  0.00     0.173 A 
ATOM     85  F   UNL A   1      42.241  27.075  36.231  1.00  0.00    -0.203 F 
ATOM     86  C   UNL A   1      44.529  26.861  36.739  1.00  0.00     0.198 A 
ATOM     87  C   UNL A   1      46.123  28.371  35.766  1.00  0.00     0.198 A 
ATOM     88  F   UNL A   1      45.395  30.087  34.331  1.00  0.00    -0.203 F 
ATOM     89  F   UNL A   1      44.252  25.833  37.552  1.00  0.00    -0.200 F 
ATOM     90  C   UNL A   1      45.841  27.289  36.586  1.00  0.00     0.200 A 
ATOM     91  F   UNL A   1      47.390  28.779  35.609  1.00  0.00    -0.200 F 
ATOM     92  F   UNL A   1      46.831  26.662  37.234  1.00  0.00    -0.200 F 
ENDBRANCH  59  82
ENDBRANCH  33  34
ENDBRANCH  25  28
ENDBRANCH  23  24
ENDBRANCH  22  23
ENDBRANCH   1  22
TORSDOF 14
ENDMDL
MODEL 2
REMARK VINA RESULT:     -11.9      1.074      2.937
REMARK SMILES CC(C)[C@@H](C)NC(=O)N1CCO[C@H](CC(=O)NCCCNC(=O)c2ccc(-c3c4nc(c(-c5c(F)c(F)c(F)c(F)c5F)c5ccc([nH]5)c(-c5c(F)c(F)c(F)c(F)c5F)c5nc(c(-c6c(F)c(F)c(F)c(F)c6F)c6ccc3[nH]6)C=C5)C=C4)cc2)C1
REMARK SMILES IDX 18 1 17 2 15 3 16 4 14 6 13 7 9 8 10 9 87 10 11 11 12 12
REMARK SMILES IDX 7 13 6 14 8 16 4 17 5 18 2 19 1 20 3 21 19 22 20 23 21 24
REMARK SMILES IDX 22 25 23 27 24 28 25 29 86 30 26 31 85 32 27 33 28 34 29 35
REMARK SMILES IDX 79 36 30 37 84 38 78 39 80 40 31 41 83 42 77 43 76 44 32 46
REMARK SMILES IDX 64 47 44 48 63 49 45 50 48 51 62 52 81 53 46 54 47 55 61 57
REMARK SMILES IDX 82 58 49 59 33 60 34 61 42 62 35 63 36 64 40 65 43 66 37 67
REMARK SMILES IDX 38 68 41 69 39 70 65 71 66 72 74 73 67 74 68 75 72 76 75 77
REMARK SMILES IDX 69 78 70 79 73 80 71 81 50 82 51 83 59 84 52 85 53 86 57 87
REMARK SMILES IDX 60 88 54 89 55 90 58 91 56 92
REMARK H PARENT 17 5 6 15 21 26 80 45 48 56
REMARK Flexibility Score: inf
ROOT
ATOM      1  C   UNL A   1      31.655  30.665  26.237  1.00  0.00     0.117 C 
ENDROOT
BRANCH   1   2
ATOM      2  N   UNL A   1      32.920  30.152  26.734  1.00  0.00    -0.356 N 
ATOM      3  C   UNL A   1      33.434  28.894  26.651  1.00  0.00     0.222 C 
ATOM      4  O   UNL A   1      34.511  28.659  27.198  1.00  0.00    -0.275 OA
ATOM      5  H   UNL A   1      33.487  30.810  27.198  1.00  0.00     0.163 HD
BRANCH   3   6
ATOM      6  C   UNL A   1      32.686  27.833  25.886  1.00  0.00     0.133 C 
BRANCH   6   7
ATOM      7  C   UNL A   1      33.592  26.668  25.485  1.00  0.00     0.147 C 
ATOM      8  N   UNL A   1      32.399  25.910  23.475  1.00  0.00    -0.320 N 
ATOM      9  C   UNL A   1      32.017  24.677  24.162  1.00  0.00     0.150 C 
ATOM     10  C   UNL A   1      33.660  26.462  23.960  1.00  0.00     0.154 C 
ATOM     11  C   UNL A   1      31.947  24.925  25.670  1.00  0.00     0.182 C 
ATOM     12  O   UNL A   1      33.189  25.456  26.167  1.00  0.00    -0.374 OA
BRANCH   8  13
ATOM     13  C   UNL A   1      31.842  26.434  22.348  1.00  0.00     0.317 C 
ATOM     14  N   UNL A   1      30.649  27.065  22.400  1.00  0.00    -0.335 N 
ATOM     15  H   UNL A   1      30.193  27.134  21.531  1.00  0.00     0.165 HD
ATOM     16  O   UNL A   1      32.416  26.403  21.258  1.00  0.00    -0.249 OA
BRANCH  14  17
ATOM     17  C   UNL A   1      29.912  27.665  23.511  1.00  0.00     0.083 C 
ATOM     18  C   UNL A   1      28.766  26.721  23.877  1.00  0.00     0.031 C 
BRANCH  17  19
ATOM     19  C   UNL A   1      29.409  29.092  23.153  1.00  0.00     0.005 C 
ATOM     20  C   UNL A   1      30.222  29.700  22.002  1.00  0.00     0.009 C 
ATOM     21  C   UNL A   1      27.929  29.100  22.751  1.00  0.00     0.009 C 
ENDBRANCH  17  19
ENDBRANCH  14  17
ENDBRANCH   8  13
ENDBRANCH   6   7
ENDBRANCH   3   6
ENDBRANCH   1   2
BRANCH   1  22
ATOM     22  C   UNL A   1      31.495  32.157  26.515  1.00  0.00     0.042 C 
BRANCH  22  23
ATOM     23  C   UNL A   1      32.672  32.784  27.253  1.00  0.00     0.118 C 
BRANCH  23  24
ATOM     24  N   UNL A   1      32.430  34.172  27.614  1.00  0.00    -0.352 N 
ATOM     25  C   UNL A   1      33.004  34.938  28.596  1.00  0.00     0.251 C 
ATOM     26  H   UNL A   1      31.751  34.632  27.071  1.00  0.00     0.163 HD
ATOM     27  O   UNL A   1      32.527  36.040  28.868  1.00  0.00    -0.269 OA
BRANCH  25  28
ATOM     28  C   UNL A   1      34.174  34.443  29.352  1.00  0.00     0.039 A 
ATOM     29  C   UNL A   1      33.963  33.842  30.598  1.00  0.00     0.014 A 
ATOM     30  C   UNL A   1      35.472  34.576  28.853  1.00  0.00     0.014 A 
ATOM     31  C   UNL A   1      35.043  33.310  31.303  1.00  0.00     0.010 A 
ATOM     32  C   UNL A   1      36.539  33.982  29.523  1.00  0.00     0.010 A 
ATOM     33  C   UNL A   1      36.334  33.336  30.751  1.00  0.00    -0.014 A 
BRANCH  33  34
ATOM     34  C   UNL A   1      37.471  32.661  31.426  1.00  0.00     0.031 A 
ATOM     35  C   UNL A   1      38.160  31.495  30.780  1.00  0.00     0.074 A 
ATOM     36  C   UNL A   1      37.833  33.059  32.660  1.00  0.00     0.049 A 
ATOM     37  N   UNL A   1      39.124  30.740  31.246  1.00  0.00    -0.248 NA
ATOM     38  C   UNL A   1      37.690  31.109  29.440  1.00  0.00     0.031 C 
ATOM     39  C   UNL A   1      37.211  34.149  33.413  1.00  0.00     0.029 A 
ATOM     40  N   UNL A   1      38.805  32.584  33.506  1.00  0.00    -0.354 N 
ATOM     41  C   UNL A   1      39.367  29.788  30.266  1.00  0.00     0.074 A 
ATOM     42  C   UNL A   1      38.418  30.028  29.200  1.00  0.00     0.031 C 
ATOM     43  C   UNL A   1      37.828  34.274  34.598  1.00  0.00     0.029 A 
ATOM     44  C   UNL A   1      38.861  33.248  34.706  1.00  0.00     0.049 A 
ATOM     45  H   UNL A   1      39.404  31.838  33.274  1.00  0.00     0.167 HD
ATOM     46  C   UNL A   1      40.309  28.816  30.249  1.00  0.00     0.037 A 
ATOM     47  C   UNL A   1      39.649  33.047  35.780  1.00  0.00     0.037 A 
ATOM     48  C   UNL A   1      41.263  28.591  31.305  1.00  0.00     0.049 A 
ATOM     49  C   UNL A   1      40.667  31.943  35.747  1.00  0.00     0.074 A 
ATOM     50  C   UNL A   1      42.308  27.684  31.346  1.00  0.00     0.029 A 
ATOM     51  N   UNL A   1      41.281  29.276  32.511  1.00  0.00    -0.354 N 
ATOM     52  N   UNL A   1      40.941  31.098  34.784  1.00  0.00    -0.248 NA
ATOM     53  C   UNL A   1      41.485  31.763  36.955  1.00  0.00     0.031 C 
ATOM     54  C   UNL A   1      42.926  27.785  32.598  1.00  0.00     0.029 A 
ATOM     55  C   UNL A   1      42.296  28.786  33.319  1.00  0.00     0.049 A 
ATOM     56  H   UNL A   1      40.664  30.002  32.757  1.00  0.00     0.167 HD
ATOM     57  C   UNL A   1      41.968  30.295  35.260  1.00  0.00     0.074 A 
ATOM     58  C   UNL A   1      42.284  30.769  36.592  1.00  0.00     0.031 C 
ATOM     59  C   UNL A   1      42.591  29.258  34.648  1.00  0.00     0.037 A 
BRANCH  46  60
ATOM     60  C   UNL A   1      40.354  27.915  29.048  1.00  0.00     0.064 A 
ATOM     61  C   UNL A   1      41.128  28.232  27.921  1.00  0.00     0.173 A 
ATOM     62  C   UNL A   1      39.637  26.710  29.033  1.00  0.00     0.173 A 
ATOM     63  F   UNL A   1      41.825  29.377  27.880  1.00  0.00    -0.203 F 
ATOM     64  C   UNL A   1      41.156  27.390  26.811  1.00  0.00     0.198 A 
ATOM     65  C   UNL A   1      39.691  25.857  27.934  1.00  0.00     0.198 A 
ATOM     66  F   UNL A   1      38.887  26.356  30.088  1.00  0.00    -0.203 F 
ATOM     67  F   UNL A   1      41.861  27.739  25.725  1.00  0.00    -0.200 F 
ATOM     68  C   UNL A   1      40.442  26.203  26.821  1.00  0.00     0.200 A 
ATOM     69  F   UNL A   1      39.010  24.703  27.949  1.00  0.00    -0.200 F 
ATOM     70  F   UNL A   1      40.472  25.393  25.754  1.00  0.00    -0.200 F 
ENDBRANCH  46  60
BRANCH  47  71
ATOM     71  C   UNL A   1      39.513  33.928  36.967  1.00  0.00     0.064 A 
ATOM     72  C   UNL A   1      38.741  33.532  38.068  1.00  0.00     0.173 A 
ATOM     73  C   UNL A   1      40.162  35.169  37.036  1.00  0.00     0.173 A 
ATOM     74  F   UNL A   1      38.085  32.363  38.039  1.00  0.00    -0.203 F 
ATOM     75  C   UNL A   1      38.616  34.349  39.189  1.00  0.00     0.198 A 
ATOM     76  C   UNL A   1      40.057  35.974  38.168  1.00  0.00     0.198 A 
ATOM     77  F   UNL A   1      40.916  35.590  36.011  1.00  0.00    -0.203 F 
ATOM     78  F   UNL A   1      37.844  33.961  40.215  1.00  0.00    -0.200 F 
ATOM     79  C   UNL A   1      39.279  35.565  39.242  1.00  0.00     0.200 A 
ATOM     80  F   UNL A   1      40.711  37.142  38.221  1.00  0.00    -0.200 F 
ATOM     81  F   UNL A   1      39.167  36.346  40.325  1.00  0.00    -0.200 F 
ENDBRANCH  47  71
BRANCH  59  82
ATOM     82  C   UNL A   1      43.681  28.567  35.413  1.00  0.00     0.064 A 
ATOM     83  C   UNL A   1      45.025  28.942  35.270  1.00  0.00     0.173 A 
ATOM     84  C   UNL A   1      43.377  27.545  36.325  1.00  0.00     0.173 A 
ATOM     85  F   UNL A   1      45.370  29.901  34.397  1.00  0.00    -0.203 F 
ATOM     86  C   UNL A   1      46.027  28.305  35.996  1.00  0.00     0.198 A 
ATOM     87  C   UNL A   1      44.377  26.930  37.070  1.00  0.00     0.198 A 
ATOM     88  F   UNL A   1      42.106  27.153  36.501  1.00  0.00    -0.203 F 
ATOM     89  F   UNL A   1      47.309  28.649  35.812  1.00  0.00    -0.200 F 
ATOM     90  C   UNL A   1      45.702  27.305  36.902  1.00  0.00     0.200 A 
ATOM     91  F   UNL A   1      44.061  25.971  37.953  1.00  0.00    -0.200 F 
ATOM     92  F   UNL A   1      46.666  26.698  37.606  1.00  0.00    -0.200 F 
ENDBRANCH  59  82
ENDBRANCH  33  34
ENDBRANCH  25  28
ENDBRANCH  23  24
ENDBRANCH  22  23
ENDBRANCH   1  22
TORSDOF 14
ENDMDL
MODEL 3
REMARK VINA RESULT:     -11.8      1.250      2.157
REMARK SMILES CC(C)[C@@H](C)NC(=O)N1CCO[C@H](CC(=O)NCCCNC(=O)c2ccc(-c3c4nc(c(-c5c(F)c(F)c(F)c(F)c5F)c5ccc([nH]5)c(-c5c(F)c(F)c(F)c(F)c5F)c5nc(c(-c6c(F)c(F)c(F)c(F)c6F)c6ccc3[nH]6)C=C5)C=C4)cc2)C1
REMARK SMILES IDX 18 1 17 2 15 3 16 4 14 6 13 7 9 8 10 9 87 10 11 11 12 12
REMARK SMILES IDX 7 13 6 14 8 16 4 17 5 18 2 19 1 20 3 21 19 22 20 23 21 24
REMARK SMILES IDX 22 25 23 27 24 28 25 29 86 30 26 31 85 32 27 33 28 34 29 35
REMARK SMILES IDX 79 36 30 37 84 38 78 39 80 40 31 41 83 42 77 43 76 44 32 46
REMARK SMILES IDX 64 47 44 48 63 49 45 50 48 51 62 52 81 53 46 54 47 55 61 57
REMARK SMILES IDX 82 58 49 59 33 60 34 61 42 62 35 63 36 64 40 65 43 66 37 67
REMARK SMILES IDX 38 68 41 69 39 70 65 71 66 72 74 73 67 74 68 75 72 76 75 77
REMARK SMILES IDX 69 78 70 79 73 80 71 81 50 82 51 83 59 84 52 85 53 86 57 87
REMARK SMILES IDX 60 88 54 89 55 90 58 91 56 92
REMARK H PARENT 17 5 6 15 21 26 80 45 48 56
REMARK Flexibility Score: inf
ROOT
ATOM      1  C   UNL A   1      31.696  30.620  25.906  1.00  0.00     0.117 C 
ENDROOT
BRANCH   1   2
ATOM      2  N   UNL A   1      30.961  30.450  24.664  1.00  0.00    -0.356 N 
ATOM      3  C   UNL A   1      30.671  29.308  23.982  1.00  0.00     0.222 C 
ATOM      4  O   UNL A   1      30.080  29.396  22.907  1.00  0.00    -0.275 OA
ATOM      5  H   UNL A   1      30.626  31.281  24.258  1.00  0.00     0.163 HD
BRANCH   3   6
ATOM      6  C   UNL A   1      31.064  27.974  24.562  1.00  0.00     0.133 C 
BRANCH   6   7
ATOM      7  C   UNL A   1      32.260  27.360  23.833  1.00  0.00     0.147 C 
ATOM      8  N   UNL A   1      32.725  25.478  25.343  1.00  0.00    -0.320 N 
ATOM      9  C   UNL A   1      33.979  26.110  25.752  1.00  0.00     0.150 C 
ATOM     10  C   UNL A   1      32.330  25.829  23.983  1.00  0.00     0.154 C 
ATOM     11  C   UNL A   1      33.865  27.629  25.602  1.00  0.00     0.182 C 
ATOM     12  O   UNL A   1      33.491  27.992  24.261  1.00  0.00    -0.374 OA
BRANCH   8  13
ATOM     13  C   UNL A   1      32.054  24.484  25.987  1.00  0.00     0.317 C 
ATOM     14  N   UNL A   1      32.259  23.190  25.658  1.00  0.00    -0.335 N 
ATOM     15  H   UNL A   1      31.538  22.584  25.941  1.00  0.00     0.165 HD
ATOM     16  O   UNL A   1      31.282  24.712  26.920  1.00  0.00    -0.249 OA
BRANCH  14  17
ATOM     17  C   UNL A   1      33.358  22.526  24.958  1.00  0.00     0.083 C 
ATOM     18  C   UNL A   1      32.797  21.268  24.294  1.00  0.00     0.031 C 
BRANCH  17  19
ATOM     19  C   UNL A   1      34.535  22.209  25.922  1.00  0.00     0.005 C 
ATOM     20  C   UNL A   1      34.031  21.632  27.252  1.00  0.00     0.009 C 
ATOM     21  C   UNL A   1      35.529  21.212  25.315  1.00  0.00     0.009 C 
ENDBRANCH  17  19
ENDBRANCH  14  17
ENDBRANCH   8  13
ENDBRANCH   6   7
ENDBRANCH   3   6
ENDBRANCH   1   2
BRANCH   1  22
ATOM     22  C   UNL A   1      31.398  31.961  26.567  1.00  0.00     0.042 C 
BRANCH  22  23
ATOM     23  C   UNL A   1      32.600  32.601  27.252  1.00  0.00     0.118 C 
BRANCH  23  24
ATOM     24  N   UNL A   1      32.382  34.004  27.569  1.00  0.00    -0.352 N 
ATOM     25  C   UNL A   1      32.988  34.798  28.508  1.00  0.00     0.251 C 
ATOM     26  H   UNL A   1      31.695  34.453  27.025  1.00  0.00     0.163 HD
ATOM     27  O   UNL A   1      32.530  35.915  28.751  1.00  0.00    -0.269 OA
BRANCH  25  28
ATOM     28  C   UNL A   1      34.170  34.316  29.254  1.00  0.00     0.039 A 
ATOM     29  C   UNL A   1      33.975  33.682  30.485  1.00  0.00     0.014 A 
ATOM     30  C   UNL A   1      35.464  34.495  28.758  1.00  0.00     0.014 A 
ATOM     31  C   UNL A   1      35.068  33.162  31.179  1.00  0.00     0.010 A 
ATOM     32  C   UNL A   1      36.547  33.913  29.416  1.00  0.00     0.010 A 
ATOM     33  C   UNL A   1      36.358  33.235  30.628  1.00  0.00    -0.014 A 
BRANCH  33  34
ATOM     34  C   UNL A   1      37.512  32.574  31.288  1.00  0.00     0.031 A 
ATOM     35  C   UNL A   1      38.229  31.438  30.618  1.00  0.00     0.074 A 
ATOM     36  C   UNL A   1      37.867  32.956  32.530  1.00  0.00     0.049 A 
ATOM     37  N   UNL A   1      39.212  30.698  31.068  1.00  0.00    -0.248 NA
ATOM     38  C   UNL A   1      37.767  31.068  29.272  1.00  0.00     0.031 C 
ATOM     39  C   UNL A   1      37.219  34.015  33.305  1.00  0.00     0.029 A 
ATOM     40  N   UNL A   1      38.852  32.488  33.365  1.00  0.00    -0.354 N 
ATOM     41  C   UNL A   1      39.477  29.772  30.069  1.00  0.00     0.074 A 
ATOM     42  C   UNL A   1      38.520  30.010  29.010  1.00  0.00     0.031 C 
ATOM     43  C   UNL A   1      37.836  34.133  34.491  1.00  0.00     0.029 A 
ATOM     44  C   UNL A   1      38.893  33.130  34.578  1.00  0.00     0.049 A 
ATOM     45  H   UNL A   1      39.468  31.762  33.117  1.00  0.00     0.167 HD
ATOM     46  C   UNL A   1      40.442  28.823  30.032  1.00  0.00     0.037 A 
ATOM     47  C   UNL A   1      39.688  32.927  35.646  1.00  0.00     0.037 A 
ATOM     48  C   UNL A   1      41.403  28.601  31.082  1.00  0.00     0.049 A 
ATOM     49  C   UNL A   1      40.732  31.849  35.591  1.00  0.00     0.074 A 
ATOM     50  C   UNL A   1      42.470  27.719  31.104  1.00  0.00     0.029 A 
ATOM     51  N   UNL A   1      41.406  29.262  32.301  1.00  0.00    -0.354 N 
ATOM     52  N   UNL A   1      41.025  31.030  34.611  1.00  0.00    -0.248 NA
ATOM     53  C   UNL A   1      41.557  31.665  36.794  1.00  0.00     0.031 C 
ATOM     54  C   UNL A   1      43.087  27.811  32.357  1.00  0.00     0.029 A 
ATOM     55  C   UNL A   1      42.434  28.782  33.099  1.00  0.00     0.049 A 
ATOM     56  H   UNL A   1      40.772  29.969  32.563  1.00  0.00     0.167 HD
ATOM     57  C   UNL A   1      42.072  30.244  35.070  1.00  0.00     0.074 A 
ATOM     58  C   UNL A   1      42.379  30.698  36.410  1.00  0.00     0.031 C 
ATOM     59  C   UNL A   1      42.719  29.235  34.436  1.00  0.00     0.037 A 
BRANCH  46  60
ATOM     60  C   UNL A   1      40.507  27.949  28.813  1.00  0.00     0.064 A 
ATOM     61  C   UNL A   1      39.809  26.733  28.744  1.00  0.00     0.173 A 
ATOM     62  C   UNL A   1      41.252  28.342  27.692  1.00  0.00     0.173 A 
ATOM     63  F   UNL A   1      39.089  26.306  29.791  1.00  0.00    -0.203 F 
ATOM     64  C   UNL A   1      39.883  25.929  27.608  1.00  0.00     0.198 A 
ATOM     65  C   UNL A   1      41.300  27.549  26.548  1.00  0.00     0.198 A 
ATOM     66  F   UNL A   1      41.932  29.499  27.703  1.00  0.00    -0.203 F 
ATOM     67  F   UNL A   1      39.250  24.747  27.585  1.00  0.00    -0.200 F 
ATOM     68  C   UNL A   1      40.623  26.340  26.511  1.00  0.00     0.200 A 
ATOM     69  F   UNL A   1      42.005  27.953  25.483  1.00  0.00    -0.200 F 
ATOM     70  F   UNL A   1      40.690  25.566  25.419  1.00  0.00    -0.200 F 
ENDBRANCH  46  60
BRANCH  47  71
ATOM     71  C   UNL A   1      39.532  33.781  36.852  1.00  0.00     0.064 A 
ATOM     72  C   UNL A   1      40.172  35.024  36.935  1.00  0.00     0.173 A 
ATOM     73  C   UNL A   1      38.731  33.383  37.932  1.00  0.00     0.173 A 
ATOM     74  F   UNL A   1      40.965  35.438  35.936  1.00  0.00    -0.203 F 
ATOM     75  C   UNL A   1      40.023  35.835  38.059  1.00  0.00     0.198 A 
ATOM     76  C   UNL A   1      38.562  34.205  39.044  1.00  0.00     0.198 A 
ATOM     77  F   UNL A   1      38.094  32.203  37.897  1.00  0.00    -0.203 F 
ATOM     78  F   UNL A   1      40.673  37.006  38.128  1.00  0.00    -0.200 F 
ATOM     79  C   UNL A   1      39.213  35.428  39.108  1.00  0.00     0.200 A 
ATOM     80  F   UNL A   1      37.768  33.815  40.049  1.00  0.00    -0.200 F 
ATOM     81  F   UNL A   1      39.062  36.213  40.184  1.00  0.00    -0.200 F 
ENDBRANCH  47  71
BRANCH  59  82
ATOM     82  C   UNL A   1      43.827  28.555  35.186  1.00  0.00     0.064 A 
ATOM     83  C   UNL A   1      45.147  29.027  35.126  1.00  0.00     0.173 A 
ATOM     84  C   UNL A   1      43.562  27.444  36.002  1.00  0.00     0.173 A 
ATOM     85  F   UNL A   1      45.455  30.074  34.346  1.00  0.00    -0.203 F 
ATOM     86  C   UNL A   1      46.164  28.398  35.838  1.00  0.00     0.198 A 
ATOM     87  C   UNL A   1      44.576  26.836  36.735  1.00  0.00     0.198 A 
ATOM     88  F   UNL A   1      42.316  26.957  36.096  1.00  0.00    -0.203 F 
ATOM     89  F   UNL A   1      47.426  28.839  35.732  1.00  0.00    -0.200 F 
ATOM     90  C   UNL A   1      45.877  27.309  36.648  1.00  0.00     0.200 A 
ATOM     91  F   UNL A   1      44.296  25.790  37.525  1.00  0.00    -0.200 F 
ATOM     92  F   UNL A   1      46.856  26.710  37.340  1.00  0.00    -0.200 F 
ENDBRANCH  59  82
ENDBRANCH  33  34
ENDBRANCH  25  28
ENDBRANCH  23  24
ENDBRANCH  22  23
ENDBRANCH   1  22
TORSDOF 14
ENDMDL
