MODEL 1
REMARK VINA RESULT:     -12.4      0.000      0.000
REMARK SMILES O=C(NCCCNC(=O)c1cn(-c2cc(Cl)ncn2)cn1)c1ccc(-c2c3nc(c(-c4c(F)c(F)c(F)c(F)c4F)c4ccc([nH]4)c(-c4c(F)c(F)c(F)c(F)c4F)c4nc(c(-c5c(F)c(F)c(F)c(F)c5F)c5ccc2[nH]5)C=C4)C=C3)cc1
REMARK SMILES IDX 4 1 3 2 1 3 2 4 22 6 23 7 84 8 24 9 83 10 25 11 26 12 27 13
REMARK SMILES IDX 77 14 28 15 82 16 76 17 78 18 29 19 81 20 75 21 74 22 30 24
REMARK SMILES IDX 62 25 42 26 61 27 43 28 46 29 60 30 79 31 44 32 45 33 59 35
REMARK SMILES IDX 80 36 47 37 31 38 32 39 40 40 33 41 34 42 38 43 41 44 35 45
REMARK SMILES IDX 36 46 39 47 37 48 63 49 64 50 72 51 65 52 66 53 70 54 73 55
REMARK SMILES IDX 67 56 68 57 71 58 69 59 48 60 49 61 57 62 50 63 51 64 55 65
REMARK SMILES IDX 58 66 52 67 53 68 56 69 54 70 5 71 6 72 7 73 8 74 9 76 10 77
REMARK SMILES IDX 11 78 21 79 12 80 20 81 13 82 14 83 19 84 15 85 18 86 16 87
REMARK SMILES IDX 17 88
REMARK H PARENT 3 5 78 23 46 34 7 75
REMARK Flexibility Score: inf
ROOT
ATOM      1  C   UNL A   1      41.763  20.171  26.335  1.00  0.00     0.118 C 
ENDROOT
BRANCH   1   2
ATOM      2  N   UNL A   1      40.367  20.506  26.128  1.00  0.00    -0.352 N 
ATOM      3  O   UNL A   1      38.456  21.571  25.828  1.00  0.00    -0.269 OA
ATOM      4  C   UNL A   1      39.615  21.643  26.245  1.00  0.00     0.251 C 
ATOM      5  H   UNL A   1      39.834  19.733  25.833  1.00  0.00     0.163 HD
BRANCH   4   6
ATOM      6  C   UNL A   1      40.064  22.910  26.881  1.00  0.00     0.039 A 
ATOM      7  C   UNL A   1      41.180  23.057  27.704  1.00  0.00     0.014 A 
ATOM      8  C   UNL A   1      39.271  24.045  26.620  1.00  0.00     0.014 A 
ATOM      9  C   UNL A   1      41.454  24.278  28.317  1.00  0.00     0.010 A 
ATOM     10  C   UNL A   1      39.554  25.274  27.207  1.00  0.00     0.010 A 
ATOM     11  C   UNL A   1      40.633  25.383  28.080  1.00  0.00    -0.014 A 
BRANCH  11  12
ATOM     12  C   UNL A   1      41.031  26.673  28.645  1.00  0.00     0.031 A 
ATOM     13  C   UNL A   1      42.259  27.285  28.057  1.00  0.00     0.074 A 
ATOM     14  C   UNL A   1      40.269  27.379  29.502  1.00  0.00     0.049 A 
ATOM     15  N   UNL A   1      43.311  27.728  28.668  1.00  0.00    -0.248 NA
ATOM     16  C   UNL A   1      42.337  27.378  26.590  1.00  0.00     0.031 C 
ATOM     17  C   UNL A   1      38.903  27.065  29.926  1.00  0.00     0.029 A 
ATOM     18  N   UNL A   1      40.510  28.595  30.082  1.00  0.00    -0.354 N 
ATOM     19  C   UNL A   1      44.114  28.304  27.684  1.00  0.00     0.074 A 
ATOM     20  C   UNL A   1      43.524  27.960  26.419  1.00  0.00     0.031 C 
ATOM     21  C   UNL A   1      38.362  28.156  30.508  1.00  0.00     0.029 A 
ATOM     22  C   UNL A   1      39.372  29.198  30.599  1.00  0.00     0.049 A 
ATOM     23  H   UNL A   1      41.405  29.003  30.128  1.00  0.00     0.167 HD
ATOM     24  C   UNL A   1      45.074  29.217  27.995  1.00  0.00     0.037 A 
ATOM     25  C   UNL A   1      39.238  30.483  31.007  1.00  0.00     0.037 A 
ATOM     26  C   UNL A   1      45.465  29.124  29.378  1.00  0.00     0.049 A 
ATOM     27  C   UNL A   1      40.585  31.030  31.284  1.00  0.00     0.074 A 
ATOM     28  C   UNL A   1      46.048  28.168  30.184  1.00  0.00     0.029 A 
ATOM     29  N   UNL A   1      45.005  30.099  30.222  1.00  0.00    -0.354 N 
ATOM     30  N   UNL A   1      41.334  30.683  32.292  1.00  0.00    -0.248 NA
ATOM     31  C   UNL A   1      41.254  31.810  30.251  1.00  0.00     0.031 C 
ATOM     32  C   UNL A   1      45.559  28.425  31.500  1.00  0.00     0.029 A 
ATOM     33  C   UNL A   1      44.710  29.529  31.427  1.00  0.00     0.049 A 
ATOM     34  H   UNL A   1      44.904  31.052  29.996  1.00  0.00     0.167 HD
ATOM     35  C   UNL A   1      42.628  30.817  31.824  1.00  0.00     0.074 A 
ATOM     36  C   UNL A   1      42.520  31.674  30.653  1.00  0.00     0.031 C 
ATOM     37  C   UNL A   1      43.609  29.970  32.250  1.00  0.00     0.037 A 
BRANCH  24  38
ATOM     38  C   UNL A   1      45.346  30.474  27.186  1.00  0.00     0.064 A 
ATOM     39  C   UNL A   1      46.687  30.859  26.963  1.00  0.00     0.173 A 
ATOM     40  C   UNL A   1      44.384  31.481  26.953  1.00  0.00     0.173 A 
ATOM     41  F   UNL A   1      47.688  29.984  27.143  1.00  0.00    -0.203 F 
ATOM     42  C   UNL A   1      47.040  32.179  26.673  1.00  0.00     0.198 A 
ATOM     43  C   UNL A   1      44.739  32.786  26.608  1.00  0.00     0.198 A 
ATOM     44  F   UNL A   1      43.077  31.286  27.156  1.00  0.00    -0.203 F 
ATOM     45  F   UNL A   1      48.333  32.528  26.636  1.00  0.00    -0.200 F 
ATOM     46  C   UNL A   1      46.067  33.146  26.513  1.00  0.00     0.200 A 
ATOM     47  F   UNL A   1      43.781  33.712  26.464  1.00  0.00    -0.200 F 
ATOM     48  F   UNL A   1      46.404  34.428  26.322  1.00  0.00    -0.200 F 
ENDBRANCH  24  38
BRANCH  25  49
ATOM     49  C   UNL A   1      38.030  31.341  30.991  1.00  0.00     0.064 A 
ATOM     50  C   UNL A   1      37.446  31.751  29.780  1.00  0.00     0.173 A 
ATOM     51  C   UNL A   1      37.274  31.570  32.157  1.00  0.00     0.173 A 
ATOM     52  F   UNL A   1      38.073  31.530  28.616  1.00  0.00    -0.203 F 
ATOM     53  C   UNL A   1      36.175  32.334  29.738  1.00  0.00     0.198 A 
ATOM     54  C   UNL A   1      36.015  32.169  32.116  1.00  0.00     0.198 A 
ATOM     55  F   UNL A   1      37.700  31.136  33.352  1.00  0.00    -0.203 F 
ATOM     56  F   UNL A   1      35.625  32.649  28.559  1.00  0.00    -0.200 F 
ATOM     57  C   UNL A   1      35.459  32.537  30.906  1.00  0.00     0.200 A 
ATOM     58  F   UNL A   1      35.319  32.329  33.251  1.00  0.00    -0.200 F 
ATOM     59  F   UNL A   1      34.220  33.046  30.862  1.00  0.00    -0.200 F 
ENDBRANCH  25  49
BRANCH  37  60
ATOM     60  C   UNL A   1      43.386  29.255  33.546  1.00  0.00     0.064 A 
ATOM     61  C   UNL A   1      43.744  29.768  34.804  1.00  0.00     0.173 A 
ATOM     62  C   UNL A   1      42.703  28.032  33.513  1.00  0.00     0.173 A 
ATOM     63  F   UNL A   1      44.305  30.980  34.923  1.00  0.00    -0.203 F 
ATOM     64  C   UNL A   1      43.486  29.051  35.970  1.00  0.00     0.198 A 
ATOM     65  C   UNL A   1      42.409  27.339  34.681  1.00  0.00     0.198 A 
ATOM     66  F   UNL A   1      42.287  27.525  32.341  1.00  0.00    -0.203 F 
ATOM     67  F   UNL A   1      43.863  29.544  37.158  1.00  0.00    -0.200 F 
ATOM     68  C   UNL A   1      42.815  27.840  35.908  1.00  0.00     0.200 A 
ATOM     69  F   UNL A   1      41.716  26.193  34.621  1.00  0.00    -0.200 F 
ATOM     70  F   UNL A   1      42.537  27.167  37.033  1.00  0.00    -0.200 F 
ENDBRANCH  37  60
ENDBRANCH  11  12
ENDBRANCH   4   6
ENDBRANCH   1   2
BRANCH   1  71
ATOM     71  C   UNL A   1      42.194  18.797  25.819  1.00  0.00     0.042 C 
BRANCH  71  72
ATOM     72  C   UNL A   1      43.665  18.455  26.045  1.00  0.00     0.118 C 
BRANCH  72  73
ATOM     73  N   UNL A   1      44.396  18.273  24.803  1.00  0.00    -0.351 N 
ATOM     74  C   UNL A   1      44.955  19.206  23.971  1.00  0.00     0.271 C 
ATOM     75  H   UNL A   1      44.503  17.337  24.515  1.00  0.00     0.163 HD
ATOM     76  O   UNL A   1      45.393  18.828  22.874  1.00  0.00    -0.267 OA
BRANCH  74  77
ATOM     77  C   UNL A   1      45.041  20.594  24.407  1.00  0.00     0.146 A 
ATOM     78  C   UNL A   1      45.655  21.068  25.555  1.00  0.00     0.128 A 
ATOM     79  N   UNL A   1      44.528  21.651  23.683  1.00  0.00    -0.231 NA
ATOM     80  N   UNL A   1      45.465  22.431  25.555  1.00  0.00    -0.290 N 
ATOM     81  C   UNL A   1      44.784  22.724  24.397  1.00  0.00     0.206 A 
BRANCH  80  82
ATOM     82  C   UNL A   1      45.846  23.377  26.544  1.00  0.00     0.142 A 
ATOM     83  C   UNL A   1      45.048  23.589  27.645  1.00  0.00     0.088 A 
ATOM     84  N   UNL A   1      47.001  24.053  26.339  1.00  0.00    -0.219 NA
ATOM     85  C   UNL A   1      45.510  24.544  28.517  1.00  0.00     0.134 A 
ATOM     86  C   UNL A   1      47.321  24.985  27.246  1.00  0.00     0.226 A 
ATOM     87  Cl  UNL A   1      44.656  24.887  29.965  1.00  0.00    -0.062 Cl
ATOM     88  N   UNL A   1      46.626  25.270  28.348  1.00  0.00    -0.224 NA
ENDBRANCH  80  82
ENDBRANCH  74  77
ENDBRANCH  72  73
ENDBRANCH  71  72
ENDBRANCH   1  71
TORSDOF 11
ENDMDL
MODEL 2
REMARK VINA RESULT:     -12.0      4.147     11.396
REMARK SMILES O=C(NCCCNC(=O)c1cn(-c2cc(Cl)ncn2)cn1)c1ccc(-c2c3nc(c(-c4c(F)c(F)c(F)c(F)c4F)c4ccc([nH]4)c(-c4c(F)c(F)c(F)c(F)c4F)c4nc(c(-c5c(F)c(F)c(F)c(F)c5F)c5ccc2[nH]5)C=C4)C=C3)cc1
REMARK SMILES IDX 4 1 3 2 1 3 2 4 22 6 23 7 84 8 24 9 83 10 25 11 26 12 27 13
REMARK SMILES IDX 77 14 28 15 82 16 76 17 78 18 29 19 81 20 75 21 74 22 30 24
REMARK SMILES IDX 62 25 42 26 61 27 43 28 46 29 60 30 79 31 44 32 45 33 59 35
REMARK SMILES IDX 80 36 47 37 31 38 32 39 40 40 33 41 34 42 38 43 41 44 35 45
REMARK SMILES IDX 36 46 39 47 37 48 63 49 64 50 72 51 65 52 66 53 70 54 73 55
REMARK SMILES IDX 67 56 68 57 71 58 69 59 48 60 49 61 57 62 50 63 51 64 55 65
REMARK SMILES IDX 58 66 52 67 53 68 56 69 54 70 5 71 6 72 7 73 8 74 9 76 10 77
REMARK SMILES IDX 11 78 21 79 12 80 20 81 13 82 14 83 19 84 15 85 18 86 16 87
REMARK SMILES IDX 17 88
REMARK H PARENT 3 5 78 23 46 34 7 75
REMARK Flexibility Score: inf
ROOT
ATOM      1  C   UNL A   1      35.013  34.143  28.910  1.00  0.00     0.118 C 
ENDROOT
BRANCH   1   2
ATOM      2  N   UNL A   1      34.395  32.966  28.329  1.00  0.00    -0.352 N 
ATOM      3  O   UNL A   1      33.866  30.896  27.772  1.00  0.00    -0.269 OA
ATOM      4  C   UNL A   1      34.739  31.648  28.213  1.00  0.00     0.251 C 
ATOM      5  H   UNL A   1      33.521  33.163  27.921  1.00  0.00     0.163 HD
BRANCH   4   6
ATOM      6  C   UNL A   1      36.080  31.078  28.517  1.00  0.00     0.039 A 
ATOM      7  C   UNL A   1      37.183  31.795  28.978  1.00  0.00     0.014 A 
ATOM      8  C   UNL A   1      36.223  29.693  28.303  1.00  0.00     0.014 A 
ATOM      9  C   UNL A   1      38.417  31.169  29.144  1.00  0.00     0.010 A 
ATOM     10  C   UNL A   1      37.445  29.055  28.493  1.00  0.00     0.010 A 
ATOM     11  C   UNL A   1      38.552  29.803  28.888  1.00  0.00    -0.014 A 
BRANCH  11  12
ATOM     12  C   UNL A   1      39.833  29.165  29.197  1.00  0.00     0.031 A 
ATOM     13  C   UNL A   1      40.176  29.071  30.645  1.00  0.00     0.074 A 
ATOM     14  C   UNL A   1      40.588  28.529  28.280  1.00  0.00     0.049 A 
ATOM     15  N   UNL A   1      41.262  29.447  31.242  1.00  0.00    -0.248 NA
ATOM     16  C   UNL A   1      39.155  28.522  31.552  1.00  0.00     0.031 C 
ATOM     17  C   UNL A   1      40.235  28.259  26.885  1.00  0.00     0.029 A 
ATOM     18  N   UNL A   1      41.783  27.878  28.438  1.00  0.00    -0.354 N 
ATOM     19  C   UNL A   1      41.134  29.036  32.569  1.00  0.00     0.074 A 
ATOM     20  C   UNL A   1      39.780  28.579  32.729  1.00  0.00     0.031 C 
ATOM     21  C   UNL A   1      41.077  27.327  26.391  1.00  0.00     0.029 A 
ATOM     22  C   UNL A   1      42.089  27.021  27.391  1.00  0.00     0.049 A 
ATOM     23  H   UNL A   1      42.367  28.007  29.219  1.00  0.00     0.167 HD
ATOM     24  C   UNL A   1      42.221  28.885  33.374  1.00  0.00     0.037 A 
ATOM     25  C   UNL A   1      43.056  26.072  27.364  1.00  0.00     0.037 A 
ATOM     26  C   UNL A   1      43.349  29.636  32.886  1.00  0.00     0.049 A 
ATOM     27  C   UNL A   1      44.055  26.391  28.407  1.00  0.00     0.074 A 
ATOM     28  C   UNL A   1      43.638  30.966  32.667  1.00  0.00     0.029 A 
ATOM     29  N   UNL A   1      44.353  28.927  32.282  1.00  0.00    -0.354 N 
ATOM     30  N   UNL A   1      44.892  27.389  28.352  1.00  0.00    -0.248 NA
ATOM     31  C   UNL A   1      43.955  25.734  29.704  1.00  0.00     0.031 C 
ATOM     32  C   UNL A   1      44.589  30.983  31.603  1.00  0.00     0.029 A 
ATOM     33  C   UNL A   1      44.835  29.659  31.235  1.00  0.00     0.049 A 
ATOM     34  H   UNL A   1      44.673  28.038  32.557  1.00  0.00     0.167 HD
ATOM     35  C   UNL A   1      45.086  27.751  29.672  1.00  0.00     0.074 A 
ATOM     36  C   UNL A   1      44.642  26.604  30.449  1.00  0.00     0.031 C 
ATOM     37  C   UNL A   1      45.295  29.057  30.007  1.00  0.00     0.037 A 
BRANCH  24  38
ATOM     38  C   UNL A   1      42.407  27.731  34.344  1.00  0.00     0.064 A 
ATOM     39  C   UNL A   1      42.911  26.506  33.851  1.00  0.00     0.173 A 
ATOM     40  C   UNL A   1      41.784  27.660  35.609  1.00  0.00     0.173 A 
ATOM     41  F   UNL A   1      43.532  26.452  32.664  1.00  0.00    -0.203 F 
ATOM     42  C   UNL A   1      42.678  25.294  34.505  1.00  0.00     0.198 A 
ATOM     43  C   UNL A   1      41.603  26.452  36.285  1.00  0.00     0.198 A 
ATOM     44  F   UNL A   1      41.223  28.724  36.194  1.00  0.00    -0.203 F 
ATOM     45  F   UNL A   1      43.028  24.143  33.914  1.00  0.00    -0.200 F 
ATOM     46  C   UNL A   1      42.008  25.265  35.712  1.00  0.00     0.200 A 
ATOM     47  F   UNL A   1      40.945  26.444  37.452  1.00  0.00    -0.200 F 
ATOM     48  F   UNL A   1      41.707  24.099  36.298  1.00  0.00    -0.200 F 
ENDBRANCH  24  38
BRANCH  25  49
ATOM     49  C   UNL A   1      43.078  24.790  26.621  1.00  0.00     0.064 A 
ATOM     50  C   UNL A   1      43.910  24.612  25.502  1.00  0.00     0.173 A 
ATOM     51  C   UNL A   1      42.475  23.628  27.141  1.00  0.00     0.173 A 
ATOM     52  F   UNL A   1      44.562  25.656  24.971  1.00  0.00    -0.203 F 
ATOM     53  C   UNL A   1      44.140  23.347  24.953  1.00  0.00     0.198 A 
ATOM     54  C   UNL A   1      42.690  22.369  26.581  1.00  0.00     0.198 A 
ATOM     55  F   UNL A   1      41.737  23.675  28.260  1.00  0.00    -0.203 F 
ATOM     56  F   UNL A   1      44.992  23.210  23.928  1.00  0.00    -0.200 F 
ATOM     57  C   UNL A   1      43.535  22.226  25.495  1.00  0.00     0.200 A 
ATOM     58  F   UNL A   1      42.124  21.289  27.137  1.00  0.00    -0.200 F 
ATOM     59  F   UNL A   1      43.796  21.007  25.003  1.00  0.00    -0.200 F 
ENDBRANCH  25  49
BRANCH  37  60
ATOM     60  C   UNL A   1      45.792  29.973  28.932  1.00  0.00     0.064 A 
ATOM     61  C   UNL A   1      44.966  30.626  28.004  1.00  0.00     0.173 A 
ATOM     62  C   UNL A   1      47.163  30.263  28.900  1.00  0.00     0.173 A 
ATOM     63  F   UNL A   1      43.634  30.480  28.041  1.00  0.00    -0.203 F 
ATOM     64  C   UNL A   1      45.502  31.480  27.044  1.00  0.00     0.198 A 
ATOM     65  C   UNL A   1      47.690  31.150  27.968  1.00  0.00     0.198 A 
ATOM     66  F   UNL A   1      47.990  29.710  29.802  1.00  0.00    -0.203 F 
ATOM     67  F   UNL A   1      44.699  32.071  26.147  1.00  0.00    -0.200 F 
ATOM     68  C   UNL A   1      46.863  31.745  27.029  1.00  0.00     0.200 A 
ATOM     69  F   UNL A   1      48.998  31.440  27.989  1.00  0.00    -0.200 F 
ATOM     70  F   UNL A   1      47.373  32.593  26.126  1.00  0.00    -0.200 F 
ENDBRANCH  37  60
ENDBRANCH  11  12
ENDBRANCH   4   6
ENDBRANCH   1   2
BRANCH   1  71
ATOM     71  C   UNL A   1      34.225  35.445  28.755  1.00  0.00     0.042 C 
BRANCH  71  72
ATOM     72  C   UNL A   1      32.902  35.493  29.517  1.00  0.00     0.118 C 
BRANCH  72  73
ATOM     73  N   UNL A   1      32.854  36.569  30.491  1.00  0.00    -0.351 N 
ATOM     74  C   UNL A   1      33.178  36.561  31.822  1.00  0.00     0.271 C 
ATOM     75  H   UNL A   1      32.540  37.435  30.142  1.00  0.00     0.163 HD
ATOM     76  O   UNL A   1      32.903  37.563  32.500  1.00  0.00    -0.267 OA
BRANCH  74  77
ATOM     77  C   UNL A   1      33.851  35.399  32.388  1.00  0.00     0.146 A 
ATOM     78  C   UNL A   1      35.212  35.250  32.602  1.00  0.00     0.128 A 
ATOM     79  N   UNL A   1      33.185  34.274  32.828  1.00  0.00    -0.231 NA
ATOM     80  N   UNL A   1      35.380  33.990  33.131  1.00  0.00    -0.290 N 
ATOM     81  C   UNL A   1      34.120  33.454  33.250  1.00  0.00     0.206 A 
BRANCH  80  82
ATOM     82  C   UNL A   1      36.589  33.327  33.469  1.00  0.00     0.142 A 
ATOM     83  C   UNL A   1      37.630  33.282  32.569  1.00  0.00     0.088 A 
ATOM     84  N   UNL A   1      36.653  32.742  34.687  1.00  0.00    -0.219 NA
ATOM     85  C   UNL A   1      38.736  32.593  33.001  1.00  0.00     0.134 A 
ATOM     86  C   UNL A   1      37.775  32.067  34.973  1.00  0.00     0.226 A 
ATOM     87  Cl  UNL A   1      40.138  32.491  32.016  1.00  0.00    -0.062 Cl
ATOM     88  N   UNL A   1      38.842  31.962  34.180  1.00  0.00    -0.224 NA
ENDBRANCH  80  82
ENDBRANCH  74  77
ENDBRANCH  72  73
ENDBRANCH  71  72
ENDBRANCH   1  71
TORSDOF 11
ENDMDL
MODEL 3
REMARK VINA RESULT:     -12.0      1.464      1.744
REMARK SMILES O=C(NCCCNC(=O)c1cn(-c2cc(Cl)ncn2)cn1)c1ccc(-c2c3nc(c(-c4c(F)c(F)c(F)c(F)c4F)c4ccc([nH]4)c(-c4c(F)c(F)c(F)c(F)c4F)c4nc(c(-c5c(F)c(F)c(F)c(F)c5F)c5ccc2[nH]5)C=C4)C=C3)cc1
REMARK SMILES IDX 4 1 3 2 1 3 2 4 22 6 23 7 84 8 24 9 83 10 25 11 26 12 27 13
REMARK SMILES IDX 77 14 28 15 82 16 76 17 78 18 29 19 81 20 75 21 74 22 30 24
REMARK SMILES IDX 62 25 42 26 61 27 43 28 46 29 60 30 79 31 44 32 45 33 59 35
REMARK SMILES IDX 80 36 47 37 31 38 32 39 40 40 33 41 34 42 38 43 41 44 35 45
REMARK SMILES IDX 36 46 39 47 37 48 63 49 64 50 72 51 65 52 66 53 70 54 73 55
REMARK SMILES IDX 67 56 68 57 71 58 69 59 48 60 49 61 57 62 50 63 51 64 55 65
REMARK SMILES IDX 58 66 52 67 53 68 56 69 54 70 5 71 6 72 7 73 8 74 9 76 10 77
REMARK SMILES IDX 11 78 21 79 12 80 20 81 13 82 14 83 19 84 15 85 18 86 16 87
REMARK SMILES IDX 17 88
REMARK H PARENT 3 5 78 23 46 34 7 75
REMARK Flexibility Score: inf
ROOT
ATOM      1  C   UNL A   1      41.304  20.015  27.026  1.00  0.00     0.118 C 
ENDROOT
BRANCH   1   2
ATOM      2  N   UNL A   1      40.081  20.509  26.421  1.00  0.00    -0.352 N 
ATOM      3  O   UNL A   1      38.508  21.779  25.534  1.00  0.00    -0.269 OA
ATOM      4  C   UNL A   1      39.515  21.741  26.247  1.00  0.00     0.251 C 
ATOM      5  H   UNL A   1      39.528  19.785  26.048  1.00  0.00     0.163 HD
BRANCH   4   6
ATOM      6  C   UNL A   1      39.978  23.000  26.889  1.00  0.00     0.039 A 
ATOM      7  C   UNL A   1      41.127  23.142  27.666  1.00  0.00     0.014 A 
ATOM      8  C   UNL A   1      39.163  24.131  26.687  1.00  0.00     0.014 A 
ATOM      9  C   UNL A   1      41.416  24.354  28.291  1.00  0.00     0.010 A 
ATOM     10  C   UNL A   1      39.459  25.351  27.286  1.00  0.00     0.010 A 
ATOM     11  C   UNL A   1      40.574  25.454  28.113  1.00  0.00    -0.014 A 
BRANCH  11  12
ATOM     12  C   UNL A   1      40.984  26.737  28.687  1.00  0.00     0.031 A 
ATOM     13  C   UNL A   1      42.215  27.343  28.102  1.00  0.00     0.074 A 
ATOM     14  C   UNL A   1      40.227  27.443  29.550  1.00  0.00     0.049 A 
ATOM     15  N   UNL A   1      43.272  27.772  28.716  1.00  0.00    -0.248 NA
ATOM     16  C   UNL A   1      42.293  27.445  26.636  1.00  0.00     0.031 C 
ATOM     17  C   UNL A   1      38.860  27.137  29.972  1.00  0.00     0.029 A 
ATOM     18  N   UNL A   1      40.479  28.653  30.139  1.00  0.00    -0.354 N 
ATOM     19  C   UNL A   1      44.079  28.349  27.735  1.00  0.00     0.074 A 
ATOM     20  C   UNL A   1      43.485  28.018  26.468  1.00  0.00     0.031 C 
ATOM     21  C   UNL A   1      38.328  28.228  30.563  1.00  0.00     0.029 A 
ATOM     22  C   UNL A   1      39.347  29.262  30.661  1.00  0.00     0.049 A 
ATOM     23  H   UNL A   1      41.377  29.053  30.187  1.00  0.00     0.167 HD
ATOM     24  C   UNL A   1      45.046  29.251  28.053  1.00  0.00     0.037 A 
ATOM     25  C   UNL A   1      39.224  30.544  31.078  1.00  0.00     0.037 A 
ATOM     26  C   UNL A   1      45.438  29.145  29.434  1.00  0.00     0.049 A 
ATOM     27  C   UNL A   1      40.575  31.078  31.358  1.00  0.00     0.074 A 
ATOM     28  C   UNL A   1      46.014  28.179  30.233  1.00  0.00     0.029 A 
ATOM     29  N   UNL A   1      44.987  30.118  30.285  1.00  0.00    -0.354 N 
ATOM     30  N   UNL A   1      41.322  30.717  32.363  1.00  0.00    -0.248 NA
ATOM     31  C   UNL A   1      41.250  31.860  30.330  1.00  0.00     0.031 C 
ATOM     32  C   UNL A   1      45.528  28.430  31.551  1.00  0.00     0.029 A 
ATOM     33  C   UNL A   1      44.687  29.542  31.487  1.00  0.00     0.049 A 
ATOM     34  H   UNL A   1      44.894  31.073  30.066  1.00  0.00     0.167 HD
ATOM     35  C   UNL A   1      42.617  30.844  31.894  1.00  0.00     0.074 A 
ATOM     36  C   UNL A   1      42.515  31.711  30.730  1.00  0.00     0.031 C 
ATOM     37  C   UNL A   1      43.591  29.986  32.314  1.00  0.00     0.037 A 
BRANCH  24  38
ATOM     38  C   UNL A   1      45.328  30.512  27.253  1.00  0.00     0.064 A 
ATOM     39  C   UNL A   1      46.668  30.823  26.928  1.00  0.00     0.173 A 
ATOM     40  C   UNL A   1      44.414  31.580  27.121  1.00  0.00     0.173 A 
ATOM     41  F   UNL A   1      47.625  29.886  27.005  1.00  0.00    -0.203 F 
ATOM     42  C   UNL A   1      47.076  32.127  26.640  1.00  0.00     0.198 A 
ATOM     43  C   UNL A   1      44.819  32.871  26.779  1.00  0.00     0.198 A 
ATOM     44  F   UNL A   1      43.118  31.456  27.427  1.00  0.00    -0.203 F 
ATOM     45  F   UNL A   1      48.381  32.401  26.504  1.00  0.00    -0.200 F 
ATOM     46  C   UNL A   1      46.154  33.154  26.583  1.00  0.00     0.200 A 
ATOM     47  F   UNL A   1      43.911  33.855  26.734  1.00  0.00    -0.200 F 
ATOM     48  F   UNL A   1      46.552  34.419  26.393  1.00  0.00    -0.200 F 
ENDBRANCH  24  38
BRANCH  25  49
ATOM     49  C   UNL A   1      38.023  31.413  31.069  1.00  0.00     0.064 A 
ATOM     50  C   UNL A   1      37.484  31.895  29.864  1.00  0.00     0.173 A 
ATOM     51  C   UNL A   1      37.229  31.583  32.220  1.00  0.00     0.173 A 
ATOM     52  F   UNL A   1      38.149  31.733  28.711  1.00  0.00    -0.203 F 
ATOM     53  C   UNL A   1      36.219  32.490  29.812  1.00  0.00     0.198 A 
ATOM     54  C   UNL A   1      35.976  32.194  32.170  1.00  0.00     0.198 A 
ATOM     55  F   UNL A   1      37.611  31.079  33.402  1.00  0.00    -0.203 F 
ATOM     56  F   UNL A   1      35.712  32.875  28.633  1.00  0.00    -0.200 F 
ATOM     57  C   UNL A   1      35.464  32.634  30.963  1.00  0.00     0.200 A 
ATOM     58  F   UNL A   1      35.243  32.297  33.287  1.00  0.00    -0.200 F 
ATOM     59  F   UNL A   1      34.231  33.155  30.906  1.00  0.00    -0.200 F 
ENDBRANCH  25  49
BRANCH  37  60
ATOM     60  C   UNL A   1      43.364  29.264  33.605  1.00  0.00     0.064 A 
ATOM     61  C   UNL A   1      43.726  29.765  34.866  1.00  0.00     0.173 A 
ATOM     62  C   UNL A   1      42.670  28.047  33.563  1.00  0.00     0.173 A 
ATOM     63  F   UNL A   1      44.297  30.971  34.993  1.00  0.00    -0.203 F 
ATOM     64  C   UNL A   1      43.463  29.042  36.027  1.00  0.00     0.198 A 
ATOM     65  C   UNL A   1      42.371  27.347  34.727  1.00  0.00     0.198 A 
ATOM     66  F   UNL A   1      42.250  27.551  32.388  1.00  0.00    -0.203 F 
ATOM     67  F   UNL A   1      43.845  29.523  37.219  1.00  0.00    -0.200 F 
ATOM     68  C   UNL A   1      42.782  27.836  35.957  1.00  0.00     0.200 A 
ATOM     69  F   UNL A   1      41.669  26.208  34.659  1.00  0.00    -0.200 F 
ATOM     70  F   UNL A   1      42.500  27.157  37.078  1.00  0.00    -0.200 F 
ENDBRANCH  37  60
ENDBRANCH  11  12
ENDBRANCH   4   6
ENDBRANCH   1   2
BRANCH   1  71
ATOM     71  C   UNL A   1      42.380  19.544  26.047  1.00  0.00     0.042 C 
BRANCH  71  72
ATOM     72  C   UNL A   1      43.449  20.583  25.713  1.00  0.00     0.118 C 
BRANCH  72  73
ATOM     73  N   UNL A   1      44.692  19.984  25.261  1.00  0.00    -0.351 N 
ATOM     74  C   UNL A   1      45.886  20.577  24.944  1.00  0.00     0.271 C 
ATOM     75  H   UNL A   1      44.673  19.004  25.165  1.00  0.00     0.163 HD
ATOM     76  O   UNL A   1      46.768  19.880  24.422  1.00  0.00    -0.267 OA
BRANCH  74  77
ATOM     77  C   UNL A   1      46.089  21.987  25.252  1.00  0.00     0.146 A 
ATOM     78  C   UNL A   1      46.456  22.986  24.365  1.00  0.00     0.128 A 
ATOM     79  N   UNL A   1      45.899  22.526  26.508  1.00  0.00    -0.231 NA
ATOM     80  N   UNL A   1      46.544  24.143  25.107  1.00  0.00    -0.290 N 
ATOM     81  C   UNL A   1      46.190  23.802  26.391  1.00  0.00     0.206 A 
BRANCH  80  82
ATOM     82  C   UNL A   1      46.946  25.437  24.683  1.00  0.00     0.142 A 
ATOM     83  C   UNL A   1      48.225  25.649  24.222  1.00  0.00     0.088 A 
ATOM     84  N   UNL A   1      46.029  26.428  24.772  1.00  0.00    -0.219 NA
ATOM     85  C   UNL A   1      48.502  26.946  23.865  1.00  0.00     0.134 A 
ATOM     86  C   UNL A   1      46.436  27.657  24.427  1.00  0.00     0.226 A 
ATOM     87  Cl  UNL A   1      50.037  27.363  23.220  1.00  0.00    -0.062 Cl
ATOM     88  N   UNL A   1      47.646  27.975  23.965  1.00  0.00    -0.224 NA
ENDBRANCH  80  82
ENDBRANCH  74  77
ENDBRANCH  72  73
ENDBRANCH  71  72
ENDBRANCH   1  71
TORSDOF 11
ENDMDL
