MODEL 1
REMARK VINA RESULT:     -12.5      0.000      0.000
REMARK SMILES COc1cc(/C=N/NC(=O)c2cc(Cl)ccc2O)ccc1OCC(=O)NCCCNC(=O)c1ccc(-c2c3nc(c(-c4c(F)c(F)c(F)c(F)c4F)c4ccc([nH]4)c(-c4c(F)c(F)c(F)c(F)c4F)c4nc(c(-c5c(F)c(F)c(F)c(F)c5F)c5ccc2[nH]5)C=C4)C=C3)cc1
REMARK SMILES IDX 24 1 25 2 26 3 23 5 22 6 21 7 3 8 4 9 5 10 20 11 19 12 2 13
REMARK SMILES IDX 1 14 6 15 7 16 8 17 9 18 10 20 11 21 12 22 17 23 13 24 16 25
REMARK SMILES IDX 14 26 15 27 18 28 27 30 28 31 29 32 30 33 31 34 32 36 33 37
REMARK SMILES IDX 34 38 95 39 35 40 94 41 36 42 37 43 38 44 88 45 39 46 93 47
REMARK SMILES IDX 87 48 89 49 40 50 92 51 86 52 85 53 41 55 73 56 53 57 72 58
REMARK SMILES IDX 54 59 57 60 71 61 90 62 55 63 56 64 70 66 91 67 58 68 42 69
REMARK SMILES IDX 43 70 51 71 44 72 45 73 49 74 52 75 46 76 47 77 50 78 48 79
REMARK SMILES IDX 74 80 75 81 83 82 76 83 77 84 81 85 84 86 78 87 79 88 82 89
REMARK SMILES IDX 80 90 59 91 60 92 68 93 61 94 62 95 66 96 69 97 63 98 64 99
REMARK SMILES IDX 67 100 65 101
REMARK H PARENT 26 4 8 19 18 29 30 35 89 54 57 65
REMARK Flexibility Score: inf
ROOT
ATOM      1  C   UNL A   1      47.357  21.166  39.617  1.00  0.00     0.257 C 
ATOM      2  O   UNL A   1      48.264  20.829  40.380  1.00  0.00    -0.271 OA
ATOM      3  N   UNL A   1      46.905  22.450  39.710  1.00  0.00    -0.353 N 
ATOM      4  H   UNL A   1      47.195  22.944  40.510  1.00  0.00     0.163 HD
ENDROOT
BRANCH   1   5
ATOM      5  C   UNL A   1      46.795  20.222  38.546  1.00  0.00     0.329 C 
BRANCH   5   6
ATOM      6  O   UNL A   1      46.920  18.830  38.775  1.00  0.00    -0.480 OA
BRANCH   6   7
ATOM      7  C   UNL A   1      45.864  18.099  39.241  1.00  0.00     0.161 A 
ATOM      8  C   UNL A   1      45.481  17.846  40.565  1.00  0.00     0.161 A 
ATOM      9  C   UNL A   1      44.374  17.024  40.832  1.00  0.00     0.060 A 
ATOM     10  C   UNL A   1      43.623  16.498  39.779  1.00  0.00    -0.002 A 
ATOM     11  C   UNL A   1      45.109  17.536  38.200  1.00  0.00     0.051 A 
ATOM     12  C   UNL A   1      43.981  16.757  38.458  1.00  0.00     0.014 A 
BRANCH   8  13
ATOM     13  O   UNL A   1      46.251  18.290  41.604  1.00  0.00    -0.493 OA
ATOM     14  C   UNL A   1      47.298  17.383  41.954  1.00  0.00     0.278 C 
ENDBRANCH   8  13
BRANCH  10  15
ATOM     15  C   UNL A   1      42.489  15.586  40.022  1.00  0.00     0.141 C 
ATOM     16  N   UNL A   1      42.603  14.308  39.832  1.00  0.00    -0.180 NA
BRANCH  16  17
ATOM     17  N   UNL A   1      41.478  13.541  39.941  1.00  0.00    -0.243 N 
ATOM     18  C   UNL A   1      40.976  12.844  41.030  1.00  0.00     0.275 C 
ATOM     19  H   UNL A   1      40.940  13.474  39.120  1.00  0.00     0.194 HD
ATOM     20  O   UNL A   1      39.973  12.143  40.905  1.00  0.00    -0.267 OA
BRANCH  18  21
ATOM     21  C   UNL A   1      41.628  12.926  42.356  1.00  0.00     0.084 A 
ATOM     22  C   UNL A   1      42.382  11.815  42.758  1.00  0.00     0.038 A 
ATOM     23  C   UNL A   1      41.525  14.033  43.208  1.00  0.00     0.128 A 
ATOM     24  C   UNL A   1      43.079  11.850  43.964  1.00  0.00     0.042 A 
ATOM     25  C   UNL A   1      42.223  14.060  44.415  1.00  0.00     0.048 A 
ATOM     26  Cl  UNL A   1      44.045  10.505  44.430  1.00  0.00    -0.084 Cl
ATOM     27  C   UNL A   1      43.015  12.973  44.787  1.00  0.00     0.024 A 
BRANCH  23  28
ATOM     28  O   UNL A   1      40.778  15.142  42.924  1.00  0.00    -0.507 OA
ATOM     29  H   UNL A   1      39.960  15.281  43.359  1.00  0.00     0.293 HD
ENDBRANCH  23  28
ENDBRANCH  18  21
ENDBRANCH  16  17
ENDBRANCH  10  15
ENDBRANCH   6   7
ENDBRANCH   5   6
ENDBRANCH   1   5
BRANCH   3  30
ATOM     30  C   UNL A   1      46.060  23.188  38.793  1.00  0.00     0.117 C 
BRANCH  30  31
ATOM     31  C   UNL A   1      45.325  24.349  39.453  1.00  0.00     0.042 C 
BRANCH  31  32
ATOM     32  C   UNL A   1      45.781  25.736  39.009  1.00  0.00     0.118 C 
BRANCH  32  33
ATOM     33  N   UNL A   1      47.049  25.724  38.290  1.00  0.00    -0.352 N 
ATOM     34  C   UNL A   1      47.341  25.955  36.969  1.00  0.00     0.251 C 
ATOM     35  H   UNL A   1      47.831  25.513  38.849  1.00  0.00     0.163 HD
ATOM     36  O   UNL A   1      48.469  25.726  36.546  1.00  0.00    -0.269 OA
BRANCH  34  37
ATOM     37  C   UNL A   1      46.300  26.446  36.041  1.00  0.00     0.039 A 
ATOM     38  C   UNL A   1      45.204  25.624  35.767  1.00  0.00     0.014 A 
ATOM     39  C   UNL A   1      46.403  27.698  35.431  1.00  0.00     0.014 A 
ATOM     40  C   UNL A   1      44.167  26.095  34.959  1.00  0.00     0.010 A 
ATOM     41  C   UNL A   1      45.333  28.199  34.694  1.00  0.00     0.010 A 
ATOM     42  C   UNL A   1      44.198  27.408  34.461  1.00  0.00    -0.014 A 
BRANCH  42  43
ATOM     43  C   UNL A   1      43.046  27.982  33.721  1.00  0.00     0.031 A 
ATOM     44  C   UNL A   1      42.857  27.691  32.260  1.00  0.00     0.074 A 
ATOM     45  C   UNL A   1      42.213  28.834  34.352  1.00  0.00     0.049 A 
ATOM     46  N   UNL A   1      41.971  28.174  31.425  1.00  0.00    -0.248 NA
ATOM     47  C   UNL A   1      43.809  26.751  31.647  1.00  0.00     0.031 C 
ATOM     48  C   UNL A   1      42.313  29.227  35.758  1.00  0.00     0.029 A 
ATOM     49  N   UNL A   1      41.125  29.533  33.890  1.00  0.00    -0.354 N 
ATOM     50  C   UNL A   1      42.263  27.607  30.193  1.00  0.00     0.074 A 
ATOM     51  C   UNL A   1      43.444  26.789  30.373  1.00  0.00     0.031 C 
ATOM     52  C   UNL A   1      41.316  30.076  36.050  1.00  0.00     0.029 A 
ATOM     53  C   UNL A   1      40.535  30.327  34.843  1.00  0.00     0.049 A 
ATOM     54  H   UNL A   1      40.800  29.471  32.963  1.00  0.00     0.167 HD
ATOM     55  C   UNL A   1      41.593  27.736  29.023  1.00  0.00     0.037 A 
ATOM     56  C   UNL A   1      39.492  31.174  34.751  1.00  0.00     0.037 A 
ATOM     57  C   UNL A   1      40.412  28.542  28.851  1.00  0.00     0.049 A 
ATOM     58  C   UNL A   1      38.792  31.333  33.428  1.00  0.00     0.074 A 
ATOM     59  C   UNL A   1      39.628  28.694  27.720  1.00  0.00     0.029 A 
ATOM     60  N   UNL A   1      39.848  29.337  29.838  1.00  0.00    -0.354 N 
ATOM     61  N   UNL A   1      39.035  30.738  32.286  1.00  0.00    -0.248 NA
ATOM     62  C   UNL A   1      37.674  32.286  33.382  1.00  0.00     0.031 C 
ATOM     63  C   UNL A   1      38.624  29.627  28.006  1.00  0.00     0.029 A 
ATOM     64  C   UNL A   1      38.747  30.011  29.332  1.00  0.00     0.049 A 
ATOM     65  H   UNL A   1      40.181  29.413  30.761  1.00  0.00     0.167 HD
ATOM     66  C   UNL A   1      38.088  31.222  31.394  1.00  0.00     0.074 A 
ATOM     67  C   UNL A   1      37.253  32.146  32.133  1.00  0.00     0.031 C 
ATOM     68  C   UNL A   1      37.926  30.929  30.080  1.00  0.00     0.037 A 
BRANCH  55  69
ATOM     69  C   UNL A   1      42.127  26.991  27.832  1.00  0.00     0.064 A 
ATOM     70  C   UNL A   1      41.707  25.685  27.531  1.00  0.00     0.173 A 
ATOM     71  C   UNL A   1      43.050  27.596  26.966  1.00  0.00     0.173 A 
ATOM     72  F   UNL A   1      40.834  25.056  28.332  1.00  0.00    -0.203 F 
ATOM     73  C   UNL A   1      42.218  25.002  26.430  1.00  0.00     0.198 A 
ATOM     74  C   UNL A   1      43.533  26.923  25.847  1.00  0.00     0.198 A 
ATOM     75  F   UNL A   1      43.482  28.844  27.201  1.00  0.00    -0.203 F 
ATOM     76  F   UNL A   1      41.845  23.737  26.198  1.00  0.00    -0.200 F 
ATOM     77  C   UNL A   1      43.125  25.624  25.586  1.00  0.00     0.200 A 
ATOM     78  F   UNL A   1      44.398  27.530  25.023  1.00  0.00    -0.200 F 
ATOM     79  F   UNL A   1      43.613  24.966  24.525  1.00  0.00    -0.200 F 
ENDBRANCH  55  69
BRANCH  56  80
ATOM     80  C   UNL A   1      39.036  31.926  35.949  1.00  0.00     0.064 A 
ATOM     81  C   UNL A   1      38.175  31.333  36.884  1.00  0.00     0.173 A 
ATOM     82  C   UNL A   1      39.444  33.247  36.186  1.00  0.00     0.173 A 
ATOM     83  F   UNL A   1      37.742  30.079  36.693  1.00  0.00    -0.203 F 
ATOM     84  C   UNL A   1      37.724  32.039  37.998  1.00  0.00     0.198 A 
ATOM     85  C   UNL A   1      39.017  33.942  37.316  1.00  0.00     0.198 A 
ATOM     86  F   UNL A   1      40.273  33.859  35.328  1.00  0.00    -0.203 F 
ATOM     87  F   UNL A   1      36.866  31.462  38.850  1.00  0.00    -0.200 F 
ATOM     88  C   UNL A   1      38.151  33.341  38.216  1.00  0.00     0.200 A 
ATOM     89  F   UNL A   1      39.447  35.192  37.533  1.00  0.00    -0.200 F 
ATOM     90  F   UNL A   1      37.723  34.016  39.291  1.00  0.00    -0.200 F 
ENDBRANCH  56  80
BRANCH  68  91
ATOM     91  C   UNL A   1      36.789  31.597  29.360  1.00  0.00     0.064 A 
ATOM     92  C   UNL A   1      35.655  30.879  28.951  1.00  0.00     0.173 A 
ATOM     93  C   UNL A   1      36.815  32.979  29.116  1.00  0.00     0.173 A 
ATOM     94  F   UNL A   1      35.588  29.554  29.146  1.00  0.00    -0.203 F 
ATOM     95  C   UNL A   1      34.600  31.517  28.304  1.00  0.00     0.198 A 
ATOM     96  C   UNL A   1      35.744  33.619  28.498  1.00  0.00     0.198 A 
ATOM     97  F   UNL A   1      37.874  33.712  29.490  1.00  0.00    -0.203 F 
ATOM     98  F   UNL A   1      33.548  30.804  27.880  1.00  0.00    -0.200 F 
ATOM     99  C   UNL A   1      34.641  32.886  28.086  1.00  0.00     0.200 A 
ATOM    100  F   UNL A   1      35.779  34.944  28.302  1.00  0.00    -0.200 F 
ATOM    101  F   UNL A   1      33.619  33.500  27.473  1.00  0.00    -0.200 F 
ENDBRANCH  68  91
ENDBRANCH  42  43
ENDBRANCH  34  37
ENDBRANCH  32  33
ENDBRANCH  31  32
ENDBRANCH  30  31
ENDBRANCH   3  30
TORSDOF 17
ENDMDL
MODEL 2
REMARK VINA RESULT:     -12.4      8.567     15.584
REMARK SMILES COc1cc(/C=N/NC(=O)c2cc(Cl)ccc2O)ccc1OCC(=O)NCCCNC(=O)c1ccc(-c2c3nc(c(-c4c(F)c(F)c(F)c(F)c4F)c4ccc([nH]4)c(-c4c(F)c(F)c(F)c(F)c4F)c4nc(c(-c5c(F)c(F)c(F)c(F)c5F)c5ccc2[nH]5)C=C4)C=C3)cc1
REMARK SMILES IDX 24 1 25 2 26 3 23 5 22 6 21 7 3 8 4 9 5 10 20 11 19 12 2 13
REMARK SMILES IDX 1 14 6 15 7 16 8 17 9 18 10 20 11 21 12 22 17 23 13 24 16 25
REMARK SMILES IDX 14 26 15 27 18 28 27 30 28 31 29 32 30 33 31 34 32 36 33 37
REMARK SMILES IDX 34 38 95 39 35 40 94 41 36 42 37 43 38 44 88 45 39 46 93 47
REMARK SMILES IDX 87 48 89 49 40 50 92 51 86 52 85 53 41 55 73 56 53 57 72 58
REMARK SMILES IDX 54 59 57 60 71 61 90 62 55 63 56 64 70 66 91 67 58 68 42 69
REMARK SMILES IDX 43 70 51 71 44 72 45 73 49 74 52 75 46 76 47 77 50 78 48 79
REMARK SMILES IDX 74 80 75 81 83 82 76 83 77 84 81 85 84 86 78 87 79 88 82 89
REMARK SMILES IDX 80 90 59 91 60 92 68 93 61 94 62 95 66 96 69 97 63 98 64 99
REMARK SMILES IDX 67 100 65 101
REMARK H PARENT 26 4 8 19 18 29 30 35 89 54 57 65
REMARK Flexibility Score: inf
ROOT
ATOM      1  C   UNL A   1      35.033  31.329  27.853  1.00  0.00     0.257 C 
ATOM      2  O   UNL A   1      36.034  30.610  27.827  1.00  0.00    -0.271 OA
ATOM      3  N   UNL A   1      35.226  32.663  28.068  1.00  0.00    -0.353 N 
ATOM      4  H   UNL A   1      36.122  32.915  28.386  1.00  0.00     0.163 HD
ENDROOT
BRANCH   1   5
ATOM      5  C   UNL A   1      33.626  30.783  27.581  1.00  0.00     0.329 C 
BRANCH   5   6
ATOM      6  O   UNL A   1      33.313  30.423  26.247  1.00  0.00    -0.480 OA
BRANCH   6   7
ATOM      7  C   UNL A   1      32.819  29.184  25.953  1.00  0.00     0.161 A 
ATOM      8  C   UNL A   1      31.681  28.840  25.211  1.00  0.00     0.161 A 
ATOM      9  C   UNL A   1      31.321  27.492  25.060  1.00  0.00     0.060 A 
ATOM     10  C   UNL A   1      32.124  26.488  25.606  1.00  0.00    -0.002 A 
ATOM     11  C   UNL A   1      33.595  28.158  26.514  1.00  0.00     0.051 A 
ATOM     12  C   UNL A   1      33.269  26.814  26.328  1.00  0.00     0.014 A 
BRANCH   8  13
ATOM     13  O   UNL A   1      30.844  29.813  24.738  1.00  0.00    -0.493 OA
ATOM     14  C   UNL A   1      30.297  29.509  23.455  1.00  0.00     0.278 C 
ENDBRANCH   8  13
BRANCH  10  15
ATOM     15  C   UNL A   1      31.747  25.064  25.514  1.00  0.00     0.141 C 
ATOM     16  N   UNL A   1      32.540  24.132  25.944  1.00  0.00    -0.180 NA
BRANCH  16  17
ATOM     17  N   UNL A   1      32.191  22.833  25.701  1.00  0.00    -0.243 N 
ATOM     18  C   UNL A   1      32.887  21.833  25.039  1.00  0.00     0.275 C 
ATOM     19  H   UNL A   1      31.312  22.566  26.052  1.00  0.00     0.194 HD
ATOM     20  O   UNL A   1      32.365  20.733  24.858  1.00  0.00    -0.267 OA
BRANCH  18  21
ATOM     21  C   UNL A   1      34.261  22.059  24.537  1.00  0.00     0.084 A 
ATOM     22  C   UNL A   1      35.260  21.205  25.025  1.00  0.00     0.038 A 
ATOM     23  C   UNL A   1      34.601  23.065  23.623  1.00  0.00     0.128 A 
ATOM     24  C   UNL A   1      36.563  21.317  24.545  1.00  0.00     0.042 A 
ATOM     25  C   UNL A   1      35.908  23.173  23.149  1.00  0.00     0.048 A 
ATOM     26  Cl  UNL A   1      37.775  20.233  25.107  1.00  0.00    -0.084 Cl
ATOM     27  C   UNL A   1      36.888  22.286  23.598  1.00  0.00     0.024 A 
BRANCH  23  28
ATOM     28  O   UNL A   1      33.708  23.972  23.126  1.00  0.00    -0.507 OA
ATOM     29  H   UNL A   1      32.817  23.721  22.977  1.00  0.00     0.293 HD
ENDBRANCH  23  28
ENDBRANCH  18  21
ENDBRANCH  16  17
ENDBRANCH  10  15
ENDBRANCH   6   7
ENDBRANCH   5   6
ENDBRANCH   1   5
BRANCH   3  30
ATOM     30  C   UNL A   1      34.295  33.759  27.891  1.00  0.00     0.117 C 
BRANCH  30  31
ATOM     31  C   UNL A   1      33.608  34.181  29.185  1.00  0.00     0.042 C 
BRANCH  31  32
ATOM     32  C   UNL A   1      33.492  35.689  29.388  1.00  0.00     0.118 C 
BRANCH  32  33
ATOM     33  N   UNL A   1      32.616  36.057  30.493  1.00  0.00    -0.352 N 
ATOM     34  C   UNL A   1      32.680  35.767  31.833  1.00  0.00     0.251 C 
ATOM     35  H   UNL A   1      31.844  36.609  30.232  1.00  0.00     0.163 HD
ATOM     36  O   UNL A   1      31.734  36.045  32.561  1.00  0.00    -0.269 OA
BRANCH  34  37
ATOM     37  C   UNL A   1      33.865  35.091  32.402  1.00  0.00     0.039 A 
ATOM     38  C   UNL A   1      33.715  33.806  32.931  1.00  0.00     0.014 A 
ATOM     39  C   UNL A   1      35.113  35.717  32.432  1.00  0.00     0.014 A 
ATOM     40  C   UNL A   1      34.833  33.114  33.401  1.00  0.00     0.010 A 
ATOM     41  C   UNL A   1      36.239  34.997  32.822  1.00  0.00     0.010 A 
ATOM     42  C   UNL A   1      36.113  33.683  33.299  1.00  0.00    -0.014 A 
BRANCH  42  43
ATOM     43  C   UNL A   1      37.333  32.915  33.656  1.00  0.00     0.031 A 
ATOM     44  C   UNL A   1      38.065  33.200  34.936  1.00  0.00     0.074 A 
ATOM     45  C   UNL A   1      37.825  32.012  32.784  1.00  0.00     0.049 A 
ATOM     46  N   UNL A   1      39.195  32.702  35.373  1.00  0.00    -0.248 NA
ATOM     47  C   UNL A   1      37.462  34.198  35.832  1.00  0.00     0.031 C 
ATOM     48  C   UNL A   1      37.227  31.673  31.491  1.00  0.00     0.029 A 
ATOM     49  N   UNL A   1      38.948  31.224  32.846  1.00  0.00    -0.354 N 
ATOM     50  C   UNL A   1      39.441  33.332  36.586  1.00  0.00     0.074 A 
ATOM     51  C   UNL A   1      38.375  34.290  36.788  1.00  0.00     0.031 C 
ATOM     52  C   UNL A   1      37.974  30.731  30.894  1.00  0.00     0.029 A 
ATOM     53  C   UNL A   1      39.128  30.434  31.737  1.00  0.00     0.049 A 
ATOM     54  H   UNL A   1      39.565  31.225  33.613  1.00  0.00     0.167 HD
ATOM     55  C   UNL A   1      40.450  33.113  37.462  1.00  0.00     0.037 A 
ATOM     56  C   UNL A   1      40.120  29.579  31.425  1.00  0.00     0.037 A 
ATOM     57  C   UNL A   1      41.502  32.150  37.262  1.00  0.00     0.049 A 
ATOM     58  C   UNL A   1      41.254  29.386  32.397  1.00  0.00     0.074 A 
ATOM     59  C   UNL A   1      42.539  31.814  38.115  1.00  0.00     0.029 A 
ATOM     60  N   UNL A   1      41.656  31.374  36.122  1.00  0.00    -0.354 N 
ATOM     61  N   UNL A   1      41.438  29.936  33.572  1.00  0.00    -0.248 NA
ATOM     62  C   UNL A   1      42.318  28.456  31.995  1.00  0.00     0.031 C 
ATOM     63  C   UNL A   1      43.352  30.877  37.468  1.00  0.00     0.029 A 
ATOM     64  C   UNL A   1      42.790  30.585  36.235  1.00  0.00     0.049 A 
ATOM     65  H   UNL A   1      41.048  31.382  35.347  1.00  0.00     0.167 HD
ATOM     66  C   UNL A   1      42.622  29.401  34.062  1.00  0.00     0.074 A 
ATOM     67  C   UNL A   1      43.103  28.468  33.064  1.00  0.00     0.031 C 
ATOM     68  C   UNL A   1      43.256  29.661  35.232  1.00  0.00     0.037 A 
BRANCH  55  69
ATOM     69  C   UNL A   1      40.467  33.935  38.720  1.00  0.00     0.064 A 
ATOM     70  C   UNL A   1      39.753  33.546  39.865  1.00  0.00     0.173 A 
ATOM     71  C   UNL A   1      41.225  35.114  38.793  1.00  0.00     0.173 A 
ATOM     72  F   UNL A   1      39.003  32.433  39.845  1.00  0.00    -0.203 F 
ATOM     73  C   UNL A   1      39.768  34.323  41.020  1.00  0.00     0.198 A 
ATOM     74  C   UNL A   1      41.266  35.870  39.961  1.00  0.00     0.198 A 
ATOM     75  F   UNL A   1      41.932  35.530  37.732  1.00  0.00    -0.203 F 
ATOM     76  F   UNL A   1      39.032  33.960  42.078  1.00  0.00    -0.200 F 
ATOM     77  C   UNL A   1      40.530  35.480  41.069  1.00  0.00     0.200 A 
ATOM     78  F   UNL A   1      42.014  36.981  40.013  1.00  0.00    -0.200 F 
ATOM     79  F   UNL A   1      40.547  36.225  42.184  1.00  0.00    -0.200 F 
ENDBRANCH  55  69
BRANCH  56  80
ATOM     80  C   UNL A   1      40.081  28.827  30.144  1.00  0.00     0.064 A 
ATOM     81  C   UNL A   1      39.452  27.576  30.064  1.00  0.00     0.173 A 
ATOM     82  C   UNL A   1      40.668  29.336  28.975  1.00  0.00     0.173 A 
ATOM     83  F   UNL A   1      38.892  27.038  31.157  1.00  0.00    -0.203 F 
ATOM     84  C   UNL A   1      39.431  26.855  28.872  1.00  0.00     0.198 A 
ATOM     85  C   UNL A   1      40.619  28.628  27.776  1.00  0.00     0.198 A 
ATOM     86  F   UNL A   1      41.276  30.532  28.994  1.00  0.00    -0.203 F 
ATOM     87  F   UNL A   1      38.863  25.642  28.837  1.00  0.00    -0.200 F 
ATOM     88  C   UNL A   1      40.009  27.384  27.728  1.00  0.00     0.200 A 
ATOM     89  F   UNL A   1      41.162  29.151  26.669  1.00  0.00    -0.200 F 
ATOM     90  F   UNL A   1      39.981  26.693  26.580  1.00  0.00    -0.200 F 
ENDBRANCH  56  80
BRANCH  68  91
ATOM     91  C   UNL A   1      44.527  28.911  35.509  1.00  0.00     0.064 A 
ATOM     92  C   UNL A   1      44.519  27.661  36.148  1.00  0.00     0.173 A 
ATOM     93  C   UNL A   1      45.764  29.426  35.092  1.00  0.00     0.173 A 
ATOM     94  F   UNL A   1      43.365  27.132  36.582  1.00  0.00    -0.203 F 
ATOM     95  C   UNL A   1      45.704  26.968  36.378  1.00  0.00     0.198 A 
ATOM     96  C   UNL A   1      46.943  28.715  35.294  1.00  0.00     0.198 A 
ATOM     97  F   UNL A   1      45.828  30.614  34.473  1.00  0.00    -0.203 F 
ATOM     98  F   UNL A   1      45.677  25.798  37.033  1.00  0.00    -0.200 F 
ATOM     99  C   UNL A   1      46.913  27.490  35.944  1.00  0.00     0.200 A 
ATOM    100  F   UNL A   1      48.109  29.215  34.861  1.00  0.00    -0.200 F 
ATOM    101  F   UNL A   1      48.052  26.816  36.156  1.00  0.00    -0.200 F 
ENDBRANCH  68  91
ENDBRANCH  42  43
ENDBRANCH  34  37
ENDBRANCH  32  33
ENDBRANCH  31  32
ENDBRANCH  30  31
ENDBRANCH   3  30
TORSDOF 17
ENDMDL
MODEL 3
REMARK VINA RESULT:     -12.2      9.755     15.996
REMARK SMILES COc1cc(/C=N/NC(=O)c2cc(Cl)ccc2O)ccc1OCC(=O)NCCCNC(=O)c1ccc(-c2c3nc(c(-c4c(F)c(F)c(F)c(F)c4F)c4ccc([nH]4)c(-c4c(F)c(F)c(F)c(F)c4F)c4nc(c(-c5c(F)c(F)c(F)c(F)c5F)c5ccc2[nH]5)C=C4)C=C3)cc1
REMARK SMILES IDX 24 1 25 2 26 3 23 5 22 6 21 7 3 8 4 9 5 10 20 11 19 12 2 13
REMARK SMILES IDX 1 14 6 15 7 16 8 17 9 18 10 20 11 21 12 22 17 23 13 24 16 25
REMARK SMILES IDX 14 26 15 27 18 28 27 30 28 31 29 32 30 33 31 34 32 36 33 37
REMARK SMILES IDX 34 38 95 39 35 40 94 41 36 42 37 43 38 44 88 45 39 46 93 47
REMARK SMILES IDX 87 48 89 49 40 50 92 51 86 52 85 53 41 55 73 56 53 57 72 58
REMARK SMILES IDX 54 59 57 60 71 61 90 62 55 63 56 64 70 66 91 67 58 68 42 69
REMARK SMILES IDX 43 70 51 71 44 72 45 73 49 74 52 75 46 76 47 77 50 78 48 79
REMARK SMILES IDX 74 80 75 81 83 82 76 83 77 84 81 85 84 86 78 87 79 88 82 89
REMARK SMILES IDX 80 90 59 91 60 92 68 93 61 94 62 95 66 96 69 97 63 98 64 99
REMARK SMILES IDX 67 100 65 101
REMARK H PARENT 26 4 8 19 18 29 30 35 89 54 57 65
REMARK Flexibility Score: inf
ROOT
ATOM      1  C   UNL A   1      35.711  22.771  23.911  1.00  0.00     0.257 C 
ATOM      2  O   UNL A   1      35.344  23.056  22.770  1.00  0.00    -0.271 OA
ATOM      3  N   UNL A   1      35.818  21.447  24.222  1.00  0.00    -0.353 N 
ATOM      4  H   UNL A   1      35.402  20.827  23.581  1.00  0.00     0.163 HD
ENDROOT
BRANCH   1   5
ATOM      5  C   UNL A   1      36.111  23.842  24.934  1.00  0.00     0.329 C 
BRANCH   5   6
ATOM      6  O   UNL A   1      35.337  23.934  26.117  1.00  0.00    -0.480 OA
BRANCH   6   7
ATOM      7  C   UNL A   1      33.984  24.111  26.057  1.00  0.00     0.161 A 
ATOM      8  C   UNL A   1      32.962  23.164  26.208  1.00  0.00     0.161 A 
ATOM      9  C   UNL A   1      31.620  23.549  26.067  1.00  0.00     0.060 A 
ATOM     10  C   UNL A   1      31.297  24.886  25.825  1.00  0.00    -0.002 A 
ATOM     11  C   UNL A   1      33.635  25.444  25.788  1.00  0.00     0.051 A 
ATOM     12  C   UNL A   1      32.301  25.841  25.693  1.00  0.00     0.014 A 
BRANCH   8  13
ATOM     13  O   UNL A   1      33.266  21.839  26.367  1.00  0.00    -0.493 OA
ATOM     14  C   UNL A   1      32.604  20.995  25.424  1.00  0.00     0.278 C 
ENDBRANCH   8  13
BRANCH  10  15
ATOM     15  C   UNL A   1      29.901  25.316  25.616  1.00  0.00     0.141 C 
ATOM     16  N   UNL A   1      29.452  25.579  24.428  1.00  0.00    -0.180 NA
BRANCH  16  17
ATOM     17  N   UNL A   1      28.195  26.106  24.320  1.00  0.00    -0.243 N 
ATOM     18  C   UNL A   1      27.783  27.330  23.818  1.00  0.00     0.275 C 
ATOM     19  H   UNL A   1      27.472  25.525  24.649  1.00  0.00     0.194 HD
ATOM     20  O   UNL A   1      26.597  27.654  23.876  1.00  0.00    -0.267 OA
BRANCH  18  21
ATOM     21  C   UNL A   1      28.748  28.271  23.205  1.00  0.00     0.084 A 
ATOM     22  C   UNL A   1      30.107  27.955  23.337  1.00  0.00     0.038 A 
ATOM     23  C   UNL A   1      28.374  29.433  22.518  1.00  0.00     0.128 A 
ATOM     24  C   UNL A   1      31.068  28.758  22.726  1.00  0.00     0.042 A 
ATOM     25  C   UNL A   1      29.341  30.234  21.911  1.00  0.00     0.048 A 
ATOM     26  Cl  UNL A   1      32.732  28.339  22.847  1.00  0.00    -0.084 Cl
ATOM     27  C   UNL A   1      30.691  29.886  22.001  1.00  0.00     0.024 A 
BRANCH  23  28
ATOM     28  O   UNL A   1      27.080  29.847  22.376  1.00  0.00    -0.507 OA
ATOM     29  H   UNL A   1      26.404  29.467  22.903  1.00  0.00     0.293 HD
ENDBRANCH  23  28
ENDBRANCH  18  21
ENDBRANCH  16  17
ENDBRANCH  10  15
ENDBRANCH   6   7
ENDBRANCH   5   6
ENDBRANCH   1   5
BRANCH   3  30
ATOM     30  C   UNL A   1      36.461  20.827  25.363  1.00  0.00     0.117 C 
BRANCH  30  31
ATOM     31  C   UNL A   1      37.736  20.073  25.001  1.00  0.00     0.042 C 
BRANCH  31  32
ATOM     32  C   UNL A   1      38.969  20.471  25.806  1.00  0.00     0.118 C 
BRANCH  32  33
ATOM     33  N   UNL A   1      39.961  19.408  25.906  1.00  0.00    -0.352 N 
ATOM     34  C   UNL A   1      41.319  19.455  26.105  1.00  0.00     0.251 C 
ATOM     35  H   UNL A   1      39.594  18.500  25.815  1.00  0.00     0.163 HD
ATOM     36  O   UNL A   1      41.986  18.433  25.988  1.00  0.00    -0.269 OA
BRANCH  34  37
ATOM     37  C   UNL A   1      41.990  20.732  26.427  1.00  0.00     0.039 A 
ATOM     38  C   UNL A   1      42.436  21.539  25.376  1.00  0.00     0.014 A 
ATOM     39  C   UNL A   1      42.196  21.131  27.748  1.00  0.00     0.014 A 
ATOM     40  C   UNL A   1      42.999  22.787  25.649  1.00  0.00     0.010 A 
ATOM     41  C   UNL A   1      42.682  22.408  28.018  1.00  0.00     0.010 A 
ATOM     42  C   UNL A   1      43.076  23.254  26.972  1.00  0.00    -0.014 A 
BRANCH  42  43
ATOM     43  C   UNL A   1      43.537  24.633  27.279  1.00  0.00     0.031 A 
ATOM     44  C   UNL A   1      42.572  25.660  27.797  1.00  0.00     0.074 A 
ATOM     45  C   UNL A   1      44.812  24.978  27.013  1.00  0.00     0.049 A 
ATOM     46  N   UNL A   1      42.765  26.934  28.033  1.00  0.00    -0.248 NA
ATOM     47  C   UNL A   1      41.200  25.202  28.062  1.00  0.00     0.031 C 
ATOM     48  C   UNL A   1      45.835  24.082  26.472  1.00  0.00     0.029 A 
ATOM     49  N   UNL A   1      45.463  26.179  27.149  1.00  0.00    -0.354 N 
ATOM     50  C   UNL A   1      41.541  27.429  28.462  1.00  0.00     0.074 A 
ATOM     51  C   UNL A   1      40.597  26.333  28.398  1.00  0.00     0.031 C 
ATOM     52  C   UNL A   1      46.989  24.756  26.345  1.00  0.00     0.029 A 
ATOM     53  C   UNL A   1      46.777  26.142  26.748  1.00  0.00     0.049 A 
ATOM     54  H   UNL A   1      45.030  26.990  27.501  1.00  0.00     0.167 HD
ATOM     55  C   UNL A   1      41.237  28.677  28.892  1.00  0.00     0.037 A 
ATOM     56  C   UNL A   1      47.702  27.119  26.696  1.00  0.00     0.037 A 
ATOM     57  C   UNL A   1      42.183  29.760  28.964  1.00  0.00     0.049 A 
ATOM     58  C   UNL A   1      47.327  28.508  27.138  1.00  0.00     0.074 A 
ATOM     59  C   UNL A   1      41.988  31.046  29.438  1.00  0.00     0.029 A 
ATOM     60  N   UNL A   1      43.502  29.687  28.542  1.00  0.00    -0.354 N 
ATOM     61  N   UNL A   1      46.185  28.947  27.608  1.00  0.00    -0.248 NA
ATOM     62  C   UNL A   1      48.372  29.538  27.040  1.00  0.00     0.031 C 
ATOM     63  C   UNL A   1      43.172  31.767  29.249  1.00  0.00     0.029 A 
ATOM     64  C   UNL A   1      44.123  30.914  28.712  1.00  0.00     0.049 A 
ATOM     65  H   UNL A   1      43.934  28.881  28.175  1.00  0.00     0.167 HD
ATOM     66  C   UNL A   1      46.378  30.294  27.886  1.00  0.00     0.074 A 
ATOM     67  C   UNL A   1      47.755  30.595  27.549  1.00  0.00     0.031 C 
ATOM     68  C   UNL A   1      45.495  31.200  28.372  1.00  0.00     0.037 A 
BRANCH  55  69
ATOM     69  C   UNL A   1      39.819  28.938  29.316  1.00  0.00     0.064 A 
ATOM     70  C   UNL A   1      38.855  29.412  28.412  1.00  0.00     0.173 A 
ATOM     71  C   UNL A   1      39.411  28.688  30.635  1.00  0.00     0.173 A 
ATOM     72  F   UNL A   1      39.195  29.677  27.141  1.00  0.00    -0.203 F 
ATOM     73  C   UNL A   1      37.547  29.659  28.821  1.00  0.00     0.198 A 
ATOM     74  C   UNL A   1      38.094  28.905  31.032  1.00  0.00     0.198 A 
ATOM     75  F   UNL A   1      40.288  28.229  31.540  1.00  0.00    -0.203 F 
ATOM     76  F   UNL A   1      36.662  30.167  27.953  1.00  0.00    -0.200 F 
ATOM     77  C   UNL A   1      37.166  29.400  30.128  1.00  0.00     0.200 A 
ATOM     78  F   UNL A   1      37.723  28.638  32.292  1.00  0.00    -0.200 F 
ATOM     79  F   UNL A   1      35.906  29.635  30.519  1.00  0.00    -0.200 F 
ENDBRANCH  55  69
BRANCH  56  80
ATOM     80  C   UNL A   1      49.078  26.817  26.220  1.00  0.00     0.064 A 
ATOM     81  C   UNL A   1      50.056  26.342  27.106  1.00  0.00     0.173 A 
ATOM     82  C   UNL A   1      49.446  26.997  24.878  1.00  0.00     0.173 A 
ATOM     83  F   UNL A   1      49.758  26.172  28.402  1.00  0.00    -0.203 F 
ATOM     84  C   UNL A   1      51.354  26.080  26.673  1.00  0.00     0.198 A 
ATOM     85  C   UNL A   1      50.737  26.704  24.440  1.00  0.00     0.198 A 
ATOM     86  F   UNL A   1      48.548  27.442  23.988  1.00  0.00    -0.203 F 
ATOM     87  F   UNL A   1      52.280  25.670  27.550  1.00  0.00    -0.200 F 
ATOM     88  C   UNL A   1      51.691  26.254  25.339  1.00  0.00     0.200 A 
ATOM     89  F   UNL A   1      51.053  26.856  23.147  1.00  0.00    -0.200 F 
ATOM     90  F   UNL A   1      52.938  25.994  24.921  1.00  0.00    -0.200 F 
ENDBRANCH  56  80
BRANCH  68  91
ATOM     91  C   UNL A   1      45.993  32.599  28.592  1.00  0.00     0.064 A 
ATOM     92  C   UNL A   1      45.907  33.577  27.590  1.00  0.00     0.173 A 
ATOM     93  C   UNL A   1      46.524  32.978  29.835  1.00  0.00     0.173 A 
ATOM     94  F   UNL A   1      45.424  33.262  26.379  1.00  0.00    -0.203 F 
ATOM     95  C   UNL A   1      46.354  34.876  27.817  1.00  0.00     0.198 A 
ATOM     96  C   UNL A   1      46.939  34.287  30.069  1.00  0.00     0.198 A 
ATOM     97  F   UNL A   1      46.625  32.084  30.829  1.00  0.00    -0.203 F 
ATOM     98  F   UNL A   1      46.306  35.781  26.830  1.00  0.00    -0.200 F 
ATOM     99  C   UNL A   1      46.860  35.232  29.058  1.00  0.00     0.200 A 
ATOM    100  F   UNL A   1      47.414  34.632  31.274  1.00  0.00    -0.200 F 
ATOM    101  F   UNL A   1      47.280  36.486  29.279  1.00  0.00    -0.200 F 
ENDBRANCH  68  91
ENDBRANCH  42  43
ENDBRANCH  34  37
ENDBRANCH  32  33
ENDBRANCH  31  32
ENDBRANCH  30  31
ENDBRANCH   3  30
TORSDOF 17
ENDMDL
