MODEL 1
REMARK VINA RESULT:     -10.7      0.000      0.000
REMARK SMILES CS(=O)(=O)c1ccc(/C=C(/C(=O)NCCCNC(=O)c2ccc(-c3c4nc(c(-c5c(F)c(F)c(F)c(F)c5F)c5ccc([nH]5)c(-c5c(F)c(F)c(F)c(F)c5F)c5nc(c(-c6c(F)c(F)c(F)c(F)c6F)c6ccc3[nH]6)C=C5)C=C4)cc2)c2ccc(-c3ccc(F)cc3F)cc2)cc1
REMARK SMILES IDX 15 1 14 2 13 3 11 4 12 5 10 7 9 8 8 9 5 10 6 11 98 12 7 13
REMARK SMILES IDX 97 14 2 15 1 16 3 17 4 18 83 19 84 20 96 21 85 22 95 23
REMARK SMILES IDX 86 24 87 25 88 26 93 27 89 28 92 29 94 30 90 31 91 32 16 33
REMARK SMILES IDX 17 34 18 35 19 37 20 38 21 39 82 40 22 41 81 42 23 43 24 44
REMARK SMILES IDX 25 45 75 46 26 47 80 48 74 49 76 50 27 51 79 52 73 53 72 54
REMARK SMILES IDX 28 56 60 57 40 58 59 59 41 60 44 61 58 62 77 63 42 64 43 65
REMARK SMILES IDX 57 67 78 68 45 69 29 70 30 71 38 72 31 73 32 74 36 75 39 76
REMARK SMILES IDX 33 77 34 78 37 79 35 80 61 81 62 82 70 83 63 84 64 85 68 86
REMARK SMILES IDX 71 87 65 88 66 89 69 90 67 91 46 92 47 93 55 94 48 95 49 96
REMARK SMILES IDX 53 97 56 98 50 99 51 100 54 101 52 102
REMARK H PARENT 13 6 17 36 76 55 44 66
REMARK Flexibility Score: inf
ROOT
ATOM      1  C   UNL A   1      35.011  32.559  30.900  1.00  0.00     0.042 C 
ENDROOT
BRANCH   1   2
ATOM      2  C   UNL A   1      35.500  33.857  31.543  1.00  0.00     0.118 C 
BRANCH   2   3
ATOM      3  N   UNL A   1      36.808  34.205  31.027  1.00  0.00    -0.352 N 
ATOM      4  C   UNL A   1      38.037  34.321  31.590  1.00  0.00     0.251 C 
ATOM      5  O   UNL A   1      38.931  34.731  30.846  1.00  0.00    -0.269 OA
ATOM      6  H   UNL A   1      36.805  34.399  30.062  1.00  0.00     0.163 HD
BRANCH   4   7
ATOM      7  C   UNL A   1      38.345  33.898  33.009  1.00  0.00     0.047 C 
ATOM      8  C   UNL A   1      38.139  34.717  34.068  1.00  0.00     0.022 C 
BRANCH   8   9
ATOM      9  C   UNL A   1      38.246  34.439  35.520  1.00  0.00    -0.025 A 
ATOM     10  C   UNL A   1      38.455  33.612  38.195  1.00  0.00     0.067 A 
ATOM     11  C   UNL A   1      39.357  34.544  37.685  1.00  0.00     0.021 A 
ATOM     12  C   UNL A   1      37.422  33.116  37.401  1.00  0.00     0.021 A 
ATOM     13  C   UNL A   1      39.222  34.983  36.364  1.00  0.00     0.009 A 
ATOM     14  C   UNL A   1      37.322  33.533  36.070  1.00  0.00     0.009 A 
BRANCH  10  15
ATOM     15  S   UNL A   1      38.657  33.007  39.853  1.00  0.00     0.175 S 
ATOM     16  C   UNL A   1      38.764  34.495  40.809  1.00  0.00     0.163 C 
ATOM     17  O   UNL A   1      39.937  32.332  39.922  1.00  0.00    -0.224 OA
ATOM     18  O   UNL A   1      37.431  32.321  40.218  1.00  0.00    -0.224 OA
ENDBRANCH  10  15
ENDBRANCH   8   9
BRANCH   7  19
ATOM     19  C   UNL A   1      39.076  32.619  33.173  1.00  0.00    -0.013 A 
ATOM     20  C   UNL A   1      40.387  32.674  33.665  1.00  0.00     0.009 A 
ATOM     21  C   UNL A   1      38.482  31.369  32.977  1.00  0.00     0.009 A 
ATOM     22  C   UNL A   1      41.062  31.512  34.027  1.00  0.00     0.009 A 
ATOM     23  C   UNL A   1      39.155  30.203  33.373  1.00  0.00     0.009 A 
ATOM     24  C   UNL A   1      40.443  30.256  33.936  1.00  0.00    -0.015 A 
BRANCH  24  25
ATOM     25  C   UNL A   1      41.122  29.057  34.463  1.00  0.00     0.018 A 
ATOM     26  C   UNL A   1      41.411  28.953  35.842  1.00  0.00     0.015 A 
ATOM     27  C   UNL A   1      41.511  27.987  33.641  1.00  0.00     0.133 A 
ATOM     28  C   UNL A   1      42.077  27.840  36.360  1.00  0.00     0.040 A 
ATOM     29  C   UNL A   1      42.171  26.872  34.151  1.00  0.00     0.079 A 
ATOM     30  F   UNL A   1      41.265  28.022  32.323  1.00  0.00    -0.206 F 
ATOM     31  C   UNL A   1      42.454  26.812  35.507  1.00  0.00     0.126 A 
ATOM     32  F   UNL A   1      43.097  25.748  36.004  1.00  0.00    -0.207 F 
ENDBRANCH  24  25
ENDBRANCH   7  19
ENDBRANCH   4   7
ENDBRANCH   2   3
ENDBRANCH   1   2
BRANCH   1  33
ATOM     33  C   UNL A   1      35.128  32.563  29.378  1.00  0.00     0.118 C 
BRANCH  33  34
ATOM     34  N   UNL A   1      34.399  31.458  28.775  1.00  0.00    -0.352 N 
ATOM     35  C   UNL A   1      34.866  30.313  28.184  1.00  0.00     0.251 C 
ATOM     36  H   UNL A   1      33.419  31.546  28.792  1.00  0.00     0.163 HD
ATOM     37  O   UNL A   1      34.106  29.629  27.503  1.00  0.00    -0.269 OA
BRANCH  35  38
ATOM     38  C   UNL A   1      36.271  29.890  28.364  1.00  0.00     0.039 A 
ATOM     39  C   UNL A   1      36.658  29.350  29.594  1.00  0.00     0.014 A 
ATOM     40  C   UNL A   1      37.221  30.088  27.358  1.00  0.00     0.014 A 
ATOM     41  C   UNL A   1      37.989  28.987  29.805  1.00  0.00     0.010 A 
ATOM     42  C   UNL A   1      38.528  29.646  27.539  1.00  0.00     0.010 A 
ATOM     43  C   UNL A   1      38.933  29.117  28.774  1.00  0.00    -0.014 A 
BRANCH  43  44
ATOM     44  C   UNL A   1      40.358  28.757  28.986  1.00  0.00     0.031 A 
ATOM     45  C   UNL A   1      41.286  29.740  29.649  1.00  0.00     0.074 A 
ATOM     46  C   UNL A   1      40.823  27.572  28.546  1.00  0.00     0.049 A 
ATOM     47  N   UNL A   1      42.575  29.646  29.867  1.00  0.00    -0.248 NA
ATOM     48  C   UNL A   1      40.697  31.010  30.105  1.00  0.00     0.031 C 
ATOM     49  C   UNL A   1      40.028  26.556  27.854  1.00  0.00     0.029 A 
ATOM     50  N   UNL A   1      42.080  27.026  28.606  1.00  0.00    -0.354 N 
ATOM     51  C   UNL A   1      42.946  30.846  30.461  1.00  0.00     0.074 A 
ATOM     52  C   UNL A   1      41.764  31.675  30.522  1.00  0.00     0.031 C 
ATOM     53  C   UNL A   1      40.811  25.501  27.574  1.00  0.00     0.029 A 
ATOM     54  C   UNL A   1      42.170  25.782  28.028  1.00  0.00     0.049 A 
ATOM     55  H   UNL A   1      42.846  27.481  29.025  1.00  0.00     0.167 HD
ATOM     56  C   UNL A   1      44.159  31.212  30.937  1.00  0.00     0.037 A 
ATOM     57  C   UNL A   1      43.232  24.970  27.871  1.00  0.00     0.037 A 
ATOM     58  C   UNL A   1      45.324  30.368  30.907  1.00  0.00     0.049 A 
ATOM     59  C   UNL A   1      44.570  25.407  28.411  1.00  0.00     0.074 A 
ATOM     60  C   UNL A   1      46.587  30.622  31.416  1.00  0.00     0.029 A 
ATOM     61  N   UNL A   1      45.368  29.104  30.337  1.00  0.00    -0.354 N 
ATOM     62  N   UNL A   1      44.892  26.516  29.032  1.00  0.00    -0.248 NA
ATOM     63  C   UNL A   1      45.689  24.471  28.240  1.00  0.00     0.031 C 
ATOM     64  C   UNL A   1      47.409  29.536  31.104  1.00  0.00     0.029 A 
ATOM     65  C   UNL A   1      46.643  28.575  30.465  1.00  0.00     0.049 A 
ATOM     66  H   UNL A   1      44.608  28.651  29.907  1.00  0.00     0.167 HD
ATOM     67  C   UNL A   1      46.235  26.390  29.364  1.00  0.00     0.074 A 
ATOM     68  C   UNL A   1      46.663  25.093  28.887  1.00  0.00     0.031 C 
ATOM     69  C   UNL A   1      47.042  27.268  30.009  1.00  0.00     0.037 A 
BRANCH  56  70
ATOM     70  C   UNL A   1      44.298  32.583  31.537  1.00  0.00     0.064 A 
ATOM     71  C   UNL A   1      44.325  32.781  32.926  1.00  0.00     0.173 A 
ATOM     72  C   UNL A   1      44.474  33.704  30.712  1.00  0.00     0.173 A 
ATOM     73  F   UNL A   1      44.149  31.746  33.760  1.00  0.00    -0.203 F 
ATOM     74  C   UNL A   1      44.505  34.053  33.466  1.00  0.00     0.198 A 
ATOM     75  C   UNL A   1      44.687  34.969  31.254  1.00  0.00     0.198 A 
ATOM     76  F   UNL A   1      44.461  33.570  29.378  1.00  0.00    -0.203 F 
ATOM     77  F   UNL A   1      44.487  34.223  34.794  1.00  0.00    -0.200 F 
ATOM     78  C   UNL A   1      44.697  35.143  32.630  1.00  0.00     0.200 A 
ATOM     79  F   UNL A   1      44.888  36.017  30.445  1.00  0.00    -0.200 F 
ATOM     80  F   UNL A   1      44.889  36.363  33.151  1.00  0.00    -0.200 F 
ENDBRANCH  56  70
BRANCH  57  81
ATOM     81  C   UNL A   1      43.084  23.656  27.190  1.00  0.00     0.064 A 
ATOM     82  C   UNL A   1      42.531  22.552  27.857  1.00  0.00     0.173 A 
ATOM     83  C   UNL A   1      43.533  23.460  25.875  1.00  0.00     0.173 A 
ATOM     84  F   UNL A   1      42.101  22.681  29.120  1.00  0.00    -0.203 F 
ATOM     85  C   UNL A   1      42.475  21.297  27.253  1.00  0.00     0.198 A 
ATOM     86  C   UNL A   1      43.441  22.215  25.258  1.00  0.00     0.198 A 
ATOM     87  F   UNL A   1      44.060  24.483  25.186  1.00  0.00    -0.203 F 
ATOM     88  F   UNL A   1      42.009  20.246  27.941  1.00  0.00    -0.200 F 
ATOM     89  C   UNL A   1      42.927  21.130  25.953  1.00  0.00     0.200 A 
ATOM     90  F   UNL A   1      43.862  22.062  23.996  1.00  0.00    -0.200 F 
ATOM     91  F   UNL A   1      42.880  19.922  25.375  1.00  0.00    -0.200 F 
ENDBRANCH  57  81
BRANCH  69  92
ATOM     92  C   UNL A   1      48.448  26.829  30.304  1.00  0.00     0.064 A 
ATOM     93  C   UNL A   1      49.523  27.152  29.464  1.00  0.00     0.173 A 
ATOM     94  C   UNL A   1      48.725  26.097  31.470  1.00  0.00     0.173 A 
ATOM     95  F   UNL A   1      49.311  27.839  28.331  1.00  0.00    -0.203 F 
ATOM     96  C   UNL A   1      50.815  26.728  29.759  1.00  0.00     0.198 A 
ATOM     97  C   UNL A   1      50.024  25.708  31.783  1.00  0.00     0.198 A 
ATOM     98  F   UNL A   1      47.735  25.769  32.315  1.00  0.00    -0.203 F 
ATOM     99  F   UNL A   1      51.817  26.995  28.910  1.00  0.00    -0.200 F 
ATOM    100  C   UNL A   1      51.066  26.014  30.922  1.00  0.00     0.200 A 
ATOM    101  F   UNL A   1      50.265  25.035  32.916  1.00  0.00    -0.200 F 
ATOM    102  F   UNL A   1      52.312  25.613  31.208  1.00  0.00    -0.200 F 
ENDBRANCH  69  92
ENDBRANCH  43  44
ENDBRANCH  35  38
ENDBRANCH  33  34
ENDBRANCH   1  33
TORSDOF 14
ENDMDL
MODEL 2
REMARK VINA RESULT:     -10.6      4.782     11.483
REMARK SMILES CS(=O)(=O)c1ccc(/C=C(/C(=O)NCCCNC(=O)c2ccc(-c3c4nc(c(-c5c(F)c(F)c(F)c(F)c5F)c5ccc([nH]5)c(-c5c(F)c(F)c(F)c(F)c5F)c5nc(c(-c6c(F)c(F)c(F)c(F)c6F)c6ccc3[nH]6)C=C5)C=C4)cc2)c2ccc(-c3ccc(F)cc3F)cc2)cc1
REMARK SMILES IDX 15 1 14 2 13 3 11 4 12 5 10 7 9 8 8 9 5 10 6 11 98 12 7 13
REMARK SMILES IDX 97 14 2 15 1 16 3 17 4 18 83 19 84 20 96 21 85 22 95 23
REMARK SMILES IDX 86 24 87 25 88 26 93 27 89 28 92 29 94 30 90 31 91 32 16 33
REMARK SMILES IDX 17 34 18 35 19 37 20 38 21 39 82 40 22 41 81 42 23 43 24 44
REMARK SMILES IDX 25 45 75 46 26 47 80 48 74 49 76 50 27 51 79 52 73 53 72 54
REMARK SMILES IDX 28 56 60 57 40 58 59 59 41 60 44 61 58 62 77 63 42 64 43 65
REMARK SMILES IDX 57 67 78 68 45 69 29 70 30 71 38 72 31 73 32 74 36 75 39 76
REMARK SMILES IDX 33 77 34 78 37 79 35 80 61 81 62 82 70 83 63 84 64 85 68 86
REMARK SMILES IDX 71 87 65 88 66 89 69 90 67 91 46 92 47 93 55 94 48 95 49 96
REMARK SMILES IDX 53 97 56 98 50 99 51 100 54 101 52 102
REMARK H PARENT 13 6 17 36 76 55 44 66
REMARK Flexibility Score: inf
ROOT
ATOM      1  C   UNL A   1      42.696  22.835  25.386  1.00  0.00     0.042 C 
ENDROOT
BRANCH   1   2
ATOM      2  C   UNL A   1      44.102  22.397  25.798  1.00  0.00     0.118 C 
BRANCH   2   3
ATOM      3  N   UNL A   1      44.318  22.676  27.203  1.00  0.00    -0.352 N 
ATOM      4  C   UNL A   1      45.127  23.533  27.876  1.00  0.00     0.251 C 
ATOM      5  O   UNL A   1      45.109  23.436  29.105  1.00  0.00    -0.269 OA
ATOM      6  H   UNL A   1      43.758  22.126  27.798  1.00  0.00     0.163 HD
BRANCH   4   7
ATOM      7  C   UNL A   1      45.942  24.611  27.197  1.00  0.00     0.047 C 
ATOM      8  C   UNL A   1      47.133  24.353  26.606  1.00  0.00     0.022 C 
BRANCH   8   9
ATOM      9  C   UNL A   1      47.998  25.232  25.784  1.00  0.00    -0.025 A 
ATOM     10  C   UNL A   1      49.865  26.694  24.279  1.00  0.00     0.067 A 
ATOM     11  C   UNL A   1      48.643  26.336  23.711  1.00  0.00     0.021 A 
ATOM     12  C   UNL A   1      50.153  26.368  25.603  1.00  0.00     0.021 A 
ATOM     13  C   UNL A   1      47.701  25.645  24.479  1.00  0.00     0.009 A 
ATOM     14  C   UNL A   1      49.219  25.641  26.349  1.00  0.00     0.009 A 
BRANCH  10  15
ATOM     15  S   UNL A   1      51.087  27.519  23.290  1.00  0.00     0.175 S 
ATOM     16  C   UNL A   1      52.610  26.840  23.891  1.00  0.00     0.163 C 
ATOM     17  O   UNL A   1      51.053  28.926  23.632  1.00  0.00    -0.224 OA
ATOM     18  O   UNL A   1      50.906  27.080  21.918  1.00  0.00    -0.224 OA
ENDBRANCH  10  15
ENDBRANCH   8   9
BRANCH   7  19
ATOM     19  C   UNL A   1      45.478  26.007  27.386  1.00  0.00    -0.013 A 
ATOM     20  C   UNL A   1      46.230  26.837  28.229  1.00  0.00     0.009 A 
ATOM     21  C   UNL A   1      44.410  26.560  26.674  1.00  0.00     0.009 A 
ATOM     22  C   UNL A   1      45.971  28.202  28.302  1.00  0.00     0.009 A 
ATOM     23  C   UNL A   1      44.174  27.942  26.727  1.00  0.00     0.009 A 
ATOM     24  C   UNL A   1      44.970  28.793  27.516  1.00  0.00    -0.015 A 
BRANCH  24  25
ATOM     25  C   UNL A   1      44.813  30.259  27.498  1.00  0.00     0.018 A 
ATOM     26  C   UNL A   1      43.955  30.894  28.422  1.00  0.00     0.015 A 
ATOM     27  C   UNL A   1      45.489  31.079  26.579  1.00  0.00     0.133 A 
ATOM     28  C   UNL A   1      43.770  32.278  28.407  1.00  0.00     0.040 A 
ATOM     29  C   UNL A   1      45.314  32.460  26.560  1.00  0.00     0.079 A 
ATOM     30  F   UNL A   1      46.321  30.540  25.675  1.00  0.00    -0.206 F 
ATOM     31  C   UNL A   1      44.449  33.047  27.472  1.00  0.00     0.126 A 
ATOM     32  F   UNL A   1      44.267  34.373  27.454  1.00  0.00    -0.207 F 
ENDBRANCH  24  25
ENDBRANCH   7  19
ENDBRANCH   4   7
ENDBRANCH   2   3
ENDBRANCH   1   2
BRANCH   1  33
ATOM     33  C   UNL A   1      41.635  22.503  26.433  1.00  0.00     0.118 C 
BRANCH  33  34
ATOM     34  N   UNL A   1      40.288  22.621  25.895  1.00  0.00    -0.352 N 
ATOM     35  C   UNL A   1      39.274  23.477  26.239  1.00  0.00     0.251 C 
ATOM     36  H   UNL A   1      40.070  21.988  25.174  1.00  0.00     0.163 HD
ATOM     37  O   UNL A   1      38.131  23.247  25.853  1.00  0.00    -0.269 OA
BRANCH  35  38
ATOM     38  C   UNL A   1      39.545  24.675  27.063  1.00  0.00     0.039 A 
ATOM     39  C   UNL A   1      40.295  25.716  26.508  1.00  0.00     0.014 A 
ATOM     40  C   UNL A   1      39.128  24.746  28.394  1.00  0.00     0.014 A 
ATOM     41  C   UNL A   1      40.604  26.837  27.280  1.00  0.00     0.010 A 
ATOM     42  C   UNL A   1      39.361  25.901  29.136  1.00  0.00     0.010 A 
ATOM     43  C   UNL A   1      40.126  26.946  28.596  1.00  0.00    -0.014 A 
BRANCH  43  44
ATOM     44  C   UNL A   1      40.462  28.119  29.441  1.00  0.00     0.031 A 
ATOM     45  C   UNL A   1      41.794  28.179  30.143  1.00  0.00     0.074 A 
ATOM     46  C   UNL A   1      39.560  29.104  29.611  1.00  0.00     0.049 A 
ATOM     47  N   UNL A   1      42.253  29.080  30.975  1.00  0.00    -0.248 NA
ATOM     48  C   UNL A   1      42.725  27.064  29.900  1.00  0.00     0.031 C 
ATOM     49  C   UNL A   1      38.223  29.138  29.015  1.00  0.00     0.029 A 
ATOM     50  N   UNL A   1      39.626  30.263  30.343  1.00  0.00    -0.354 N 
ATOM     51  C   UNL A   1      43.508  28.629  31.366  1.00  0.00     0.074 A 
ATOM     52  C   UNL A   1      43.719  27.350  30.727  1.00  0.00     0.031 C 
ATOM     53  C   UNL A   1      37.605  30.271  29.387  1.00  0.00     0.029 A 
ATOM     54  C   UNL A   1      38.482  31.022  30.280  1.00  0.00     0.049 A 
ATOM     55  H   UNL A   1      40.419  30.527  30.864  1.00  0.00     0.167 HD
ATOM     56  C   UNL A   1      44.413  29.241  32.166  1.00  0.00     0.037 A 
ATOM     57  C   UNL A   1      38.174  32.185  30.885  1.00  0.00     0.037 A 
ATOM     58  C   UNL A   1      44.211  30.532  32.770  1.00  0.00     0.049 A 
ATOM     59  C   UNL A   1      39.203  32.840  31.771  1.00  0.00     0.074 A 
ATOM     60  C   UNL A   1      45.089  31.265  33.550  1.00  0.00     0.029 A 
ATOM     61  N   UNL A   1      43.050  31.281  32.660  1.00  0.00    -0.354 N 
ATOM     62  N   UNL A   1      40.412  32.436  32.078  1.00  0.00    -0.248 NA
ATOM     63  C   UNL A   1      38.828  34.121  32.384  1.00  0.00     0.031 C 
ATOM     64  C   UNL A   1      44.439  32.432  33.959  1.00  0.00     0.029 A 
ATOM     65  C   UNL A   1      43.182  32.461  33.375  1.00  0.00     0.049 A 
ATOM     66  H   UNL A   1      42.251  31.016  32.151  1.00  0.00     0.167 HD
ATOM     67  C   UNL A   1      40.956  33.433  32.879  1.00  0.00     0.074 A 
ATOM     68  C   UNL A   1      39.949  34.465  33.000  1.00  0.00     0.031 C 
ATOM     69  C   UNL A   1      42.179  33.491  33.460  1.00  0.00     0.037 A 
BRANCH  56  70
ATOM     70  C   UNL A   1      45.709  28.531  32.437  1.00  0.00     0.064 A 
ATOM     71  C   UNL A   1      45.794  27.473  33.354  1.00  0.00     0.173 A 
ATOM     72  C   UNL A   1      46.867  28.872  31.720  1.00  0.00     0.173 A 
ATOM     73  F   UNL A   1      44.721  27.115  34.074  1.00  0.00    -0.203 F 
ATOM     74  C   UNL A   1      46.994  26.793  33.556  1.00  0.00     0.198 A 
ATOM     75  C   UNL A   1      48.056  28.168  31.900  1.00  0.00     0.198 A 
ATOM     76  F   UNL A   1      46.840  29.873  30.828  1.00  0.00    -0.203 F 
ATOM     77  F   UNL A   1      47.061  25.812  34.465  1.00  0.00    -0.200 F 
ATOM     78  C   UNL A   1      48.120  27.134  32.821  1.00  0.00     0.200 A 
ATOM     79  F   UNL A   1      49.137  28.490  31.177  1.00  0.00    -0.200 F 
ATOM     80  F   UNL A   1      49.268  26.467  33.002  1.00  0.00    -0.200 F 
ENDBRANCH  56  70
BRANCH  57  81
ATOM     81  C   UNL A   1      36.846  32.820  30.670  1.00  0.00     0.064 A 
ATOM     82  C   UNL A   1      36.563  33.527  29.493  1.00  0.00     0.173 A 
ATOM     83  C   UNL A   1      35.848  32.775  31.655  1.00  0.00     0.173 A 
ATOM     84  F   UNL A   1      37.488  33.614  28.526  1.00  0.00    -0.203 F 
ATOM     85  C   UNL A   1      35.353  34.199  29.327  1.00  0.00     0.198 A 
ATOM     86  C   UNL A   1      34.625  33.415  31.473  1.00  0.00     0.198 A 
ATOM     87  F   UNL A   1      36.060  32.104  32.798  1.00  0.00    -0.203 F 
ATOM     88  F   UNL A   1      35.140  34.927  28.222  1.00  0.00    -0.200 F 
ATOM     89  C   UNL A   1      34.384  34.141  30.316  1.00  0.00     0.200 A 
ATOM     90  F   UNL A   1      33.684  33.341  32.424  1.00  0.00    -0.200 F 
ATOM     91  F   UNL A   1      33.224  34.794  30.160  1.00  0.00    -0.200 F 
ENDBRANCH  57  81
BRANCH  69  92
ATOM     92  C   UNL A   1      42.527  34.741  34.217  1.00  0.00     0.064 A 
ATOM     93  C   UNL A   1      42.996  35.896  33.575  1.00  0.00     0.173 A 
ATOM     94  C   UNL A   1      42.357  34.788  35.610  1.00  0.00     0.173 A 
ATOM     95  F   UNL A   1      43.188  35.899  32.247  1.00  0.00    -0.203 F 
ATOM     96  C   UNL A   1      43.316  37.039  34.302  1.00  0.00     0.198 A 
ATOM     97  C   UNL A   1      42.640  35.946  36.329  1.00  0.00     0.198 A 
ATOM     98  F   UNL A   1      41.902  33.715  36.274  1.00  0.00    -0.203 F 
ATOM     99  F   UNL A   1      43.821  38.110  33.674  1.00  0.00    -0.200 F 
ATOM    100  C   UNL A   1      43.130  37.066  35.677  1.00  0.00     0.200 A 
ATOM    101  F   UNL A   1      42.442  35.974  37.654  1.00  0.00    -0.200 F 
ATOM    102  F   UNL A   1      43.432  38.170  36.373  1.00  0.00    -0.200 F 
ENDBRANCH  69  92
ENDBRANCH  43  44
ENDBRANCH  35  38
ENDBRANCH  33  34
ENDBRANCH   1  33
TORSDOF 14
ENDMDL
MODEL 3
REMARK VINA RESULT:     -10.4      0.634      2.054
REMARK SMILES CS(=O)(=O)c1ccc(/C=C(/C(=O)NCCCNC(=O)c2ccc(-c3c4nc(c(-c5c(F)c(F)c(F)c(F)c5F)c5ccc([nH]5)c(-c5c(F)c(F)c(F)c(F)c5F)c5nc(c(-c6c(F)c(F)c(F)c(F)c6F)c6ccc3[nH]6)C=C5)C=C4)cc2)c2ccc(-c3ccc(F)cc3F)cc2)cc1
REMARK SMILES IDX 15 1 14 2 13 3 11 4 12 5 10 7 9 8 8 9 5 10 6 11 98 12 7 13
REMARK SMILES IDX 97 14 2 15 1 16 3 17 4 18 83 19 84 20 96 21 85 22 95 23
REMARK SMILES IDX 86 24 87 25 88 26 93 27 89 28 92 29 94 30 90 31 91 32 16 33
REMARK SMILES IDX 17 34 18 35 19 37 20 38 21 39 82 40 22 41 81 42 23 43 24 44
REMARK SMILES IDX 25 45 75 46 26 47 80 48 74 49 76 50 27 51 79 52 73 53 72 54
REMARK SMILES IDX 28 56 60 57 40 58 59 59 41 60 44 61 58 62 77 63 42 64 43 65
REMARK SMILES IDX 57 67 78 68 45 69 29 70 30 71 38 72 31 73 32 74 36 75 39 76
REMARK SMILES IDX 33 77 34 78 37 79 35 80 61 81 62 82 70 83 63 84 64 85 68 86
REMARK SMILES IDX 71 87 65 88 66 89 69 90 67 91 46 92 47 93 55 94 48 95 49 96
REMARK SMILES IDX 53 97 56 98 50 99 51 100 54 101 52 102
REMARK H PARENT 13 6 17 36 76 55 44 66
REMARK Flexibility Score: inf
ROOT
ATOM      1  C   UNL A   1      35.086  32.574  30.756  1.00  0.00     0.042 C 
ENDROOT
BRANCH   1   2
ATOM      2  C   UNL A   1      35.575  33.902  31.336  1.00  0.00     0.118 C 
BRANCH   2   3
ATOM      3  N   UNL A   1      36.916  34.185  30.868  1.00  0.00    -0.352 N 
ATOM      4  C   UNL A   1      38.128  34.246  31.477  1.00  0.00     0.251 C 
ATOM      5  O   UNL A   1      39.067  34.610  30.765  1.00  0.00    -0.269 OA
ATOM      6  H   UNL A   1      36.958  34.374  29.903  1.00  0.00     0.163 HD
BRANCH   4   7
ATOM      7  C   UNL A   1      38.362  33.816  32.907  1.00  0.00     0.047 C 
ATOM      8  C   UNL A   1      38.103  34.630  33.958  1.00  0.00     0.022 C 
BRANCH   8   9
ATOM      9  C   UNL A   1      38.135  34.345  35.413  1.00  0.00    -0.025 A 
ATOM     10  C   UNL A   1      38.151  33.507  38.093  1.00  0.00     0.067 A 
ATOM     11  C   UNL A   1      39.209  34.268  37.597  1.00  0.00     0.021 A 
ATOM     12  C   UNL A   1      37.063  33.193  37.281  1.00  0.00     0.021 A 
ATOM     13  C   UNL A   1      39.175  34.717  36.274  1.00  0.00     0.009 A 
ATOM     14  C   UNL A   1      37.059  33.614  35.947  1.00  0.00     0.009 A 
BRANCH  10  15
ATOM     15  S   UNL A   1      38.218  32.884  39.755  1.00  0.00     0.175 S 
ATOM     16  C   UNL A   1      37.045  31.556  39.730  1.00  0.00     0.163 C 
ATOM     17  O   UNL A   1      37.712  33.919  40.633  1.00  0.00    -0.224 OA
ATOM     18  O   UNL A   1      39.539  32.317  39.954  1.00  0.00    -0.224 OA
ENDBRANCH  10  15
ENDBRANCH   8   9
BRANCH   7  19
ATOM     19  C   UNL A   1      39.083  32.535  33.102  1.00  0.00    -0.013 A 
ATOM     20  C   UNL A   1      40.420  32.594  33.519  1.00  0.00     0.009 A 
ATOM     21  C   UNL A   1      38.461  31.287  33.009  1.00  0.00     0.009 A 
ATOM     22  C   UNL A   1      41.098  31.443  33.908  1.00  0.00     0.009 A 
ATOM     23  C   UNL A   1      39.139  30.133  33.433  1.00  0.00     0.009 A 
ATOM     24  C   UNL A   1      40.457  30.195  33.920  1.00  0.00    -0.015 A 
BRANCH  24  25
ATOM     25  C   UNL A   1      41.147  29.016  34.476  1.00  0.00     0.018 A 
ATOM     26  C   UNL A   1      41.240  27.825  33.723  1.00  0.00     0.015 A 
ATOM     27  C   UNL A   1      41.728  29.015  35.755  1.00  0.00     0.133 A 
ATOM     28  C   UNL A   1      41.865  26.688  34.239  1.00  0.00     0.040 A 
ATOM     29  C   UNL A   1      42.357  27.886  36.275  1.00  0.00     0.079 A 
ATOM     30  F   UNL A   1      41.676  30.114  36.523  1.00  0.00    -0.206 F 
ATOM     31  C   UNL A   1      42.414  26.730  35.513  1.00  0.00     0.126 A 
ATOM     32  F   UNL A   1      43.008  25.637  36.010  1.00  0.00    -0.207 F 
ENDBRANCH  24  25
ENDBRANCH   7  19
ENDBRANCH   4   7
ENDBRANCH   2   3
ENDBRANCH   1   2
BRANCH   1  33
ATOM     33  C   UNL A   1      35.036  32.570  29.230  1.00  0.00     0.118 C 
BRANCH  33  34
ATOM     34  N   UNL A   1      34.308  31.421  28.715  1.00  0.00    -0.352 N 
ATOM     35  C   UNL A   1      34.776  30.246  28.186  1.00  0.00     0.251 C 
ATOM     36  H   UNL A   1      33.328  31.499  28.749  1.00  0.00     0.163 HD
ATOM     37  O   UNL A   1      34.009  29.512  27.568  1.00  0.00    -0.269 OA
BRANCH  35  38
ATOM     38  C   UNL A   1      36.190  29.851  28.360  1.00  0.00     0.039 A 
ATOM     39  C   UNL A   1      36.595  29.330  29.592  1.00  0.00     0.014 A 
ATOM     40  C   UNL A   1      37.128  30.056  27.346  1.00  0.00     0.014 A 
ATOM     41  C   UNL A   1      37.934  28.993  29.797  1.00  0.00     0.010 A 
ATOM     42  C   UNL A   1      38.445  29.640  27.520  1.00  0.00     0.010 A 
ATOM     43  C   UNL A   1      38.868  29.131  28.757  1.00  0.00    -0.014 A 
BRANCH  43  44
ATOM     44  C   UNL A   1      40.301  28.800  28.962  1.00  0.00     0.031 A 
ATOM     45  C   UNL A   1      41.220  29.813  29.592  1.00  0.00     0.074 A 
ATOM     46  C   UNL A   1      40.780  27.612  28.546  1.00  0.00     0.049 A 
ATOM     47  N   UNL A   1      42.512  29.745  29.797  1.00  0.00    -0.248 NA
ATOM     48  C   UNL A   1      40.614  31.084  30.023  1.00  0.00     0.031 C 
ATOM     49  C   UNL A   1      39.995  26.566  27.888  1.00  0.00     0.029 A 
ATOM     50  N   UNL A   1      42.047  27.088  28.606  1.00  0.00    -0.354 N 
ATOM     51  C   UNL A   1      42.870  30.965  30.358  1.00  0.00     0.074 A 
ATOM     52  C   UNL A   1      41.675  31.776  30.412  1.00  0.00     0.031 C 
ATOM     53  C   UNL A   1      40.793  25.517  27.625  1.00  0.00     0.029 A 
ATOM     54  C   UNL A   1      42.151  25.832  28.056  1.00  0.00     0.049 A 
ATOM     55  H   UNL A   1      42.810  27.565  29.005  1.00  0.00     0.167 HD
ATOM     56  C   UNL A   1      44.082  31.363  30.811  1.00  0.00     0.037 A 
ATOM     57  C   UNL A   1      43.224  25.033  27.908  1.00  0.00     0.037 A 
ATOM     58  C   UNL A   1      45.260  30.536  30.789  1.00  0.00     0.049 A 
ATOM     59  C   UNL A   1      44.561  25.504  28.422  1.00  0.00     0.074 A 
ATOM     60  C   UNL A   1      46.524  30.823  31.278  1.00  0.00     0.029 A 
ATOM     61  N   UNL A   1      45.319  29.260  30.250  1.00  0.00    -0.354 N 
ATOM     62  N   UNL A   1      44.872  26.634  29.013  1.00  0.00    -0.248 NA
ATOM     63  C   UNL A   1      45.694  24.584  28.261  1.00  0.00     0.031 C 
ATOM     64  C   UNL A   1      47.360  29.744  30.983  1.00  0.00     0.029 A 
ATOM     65  C   UNL A   1      46.603  28.755  30.376  1.00  0.00     0.049 A 
ATOM     66  H   UNL A   1      44.562  28.784  29.839  1.00  0.00     0.167 HD
ATOM     67  C   UNL A   1      46.220  26.538  29.333  1.00  0.00     0.074 A 
ATOM     68  C   UNL A   1      46.664  25.236  28.883  1.00  0.00     0.031 C 
ATOM     69  C   UNL A   1      47.019  27.444  29.947  1.00  0.00     0.037 A 
BRANCH  56  70
ATOM     70  C   UNL A   1      44.205  32.749  31.377  1.00  0.00     0.064 A 
ATOM     71  C   UNL A   1      44.284  33.879  30.550  1.00  0.00     0.173 A 
ATOM     72  C   UNL A   1      44.174  32.953  32.765  1.00  0.00     0.173 A 
ATOM     73  F   UNL A   1      44.329  33.740  29.217  1.00  0.00    -0.203 F 
ATOM     74  C   UNL A   1      44.347  35.162  31.092  1.00  0.00     0.198 A 
ATOM     75  C   UNL A   1      44.204  34.238  33.303  1.00  0.00     0.198 A 
ATOM     76  F   UNL A   1      44.095  31.908  33.601  1.00  0.00    -0.203 F 
ATOM     77  F   UNL A   1      44.463  36.224  30.284  1.00  0.00    -0.200 F 
ATOM     78  C   UNL A   1      44.296  35.340  32.467  1.00  0.00     0.200 A 
ATOM     79  F   UNL A   1      44.138  34.408  34.630  1.00  0.00    -0.200 F 
ATOM     80  F   UNL A   1      44.337  36.575  32.986  1.00  0.00    -0.200 F 
ENDBRANCH  56  70
BRANCH  57  81
ATOM     81  C   UNL A   1      43.091  23.701  27.260  1.00  0.00     0.064 A 
ATOM     82  C   UNL A   1      43.479  23.501  25.927  1.00  0.00     0.173 A 
ATOM     83  C   UNL A   1      42.529  22.611  27.942  1.00  0.00     0.173 A 
ATOM     84  F   UNL A   1      44.006  24.514  25.225  1.00  0.00    -0.203 F 
ATOM     85  C   UNL A   1      43.271  22.279  25.290  1.00  0.00     0.198 A 
ATOM     86  C   UNL A   1      42.357  21.378  27.316  1.00  0.00     0.198 A 
ATOM     87  F   UNL A   1      42.150  22.741  29.223  1.00  0.00    -0.203 F 
ATOM     88  F   UNL A   1      43.585  22.140  23.994  1.00  0.00    -0.200 F 
ATOM     89  C   UNL A   1      42.712  21.218  25.985  1.00  0.00     0.200 A 
ATOM     90  F   UNL A   1      41.834  20.350  27.997  1.00  0.00    -0.200 F 
ATOM     91  F   UNL A   1      42.505  20.046  25.370  1.00  0.00    -0.200 F 
ENDBRANCH  57  81
BRANCH  69  92
ATOM     92  C   UNL A   1      48.435  27.035  30.238  1.00  0.00     0.064 A 
ATOM     93  C   UNL A   1      48.789  26.353  31.411  1.00  0.00     0.173 A 
ATOM     94  C   UNL A   1      49.449  27.304  29.304  1.00  0.00     0.173 A 
ATOM     95  F   UNL A   1      47.861  26.082  32.341  1.00  0.00    -0.203 F 
ATOM     96  C   UNL A   1      50.110  25.990  31.656  1.00  0.00     0.198 A 
ATOM     97  C   UNL A   1      50.762  26.904  29.535  1.00  0.00     0.198 A 
ATOM     98  F   UNL A   1      49.164  27.944  28.160  1.00  0.00    -0.203 F 
ATOM     99  F   UNL A   1      50.436  25.395  32.812  1.00  0.00    -0.200 F 
ATOM    100  C   UNL A   1      51.094  26.258  30.715  1.00  0.00     0.200 A 
ATOM    101  F   UNL A   1      51.706  27.148  28.615  1.00  0.00    -0.200 F 
ATOM    102  F   UNL A   1      52.363  25.901  30.951  1.00  0.00    -0.200 F 
ENDBRANCH  69  92
ENDBRANCH  43  44
ENDBRANCH  35  38
ENDBRANCH  33  34
ENDBRANCH   1  33
TORSDOF 14
ENDMDL
