MODEL 1
REMARK VINA RESULT:     -12.3      0.000      0.000
REMARK SMILES Cc1ccc([C@H]2CC(c3cccs3)=NN2C(=O)CCC(=O)NCCCNC(=O)c2ccc(-c3c4nc(c(-c5c(F)c(F)c(F)c(F)c5F)c5ccc([nH]5)c(-c5c(F)c(F)c(F)c(F)c5F)c5nc(c(-c6c(F)c(F)c(F)c(F)c6F)c6ccc3[nH]6)C=C5)C=C4)cc2)o1
REMARK SMILES IDX 23 1 22 2 20 3 21 4 19 6 18 7 16 8 17 9 15 10 6 11 7 12 8 13
REMARK SMILES IDX 14 14 5 15 1 16 2 17 3 18 92 19 4 20 9 21 10 22 13 23 11 24
REMARK SMILES IDX 12 25 24 26 25 27 26 28 27 29 28 31 29 32 30 33 91 34 31 35
REMARK SMILES IDX 90 36 32 37 33 38 34 39 84 40 35 41 89 42 83 43 85 44 36 45
REMARK SMILES IDX 88 46 82 47 81 48 37 50 69 51 49 52 68 53 50 54 53 55 67 56
REMARK SMILES IDX 86 57 51 58 52 59 66 61 87 62 54 63 38 64 39 65 47 66 40 67
REMARK SMILES IDX 41 68 45 69 48 70 42 71 43 72 46 73 44 74 70 75 71 76 79 77
REMARK SMILES IDX 72 78 73 79 77 80 80 81 74 82 75 83 78 84 76 85 55 86 56 87
REMARK SMILES IDX 64 88 57 89 58 90 62 91 65 92 59 93 60 94 63 95 61 96
REMARK H PARENT 22 5 26 30 85 49 53 60
REMARK Flexibility Score: inf
ROOT
ATOM      1  C   UNL A   1      31.680  29.439  24.616  1.00  0.00     0.117 C 
ENDROOT
BRANCH   1   2
ATOM      2  N   UNL A   1      31.334  29.598  23.215  1.00  0.00    -0.356 N 
ATOM      3  C   UNL A   1      30.720  28.665  22.423  1.00  0.00     0.220 C 
ATOM      4  O   UNL A   1      29.802  29.023  21.684  1.00  0.00    -0.275 OA
ATOM      5  H   UNL A   1      31.563  30.458  22.795  1.00  0.00     0.163 HD
BRANCH   3   6
ATOM      6  C   UNL A   1      31.197  27.229  22.423  1.00  0.00     0.110 C 
BRANCH   6   7
ATOM      7  C   UNL A   1      32.704  27.077  22.182  1.00  0.00     0.112 C 
BRANCH   7   8
ATOM      8  C   UNL A   1      33.194  25.660  22.366  1.00  0.00     0.243 C 
ATOM      9  O   UNL A   1      33.062  24.867  21.425  1.00  0.00    -0.273 OA
BRANCH   8  10
ATOM     10  N   UNL A   1      33.641  25.263  23.613  1.00  0.00    -0.222 N 
ATOM     11  C   UNL A   1      33.359  25.826  24.943  1.00  0.00     0.183 C 
ATOM     12  C   UNL A   1      34.510  25.310  25.813  1.00  0.00     0.095 C 
ATOM     13  C   UNL A   1      35.175  24.389  24.846  1.00  0.00     0.081 C 
ATOM     14  N   UNL A   1      34.759  24.475  23.631  1.00  0.00    -0.173 NA
BRANCH  11  15
ATOM     15  C   UNL A   1      32.041  25.446  25.515  1.00  0.00     0.129 A 
ATOM     16  C   UNL A   1      30.263  22.571  26.667  1.00  0.00     0.087 C 
ATOM     17  C   UNL A   1      30.621  23.943  26.262  1.00  0.00     0.101 A 
ATOM     18  C   UNL A   1      29.951  25.145  26.274  1.00  0.00     0.045 A 
ATOM     19  O   UNL A   1      31.881  24.116  25.781  1.00  0.00    -0.464 OA
ATOM     20  C   UNL A   1      30.861  26.113  25.782  1.00  0.00     0.048 A 
ENDBRANCH  11  15
BRANCH  13  21
ATOM     21  C   UNL A   1      36.225  23.483  25.224  1.00  0.00     0.050 A 
ATOM     22  C   UNL A   1      37.765  23.752  25.879  1.00  0.00     0.022 A 
ATOM     23  S   UNL A   1      35.794  21.276  24.735  1.00  0.00    -0.142 S 
ATOM     24  C   UNL A   1      38.882  22.265  26.079  1.00  0.00     0.012 A 
ATOM     25  C   UNL A   1      38.129  20.768  25.528  1.00  0.00     0.065 A 
ENDBRANCH  13  21
ENDBRANCH   8  10
ENDBRANCH   7   8
ENDBRANCH   6   7
ENDBRANCH   3   6
ENDBRANCH   1   2
BRANCH   1  26
ATOM     26  C   UNL A   1      33.149  29.317  25.012  1.00  0.00     0.042 C 
BRANCH  26  27
ATOM     27  C   UNL A   1      33.621  29.496  26.466  1.00  0.00     0.118 C 
BRANCH  27  28
ATOM     28  N   UNL A   1      33.779  30.844  27.004  1.00  0.00    -0.352 N 
ATOM     29  C   UNL A   1      34.658  31.349  27.961  1.00  0.00     0.251 C 
ATOM     30  H   UNL A   1      33.159  31.510  26.627  1.00  0.00     0.163 HD
ATOM     31  O   UNL A   1      34.463  32.490  28.381  1.00  0.00    -0.269 OA
BRANCH  29  32
ATOM     32  C   UNL A   1      35.775  30.430  28.609  1.00  0.00     0.039 A 
ATOM     33  C   UNL A   1      37.019  30.441  27.362  1.00  0.00     0.014 A 
ATOM     34  C   UNL A   1      36.224  29.418  30.343  1.00  0.00     0.014 A 
ATOM     35  C   UNL A   1      38.493  29.709  27.706  1.00  0.00     0.010 A 
ATOM     36  C   UNL A   1      37.834  28.721  30.496  1.00  0.00     0.010 A 
ATOM     37  C   UNL A   1      38.922  28.941  29.195  1.00  0.00    -0.014 A 
BRANCH  37  38
ATOM     38  C   UNL A   1      40.368  28.562  29.365  1.00  0.00     0.031 A 
ATOM     39  C   UNL A   1      41.311  29.475  30.103  1.00  0.00     0.074 A 
ATOM     40  C   UNL A   1      40.848  27.416  28.826  1.00  0.00     0.049 A 
ATOM     41  N   UNL A   1      42.613  29.397  30.230  1.00  0.00    -0.248 NA
ATOM     42  C   UNL A   1      40.725  30.658  30.747  1.00  0.00     0.031 C 
ATOM     43  C   UNL A   1      40.081  26.456  28.028  1.00  0.00     0.029 A 
ATOM     44  N   UNL A   1      42.100  26.843  28.875  1.00  0.00    -0.354 N 
ATOM     45  C   UNL A   1      42.995  30.545  30.911  1.00  0.00     0.074 A 
ATOM     46  C   UNL A   1      41.803  31.339  31.101  1.00  0.00     0.031 C 
ATOM     47  C   UNL A   1      40.832  25.378  27.763  1.00  0.00     0.029 A 
ATOM     48  C   UNL A   1      42.181  25.619  28.247  1.00  0.00     0.049 A 
ATOM     49  H   UNL A   1      42.868  27.270  29.320  1.00  0.00     0.167 HD
ATOM     50  C   UNL A   1      44.219  30.890  31.375  1.00  0.00     0.037 A 
ATOM     51  C   UNL A   1      43.226  24.793  28.039  1.00  0.00     0.037 A 
ATOM     52  C   UNL A   1      45.390  30.067  31.242  1.00  0.00     0.049 A 
ATOM     53  C   UNL A   1      44.580  25.217  28.539  1.00  0.00     0.074 A 
ATOM     54  C   UNL A   1      46.668  30.303  31.717  1.00  0.00     0.029 A 
ATOM     55  N   UNL A   1      45.423  28.842  30.591  1.00  0.00    -0.354 N 
ATOM     56  N   UNL A   1      44.915  26.293  29.209  1.00  0.00    -0.248 NA
ATOM     57  C   UNL A   1      45.705  24.319  28.247  1.00  0.00     0.031 C 
ATOM     58  C   UNL A   1      47.489  29.255  31.292  1.00  0.00     0.029 A 
ATOM     59  C   UNL A   1      46.708  28.324  30.626  1.00  0.00     0.049 A 
ATOM     60  H   UNL A   1      44.649  28.405  30.168  1.00  0.00     0.167 HD
ATOM     61  C   UNL A   1      46.279  26.188  29.441  1.00  0.00     0.074 A 
ATOM     62  C   UNL A   1      46.703  24.928  28.869  1.00  0.00     0.031 C 
ATOM     63  C   UNL A   1      47.107  27.059  30.065  1.00  0.00     0.037 A 
BRANCH  50  64
ATOM     64  C   UNL A   1      44.352  32.217  32.069  1.00  0.00     0.064 A 
ATOM     65  C   UNL A   1      44.174  32.353  33.455  1.00  0.00     0.173 A 
ATOM     66  C   UNL A   1      44.677  33.370  31.338  1.00  0.00     0.173 A 
ATOM     67  F   UNL A   1      43.850  31.287  34.204  1.00  0.00    -0.203 F 
ATOM     68  C   UNL A   1      44.270  33.597  34.074  1.00  0.00     0.198 A 
ATOM     69  C   UNL A   1      44.817  34.605  31.966  1.00  0.00     0.198 A 
ATOM     70  F   UNL A   1      44.864  33.300  30.011  1.00  0.00    -0.203 F 
ATOM     71  F   UNL A   1      44.019  33.712  35.385  1.00  0.00    -0.200 F 
ATOM     72  C   UNL A   1      44.600  34.720  33.330  1.00  0.00     0.200 A 
ATOM     73  F   UNL A   1      45.154  35.685  31.249  1.00  0.00    -0.200 F 
ATOM     74  F   UNL A   1      44.699  35.915  33.928  1.00  0.00    -0.200 F 
ENDBRANCH  50  64
BRANCH  51  75
ATOM     75  C   UNL A   1      43.058  23.505  27.300  1.00  0.00     0.064 A 
ATOM     76  C   UNL A   1      42.430  22.401  27.898  1.00  0.00     0.173 A 
ATOM     77  C   UNL A   1      43.561  23.330  26.001  1.00  0.00     0.173 A 
ATOM     78  F   UNL A   1      41.947  22.501  29.146  1.00  0.00    -0.203 F 
ATOM     79  C   UNL A   1      42.352  21.170  27.247  1.00  0.00     0.198 A 
ATOM     80  C   UNL A   1      43.442  22.112  25.333  1.00  0.00     0.198 A 
ATOM     81  F   UNL A   1      44.171  24.347  25.373  1.00  0.00    -0.203 F 
ATOM     82  F   UNL A   1      41.818  20.115  27.877  1.00  0.00    -0.200 F 
ATOM     83  C   UNL A   1      42.852  21.029  25.962  1.00  0.00     0.200 A 
ATOM     84  F   UNL A   1      43.909  21.987  24.083  1.00  0.00    -0.200 F 
ATOM     85  F   UNL A   1      42.781  19.844  25.339  1.00  0.00    -0.200 F 
ENDBRANCH  51  75
BRANCH  63  86
ATOM     86  C   UNL A   1      48.546  26.657  30.212  1.00  0.00     0.064 A 
ATOM     87  C   UNL A   1      49.528  27.060  29.295  1.00  0.00     0.173 A 
ATOM     88  C   UNL A   1      48.954  25.891  31.316  1.00  0.00     0.173 A 
ATOM     89  F   UNL A   1      49.190  27.783  28.217  1.00  0.00    -0.203 F 
ATOM     90  C   UNL A   1      50.857  26.680  29.458  1.00  0.00     0.198 A 
ATOM     91  C   UNL A   1      50.290  25.553  31.500  1.00  0.00     0.198 A 
ATOM     92  F   UNL A   1      48.057  25.487  32.229  1.00  0.00    -0.203 F 
ATOM     93  F   UNL A   1      51.766  27.023  28.535  1.00  0.00    -0.200 F 
ATOM     94  C   UNL A   1      51.238  25.937  30.565  1.00  0.00     0.200 A 
ATOM     95  F   UNL A   1      50.660  24.857  32.584  1.00  0.00    -0.200 F 
ATOM     96  F   UNL A   1      52.522  25.586  30.727  1.00  0.00    -0.200 F 
ENDBRANCH  63  86
ENDBRANCH  37  38
ENDBRANCH  29  32
ENDBRANCH  27  28
ENDBRANCH  26  27
ENDBRANCH   1  26
TORSDOF 15
ENDMDL
MODEL 2
REMARK VINA RESULT:     -12.2      0.311      1.597
REMARK SMILES Cc1ccc([C@H]2CC(c3cccs3)=NN2C(=O)CCC(=O)NCCCNC(=O)c2ccc(-c3c4nc(c(-c5c(F)c(F)c(F)c(F)c5F)c5ccc([nH]5)c(-c5c(F)c(F)c(F)c(F)c5F)c5nc(c(-c6c(F)c(F)c(F)c(F)c6F)c6ccc3[nH]6)C=C5)C=C4)cc2)o1
REMARK SMILES IDX 23 1 22 2 20 3 21 4 19 6 18 7 16 8 17 9 15 10 6 11 7 12 8 13
REMARK SMILES IDX 14 14 5 15 1 16 2 17 3 18 92 19 4 20 9 21 10 22 13 23 11 24
REMARK SMILES IDX 12 25 24 26 25 27 26 28 27 29 28 31 29 32 30 33 91 34 31 35
REMARK SMILES IDX 90 36 32 37 33 38 34 39 84 40 35 41 89 42 83 43 85 44 36 45
REMARK SMILES IDX 88 46 82 47 81 48 37 50 69 51 49 52 68 53 50 54 53 55 67 56
REMARK SMILES IDX 86 57 51 58 52 59 66 61 87 62 54 63 38 64 39 65 47 66 40 67
REMARK SMILES IDX 41 68 45 69 48 70 42 71 43 72 46 73 44 74 70 75 71 76 79 77
REMARK SMILES IDX 72 78 73 79 77 80 80 81 74 82 75 83 78 84 76 85 55 86 56 87
REMARK SMILES IDX 64 88 57 89 58 90 62 91 65 92 59 93 60 94 63 95 61 96
REMARK H PARENT 22 5 26 30 85 49 53 60
REMARK Flexibility Score: inf
ROOT
ATOM      1  C   UNL A   1      31.492  29.412  24.800  1.00  0.00     0.117 C 
ENDROOT
BRANCH   1   2
ATOM      2  N   UNL A   1      31.331  29.703  23.387  1.00  0.00    -0.356 N 
ATOM      3  C   UNL A   1      30.814  28.858  22.441  1.00  0.00     0.220 C 
ATOM      4  O   UNL A   1      30.003  29.301  21.627  1.00  0.00    -0.275 OA
ATOM      5  H   UNL A   1      31.619  30.592  23.080  1.00  0.00     0.163 HD
BRANCH   3   6
ATOM      6  C   UNL A   1      31.273  27.418  22.369  1.00  0.00     0.110 C 
BRANCH   6   7
ATOM      7  C   UNL A   1      32.796  27.257  22.287  1.00  0.00     0.112 C 
BRANCH   7   8
ATOM      8  C   UNL A   1      33.249  25.821  22.411  1.00  0.00     0.243 C 
ATOM      9  O   UNL A   1      33.121  25.080  21.429  1.00  0.00    -0.273 OA
BRANCH   8  10
ATOM     10  N   UNL A   1      33.655  25.352  23.647  1.00  0.00    -0.222 N 
ATOM     11  C   UNL A   1      33.332  25.840  24.997  1.00  0.00     0.183 C 
ATOM     12  C   UNL A   1      34.454  25.270  25.872  1.00  0.00     0.095 C 
ATOM     13  C   UNL A   1      35.147  24.402  24.875  1.00  0.00     0.081 C 
ATOM     14  N   UNL A   1      34.769  24.559  23.655  1.00  0.00    -0.173 NA
BRANCH  11  15
ATOM     15  C   UNL A   1      31.996  25.434  25.505  1.00  0.00     0.129 A 
ATOM     16  C   UNL A   1      30.298  22.581  26.820  1.00  0.00     0.087 C 
ATOM     17  C   UNL A   1      30.609  23.925  26.298  1.00  0.00     0.101 A 
ATOM     18  C   UNL A   1      29.871  25.075  26.132  1.00  0.00     0.045 A 
ATOM     19  O   UNL A   1      31.892  24.130  25.899  1.00  0.00    -0.464 OA
ATOM     20  C   UNL A   1      30.762  26.046  25.609  1.00  0.00     0.048 A 
ENDBRANCH  11  15
BRANCH  13  21
ATOM     21  C   UNL A   1      36.181  23.472  25.234  1.00  0.00     0.050 A 
ATOM     22  C   UNL A   1      37.780  23.705  25.749  1.00  0.00     0.022 A 
ATOM     23  S   UNL A   1      35.614  21.262  24.933  1.00  0.00    -0.142 S 
ATOM     24  C   UNL A   1      38.841  22.180  25.966  1.00  0.00     0.012 A 
ATOM     25  C   UNL A   1      37.979  20.690  25.578  1.00  0.00     0.065 A 
ENDBRANCH  13  21
ENDBRANCH   8  10
ENDBRANCH   7   8
ENDBRANCH   6   7
ENDBRANCH   3   6
ENDBRANCH   1   2
BRANCH   1  26
ATOM     26  C   UNL A   1      32.896  29.224  25.367  1.00  0.00     0.042 C 
BRANCH  26  27
ATOM     27  C   UNL A   1      33.236  29.546  26.833  1.00  0.00     0.118 C 
BRANCH  27  28
ATOM     28  N   UNL A   1      33.467  30.934  27.223  1.00  0.00    -0.352 N 
ATOM     29  C   UNL A   1      34.413  31.497  28.078  1.00  0.00     0.251 C 
ATOM     30  H   UNL A   1      32.850  31.582  26.812  1.00  0.00     0.163 HD
ATOM     31  O   UNL A   1      34.279  32.681  28.389  1.00  0.00    -0.269 OA
BRANCH  29  32
ATOM     32  C   UNL A   1      35.532  30.605  28.759  1.00  0.00     0.039 A 
ATOM     33  C   UNL A   1      36.747  30.518  27.486  1.00  0.00     0.014 A 
ATOM     34  C   UNL A   1      36.008  29.700  30.544  1.00  0.00     0.014 A 
ATOM     35  C   UNL A   1      38.218  29.787  27.843  1.00  0.00     0.010 A 
ATOM     36  C   UNL A   1      37.612  28.990  30.705  1.00  0.00     0.010 A 
ATOM     37  C   UNL A   1      38.672  29.110  29.369  1.00  0.00    -0.014 A 
BRANCH  37  38
ATOM     38  C   UNL A   1      40.116  28.721  29.531  1.00  0.00     0.031 A 
ATOM     39  C   UNL A   1      41.066  29.620  30.277  1.00  0.00     0.074 A 
ATOM     40  C   UNL A   1      40.588  27.579  28.977  1.00  0.00     0.049 A 
ATOM     41  N   UNL A   1      42.368  29.533  30.399  1.00  0.00    -0.248 NA
ATOM     42  C   UNL A   1      40.488  30.799  30.936  1.00  0.00     0.031 C 
ATOM     43  C   UNL A   1      39.814  26.632  28.169  1.00  0.00     0.029 A 
ATOM     44  N   UNL A   1      41.837  26.999  29.016  1.00  0.00    -0.354 N 
ATOM     45  C   UNL A   1      42.757  30.671  31.093  1.00  0.00     0.074 A 
ATOM     46  C   UNL A   1      41.571  31.470  31.296  1.00  0.00     0.031 C 
ATOM     47  C   UNL A   1      40.558  25.554  27.890  1.00  0.00     0.029 A 
ATOM     48  C   UNL A   1      41.909  25.781  28.373  1.00  0.00     0.049 A 
ATOM     49  H   UNL A   1      42.609  27.416  29.464  1.00  0.00     0.167 HD
ATOM     50  C   UNL A   1      43.984  31.004  31.558  1.00  0.00     0.037 A 
ATOM     51  C   UNL A   1      42.949  24.953  28.153  1.00  0.00     0.037 A 
ATOM     52  C   UNL A   1      45.151  30.176  31.412  1.00  0.00     0.049 A 
ATOM     53  C   UNL A   1      44.307  25.363  28.654  1.00  0.00     0.074 A 
ATOM     54  C   UNL A   1      46.431  30.399  31.886  1.00  0.00     0.029 A 
ATOM     55  N   UNL A   1      45.176  28.958  30.746  1.00  0.00    -0.354 N 
ATOM     56  N   UNL A   1      44.650  26.429  29.335  1.00  0.00    -0.248 NA
ATOM     57  C   UNL A   1      45.426  24.462  28.348  1.00  0.00     0.031 C 
ATOM     58  C   UNL A   1      47.246  29.352  31.446  1.00  0.00     0.029 A 
ATOM     59  C   UNL A   1      46.457  28.434  30.772  1.00  0.00     0.049 A 
ATOM     60  H   UNL A   1      44.398  28.531  30.320  1.00  0.00     0.167 HD
ATOM     61  C   UNL A   1      46.014  26.314  29.562  1.00  0.00     0.074 A 
ATOM     62  C   UNL A   1      46.430  25.058  28.974  1.00  0.00     0.031 C 
ATOM     63  C   UNL A   1      46.849  27.173  30.195  1.00  0.00     0.037 A 
BRANCH  50  64
ATOM     64  C   UNL A   1      44.127  32.322  32.267  1.00  0.00     0.064 A 
ATOM     65  C   UNL A   1      44.455  33.504  31.584  1.00  0.00     0.173 A 
ATOM     66  C   UNL A   1      43.918  32.407  33.653  1.00  0.00     0.173 A 
ATOM     67  F   UNL A   1      44.678  33.481  30.260  1.00  0.00    -0.203 F 
ATOM     68  C   UNL A   1      44.614  34.708  32.265  1.00  0.00     0.198 A 
ATOM     69  C   UNL A   1      44.033  33.621  34.324  1.00  0.00     0.198 A 
ATOM     70  F   UNL A   1      43.597  31.312  34.357  1.00  0.00    -0.203 F 
ATOM     71  F   UNL A   1      45.004  35.804  31.601  1.00  0.00    -0.200 F 
ATOM     72  C   UNL A   1      44.395  34.767  33.633  1.00  0.00     0.200 A 
ATOM     73  F   UNL A   1      43.803  33.680  35.643  1.00  0.00    -0.200 F 
ATOM     74  F   UNL A   1      44.541  35.927  34.287  1.00  0.00    -0.200 F 
ENDBRANCH  50  64
BRANCH  51  75
ATOM     75  C   UNL A   1      42.772  23.674  27.399  1.00  0.00     0.064 A 
ATOM     76  C   UNL A   1      42.260  22.527  28.025  1.00  0.00     0.173 A 
ATOM     77  C   UNL A   1      43.155  23.554  26.053  1.00  0.00     0.173 A 
ATOM     78  F   UNL A   1      41.895  22.575  29.315  1.00  0.00    -0.203 F 
ATOM     79  C   UNL A   1      42.177  21.308  27.351  1.00  0.00     0.198 A 
ATOM     80  C   UNL A   1      43.030  22.346  25.368  1.00  0.00     0.198 A 
ATOM     81  F   UNL A   1      43.652  24.613  25.398  1.00  0.00    -0.203 F 
ATOM     82  F   UNL A   1      41.758  20.214  28.001  1.00  0.00    -0.200 F 
ATOM     83  C   UNL A   1      42.557  21.220  26.021  1.00  0.00     0.200 A 
ATOM     84  F   UNL A   1      43.379  22.272  24.076  1.00  0.00    -0.200 F 
ATOM     85  F   UNL A   1      42.482  20.048  25.376  1.00  0.00    -0.200 F 
ENDBRANCH  51  75
BRANCH  63  86
ATOM     86  C   UNL A   1      48.286  26.761  30.333  1.00  0.00     0.064 A 
ATOM     87  C   UNL A   1      48.730  25.958  31.394  1.00  0.00     0.173 A 
ATOM     88  C   UNL A   1      49.224  27.143  29.361  1.00  0.00     0.173 A 
ATOM     89  F   UNL A   1      47.877  25.575  32.356  1.00  0.00    -0.203 F 
ATOM     90  C   UNL A   1      50.067  25.583  31.495  1.00  0.00     0.198 A 
ATOM     91  C   UNL A   1      50.549  26.728  29.441  1.00  0.00     0.198 A 
ATOM     92  F   UNL A   1      48.850  27.903  28.320  1.00  0.00    -0.203 F 
ATOM     93  F   UNL A   1      50.481  24.869  32.550  1.00  0.00    -0.200 F 
ATOM     94  C   UNL A   1      50.971  25.959  30.513  1.00  0.00     0.200 A 
ATOM     95  F   UNL A   1      51.415  27.070  28.477  1.00  0.00    -0.200 F 
ATOM     96  F   UNL A   1      52.255  25.583  30.605  1.00  0.00    -0.200 F 
ENDBRANCH  63  86
ENDBRANCH  37  38
ENDBRANCH  29  32
ENDBRANCH  27  28
ENDBRANCH  26  27
ENDBRANCH   1  26
TORSDOF 15
ENDMDL
MODEL 3
REMARK VINA RESULT:     -12.0      3.173      4.733
REMARK SMILES Cc1ccc([C@H]2CC(c3cccs3)=NN2C(=O)CCC(=O)NCCCNC(=O)c2ccc(-c3c4nc(c(-c5c(F)c(F)c(F)c(F)c5F)c5ccc([nH]5)c(-c5c(F)c(F)c(F)c(F)c5F)c5nc(c(-c6c(F)c(F)c(F)c(F)c6F)c6ccc3[nH]6)C=C5)C=C4)cc2)o1
REMARK SMILES IDX 23 1 22 2 20 3 21 4 19 6 18 7 16 8 17 9 15 10 6 11 7 12 8 13
REMARK SMILES IDX 14 14 5 15 1 16 2 17 3 18 92 19 4 20 9 21 10 22 13 23 11 24
REMARK SMILES IDX 12 25 24 26 25 27 26 28 27 29 28 31 29 32 30 33 91 34 31 35
REMARK SMILES IDX 90 36 32 37 33 38 34 39 84 40 35 41 89 42 83 43 85 44 36 45
REMARK SMILES IDX 88 46 82 47 81 48 37 50 69 51 49 52 68 53 50 54 53 55 67 56
REMARK SMILES IDX 86 57 51 58 52 59 66 61 87 62 54 63 38 64 39 65 47 66 40 67
REMARK SMILES IDX 41 68 45 69 48 70 42 71 43 72 46 73 44 74 70 75 71 76 79 77
REMARK SMILES IDX 72 78 73 79 77 80 80 81 74 82 75 83 78 84 76 85 55 86 56 87
REMARK SMILES IDX 64 88 57 89 58 90 62 91 65 92 59 93 60 94 63 95 61 96
REMARK H PARENT 22 5 26 30 85 49 53 60
REMARK Flexibility Score: inf
ROOT
ATOM      1  C   UNL A   1      33.801  32.620  28.092  1.00  0.00     0.117 C 
ENDROOT
BRANCH   1   2
ATOM      2  N   UNL A   1      34.043  31.225  28.416  1.00  0.00    -0.356 N 
ATOM      3  C   UNL A   1      34.180  30.198  27.520  1.00  0.00     0.220 C 
ATOM      4  O   UNL A   1      35.087  29.382  27.684  1.00  0.00    -0.275 OA
ATOM      5  H   UNL A   1      34.116  30.997  29.370  1.00  0.00     0.163 HD
BRANCH   3   6
ATOM      6  C   UNL A   1      33.199  30.044  26.379  1.00  0.00     0.110 C 
BRANCH   6   7
ATOM      7  C   UNL A   1      31.775  29.692  26.828  1.00  0.00     0.112 C 
BRANCH   7   8
ATOM      8  C   UNL A   1      31.580  28.216  27.082  1.00  0.00     0.243 C 
ATOM      9  O   UNL A   1      31.465  27.832  28.252  1.00  0.00    -0.273 OA
BRANCH   8  10
ATOM     10  N   UNL A   1      31.678  27.336  26.019  1.00  0.00    -0.222 N 
ATOM     11  C   UNL A   1      30.697  26.998  24.976  1.00  0.00     0.183 C 
ATOM     12  C   UNL A   1      31.177  25.643  24.445  1.00  0.00     0.095 C 
ATOM     13  C   UNL A   1      32.469  25.517  25.180  1.00  0.00     0.081 C 
ATOM     14  N   UNL A   1      32.656  26.384  26.112  1.00  0.00    -0.173 NA
BRANCH  11  15
ATOM     15  C   UNL A   1      30.582  27.995  23.880  1.00  0.00     0.129 A 
ATOM     16  C   UNL A   1      28.105  29.751  22.001  1.00  0.00     0.087 C 
ATOM     17  C   UNL A   1      29.386  29.217  22.499  1.00  0.00     0.101 A 
ATOM     18  C   UNL A   1      30.703  29.431  22.161  1.00  0.00     0.045 A 
ATOM     19  O   UNL A   1      29.306  28.329  23.526  1.00  0.00    -0.464 OA
ATOM     20  C   UNL A   1      31.475  28.635  23.043  1.00  0.00     0.048 A 
ENDBRANCH  11  15
BRANCH  13  21
ATOM     21  C   UNL A   1      33.433  24.491  24.895  1.00  0.00     0.050 A 
ATOM     22  C   UNL A   1      34.772  24.456  23.855  1.00  0.00     0.022 A 
ATOM     23  S   UNL A   1      33.015  22.483  25.939  1.00  0.00    -0.142 S 
ATOM     24  C   UNL A   1      35.679  22.830  23.680  1.00  0.00     0.012 A 
ATOM     25  C   UNL A   1      34.967  21.544  24.655  1.00  0.00     0.065 A 
ENDBRANCH  13  21
ENDBRANCH   8  10
ENDBRANCH   7   8
ENDBRANCH   6   7
ENDBRANCH   3   6
ENDBRANCH   1   2
BRANCH   1  26
ATOM     26  C   UNL A   1      34.097  33.690  29.138  1.00  0.00     0.042 C 
BRANCH  26  27
ATOM     27  C   UNL A   1      34.265  33.351  30.630  1.00  0.00     0.118 C 
BRANCH  27  28
ATOM     28  N   UNL A   1      34.795  34.366  31.536  1.00  0.00    -0.352 N 
ATOM     29  C   UNL A   1      36.002  34.428  32.233  1.00  0.00     0.251 C 
ATOM     30  H   UNL A   1      34.200  35.137  31.679  1.00  0.00     0.163 HD
ATOM     31  O   UNL A   1      36.132  35.306  33.085  1.00  0.00    -0.269 OA
BRANCH  29  32
ATOM     32  C   UNL A   1      37.108  33.308  32.051  1.00  0.00     0.039 A 
ATOM     33  C   UNL A   1      37.406  33.373  30.316  1.00  0.00     0.014 A 
ATOM     34  C   UNL A   1      38.274  32.003  33.134  1.00  0.00     0.014 A 
ATOM     35  C   UNL A   1      38.660  32.443  29.692  1.00  0.00     0.010 A 
ATOM     36  C   UNL A   1      39.536  31.123  32.277  1.00  0.00     0.010 A 
ATOM     37  C   UNL A   1      39.715  31.418  30.602  1.00  0.00    -0.014 A 
BRANCH  37  38
ATOM     38  C   UNL A   1      40.910  30.866  29.875  1.00  0.00     0.031 A 
ATOM     39  C   UNL A   1      42.100  31.743  29.592  1.00  0.00     0.074 A 
ATOM     40  C   UNL A   1      40.916  29.585  29.434  1.00  0.00     0.049 A 
ATOM     41  N   UNL A   1      43.157  31.496  28.858  1.00  0.00    -0.248 NA
ATOM     42  C   UNL A   1      42.084  33.093  30.170  1.00  0.00     0.031 C 
ATOM     43  C   UNL A   1      39.817  28.625  29.570  1.00  0.00     0.029 A 
ATOM     44  N   UNL A   1      41.887  28.851  28.789  1.00  0.00    -0.354 N 
ATOM     45  C   UNL A   1      43.889  32.676  28.844  1.00  0.00     0.074 A 
ATOM     46  C   UNL A   1      43.122  33.659  29.573  1.00  0.00     0.031 C 
ATOM     47  C   UNL A   1      40.208  27.418  29.138  1.00  0.00     0.029 A 
ATOM     48  C   UNL A   1      41.536  27.537  28.560  1.00  0.00     0.049 A 
ATOM     49  H   UNL A   1      42.754  29.230  28.517  1.00  0.00     0.167 HD
ATOM     50  C   UNL A   1      45.110  32.912  28.308  1.00  0.00     0.037 A 
ATOM     51  C   UNL A   1      42.183  26.543  27.919  1.00  0.00     0.037 A 
ATOM     52  C   UNL A   1      45.901  31.914  27.640  1.00  0.00     0.049 A 
ATOM     53  C   UNL A   1      43.525  26.842  27.308  1.00  0.00     0.074 A 
ATOM     54  C   UNL A   1      47.170  32.037  27.103  1.00  0.00     0.029 A 
ATOM     55  N   UNL A   1      45.500  30.603  27.426  1.00  0.00    -0.354 N 
ATOM     56  N   UNL A   1      44.215  27.957  27.332  1.00  0.00    -0.248 NA
ATOM     57  C   UNL A   1      44.175  25.751  26.572  1.00  0.00     0.031 C 
ATOM     58  C   UNL A   1      47.506  30.822  26.501  1.00  0.00     0.029 A 
ATOM     59  C   UNL A   1      46.485  29.916  26.736  1.00  0.00     0.049 A 
ATOM     60  H   UNL A   1      44.642  30.219  27.719  1.00  0.00     0.167 HD
ATOM     61  C   UNL A   1      45.388  27.693  26.640  1.00  0.00     0.074 A 
ATOM     62  C   UNL A   1      45.331  26.304  26.237  1.00  0.00     0.031 C 
ATOM     63  C   UNL A   1      46.417  28.527  26.359  1.00  0.00     0.037 A 
BRANCH  50  64
ATOM     64  C   UNL A   1      45.664  34.305  28.424  1.00  0.00     0.064 A 
ATOM     65  C   UNL A   1      46.455  34.704  29.514  1.00  0.00     0.173 A 
ATOM     66  C   UNL A   1      45.413  35.253  27.420  1.00  0.00     0.173 A 
ATOM     67  F   UNL A   1      46.719  33.843  30.509  1.00  0.00    -0.203 F 
ATOM     68  C   UNL A   1      46.932  36.008  29.617  1.00  0.00     0.198 A 
ATOM     69  C   UNL A   1      45.929  36.544  27.504  1.00  0.00     0.198 A 
ATOM     70  F   UNL A   1      44.668  34.928  26.353  1.00  0.00    -0.203 F 
ATOM     71  F   UNL A   1      47.617  36.384  30.705  1.00  0.00    -0.200 F 
ATOM     72  C   UNL A   1      46.675  36.924  28.608  1.00  0.00     0.200 A 
ATOM     73  F   UNL A   1      45.695  37.422  26.520  1.00  0.00    -0.200 F 
ATOM     74  F   UNL A   1      47.140  38.177  28.705  1.00  0.00    -0.200 F 
ENDBRANCH  50  64
BRANCH  51  75
ATOM     75  C   UNL A   1      41.572  25.186  27.785  1.00  0.00     0.064 A 
ATOM     76  C   UNL A   1      42.093  24.083  28.481  1.00  0.00     0.173 A 
ATOM     77  C   UNL A   1      40.489  24.946  26.924  1.00  0.00     0.173 A 
ATOM     78  F   UNL A   1      43.140  24.245  29.304  1.00  0.00    -0.203 F 
ATOM     79  C   UNL A   1      41.585  22.798  28.290  1.00  0.00     0.198 A 
ATOM     80  C   UNL A   1      39.953  23.669  26.768  1.00  0.00     0.198 A 
ATOM     81  F   UNL A   1      39.946  25.958  26.230  1.00  0.00    -0.203 F 
ATOM     82  F   UNL A   1      42.156  21.756  28.909  1.00  0.00    -0.200 F 
ATOM     83  C   UNL A   1      40.511  22.593  27.438  1.00  0.00     0.200 A 
ATOM     84  F   UNL A   1      38.901  23.480  25.958  1.00  0.00    -0.200 F 
ATOM     85  F   UNL A   1      40.027  21.358  27.251  1.00  0.00    -0.200 F 
ENDBRANCH  51  75
BRANCH  63  86
ATOM     86  C   UNL A   1      47.592  27.948  25.624  1.00  0.00     0.064 A 
ATOM     87  C   UNL A   1      48.740  27.500  26.294  1.00  0.00     0.173 A 
ATOM     88  C   UNL A   1      47.546  27.801  24.229  1.00  0.00     0.173 A 
ATOM     89  F   UNL A   1      48.839  27.629  27.626  1.00  0.00    -0.203 F 
ATOM     90  C   UNL A   1      49.813  26.959  25.591  1.00  0.00     0.198 A 
ATOM     91  C   UNL A   1      48.601  27.218  23.534  1.00  0.00     0.198 A 
ATOM     92  F   UNL A   1      46.468  28.204  23.540  1.00  0.00    -0.203 F 
ATOM     93  F   UNL A   1      50.924  26.597  26.245  1.00  0.00    -0.200 F 
ATOM     94  C   UNL A   1      49.737  26.809  24.214  1.00  0.00     0.200 A 
ATOM     95  F   UNL A   1      48.515  27.049  22.208  1.00  0.00    -0.200 F 
ATOM     96  F   UNL A   1      50.766  26.274  23.541  1.00  0.00    -0.200 F 
ENDBRANCH  63  86
ENDBRANCH  37  38
ENDBRANCH  29  32
ENDBRANCH  27  28
ENDBRANCH  26  27
ENDBRANCH   1  26
TORSDOF 15
ENDMDL
