MODEL 1
REMARK VINA RESULT:     -11.4      0.000      0.000
REMARK SMILES O=C(CC1CC[NH+](CCC(=O)NC2CC2)CC1)NCCCNC(=O)c1ccc(-c2c3nc(c(-c4c(F)c(F)c(F)c(F)c4F)c4ccc([nH]4)c(-c4c(F)c(F)c(F)c(F)c4F)c4nc(c(-c5c(F)c(F)c(F)c(F)c5F)c5ccc2[nH]5)C=C4)C=C3)cc1
REMARK SMILES IDX 1 1 2 2 18 3 3 5 4 6 5 7 17 8 6 9 16 10 7 11 8 13 9 14 10 15
REMARK SMILES IDX 11 16 12 17 13 19 14 20 15 21 19 22 20 23 21 24 22 25 23 26
REMARK SMILES IDX 24 28 25 29 26 30 87 31 27 32 86 33 28 34 29 35 30 36 80 37
REMARK SMILES IDX 31 38 85 39 79 40 81 41 32 42 84 43 78 44 77 45 33 47 65 48
REMARK SMILES IDX 45 49 64 50 46 51 49 52 63 53 82 54 47 55 48 56 62 58 83 59
REMARK SMILES IDX 50 60 34 61 35 62 43 63 36 64 37 65 41 66 44 67 38 68 39 69
REMARK SMILES IDX 42 70 40 71 66 72 67 73 75 74 68 75 69 76 73 77 76 78 70 79
REMARK SMILES IDX 71 80 74 81 72 82 51 83 52 84 60 85 53 86 54 87 58 88 61 89
REMARK SMILES IDX 55 90 56 91 59 92 57 93
REMARK H PARENT 18 4 7 12 12 18 22 27 81 46 49 57
REMARK Flexibility Score: inf
ROOT
ATOM      1  O   UNL A   1      31.201  27.775  27.833  1.00  0.00    -0.275 OA
ATOM      2  C   UNL A   1      31.628  28.083  26.724  1.00  0.00     0.220 C 
ATOM      3  N   UNL A   1      32.043  29.355  26.432  1.00  0.00    -0.356 N 
ATOM      4  H   UNL A   1      32.625  29.492  25.649  1.00  0.00     0.163 HD
ENDROOT
BRANCH   2   5
ATOM      5  C   UNL A   1      31.853  27.042  25.633  1.00  0.00     0.104 C 
BRANCH   5   6
ATOM      6  C   UNL A   1      33.225  26.850  24.925  1.00  0.00     0.009 C 
ATOM      7  C   UNL A   1      33.212  26.464  23.450  1.00  0.00     0.066 C 
ATOM      8  C   UNL A   1      34.268  26.027  25.708  1.00  0.00     0.066 C 
ATOM      9  C   UNL A   1      33.111  24.964  23.205  1.00  0.00     0.262 C 
ATOM     10  C   UNL A   1      34.797  24.728  25.061  1.00  0.00     0.262 C 
ATOM     11  N   UNL A   1      34.026  24.171  23.978  1.00  0.00    -0.334 N 
ATOM     12  H   UNL A   1      34.913  24.585  23.689  1.00  0.00     0.348 HD
BRANCH  11  13
ATOM     13  C   UNL A   1      34.035  22.740  23.713  1.00  0.00     0.272 C 
BRANCH  13  14
ATOM     14  C   UNL A   1      32.675  22.094  23.441  1.00  0.00     0.161 C 
BRANCH  14  15
ATOM     15  C   UNL A   1      32.275  21.029  24.445  1.00  0.00     0.225 C 
ATOM     16  O   UNL A   1      32.552  19.840  24.282  1.00  0.00    -0.275 OA
ATOM     17  N   UNL A   1      31.612  21.431  25.578  1.00  0.00    -0.353 N 
ATOM     18  H   UNL A   1      31.593  20.801  26.336  1.00  0.00     0.163 HD
BRANCH  17  19
ATOM     19  C   UNL A   1      30.952  22.676  25.752  1.00  0.00     0.082 C 
ATOM     20  C   UNL A   1      30.096  22.973  26.948  1.00  0.00     0.027 C 
ATOM     21  C   UNL A   1      31.392  23.701  26.748  1.00  0.00     0.027 C 
ENDBRANCH  17  19
ENDBRANCH  14  15
ENDBRANCH  13  14
ENDBRANCH  11  13
ENDBRANCH   5   6
ENDBRANCH   2   5
BRANCH   3  22
ATOM     22  C   UNL A   1      31.664  30.511  27.225  1.00  0.00     0.117 C 
BRANCH  22  23
ATOM     23  C   UNL A   1      31.960  31.835  26.550  1.00  0.00     0.042 C 
BRANCH  23  24
ATOM     24  C   UNL A   1      32.963  32.706  27.283  1.00  0.00     0.118 C 
BRANCH  24  25
ATOM     25  N   UNL A   1      32.491  34.045  27.618  1.00  0.00    -0.352 N 
ATOM     26  C   UNL A   1      33.005  34.919  28.549  1.00  0.00     0.251 C 
ATOM     27  H   UNL A   1      31.707  34.363  27.116  1.00  0.00     0.163 HD
ATOM     28  O   UNL A   1      32.480  36.014  28.737  1.00  0.00    -0.269 OA
BRANCH  26  29
ATOM     29  C   UNL A   1      34.159  34.498  29.370  1.00  0.00     0.039 A 
ATOM     30  C   UNL A   1      33.919  33.919  30.618  1.00  0.00     0.014 A 
ATOM     31  C   UNL A   1      35.460  34.586  28.870  1.00  0.00     0.014 A 
ATOM     32  C   UNL A   1      34.979  33.349  31.325  1.00  0.00     0.010 A 
ATOM     33  C   UNL A   1      36.491  33.922  29.523  1.00  0.00     0.010 A 
ATOM     34  C   UNL A   1      36.265  33.303  30.761  1.00  0.00    -0.014 A 
BRANCH  34  35
ATOM     35  C   UNL A   1      37.386  32.623  31.457  1.00  0.00     0.031 A 
ATOM     36  C   UNL A   1      38.102  31.480  30.791  1.00  0.00     0.074 A 
ATOM     37  C   UNL A   1      37.721  32.993  32.710  1.00  0.00     0.049 A 
ATOM     38  N   UNL A   1      39.080  30.737  31.244  1.00  0.00    -0.248 NA
ATOM     39  C   UNL A   1      37.630  31.093  29.452  1.00  0.00     0.031 C 
ATOM     40  C   UNL A   1      37.051  34.031  33.496  1.00  0.00     0.029 A 
ATOM     41  N   UNL A   1      38.710  32.534  33.544  1.00  0.00    -0.354 N 
ATOM     42  C   UNL A   1      39.321  29.790  30.258  1.00  0.00     0.074 A 
ATOM     43  C   UNL A   1      38.343  30.003  29.215  1.00  0.00     0.031 C 
ATOM     44  C   UNL A   1      37.673  34.158  34.679  1.00  0.00     0.029 A 
ATOM     45  C   UNL A   1      38.766  33.193  34.747  1.00  0.00     0.049 A 
ATOM     46  H   UNL A   1      39.321  31.801  33.303  1.00  0.00     0.167 HD
ATOM     47  C   UNL A   1      40.294  28.850  30.206  1.00  0.00     0.037 A 
ATOM     48  C   UNL A   1      39.612  33.042  35.784  1.00  0.00     0.037 A 
ATOM     49  C   UNL A   1      41.294  28.670  31.225  1.00  0.00     0.049 A 
ATOM     50  C   UNL A   1      40.712  32.019  35.685  1.00  0.00     0.074 A 
ATOM     51  C   UNL A   1      42.365  27.796  31.239  1.00  0.00     0.029 A 
ATOM     52  N   UNL A   1      41.344  29.386  32.412  1.00  0.00    -0.354 N 
ATOM     53  N   UNL A   1      40.983  31.186  34.711  1.00  0.00    -0.248 NA
ATOM     54  C   UNL A   1      41.632  31.927  36.827  1.00  0.00     0.031 C 
ATOM     55  C   UNL A   1      43.044  27.958  32.452  1.00  0.00     0.029 A 
ATOM     56  C   UNL A   1      42.423  28.966  33.172  1.00  0.00     0.049 A 
ATOM     57  H   UNL A   1      40.707  30.091  32.675  1.00  0.00     0.167 HD
ATOM     58  C   UNL A   1      42.118  30.491  35.106  1.00  0.00     0.074 A 
ATOM     59  C   UNL A   1      42.495  31.015  36.402  1.00  0.00     0.031 C 
ATOM     60  C   UNL A   1      42.787  29.507  34.456  1.00  0.00     0.037 A 
BRANCH  47  61
ATOM     61  C   UNL A   1      40.332  27.959  28.998  1.00  0.00     0.064 A 
ATOM     62  C   UNL A   1      39.626  26.746  28.957  1.00  0.00     0.173 A 
ATOM     63  C   UNL A   1      41.065  28.329  27.862  1.00  0.00     0.173 A 
ATOM     64  F   UNL A   1      38.922  26.338  30.024  1.00  0.00    -0.203 F 
ATOM     65  C   UNL A   1      39.683  25.920  27.839  1.00  0.00     0.198 A 
ATOM     66  C   UNL A   1      41.092  27.516  26.731  1.00  0.00     0.198 A 
ATOM     67  F   UNL A   1      41.755  29.479  27.845  1.00  0.00    -0.203 F 
ATOM     68  F   UNL A   1      39.049  24.739  27.847  1.00  0.00    -0.200 F 
ATOM     69  C   UNL A   1      40.410  26.309  26.723  1.00  0.00     0.200 A 
ATOM     70  F   UNL A   1      41.786  27.897  25.649  1.00  0.00    -0.200 F 
ATOM     71  F   UNL A   1      40.460  25.514  25.645  1.00  0.00    -0.200 F 
ENDBRANCH  47  61
BRANCH  48  72
ATOM     72  C   UNL A   1      39.489  33.914  36.982  1.00  0.00     0.064 A 
ATOM     73  C   UNL A   1      38.779  33.487  38.112  1.00  0.00     0.173 A 
ATOM     74  C   UNL A   1      40.070  35.191  37.022  1.00  0.00     0.173 A 
ATOM     75  F   UNL A   1      38.190  32.282  38.115  1.00  0.00    -0.203 F 
ATOM     76  C   UNL A   1      38.633  34.310  39.227  1.00  0.00     0.198 A 
ATOM     77  C   UNL A   1      39.946  36.003  38.148  1.00  0.00     0.198 A 
ATOM     78  F   UNL A   1      40.765  35.645  35.968  1.00  0.00    -0.203 F 
ATOM     79  F   UNL A   1      37.907  33.894  40.274  1.00  0.00    -0.200 F 
ATOM     80  C   UNL A   1      39.222  35.565  39.246  1.00  0.00     0.200 A 
ATOM     81  F   UNL A   1      40.527  37.210  38.168  1.00  0.00    -0.200 F 
ATOM     82  F   UNL A   1      39.081  36.357  40.317  1.00  0.00    -0.200 F 
ENDBRANCH  48  72
BRANCH  60  83
ATOM     83  C   UNL A   1      44.013  28.958  35.123  1.00  0.00     0.064 A 
ATOM     84  C   UNL A   1      43.949  27.862  35.996  1.00  0.00     0.173 A 
ATOM     85  C   UNL A   1      45.273  29.518  34.859  1.00  0.00     0.173 A 
ATOM     86  F   UNL A   1      42.767  27.302  36.290  1.00  0.00    -0.203 F 
ATOM     87  C   UNL A   1      45.099  27.366  36.604  1.00  0.00     0.198 A 
ATOM     88  C   UNL A   1      46.423  28.999  35.445  1.00  0.00     0.198 A 
ATOM     89  F   UNL A   1      45.389  30.561  34.024  1.00  0.00    -0.203 F 
ATOM     90  F   UNL A   1      45.008  26.353  37.476  1.00  0.00    -0.200 F 
ATOM     91  C   UNL A   1      46.334  27.930  36.325  1.00  0.00     0.200 A 
ATOM     92  F   UNL A   1      47.618  29.535  35.162  1.00  0.00    -0.200 F 
ATOM     93  F   UNL A   1      47.440  27.448  36.909  1.00  0.00    -0.200 F 
ENDBRANCH  60  83
ENDBRANCH  34  35
ENDBRANCH  26  29
ENDBRANCH  24  25
ENDBRANCH  23  24
ENDBRANCH  22  23
ENDBRANCH   3  22
TORSDOF 15
ENDMDL
MODEL 2
REMARK VINA RESULT:     -11.4      5.037      8.677
REMARK SMILES O=C(CC1CC[NH+](CCC(=O)NC2CC2)CC1)NCCCNC(=O)c1ccc(-c2c3nc(c(-c4c(F)c(F)c(F)c(F)c4F)c4ccc([nH]4)c(-c4c(F)c(F)c(F)c(F)c4F)c4nc(c(-c5c(F)c(F)c(F)c(F)c5F)c5ccc2[nH]5)C=C4)C=C3)cc1
REMARK SMILES IDX 1 1 2 2 18 3 3 5 4 6 5 7 17 8 6 9 16 10 7 11 8 13 9 14 10 15
REMARK SMILES IDX 11 16 12 17 13 19 14 20 15 21 19 22 20 23 21 24 22 25 23 26
REMARK SMILES IDX 24 28 25 29 26 30 87 31 27 32 86 33 28 34 29 35 30 36 80 37
REMARK SMILES IDX 31 38 85 39 79 40 81 41 32 42 84 43 78 44 77 45 33 47 65 48
REMARK SMILES IDX 45 49 64 50 46 51 49 52 63 53 82 54 47 55 48 56 62 58 83 59
REMARK SMILES IDX 50 60 34 61 35 62 43 63 36 64 37 65 41 66 44 67 38 68 39 69
REMARK SMILES IDX 42 70 40 71 66 72 67 73 75 74 68 75 69 76 73 77 76 78 70 79
REMARK SMILES IDX 71 80 74 81 72 82 51 83 52 84 60 85 53 86 54 87 58 88 61 89
REMARK SMILES IDX 55 90 56 91 59 92 57 93
REMARK H PARENT 18 4 7 12 12 18 22 27 81 46 49 57
REMARK Flexibility Score: inf
ROOT
ATOM      1  O   UNL A   1      34.170  23.657  22.422  1.00  0.00    -0.275 OA
ATOM      2  C   UNL A   1      34.543  23.977  23.547  1.00  0.00     0.220 C 
ATOM      3  N   UNL A   1      35.805  23.703  24.001  1.00  0.00    -0.356 N 
ATOM      4  H   UNL A   1      36.147  24.208  24.774  1.00  0.00     0.163 HD
ENDROOT
BRANCH   2   5
ATOM      5  C   UNL A   1      33.671  24.822  24.470  1.00  0.00     0.104 C 
BRANCH   5   6
ATOM      6  C   UNL A   1      32.705  24.198  25.518  1.00  0.00     0.009 C 
ATOM      7  C   UNL A   1      33.321  23.580  26.768  1.00  0.00     0.066 C 
ATOM      8  C   UNL A   1      31.590  23.302  24.942  1.00  0.00     0.066 C 
ATOM      9  C   UNL A   1      33.739  22.125  26.595  1.00  0.00     0.262 C 
ATOM     10  C   UNL A   1      31.548  21.824  25.391  1.00  0.00     0.262 C 
ATOM     11  N   UNL A   1      32.740  21.285  25.995  1.00  0.00    -0.334 N 
ATOM     12  H   UNL A   1      31.969  21.426  26.648  1.00  0.00     0.348 HD
BRANCH  11  13
ATOM     13  C   UNL A   1      33.055  19.868  25.893  1.00  0.00     0.272 C 
BRANCH  13  14
ATOM     14  C   UNL A   1      33.650  19.400  24.565  1.00  0.00     0.161 C 
BRANCH  14  15
ATOM     15  C   UNL A   1      32.683  18.640  23.677  1.00  0.00     0.225 C 
ATOM     16  O   UNL A   1      32.106  19.176  22.731  1.00  0.00    -0.275 OA
ATOM     17  N   UNL A   1      32.484  17.306  23.936  1.00  0.00    -0.353 N 
ATOM     18  H   UNL A   1      32.082  16.763  23.220  1.00  0.00     0.163 HD
BRANCH  17  19
ATOM     19  C   UNL A   1      32.810  16.643  25.149  1.00  0.00     0.082 C 
ATOM     20  C   UNL A   1      32.748  15.151  25.292  1.00  0.00     0.027 C 
ATOM     21  C   UNL A   1      34.069  15.858  25.337  1.00  0.00     0.027 C 
ENDBRANCH  17  19
ENDBRANCH  14  15
ENDBRANCH  13  14
ENDBRANCH  11  13
ENDBRANCH   5   6
ENDBRANCH   2   5
BRANCH   3  22
ATOM     22  C   UNL A   1      36.662  22.699  23.394  1.00  0.00     0.117 C 
BRANCH  22  23
ATOM     23  C   UNL A   1      36.857  21.466  24.253  1.00  0.00     0.042 C 
BRANCH  23  24
ATOM     24  C   UNL A   1      37.638  21.705  25.531  1.00  0.00     0.118 C 
BRANCH  24  25
ATOM     25  N   UNL A   1      38.669  20.715  25.820  1.00  0.00    -0.352 N 
ATOM     26  C   UNL A   1      39.860  20.897  26.485  1.00  0.00     0.251 C 
ATOM     27  H   UNL A   1      38.491  19.802  25.498  1.00  0.00     0.163 HD
ATOM     28  O   UNL A   1      40.645  19.964  26.632  1.00  0.00    -0.269 OA
BRANCH  26  29
ATOM     29  C   UNL A   1      40.216  22.248  26.965  1.00  0.00     0.039 A 
ATOM     30  C   UNL A   1      41.256  22.381  27.888  1.00  0.00     0.014 A 
ATOM     31  C   UNL A   1      39.594  23.381  26.435  1.00  0.00     0.014 A 
ATOM     32  C   UNL A   1      41.729  23.654  28.211  1.00  0.00     0.010 A 
ATOM     33  C   UNL A   1      40.137  24.636  26.674  1.00  0.00     0.010 A 
ATOM     34  C   UNL A   1      41.205  24.789  27.570  1.00  0.00    -0.014 A 
BRANCH  34  35
ATOM     35  C   UNL A   1      41.754  26.143  27.835  1.00  0.00     0.031 A 
ATOM     36  C   UNL A   1      43.122  26.512  27.327  1.00  0.00     0.074 A 
ATOM     37  C   UNL A   1      41.051  27.018  28.581  1.00  0.00     0.049 A 
ATOM     38  N   UNL A   1      43.791  27.627  27.481  1.00  0.00    -0.248 NA
ATOM     39  C   UNL A   1      43.854  25.475  26.581  1.00  0.00     0.031 C 
ATOM     40  C   UNL A   1      39.750  26.753  29.199  1.00  0.00     0.029 A 
ATOM     41  N   UNL A   1      41.334  28.310  28.947  1.00  0.00    -0.354 N 
ATOM     42  C   UNL A   1      45.020  27.415  26.871  1.00  0.00     0.074 A 
ATOM     43  C   UNL A   1      45.036  26.045  26.409  1.00  0.00     0.031 C 
ATOM     44  C   UNL A   1      39.329  27.859  29.832  1.00  0.00     0.029 A 
ATOM     45  C   UNL A   1      40.341  28.902  29.689  1.00  0.00     0.049 A 
ATOM     46  H   UNL A   1      42.169  28.769  28.702  1.00  0.00     0.167 HD
ATOM     47  C   UNL A   1      46.032  28.293  26.679  1.00  0.00     0.037 A 
ATOM     48  C   UNL A   1      40.254  30.150  30.188  1.00  0.00     0.037 A 
ATOM     49  C   UNL A   1      45.995  29.668  27.100  1.00  0.00     0.049 A 
ATOM     50  C   UNL A   1      41.373  31.121  29.925  1.00  0.00     0.074 A 
ATOM     51  C   UNL A   1      46.935  30.660  26.894  1.00  0.00     0.029 A 
ATOM     52  N   UNL A   1      44.953  30.244  27.812  1.00  0.00    -0.354 N 
ATOM     53  N   UNL A   1      42.495  30.935  29.273  1.00  0.00    -0.248 NA
ATOM     54  C   UNL A   1      41.207  32.482  30.456  1.00  0.00     0.031 C 
ATOM     55  C   UNL A   1      46.479  31.829  27.513  1.00  0.00     0.029 A 
ATOM     56  C   UNL A   1      45.233  31.577  28.064  1.00  0.00     0.049 A 
ATOM     57  H   UNL A   1      44.135  29.775  28.097  1.00  0.00     0.167 HD
ATOM     58  C   UNL A   1      43.154  32.157  29.289  1.00  0.00     0.074 A 
ATOM     59  C   UNL A   1      42.297  33.082  30.000  1.00  0.00     0.031 C 
ATOM     60  C   UNL A   1      44.361  32.483  28.765  1.00  0.00     0.037 A 
BRANCH  47  61
ATOM     61  C   UNL A   1      47.255  27.794  25.965  1.00  0.00     0.064 A 
ATOM     62  C   UNL A   1      48.374  27.319  26.668  1.00  0.00     0.173 A 
ATOM     63  C   UNL A   1      47.304  27.771  24.564  1.00  0.00     0.173 A 
ATOM     64  F   UNL A   1      48.384  27.334  28.009  1.00  0.00    -0.203 F 
ATOM     65  C   UNL A   1      49.508  26.875  25.995  1.00  0.00     0.198 A 
ATOM     66  C   UNL A   1      48.428  27.295  23.894  1.00  0.00     0.198 A 
ATOM     67  F   UNL A   1      46.261  28.210  23.842  1.00  0.00    -0.203 F 
ATOM     68  F   UNL A   1      50.586  26.483  26.689  1.00  0.00    -0.200 F 
ATOM     69  C   UNL A   1      49.532  26.856  24.609  1.00  0.00     0.200 A 
ATOM     70  F   UNL A   1      48.446  27.267  22.554  1.00  0.00    -0.200 F 
ATOM     71  F   UNL A   1      50.624  26.424  23.962  1.00  0.00    -0.200 F 
ENDBRANCH  47  61
BRANCH  48  72
ATOM     72  C   UNL A   1      39.042  30.571  30.940  1.00  0.00     0.064 A 
ATOM     73  C   UNL A   1      37.934  31.111  30.272  1.00  0.00     0.173 A 
ATOM     74  C   UNL A   1      38.967  30.451  32.336  1.00  0.00     0.173 A 
ATOM     75  F   UNL A   1      37.966  31.263  28.940  1.00  0.00    -0.203 F 
ATOM     76  C   UNL A   1      36.807  31.536  30.972  1.00  0.00     0.198 A 
ATOM     77  C   UNL A   1      37.828  30.851  33.032  1.00  0.00     0.198 A 
ATOM     78  F   UNL A   1      39.998  29.935  33.022  1.00  0.00    -0.203 F 
ATOM     79  F   UNL A   1      35.782  32.093  30.312  1.00  0.00    -0.200 F 
ATOM     80  C   UNL A   1      36.753  31.401  32.351  1.00  0.00     0.200 A 
ATOM     81  F   UNL A   1      37.774  30.708  34.363  1.00  0.00    -0.200 F 
ATOM     82  F   UNL A   1      35.669  31.810  33.024  1.00  0.00    -0.200 F 
ENDBRANCH  48  72
BRANCH  60  83
ATOM     83  C   UNL A   1      44.808  33.908  28.913  1.00  0.00     0.064 A 
ATOM     84  C   UNL A   1      45.616  34.320  29.983  1.00  0.00     0.173 A 
ATOM     85  C   UNL A   1      44.448  34.866  27.952  1.00  0.00     0.173 A 
ATOM     86  F   UNL A   1      45.975  33.444  30.934  1.00  0.00    -0.203 F 
ATOM     87  C   UNL A   1      46.022  35.646  30.103  1.00  0.00     0.198 A 
ATOM     88  C   UNL A   1      44.881  36.184  28.059  1.00  0.00     0.198 A 
ATOM     89  F   UNL A   1      43.684  34.521  26.905  1.00  0.00    -0.203 F 
ATOM     90  F   UNL A   1      46.749  36.028  31.161  1.00  0.00    -0.200 F 
ATOM     91  C   UNL A   1      45.660  36.575  29.139  1.00  0.00     0.200 A 
ATOM     92  F   UNL A   1      44.544  37.077  27.119  1.00  0.00    -0.200 F 
ATOM     93  F   UNL A   1      46.055  37.850  29.254  1.00  0.00    -0.200 F 
ENDBRANCH  60  83
ENDBRANCH  34  35
ENDBRANCH  26  29
ENDBRANCH  24  25
ENDBRANCH  23  24
ENDBRANCH  22  23
ENDBRANCH   3  22
TORSDOF 15
ENDMDL
MODEL 3
REMARK VINA RESULT:     -11.4      1.114      7.547
REMARK SMILES O=C(CC1CC[NH+](CCC(=O)NC2CC2)CC1)NCCCNC(=O)c1ccc(-c2c3nc(c(-c4c(F)c(F)c(F)c(F)c4F)c4ccc([nH]4)c(-c4c(F)c(F)c(F)c(F)c4F)c4nc(c(-c5c(F)c(F)c(F)c(F)c5F)c5ccc2[nH]5)C=C4)C=C3)cc1
REMARK SMILES IDX 1 1 2 2 18 3 3 5 4 6 5 7 17 8 6 9 16 10 7 11 8 13 9 14 10 15
REMARK SMILES IDX 11 16 12 17 13 19 14 20 15 21 19 22 20 23 21 24 22 25 23 26
REMARK SMILES IDX 24 28 25 29 26 30 87 31 27 32 86 33 28 34 29 35 30 36 80 37
REMARK SMILES IDX 31 38 85 39 79 40 81 41 32 42 84 43 78 44 77 45 33 47 65 48
REMARK SMILES IDX 45 49 64 50 46 51 49 52 63 53 82 54 47 55 48 56 62 58 83 59
REMARK SMILES IDX 50 60 34 61 35 62 43 63 36 64 37 65 41 66 44 67 38 68 39 69
REMARK SMILES IDX 42 70 40 71 66 72 67 73 75 74 68 75 69 76 73 77 76 78 70 79
REMARK SMILES IDX 71 80 74 81 72 82 51 83 52 84 60 85 53 86 54 87 58 88 61 89
REMARK SMILES IDX 55 90 56 91 59 92 57 93
REMARK H PARENT 18 4 7 12 12 18 22 27 81 46 49 57
REMARK Flexibility Score: inf
ROOT
ATOM      1  O   UNL A   1      31.169  27.928  25.586  1.00  0.00    -0.275 OA
ATOM      2  C   UNL A   1      31.370  28.833  24.781  1.00  0.00     0.220 C 
ATOM      3  N   UNL A   1      31.904  30.037  25.158  1.00  0.00    -0.356 N 
ATOM      4  H   UNL A   1      32.301  30.613  24.466  1.00  0.00     0.163 HD
ENDROOT
BRANCH   2   5
ATOM      5  C   UNL A   1      31.168  28.634  23.283  1.00  0.00     0.104 C 
BRANCH   5   6
ATOM      6  C   UNL A   1      31.871  27.500  22.483  1.00  0.00     0.009 C 
ATOM      7  C   UNL A   1      31.190  26.136  22.442  1.00  0.00     0.066 C 
ATOM      8  C   UNL A   1      33.387  27.360  22.723  1.00  0.00     0.066 C 
ATOM      9  C   UNL A   1      31.539  25.237  23.621  1.00  0.00     0.262 C 
ATOM     10  C   UNL A   1      33.909  26.020  23.288  1.00  0.00     0.262 C 
ATOM     11  N   UNL A   1      32.944  25.147  23.907  1.00  0.00    -0.334 N 
ATOM     12  H   UNL A   1      33.291  24.814  23.007  1.00  0.00     0.348 HD
BRANCH  11  13
ATOM     13  C   UNL A   1      33.337  24.227  24.964  1.00  0.00     0.272 C 
BRANCH  13  14
ATOM     14  C   UNL A   1      33.128  22.739  24.679  1.00  0.00     0.161 C 
BRANCH  14  15
ATOM     15  C   UNL A   1      32.035  22.089  25.506  1.00  0.00     0.225 C 
ATOM     16  O   UNL A   1      31.302  22.743  26.249  1.00  0.00    -0.275 OA
ATOM     17  N   UNL A   1      31.856  20.733  25.383  1.00  0.00    -0.353 N 
ATOM     18  H   UNL A   1      31.001  20.362  25.700  1.00  0.00     0.163 HD
BRANCH  17  19
ATOM     19  C   UNL A   1      32.799  19.821  24.840  1.00  0.00     0.082 C 
ATOM     20  C   UNL A   1      32.657  18.335  24.986  1.00  0.00     0.027 C 
ATOM     21  C   UNL A   1      32.519  18.977  23.638  1.00  0.00     0.027 C 
ENDBRANCH  17  19
ENDBRANCH  14  15
ENDBRANCH  13  14
ENDBRANCH  11  13
ENDBRANCH   5   6
ENDBRANCH   2   5
BRANCH   3  22
ATOM     22  C   UNL A   1      31.908  30.502  26.535  1.00  0.00     0.117 C 
BRANCH  22  23
ATOM     23  C   UNL A   1      31.595  31.977  26.678  1.00  0.00     0.042 C 
BRANCH  23  24
ATOM     24  C   UNL A   1      32.696  32.796  27.324  1.00  0.00     0.118 C 
BRANCH  24  25
ATOM     25  N   UNL A   1      32.320  34.154  27.698  1.00  0.00    -0.352 N 
ATOM     26  C   UNL A   1      32.944  34.994  28.592  1.00  0.00     0.251 C 
ATOM     27  H   UNL A   1      31.518  34.515  27.256  1.00  0.00     0.163 HD
ATOM     28  O   UNL A   1      32.492  36.112  28.823  1.00  0.00    -0.269 OA
BRANCH  26  29
ATOM     29  C   UNL A   1      34.132  34.508  29.325  1.00  0.00     0.039 A 
ATOM     30  C   UNL A   1      33.945  33.822  30.527  1.00  0.00     0.014 A 
ATOM     31  C   UNL A   1      35.411  34.644  28.781  1.00  0.00     0.014 A 
ATOM     32  C   UNL A   1      35.034  33.198  31.137  1.00  0.00     0.010 A 
ATOM     33  C   UNL A   1      36.469  33.930  29.330  1.00  0.00     0.010 A 
ATOM     34  C   UNL A   1      36.295  33.206  30.518  1.00  0.00    -0.014 A 
BRANCH  34  35
ATOM     35  C   UNL A   1      37.445  32.473  31.106  1.00  0.00     0.031 A 
ATOM     36  C   UNL A   1      37.932  32.821  32.486  1.00  0.00     0.074 A 
ATOM     37  C   UNL A   1      38.089  31.538  30.378  1.00  0.00     0.049 A 
ATOM     38  N   UNL A   1      38.937  32.323  33.161  1.00  0.00    -0.248 NA
ATOM     39  C   UNL A   1      37.219  33.901  33.188  1.00  0.00     0.031 C 
ATOM     40  C   UNL A   1      37.765  31.168  28.998  1.00  0.00     0.029 A 
ATOM     41  N   UNL A   1      39.151  30.730  30.697  1.00  0.00    -0.354 N 
ATOM     42  C   UNL A   1      38.985  33.041  34.349  1.00  0.00     0.074 A 
ATOM     43  C   UNL A   1      37.958  34.056  34.275  1.00  0.00     0.031 C 
ATOM     44  C   UNL A   1      38.583  30.178  28.605  1.00  0.00     0.029 A 
ATOM     45  C   UNL A   1      39.506  29.865  29.692  1.00  0.00     0.049 A 
ATOM     46  H   UNL A   1      39.615  30.768  31.564  1.00  0.00     0.167 HD
ATOM     47  C   UNL A   1      39.788  32.850  35.422  1.00  0.00     0.037 A 
ATOM     48  C   UNL A   1      40.462  28.917  29.657  1.00  0.00     0.037 A 
ATOM     49  C   UNL A   1      40.779  31.810  35.510  1.00  0.00     0.049 A 
ATOM     50  C   UNL A   1      41.314  28.694  30.879  1.00  0.00     0.074 A 
ATOM     51  C   UNL A   1      41.596  31.484  36.577  1.00  0.00     0.029 A 
ATOM     52  N   UNL A   1      41.081  30.924  34.487  1.00  0.00    -0.354 N 
ATOM     53  N   UNL A   1      41.294  29.323  32.028  1.00  0.00    -0.248 NA
ATOM     54  C   UNL A   1      42.312  27.618  30.801  1.00  0.00     0.031 C 
ATOM     55  C   UNL A   1      42.419  30.422  36.187  1.00  0.00     0.029 A 
ATOM     56  C   UNL A   1      42.081  30.057  34.894  1.00  0.00     0.049 A 
ATOM     57  H   UNL A   1      40.647  30.912  33.603  1.00  0.00     0.167 HD
ATOM     58  C   UNL A   1      42.252  28.704  32.820  1.00  0.00     0.074 A 
ATOM     59  C   UNL A   1      42.822  27.637  32.024  1.00  0.00     0.031 C 
ATOM     60  C   UNL A   1      42.628  28.994  34.089  1.00  0.00     0.037 A 
BRANCH  47  61
ATOM     61  C   UNL A   1      39.611  33.774  36.592  1.00  0.00     0.064 A 
ATOM     62  C   UNL A   1      38.819  33.419  37.695  1.00  0.00     0.173 A 
ATOM     63  C   UNL A   1      40.253  35.020  36.621  1.00  0.00     0.173 A 
ATOM     64  F   UNL A   1      38.170  32.245  37.711  1.00  0.00    -0.203 F 
ATOM     65  C   UNL A   1      38.648  34.291  38.767  1.00  0.00     0.198 A 
ATOM     66  C   UNL A   1      40.107  35.876  37.709  1.00  0.00     0.198 A 
ATOM     67  F   UNL A   1      41.025  35.408  35.594  1.00  0.00    -0.203 F 
ATOM     68  F   UNL A   1      37.839  33.954  39.781  1.00  0.00    -0.200 F 
ATOM     69  C   UNL A   1      39.298  35.516  38.776  1.00  0.00     0.200 A 
ATOM     70  F   UNL A   1      40.744  37.055  37.724  1.00  0.00    -0.200 F 
ATOM     71  F   UNL A   1      39.135  36.353  39.811  1.00  0.00    -0.200 F 
ENDBRANCH  47  61
BRANCH  48  72
ATOM     72  C   UNL A   1      40.631  28.070  28.447  1.00  0.00     0.064 A 
ATOM     73  C   UNL A   1      41.408  28.508  27.366  1.00  0.00     0.173 A 
ATOM     74  C   UNL A   1      40.018  26.813  28.341  1.00  0.00     0.173 A 
ATOM     75  F   UNL A   1      41.999  29.711  27.413  1.00  0.00    -0.203 F 
ATOM     76  C   UNL A   1      41.546  27.734  26.216  1.00  0.00     0.198 A 
ATOM     77  C   UNL A   1      40.179  26.027  27.201  1.00  0.00     0.198 A 
ATOM     78  F   UNL A   1      39.268  26.344  29.350  1.00  0.00    -0.203 F 
ATOM     79  F   UNL A   1      42.256  28.201  25.178  1.00  0.00    -0.200 F 
ATOM     80  C   UNL A   1      40.936  26.492  26.136  1.00  0.00     0.200 A 
ATOM     81  F   UNL A   1      39.598  24.822  27.133  1.00  0.00    -0.200 F 
ATOM     82  F   UNL A   1      41.069  25.748  25.031  1.00  0.00    -0.200 F 
ENDBRANCH  48  72
BRANCH  60  83
ATOM     83  C   UNL A   1      43.682  28.124  34.706  1.00  0.00     0.064 A 
ATOM     84  C   UNL A   1      43.361  26.912  35.337  1.00  0.00     0.173 A 
ATOM     85  C   UNL A   1      45.035  28.493  34.639  1.00  0.00     0.173 A 
ATOM     86  F   UNL A   1      42.082  26.523  35.439  1.00  0.00    -0.203 F 
ATOM     87  C   UNL A   1      44.353  26.117  35.903  1.00  0.00     0.198 A 
ATOM     88  C   UNL A   1      46.026  27.680  35.179  1.00  0.00     0.198 A 
ATOM     89  F   UNL A   1      45.395  29.638  34.039  1.00  0.00    -0.203 F 
ATOM     90  F   UNL A   1      44.019  24.990  36.546  1.00  0.00    -0.200 F 
ATOM     91  C   UNL A   1      45.684  26.497  35.819  1.00  0.00     0.200 A 
ATOM     92  F   UNL A   1      47.313  28.042  35.083  1.00  0.00    -0.200 F 
ATOM     93  F   UNL A   1      46.638  25.728  36.361  1.00  0.00    -0.200 F 
ENDBRANCH  60  83
ENDBRANCH  34  35
ENDBRANCH  26  29
ENDBRANCH  24  25
ENDBRANCH  23  24
ENDBRANCH  22  23
ENDBRANCH   3  22
TORSDOF 15
ENDMDL
