MODEL 1
REMARK VINA RESULT:     -13.6      0.000      0.000
REMARK SMILES O=C(CCC(=O)N1CCC(c2nnc3ccccn23)CC1)NCCCNC(=O)c1ccc(-c2c3nc(c(-c4c(F)c(F)c(F)c(F)c4F)c4ccc([nH]4)c(-c4c(F)c(F)c(F)c(F)c4F)c4nc(c(-c5c(F)c(F)c(F)c(F)c5F)c5ccc2[nH]5)C=C4)C=C3)cc1
REMARK SMILES IDX 23 1 22 2 1 3 2 4 3 6 4 7 5 8 6 9 7 10 8 11 21 12 9 13 20 14
REMARK SMILES IDX 10 15 11 16 12 17 19 18 13 19 14 20 18 21 15 22 17 23 16 24
REMARK SMILES IDX 24 25 25 26 26 27 27 28 28 30 29 31 30 32 91 33 31 34 90 35
REMARK SMILES IDX 32 36 33 37 34 38 84 39 35 40 89 41 83 42 85 43 36 44 88 45
REMARK SMILES IDX 82 46 81 47 37 49 69 50 49 51 68 52 50 53 53 54 67 55 86 56
REMARK SMILES IDX 51 57 52 58 66 60 87 61 54 62 38 63 39 64 47 65 40 66 41 67
REMARK SMILES IDX 45 68 48 69 42 70 43 71 46 72 44 73 70 74 71 75 79 76 72 77
REMARK SMILES IDX 73 78 77 79 80 80 74 81 75 82 78 83 76 84 55 85 56 86 64 87
REMARK SMILES IDX 57 88 58 89 62 90 65 91 59 92 60 93 63 94 61 95
REMARK H PARENT 22 5 26 29 85 48 53 59
REMARK Flexibility Score: inf
ROOT
ATOM      1  C   UNL A   1      39.141  21.618  26.289  1.00  0.00     0.117 C 
ENDROOT
BRANCH   1   2
ATOM      2  N   UNL A   1      38.559  22.187  25.083  1.00  0.00    -0.356 N 
ATOM      3  O   UNL A   1      36.932  20.578  24.962  1.00  0.00    -0.275 OA
ATOM      4  C   UNL A   1      37.378  21.656  24.582  1.00  0.00     0.220 C 
ATOM      5  H   UNL A   1      38.999  22.940  24.627  1.00  0.00     0.163 HD
BRANCH   4   6
ATOM      6  C   UNL A   1      36.617  22.561  23.610  1.00  0.00     0.110 C 
BRANCH   6   7
ATOM      7  C   UNL A   1      35.167  22.776  24.067  1.00  0.00     0.110 C 
BRANCH   7   8
ATOM      8  C   UNL A   1      34.664  24.123  24.631  1.00  0.00     0.223 C 
ATOM      9  O   UNL A   1      35.084  24.493  25.733  1.00  0.00    -0.275 OA
ATOM     10  N   UNL A   1      33.920  24.984  23.839  1.00  0.00    -0.343 N 
ATOM     11  C   UNL A   1      33.986  26.437  24.031  1.00  0.00     0.120 C 
ATOM     12  C   UNL A   1      32.968  24.553  22.852  1.00  0.00     0.120 C 
ATOM     13  C   UNL A   1      32.606  27.103  24.192  1.00  0.00     0.033 C 
ATOM     14  C   UNL A   1      31.594  25.080  23.174  1.00  0.00     0.033 C 
ATOM     15  C   UNL A   1      31.596  26.601  23.152  1.00  0.00     0.062 C 
BRANCH  15  16
ATOM     16  C   UNL A   1      30.196  27.069  23.401  1.00  0.00     0.140 A 
ATOM     17  N   UNL A   1      29.226  26.337  23.922  1.00  0.00    -0.134 NA
ATOM     18  N   UNL A   1      29.671  28.265  22.960  1.00  0.00    -0.286 N 
ATOM     19  N   UNL A   1      28.040  27.015  23.781  1.00  0.00    -0.130 NA
ATOM     20  C   UNL A   1      28.305  28.159  23.191  1.00  0.00     0.160 A 
ATOM     21  C   UNL A   1      30.257  29.380  22.364  1.00  0.00     0.095 A 
ATOM     22  C   UNL A   1      27.476  29.226  22.751  1.00  0.00     0.050 A 
ATOM     23  C   UNL A   1      29.474  30.400  21.972  1.00  0.00     0.019 A 
ATOM     24  C   UNL A   1      28.034  30.303  22.166  1.00  0.00     0.005 A 
ENDBRANCH  15  16
ENDBRANCH   7   8
ENDBRANCH   6   7
ENDBRANCH   4   6
ENDBRANCH   1   2
BRANCH   1  25
ATOM     25  C   UNL A   1      40.510  20.956  26.119  1.00  0.00     0.042 C 
BRANCH  25  26
ATOM     26  C   UNL A   1      41.721  21.751  26.621  1.00  0.00     0.118 C 
BRANCH  26  27
ATOM     27  N   UNL A   1      42.612  22.221  25.566  1.00  0.00    -0.352 N 
ATOM     28  C   UNL A   1      42.994  23.502  25.222  1.00  0.00     0.251 C 
ATOM     29  H   UNL A   1      43.004  21.510  25.011  1.00  0.00     0.163 HD
ATOM     30  O   UNL A   1      43.732  23.649  24.250  1.00  0.00    -0.269 OA
BRANCH  28  31
ATOM     31  C   UNL A   1      42.508  24.702  25.956  1.00  0.00     0.039 A 
ATOM     32  C   UNL A   1      41.236  24.653  26.548  1.00  0.00     0.014 A 
ATOM     33  C   UNL A   1      43.260  25.872  26.063  1.00  0.00     0.014 A 
ATOM     34  C   UNL A   1      40.790  25.704  27.358  1.00  0.00     0.010 A 
ATOM     35  C   UNL A   1      42.840  26.903  26.904  1.00  0.00     0.010 A 
ATOM     36  C   UNL A   1      41.634  26.796  27.610  1.00  0.00    -0.014 A 
BRANCH  36  37
ATOM     37  C   UNL A   1      41.428  27.679  28.786  1.00  0.00     0.031 A 
ATOM     38  C   UNL A   1      42.187  27.499  30.065  1.00  0.00     0.074 A 
ATOM     39  C   UNL A   1      40.392  28.541  28.717  1.00  0.00     0.049 A 
ATOM     40  N   UNL A   1      42.026  28.115  31.209  1.00  0.00    -0.248 NA
ATOM     41  C   UNL A   1      43.254  26.489  30.068  1.00  0.00     0.031 C 
ATOM     42  C   UNL A   1      39.541  28.733  27.539  1.00  0.00     0.029 A 
ATOM     43  N   UNL A   1      39.845  29.380  29.655  1.00  0.00    -0.354 N 
ATOM     44  C   UNL A   1      42.972  27.575  32.070  1.00  0.00     0.074 A 
ATOM     45  C   UNL A   1      43.682  26.556  31.324  1.00  0.00     0.031 C 
ATOM     46  C   UNL A   1      38.578  29.618  27.824  1.00  0.00     0.029 A 
ATOM     47  C   UNL A   1      38.715  30.028  29.215  1.00  0.00     0.049 A 
ATOM     48  H   UNL A   1      40.225  29.506  30.554  1.00  0.00     0.167 HD
ATOM     49  C   UNL A   1      43.217  27.907  33.362  1.00  0.00     0.037 A 
ATOM     50  C   UNL A   1      37.865  30.846  29.862  1.00  0.00     0.037 A 
ATOM     51  C   UNL A   1      42.463  28.898  34.096  1.00  0.00     0.049 A 
ATOM     52  C   UNL A   1      38.148  31.182  31.296  1.00  0.00     0.074 A 
ATOM     53  C   UNL A   1      42.656  29.348  35.391  1.00  0.00     0.029 A 
ATOM     54  N   UNL A   1      41.355  29.575  33.602  1.00  0.00    -0.354 N 
ATOM     55  N   UNL A   1      39.109  30.740  32.070  1.00  0.00    -0.248 NA
ATOM     56  C   UNL A   1      37.244  32.139  31.943  1.00  0.00     0.031 C 
ATOM     57  C   UNL A   1      41.632  30.251  35.699  1.00  0.00     0.029 A 
ATOM     58  C   UNL A   1      40.839  30.417  34.575  1.00  0.00     0.049 A 
ATOM     59  H   UNL A   1      40.991  29.473  32.693  1.00  0.00     0.167 HD
ATOM     60  C   UNL A   1      38.951  31.391  33.283  1.00  0.00     0.074 A 
ATOM     61  C   UNL A   1      37.801  32.261  33.141  1.00  0.00     0.031 C 
ATOM     62  C   UNL A   1      39.698  31.283  34.409  1.00  0.00     0.037 A 
BRANCH  49  63
ATOM     63  C   UNL A   1      44.334  27.195  34.075  1.00  0.00     0.064 A 
ATOM     64  C   UNL A   1      45.626  27.738  34.142  1.00  0.00     0.173 A 
ATOM     65  C   UNL A   1      44.100  25.989  34.754  1.00  0.00     0.173 A 
ATOM     66  F   UNL A   1      45.907  28.891  33.514  1.00  0.00    -0.203 F 
ATOM     67  C   UNL A   1      46.646  27.090  34.836  1.00  0.00     0.198 A 
ATOM     68  C   UNL A   1      45.114  25.357  35.472  1.00  0.00     0.198 A 
ATOM     69  F   UNL A   1      42.881  25.429  34.741  1.00  0.00    -0.203 F 
ATOM     70  F   UNL A   1      47.880  27.612  34.853  1.00  0.00    -0.200 F 
ATOM     71  C   UNL A   1      46.388  25.904  35.507  1.00  0.00     0.200 A 
ATOM     72  F   UNL A   1      44.857  24.221  36.137  1.00  0.00    -0.200 F 
ATOM     73  F   UNL A   1      47.366  25.288  36.184  1.00  0.00    -0.200 F 
ENDBRANCH  49  63
BRANCH  50  74
ATOM     74  C   UNL A   1      36.703  31.418  29.137  1.00  0.00     0.064 A 
ATOM     75  C   UNL A   1      35.581  30.632  28.843  1.00  0.00     0.173 A 
ATOM     76  C   UNL A   1      36.664  32.773  28.769  1.00  0.00     0.173 A 
ATOM     77  F   UNL A   1      35.574  29.331  29.167  1.00  0.00    -0.203 F 
ATOM     78  C   UNL A   1      34.472  31.171  28.197  1.00  0.00     0.198 A 
ATOM     79  C   UNL A   1      35.541  33.318  28.149  1.00  0.00     0.198 A 
ATOM     80  F   UNL A   1      37.703  33.575  29.044  1.00  0.00    -0.203 F 
ATOM     81  F   UNL A   1      33.425  30.388  27.901  1.00  0.00    -0.200 F 
ATOM     82  C   UNL A   1      34.449  32.517  27.858  1.00  0.00     0.200 A 
ATOM     83  F   UNL A   1      35.514  34.624  27.846  1.00  0.00    -0.200 F 
ATOM     84  F   UNL A   1      33.373  33.039  27.253  1.00  0.00    -0.200 F 
ENDBRANCH  50  74
BRANCH  62  85
ATOM     85  C   UNL A   1      39.322  32.166  35.562  1.00  0.00     0.064 A 
ATOM     86  C   UNL A   1      39.766  33.492  35.653  1.00  0.00     0.173 A 
ATOM     87  C   UNL A   1      38.470  31.684  36.567  1.00  0.00     0.173 A 
ATOM     88  F   UNL A   1      40.599  33.993  34.728  1.00  0.00    -0.203 F 
ATOM     89  C   UNL A   1      39.383  34.300  36.720  1.00  0.00     0.198 A 
ATOM     90  C   UNL A   1      38.066  32.503  37.616  1.00  0.00     0.198 A 
ATOM     91  F   UNL A   1      38.019  30.421  36.523  1.00  0.00    -0.203 F 
ATOM     92  F   UNL A   1      39.852  35.553  36.813  1.00  0.00    -0.200 F 
ATOM     93  C   UNL A   1      38.526  33.808  37.696  1.00  0.00     0.200 A 
ATOM     94  F   UNL A   1      37.229  32.030  38.550  1.00  0.00    -0.200 F 
ATOM     95  F   UNL A   1      38.150  34.592  38.716  1.00  0.00    -0.200 F 
ENDBRANCH  62  85
ENDBRANCH  36  37
ENDBRANCH  28  31
ENDBRANCH  26  27
ENDBRANCH  25  26
ENDBRANCH   1  25
TORSDOF 13
ENDMDL
MODEL 2
REMARK VINA RESULT:     -13.4      2.945      8.758
REMARK SMILES O=C(CCC(=O)N1CCC(c2nnc3ccccn23)CC1)NCCCNC(=O)c1ccc(-c2c3nc(c(-c4c(F)c(F)c(F)c(F)c4F)c4ccc([nH]4)c(-c4c(F)c(F)c(F)c(F)c4F)c4nc(c(-c5c(F)c(F)c(F)c(F)c5F)c5ccc2[nH]5)C=C4)C=C3)cc1
REMARK SMILES IDX 23 1 22 2 1 3 2 4 3 6 4 7 5 8 6 9 7 10 8 11 21 12 9 13 20 14
REMARK SMILES IDX 10 15 11 16 12 17 19 18 13 19 14 20 18 21 15 22 17 23 16 24
REMARK SMILES IDX 24 25 25 26 26 27 27 28 28 30 29 31 30 32 91 33 31 34 90 35
REMARK SMILES IDX 32 36 33 37 34 38 84 39 35 40 89 41 83 42 85 43 36 44 88 45
REMARK SMILES IDX 82 46 81 47 37 49 69 50 49 51 68 52 50 53 53 54 67 55 86 56
REMARK SMILES IDX 51 57 52 58 66 60 87 61 54 62 38 63 39 64 47 65 40 66 41 67
REMARK SMILES IDX 45 68 48 69 42 70 43 71 46 72 44 73 70 74 71 75 79 76 72 77
REMARK SMILES IDX 73 78 77 79 80 80 74 81 75 82 78 83 76 84 55 85 56 86 64 87
REMARK SMILES IDX 57 88 58 89 62 90 65 91 59 92 60 93 63 94 61 95
REMARK H PARENT 22 5 26 29 85 48 53 59
REMARK Flexibility Score: inf
ROOT
ATOM      1  C   UNL A   1      32.063  30.465  26.456  1.00  0.00     0.117 C 
ENDROOT
BRANCH   1   2
ATOM      2  N   UNL A   1      31.362  29.994  25.273  1.00  0.00    -0.356 N 
ATOM      3  O   UNL A   1      33.253  29.063  24.373  1.00  0.00    -0.275 OA
ATOM      4  C   UNL A   1      32.032  29.191  24.359  1.00  0.00     0.220 C 
ATOM      5  H   UNL A   1      30.421  30.241  25.121  1.00  0.00     0.163 HD
BRANCH   4   6
ATOM      6  C   UNL A   1      31.136  28.394  23.410  1.00  0.00     0.110 C 
BRANCH   6   7
ATOM      7  C   UNL A   1      30.417  27.255  24.147  1.00  0.00     0.110 C 
BRANCH   7   8
ATOM      8  C   UNL A   1      31.056  26.499  25.333  1.00  0.00     0.223 C 
ATOM      9  O   UNL A   1      30.802  26.883  26.480  1.00  0.00    -0.275 OA
ATOM     10  N   UNL A   1      31.733  25.306  25.127  1.00  0.00    -0.343 N 
ATOM     11  C   UNL A   1      31.765  24.265  26.159  1.00  0.00     0.120 C 
ATOM     12  C   UNL A   1      32.525  25.019  23.962  1.00  0.00     0.120 C 
ATOM     13  C   UNL A   1      33.185  23.777  26.502  1.00  0.00     0.033 C 
ATOM     14  C   UNL A   1      33.954  24.739  24.348  1.00  0.00     0.033 C 
ATOM     15  C   UNL A   1      34.024  23.512  25.245  1.00  0.00     0.062 C 
BRANCH  15  16
ATOM     16  C   UNL A   1      35.467  23.233  25.536  1.00  0.00     0.140 A 
ATOM     17  N   UNL A   1      36.376  24.145  25.837  1.00  0.00    -0.134 NA
ATOM     18  N   UNL A   1      36.090  22.017  25.354  1.00  0.00    -0.286 N 
ATOM     19  N   UNL A   1      37.616  23.555  25.804  1.00  0.00    -0.130 NA
ATOM     20  C   UNL A   1      37.445  22.289  25.499  1.00  0.00     0.160 A 
ATOM     21  C   UNL A   1      35.597  20.750  25.051  1.00  0.00     0.095 A 
ATOM     22  C   UNL A   1      38.360  21.224  25.278  1.00  0.00     0.050 A 
ATOM     23  C   UNL A   1      36.462  19.738  24.868  1.00  0.00     0.019 A 
ATOM     24  C   UNL A   1      37.890  19.999  24.975  1.00  0.00     0.005 A 
ENDBRANCH  15  16
ENDBRANCH   7   8
ENDBRANCH   6   7
ENDBRANCH   4   6
ENDBRANCH   1   2
BRANCH   1  25
ATOM     25  C   UNL A   1      31.596  31.811  27.015  1.00  0.00     0.042 C 
BRANCH  25  26
ATOM     26  C   UNL A   1      32.461  33.030  26.676  1.00  0.00     0.118 C 
BRANCH  26  27
ATOM     27  N   UNL A   1      32.518  34.039  27.727  1.00  0.00    -0.352 N 
ATOM     28  C   UNL A   1      33.450  34.239  28.726  1.00  0.00     0.251 C 
ATOM     29  H   UNL A   1      31.772  34.680  27.724  1.00  0.00     0.163 HD
ATOM     30  O   UNL A   1      33.254  35.145  29.533  1.00  0.00    -0.269 OA
BRANCH  28  31
ATOM     31  C   UNL A   1      34.650  33.373  28.880  1.00  0.00     0.039 A 
ATOM     32  C   UNL A   1      35.897  33.883  28.485  1.00  0.00     0.014 A 
ATOM     33  C   UNL A   1      34.579  32.075  29.386  1.00  0.00     0.014 A 
ATOM     34  C   UNL A   1      37.070  33.159  28.732  1.00  0.00     0.010 A 
ATOM     35  C   UNL A   1      35.747  31.368  29.674  1.00  0.00     0.010 A 
ATOM     36  C   UNL A   1      37.001  31.933  29.412  1.00  0.00    -0.014 A 
BRANCH  36  37
ATOM     37  C   UNL A   1      38.188  31.364  30.101  1.00  0.00     0.031 A 
ATOM     38  C   UNL A   1      39.027  30.284  29.490  1.00  0.00     0.074 A 
ATOM     39  C   UNL A   1      38.372  31.733  31.386  1.00  0.00     0.049 A 
ATOM     40  N   UNL A   1      40.015  29.610  30.024  1.00  0.00    -0.248 NA
ATOM     41  C   UNL A   1      38.710  29.898  28.107  1.00  0.00     0.031 C 
ATOM     42  C   UNL A   1      37.556  32.722  32.096  1.00  0.00     0.029 A 
ATOM     43  N   UNL A   1      39.261  31.300  32.336  1.00  0.00    -0.354 N 
ATOM     44  C   UNL A   1      40.444  28.723  29.045  1.00  0.00     0.074 A 
ATOM     45  C   UNL A   1      39.586  28.923  27.895  1.00  0.00     0.031 C 
ATOM     46  C   UNL A   1      37.971  32.812  33.366  1.00  0.00     0.029 A 
ATOM     47  C   UNL A   1      39.055  31.862  33.574  1.00  0.00     0.049 A 
ATOM     48  H   UNL A   1      39.978  30.651  32.150  1.00  0.00     0.167 HD
ATOM     49  C   UNL A   1      41.463  27.830  29.112  1.00  0.00     0.037 A 
ATOM     50  C   UNL A   1      39.653  31.625  34.756  1.00  0.00     0.037 A 
ATOM     51  C   UNL A   1      42.276  27.622  30.288  1.00  0.00     0.049 A 
ATOM     52  C   UNL A   1      40.764  30.619  34.806  1.00  0.00     0.074 A 
ATOM     53  C   UNL A   1      43.363  26.779  30.452  1.00  0.00     0.029 A 
ATOM     54  N   UNL A   1      42.072  28.247  31.512  1.00  0.00    -0.354 N 
ATOM     55  N   UNL A   1      41.228  29.858  33.845  1.00  0.00    -0.248 NA
ATOM     56  C   UNL A   1      41.445  30.447  36.094  1.00  0.00     0.031 C 
ATOM     57  C   UNL A   1      43.778  26.853  31.786  1.00  0.00     0.029 A 
ATOM     58  C   UNL A   1      42.994  27.790  32.441  1.00  0.00     0.049 A 
ATOM     59  H   UNL A   1      41.375  28.918  31.693  1.00  0.00     0.167 HD
ATOM     60  C   UNL A   1      42.279  29.144  34.398  1.00  0.00     0.074 A 
ATOM     61  C   UNL A   1      42.385  29.566  35.781  1.00  0.00     0.031 C 
ATOM     62  C   UNL A   1      43.088  28.230  33.810  1.00  0.00     0.037 A 
BRANCH  49  63
ATOM     63  C   UNL A   1      41.757  27.002  27.891  1.00  0.00     0.064 A 
ATOM     64  C   UNL A   1      42.723  27.397  26.952  1.00  0.00     0.173 A 
ATOM     65  C   UNL A   1      41.117  25.770  27.686  1.00  0.00     0.173 A 
ATOM     66  F   UNL A   1      43.370  28.563  27.099  1.00  0.00    -0.203 F 
ATOM     67  C   UNL A   1      43.016  26.605  25.844  1.00  0.00     0.198 A 
ATOM     68  C   UNL A   1      41.432  24.966  26.592  1.00  0.00     0.198 A 
ATOM     69  F   UNL A   1      40.196  25.331  28.558  1.00  0.00    -0.203 F 
ATOM     70  F   UNL A   1      43.916  27.023  24.943  1.00  0.00    -0.200 F 
ATOM     71  C   UNL A   1      42.377  25.387  25.668  1.00  0.00     0.200 A 
ATOM     72  F   UNL A   1      40.827  23.780  26.435  1.00  0.00    -0.200 F 
ATOM     73  F   UNL A   1      42.668  24.621  24.607  1.00  0.00    -0.200 F 
ENDBRANCH  49  63
BRANCH  50  74
ATOM     74  C   UNL A   1      39.229  32.386  35.958  1.00  0.00     0.064 A 
ATOM     75  C   UNL A   1      38.316  31.839  36.869  1.00  0.00     0.173 A 
ATOM     76  C   UNL A   1      39.764  33.651  36.251  1.00  0.00     0.173 A 
ATOM     77  F   UNL A   1      37.771  30.637  36.629  1.00  0.00    -0.203 F 
ATOM     78  C   UNL A   1      37.942  32.531  38.018  1.00  0.00     0.198 A 
ATOM     79  C   UNL A   1      39.412  34.328  37.417  1.00  0.00     0.198 A 
ATOM     80  F   UNL A   1      40.656  34.212  35.423  1.00  0.00    -0.203 F 
ATOM     81  F   UNL A   1      37.044  31.996  38.857  1.00  0.00    -0.200 F 
ATOM     82  C   UNL A   1      38.497  33.771  38.296  1.00  0.00     0.200 A 
ATOM     83  F   UNL A   1      39.969  35.516  37.693  1.00  0.00    -0.200 F 
ATOM     84  F   UNL A   1      38.151  34.428  39.412  1.00  0.00    -0.200 F 
ENDBRANCH  50  74
BRANCH  62  85
ATOM     85  C   UNL A   1      44.193  27.659  34.649  1.00  0.00     0.064 A 
ATOM     86  C   UNL A   1      45.439  28.290  34.761  1.00  0.00     0.173 A 
ATOM     87  C   UNL A   1      43.980  26.483  35.385  1.00  0.00     0.173 A 
ATOM     88  F   UNL A   1      45.698  29.405  34.061  1.00  0.00    -0.203 F 
ATOM     89  C   UNL A   1      46.440  27.753  35.566  1.00  0.00     0.198 A 
ATOM     90  C   UNL A   1      44.972  25.967  36.211  1.00  0.00     0.198 A 
ATOM     91  F   UNL A   1      42.803  25.843  35.311  1.00  0.00    -0.203 F 
ATOM     92  F   UNL A   1      47.641  28.347  35.626  1.00  0.00    -0.200 F 
ATOM     93  C   UNL A   1      46.203  26.598  36.298  1.00  0.00     0.200 A 
ATOM     94  F   UNL A   1      44.736  24.858  36.927  1.00  0.00    -0.200 F 
ATOM     95  F   UNL A   1      47.165  26.090  37.082  1.00  0.00    -0.200 F 
ENDBRANCH  62  85
ENDBRANCH  36  37
ENDBRANCH  28  31
ENDBRANCH  26  27
ENDBRANCH  25  26
ENDBRANCH   1  25
TORSDOF 13
ENDMDL
MODEL 3
REMARK VINA RESULT:     -13.4      5.487      8.181
REMARK SMILES O=C(CCC(=O)N1CCC(c2nnc3ccccn23)CC1)NCCCNC(=O)c1ccc(-c2c3nc(c(-c4c(F)c(F)c(F)c(F)c4F)c4ccc([nH]4)c(-c4c(F)c(F)c(F)c(F)c4F)c4nc(c(-c5c(F)c(F)c(F)c(F)c5F)c5ccc2[nH]5)C=C4)C=C3)cc1
REMARK SMILES IDX 23 1 22 2 1 3 2 4 3 6 4 7 5 8 6 9 7 10 8 11 21 12 9 13 20 14
REMARK SMILES IDX 10 15 11 16 12 17 19 18 13 19 14 20 18 21 15 22 17 23 16 24
REMARK SMILES IDX 24 25 25 26 26 27 27 28 28 30 29 31 30 32 91 33 31 34 90 35
REMARK SMILES IDX 32 36 33 37 34 38 84 39 35 40 89 41 83 42 85 43 36 44 88 45
REMARK SMILES IDX 82 46 81 47 37 49 69 50 49 51 68 52 50 53 53 54 67 55 86 56
REMARK SMILES IDX 51 57 52 58 66 60 87 61 54 62 38 63 39 64 47 65 40 66 41 67
REMARK SMILES IDX 45 68 48 69 42 70 43 71 46 72 44 73 70 74 71 75 79 76 72 77
REMARK SMILES IDX 73 78 77 79 80 80 74 81 75 82 78 83 76 84 55 85 56 86 64 87
REMARK SMILES IDX 57 88 58 89 62 90 65 91 59 92 60 93 63 94 61 95
REMARK H PARENT 22 5 26 29 85 48 53 59
REMARK Flexibility Score: inf
ROOT
ATOM      1  C   UNL A   1      42.357  18.577  27.793  1.00  0.00     0.117 C 
ENDROOT
BRANCH   1   2
ATOM      2  N   UNL A   1      42.181  20.021  27.815  1.00  0.00    -0.356 N 
ATOM      3  O   UNL A   1      40.387  19.947  26.391  1.00  0.00    -0.275 OA
ATOM      4  C   UNL A   1      41.083  20.582  27.178  1.00  0.00     0.220 C 
ATOM      5  H   UNL A   1      42.835  20.594  28.277  1.00  0.00     0.163 HD
BRANCH   4   6
ATOM      6  C   UNL A   1      40.736  22.008  27.612  1.00  0.00     0.110 C 
BRANCH   6   7
ATOM      7  C   UNL A   1      40.149  22.817  26.446  1.00  0.00     0.110 C 
BRANCH   7   8
ATOM      8  C   UNL A   1      38.674  23.275  26.411  1.00  0.00     0.223 C 
ATOM      9  O   UNL A   1      38.334  24.218  27.133  1.00  0.00    -0.275 OA
ATOM     10  N   UNL A   1      37.803  22.775  25.454  1.00  0.00    -0.343 N 
ATOM     11  C   UNL A   1      36.688  23.582  24.949  1.00  0.00     0.120 C 
ATOM     12  C   UNL A   1      37.845  21.429  24.951  1.00  0.00     0.120 C 
ATOM     13  C   UNL A   1      35.325  22.869  25.023  1.00  0.00     0.033 C 
ATOM     14  C   UNL A   1      36.545  20.719  25.228  1.00  0.00     0.033 C 
ATOM     15  C   UNL A   1      35.400  21.424  24.515  1.00  0.00     0.062 C 
BRANCH  15  16
ATOM     16  C   UNL A   1      34.149  20.637  24.759  1.00  0.00     0.140 A 
ATOM     17  N   UNL A   1      33.001  21.138  25.183  1.00  0.00    -0.134 NA
ATOM     18  N   UNL A   1      34.065  19.261  24.752  1.00  0.00    -0.286 N 
ATOM     19  N   UNL A   1      32.165  20.100  25.513  1.00  0.00    -0.130 NA
ATOM     20  C   UNL A   1      32.808  18.981  25.272  1.00  0.00     0.160 A 
ATOM     21  C   UNL A   1      34.972  18.271  24.378  1.00  0.00     0.095 A 
ATOM     22  C   UNL A   1      32.464  17.616  25.469  1.00  0.00     0.050 A 
ATOM     23  C   UNL A   1      34.635  16.981  24.541  1.00  0.00     0.019 A 
ATOM     24  C   UNL A   1      33.339  16.654  25.118  1.00  0.00     0.005 A 
ENDBRANCH  15  16
ENDBRANCH   7   8
ENDBRANCH   6   7
ENDBRANCH   4   6
ENDBRANCH   1   2
BRANCH   1  25
ATOM     25  C   UNL A   1      43.451  18.054  26.860  1.00  0.00     0.042 C 
BRANCH  25  26
ATOM     26  C   UNL A   1      43.408  18.549  25.410  1.00  0.00     0.118 C 
BRANCH  26  27
ATOM     27  N   UNL A   1      44.711  18.613  24.757  1.00  0.00    -0.352 N 
ATOM     28  C   UNL A   1      45.533  19.693  24.502  1.00  0.00     0.251 C 
ATOM     29  H   UNL A   1      45.059  17.747  24.447  1.00  0.00     0.163 HD
ATOM     30  O   UNL A   1      46.579  19.497  23.888  1.00  0.00    -0.269 OA
BRANCH  28  31
ATOM     31  C   UNL A   1      45.173  21.079  24.906  1.00  0.00     0.039 A 
ATOM     32  C   UNL A   1      45.180  21.400  26.272  1.00  0.00     0.014 A 
ATOM     33  C   UNL A   1      44.818  22.062  23.981  1.00  0.00     0.014 A 
ATOM     34  C   UNL A   1      44.979  22.721  26.692  1.00  0.00     0.010 A 
ATOM     35  C   UNL A   1      44.660  23.387  24.390  1.00  0.00     0.010 A 
ATOM     36  C   UNL A   1      44.806  23.736  25.738  1.00  0.00    -0.014 A 
BRANCH  36  37
ATOM     37  C   UNL A   1      45.054  25.162  26.072  1.00  0.00     0.031 A 
ATOM     38  C   UNL A   1      46.430  25.752  26.089  1.00  0.00     0.074 A 
ATOM     39  C   UNL A   1      43.999  25.862  26.541  1.00  0.00     0.049 A 
ATOM     40  N   UNL A   1      46.807  26.945  26.478  1.00  0.00    -0.248 NA
ATOM     41  C   UNL A   1      47.528  24.893  25.625  1.00  0.00     0.031 C 
ATOM     42  C   UNL A   1      42.630  25.347  26.637  1.00  0.00     0.029 A 
ATOM     43  N   UNL A   1      43.910  27.127  27.063  1.00  0.00    -0.354 N 
ATOM     44  C   UNL A   1      48.184  26.986  26.302  1.00  0.00     0.074 A 
ATOM     45  C   UNL A   1      48.580  25.684  25.802  1.00  0.00     0.031 C 
ATOM     46  C   UNL A   1      41.843  26.276  27.193  1.00  0.00     0.029 A 
ATOM     47  C   UNL A   1      42.654  27.438  27.529  1.00  0.00     0.049 A 
ATOM     48  H   UNL A   1      44.670  27.752  27.100  1.00  0.00     0.167 HD
ATOM     49  C   UNL A   1      49.029  28.020  26.539  1.00  0.00     0.037 A 
ATOM     50  C   UNL A   1      42.204  28.527  28.178  1.00  0.00     0.037 A 
ATOM     51  C   UNL A   1      48.612  29.294  27.079  1.00  0.00     0.049 A 
ATOM     52  C   UNL A   1      43.164  29.649  28.444  1.00  0.00     0.074 A 
ATOM     53  C   UNL A   1      49.374  30.426  27.314  1.00  0.00     0.029 A 
ATOM     54  N   UNL A   1      47.320  29.593  27.493  1.00  0.00    -0.354 N 
ATOM     55  N   UNL A   1      44.446  29.713  28.180  1.00  0.00    -0.248 NA
ATOM     56  C   UNL A   1      42.617  30.851  29.081  1.00  0.00     0.031 C 
ATOM     57  C   UNL A   1      48.558  31.387  27.920  1.00  0.00     0.029 A 
ATOM     58  C   UNL A   1      47.270  30.881  28.004  1.00  0.00     0.049 A 
ATOM     59  H   UNL A   1      46.552  28.981  27.430  1.00  0.00     0.167 HD
ATOM     60  C   UNL A   1      44.854  30.975  28.582  1.00  0.00     0.074 A 
ATOM     61  C   UNL A   1      43.680  31.644  29.107  1.00  0.00     0.031 C 
ATOM     62  C   UNL A   1      46.088  31.531  28.513  1.00  0.00     0.037 A 
BRANCH  49  63
ATOM     63  C   UNL A   1      50.488  27.825  26.228  1.00  0.00     0.064 A 
ATOM     64  C   UNL A   1      51.410  27.464  27.223  1.00  0.00     0.173 A 
ATOM     65  C   UNL A   1      50.963  27.935  24.911  1.00  0.00     0.173 A 
ATOM     66  F   UNL A   1      51.012  27.341  28.498  1.00  0.00    -0.203 F 
ATOM     67  C   UNL A   1      52.752  27.249  26.918  1.00  0.00     0.198 A 
ATOM     68  C   UNL A   1      52.301  27.690  24.604  1.00  0.00     0.198 A 
ATOM     69  F   UNL A   1      50.127  28.260  23.913  1.00  0.00    -0.203 F 
ATOM     70  F   UNL A   1      53.618  26.942  27.894  1.00  0.00    -0.200 F 
ATOM     71  C   UNL A   1      53.195  27.354  25.609  1.00  0.00     0.200 A 
ATOM     72  F   UNL A   1      52.723  27.774  23.334  1.00  0.00    -0.200 F 
ATOM     73  F   UNL A   1      54.485  27.135  25.315  1.00  0.00    -0.200 F 
ENDBRANCH  49  63
BRANCH  50  74
ATOM     74  C   UNL A   1      40.775  28.607  28.575  1.00  0.00     0.064 A 
ATOM     75  C   UNL A   1      40.370  28.259  29.870  1.00  0.00     0.173 A 
ATOM     76  C   UNL A   1      39.794  29.080  27.689  1.00  0.00     0.173 A 
ATOM     77  F   UNL A   1      41.269  27.794  30.750  1.00  0.00    -0.203 F 
ATOM     78  C   UNL A   1      39.037  28.367  30.261  1.00  0.00     0.198 A 
ATOM     79  C   UNL A   1      38.467  29.216  28.091  1.00  0.00     0.198 A 
ATOM     80  F   UNL A   1      40.132  29.444  26.444  1.00  0.00    -0.203 F 
ATOM     81  F   UNL A   1      38.673  27.999  31.497  1.00  0.00    -0.200 F 
ATOM     82  C   UNL A   1      38.088  28.854  29.374  1.00  0.00     0.200 A 
ATOM     83  F   UNL A   1      37.558  29.709  27.238  1.00  0.00    -0.200 F 
ATOM     84  F   UNL A   1      36.810  28.975  29.757  1.00  0.00    -0.200 F 
ENDBRANCH  50  74
BRANCH  62  85
ATOM     85  C   UNL A   1      46.221  32.952  28.974  1.00  0.00     0.064 A 
ATOM     86  C   UNL A   1      46.035  34.033  28.101  1.00  0.00     0.173 A 
ATOM     87  C   UNL A   1      46.498  33.231  30.321  1.00  0.00     0.173 A 
ATOM     88  F   UNL A   1      45.791  33.818  26.800  1.00  0.00    -0.203 F 
ATOM     89  C   UNL A   1      46.139  35.344  28.559  1.00  0.00     0.198 A 
ATOM     90  C   UNL A   1      46.571  34.542  30.780  1.00  0.00     0.198 A 
ATOM     91  F   UNL A   1      46.683  32.230  31.195  1.00  0.00    -0.203 F 
ATOM     92  F   UNL A   1      46.002  36.365  27.700  1.00  0.00    -0.200 F 
ATOM     93  C   UNL A   1      46.397  35.598  29.899  1.00  0.00     0.200 A 
ATOM     94  F   UNL A   1      46.808  34.784  32.077  1.00  0.00    -0.200 F 
ATOM     95  F   UNL A   1      46.485  36.861  30.338  1.00  0.00    -0.200 F 
ENDBRANCH  62  85
ENDBRANCH  36  37
ENDBRANCH  28  31
ENDBRANCH  26  27
ENDBRANCH  25  26
ENDBRANCH   1  25
TORSDOF 13
ENDMDL
