MODEL 1
REMARK VINA RESULT:     -11.9      0.000      0.000
REMARK SMILES C[C@H]1C[NH+](CC[C@@H]2CCC[C@]2([NH3+])C(=O)NCCCNC(=O)c2ccc(-c3c4nc(c(-c5c(F)c(F)c(F)c(F)c5F)c5ccc([nH]5)c(-c5c(F)c(F)c(F)c(F)c5F)c5nc(c(-c6c(F)c(F)c(F)c(F)c6F)c6ccc3[nH]6)C=C5)C=C4)cc2)C[C@H](C)O1
REMARK SMILES IDX 16 1 15 2 13 3 14 4 11 6 7 7 8 8 9 9 10 10 6 11 5 12 4 13
REMARK SMILES IDX 1 14 2 15 3 16 88 17 86 18 85 19 87 21 12 22 17 26 18 27
REMARK SMILES IDX 19 28 20 29 21 31 22 32 23 33 84 34 24 35 83 36 25 37 26 38
REMARK SMILES IDX 27 39 77 40 28 41 82 42 76 43 78 44 29 45 81 46 75 47 74 48
REMARK SMILES IDX 30 50 62 51 42 52 61 53 43 54 46 55 60 56 79 57 44 58 45 59
REMARK SMILES IDX 59 61 80 62 47 63 31 64 32 65 40 66 33 67 34 68 38 69 41 70
REMARK SMILES IDX 35 71 36 72 39 73 37 74 63 75 64 76 72 77 65 78 66 79 70 80
REMARK SMILES IDX 73 81 67 82 68 83 71 84 69 85 48 86 49 87 57 88 50 89 51 90
REMARK SMILES IDX 55 91 58 92 52 93 53 94 56 95 54 96
REMARK H PARENT 15 5 4 20 12 23 12 24 12 25 19 30 78 49 46 60
REMARK Flexibility Score: inf
ROOT
ATOM      1  C   UNL A   1      31.000  31.226  26.269  1.00  0.00     0.118 C 
ENDROOT
BRANCH   1   2
ATOM      2  N   UNL A   1      31.449  30.517  25.073  1.00  0.00    -0.351 N 
ATOM      3  C   UNL A   1      32.299  29.462  24.876  1.00  0.00     0.281 C 
ATOM      4  O   UNL A   1      32.390  29.068  23.708  1.00  0.00    -0.268 OA
ATOM      5  H   UNL A   1      31.061  30.870  24.240  1.00  0.00     0.163 HD
BRANCH   3   6
ATOM      6  C   UNL A   1      33.177  28.821  26.019  1.00  0.00     0.177 C 
ATOM      7  C   UNL A   1      33.218  27.264  25.965  1.00  0.00     0.066 C 
ATOM      8  C   UNL A   1      31.926  26.840  26.667  1.00  0.00     0.011 C 
ATOM      9  C   UNL A   1      31.548  27.953  27.637  1.00  0.00     0.008 C 
ATOM     10  C   UNL A   1      32.532  29.088  27.397  1.00  0.00     0.079 C 
BRANCH   7  11
ATOM     11  C   UNL A   1      33.483  26.699  24.558  1.00  0.00     0.072 C 
BRANCH  11  12
ATOM     12  C   UNL A   1      32.995  25.308  24.116  1.00  0.00     0.262 C 
BRANCH  12  13
ATOM     13  N   UNL A   1      33.775  24.115  24.476  1.00  0.00    -0.331 N 
ATOM     14  C   UNL A   1      34.059  21.809  27.528  1.00  0.00     0.045 C 
ATOM     15  C   UNL A   1      34.408  22.364  26.150  1.00  0.00     0.170 C 
ATOM     16  C   UNL A   1      33.433  23.479  25.749  1.00  0.00     0.294 C 
ATOM     17  O   UNL A   1      35.733  22.899  26.238  1.00  0.00    -0.364 OA
ATOM     18  C   UNL A   1      36.215  23.392  24.984  1.00  0.00     0.170 C 
ATOM     19  C   UNL A   1      35.203  24.256  24.190  1.00  0.00     0.294 C 
ATOM     20  H   UNL A   1      33.454  23.400  23.824  1.00  0.00     0.348 HD
ATOM     21  C   UNL A   1      36.781  22.241  24.163  1.00  0.00     0.045 C 
ENDBRANCH  12  13
ENDBRANCH  11  12
ENDBRANCH   7  11
BRANCH   6  22
ATOM     22  N   UNL A   1      34.519  29.438  26.036  1.00  0.00    -0.345 N 
ATOM     23  H   UNL A   1      35.003  29.222  25.165  1.00  0.00     0.345 HD
ATOM     24  H   UNL A   1      35.053  29.068  26.822  1.00  0.00     0.345 HD
ATOM     25  H   UNL A   1      34.427  30.449  26.133  1.00  0.00     0.345 HD
ENDBRANCH   6  22
ENDBRANCH   3   6
ENDBRANCH   1   2
BRANCH   1  26
ATOM     26  C   UNL A   1      31.383  32.710  26.308  1.00  0.00     0.042 C 
BRANCH  26  27
ATOM     27  C   UNL A   1      32.500  33.066  27.277  1.00  0.00     0.118 C 
BRANCH  27  28
ATOM     28  N   UNL A   1      32.413  34.447  27.719  1.00  0.00    -0.352 N 
ATOM     29  C   UNL A   1      33.021  35.080  28.776  1.00  0.00     0.251 C 
ATOM     30  H   UNL A   1      31.825  35.019  27.175  1.00  0.00     0.163 HD
ATOM     31  O   UNL A   1      32.607  36.182  29.130  1.00  0.00    -0.269 OA
BRANCH  29  32
ATOM     32  C   UNL A   1      34.158  34.465  29.504  1.00  0.00     0.039 A 
ATOM     33  C   UNL A   1      35.443  34.582  28.958  1.00  0.00     0.014 A 
ATOM     34  C   UNL A   1      33.974  33.702  30.661  1.00  0.00     0.014 A 
ATOM     35  C   UNL A   1      36.534  33.971  29.585  1.00  0.00     0.010 A 
ATOM     36  C   UNL A   1      35.073  33.156  31.328  1.00  0.00     0.010 A 
ATOM     37  C   UNL A   1      36.364  33.268  30.788  1.00  0.00    -0.014 A 
BRANCH  37  38
ATOM     38  C   UNL A   1      37.512  32.613  31.469  1.00  0.00     0.031 A 
ATOM     39  C   UNL A   1      38.228  31.460  30.816  1.00  0.00     0.074 A 
ATOM     40  C   UNL A   1      37.889  33.020  32.697  1.00  0.00     0.049 A 
ATOM     41  N   UNL A   1      39.204  30.718  31.278  1.00  0.00    -0.248 NA
ATOM     42  C   UNL A   1      37.769  31.075  29.472  1.00  0.00     0.031 C 
ATOM     43  C   UNL A   1      37.260  34.098  33.460  1.00  0.00     0.029 A 
ATOM     44  N   UNL A   1      38.886  32.565  33.526  1.00  0.00    -0.354 N 
ATOM     45  C   UNL A   1      39.458  29.770  30.295  1.00  0.00     0.074 A 
ATOM     46  C   UNL A   1      38.506  30.001  29.230  1.00  0.00     0.031 C 
ATOM     47  C   UNL A   1      37.896  34.235  34.634  1.00  0.00     0.029 A 
ATOM     48  C   UNL A   1      38.954  33.232  34.724  1.00  0.00     0.049 A 
ATOM     49  H   UNL A   1      39.495  31.830  33.283  1.00  0.00     0.167 HD
ATOM     50  C   UNL A   1      40.411  28.807  30.271  1.00  0.00     0.037 A 
ATOM     51  C   UNL A   1      39.772  33.054  35.778  1.00  0.00     0.037 A 
ATOM     52  C   UNL A   1      41.384  28.598  31.311  1.00  0.00     0.049 A 
ATOM     53  C   UNL A   1      40.828  31.982  35.724  1.00  0.00     0.074 A 
ATOM     54  C   UNL A   1      42.429  27.691  31.347  1.00  0.00     0.029 A 
ATOM     55  N   UNL A   1      41.433  29.310  32.500  1.00  0.00    -0.354 N 
ATOM     56  N   UNL A   1      41.094  31.131  34.764  1.00  0.00    -0.248 NA
ATOM     57  C   UNL A   1      41.700  31.852  36.901  1.00  0.00     0.031 C 
ATOM     58  C   UNL A   1      43.088  27.828  32.574  1.00  0.00     0.029 A 
ATOM     59  C   UNL A   1      42.479  28.850  33.284  1.00  0.00     0.049 A 
ATOM     60  H   UNL A   1      40.815  30.035  32.750  1.00  0.00     0.167 HD
ATOM     61  C   UNL A   1      42.177  30.384  35.207  1.00  0.00     0.074 A 
ATOM     62  C   UNL A   1      42.528  30.889  36.518  1.00  0.00     0.031 C 
ATOM     63  C   UNL A   1      42.823  29.368  34.583  1.00  0.00     0.037 A 
BRANCH  50  64
ATOM     64  C   UNL A   1      40.454  27.902  29.074  1.00  0.00     0.064 A 
ATOM     65  C   UNL A   1      41.273  28.182  27.971  1.00  0.00     0.173 A 
ATOM     66  C   UNL A   1      39.697  26.721  29.048  1.00  0.00     0.173 A 
ATOM     67  F   UNL A   1      42.008  29.303  27.942  1.00  0.00    -0.203 F 
ATOM     68  C   UNL A   1      41.311  27.327  26.871  1.00  0.00     0.198 A 
ATOM     69  C   UNL A   1      39.759  25.854  27.959  1.00  0.00     0.198 A 
ATOM     70  F   UNL A   1      38.904  26.402  30.081  1.00  0.00    -0.203 F 
ATOM     71  F   UNL A   1      42.065  27.638  25.808  1.00  0.00    -0.200 F 
ATOM     72  C   UNL A   1      40.559  26.162  26.869  1.00  0.00     0.200 A 
ATOM     73  F   UNL A   1      39.043  24.721  27.964  1.00  0.00    -0.200 F 
ATOM     74  F   UNL A   1      40.603  25.337  25.814  1.00  0.00    -0.200 F 
ENDBRANCH  50  64
BRANCH  51  75
ATOM     75  C   UNL A   1      39.643  33.930  36.971  1.00  0.00     0.064 A 
ATOM     76  C   UNL A   1      40.294  35.170  37.025  1.00  0.00     0.173 A 
ATOM     77  C   UNL A   1      38.872  33.547  38.077  1.00  0.00     0.173 A 
ATOM     78  F   UNL A   1      41.062  35.567  36.000  1.00  0.00    -0.203 F 
ATOM     79  C   UNL A   1      40.192  35.988  38.147  1.00  0.00     0.198 A 
ATOM     80  C   UNL A   1      38.748  34.378  39.189  1.00  0.00     0.198 A 
ATOM     81  F   UNL A   1      38.228  32.372  38.073  1.00  0.00    -0.203 F 
ATOM     82  F   UNL A   1      40.856  37.150  38.190  1.00  0.00    -0.200 F 
ATOM     83  C   UNL A   1      39.414  35.595  39.226  1.00  0.00     0.200 A 
ATOM     84  F   UNL A   1      37.987  33.999  40.224  1.00  0.00    -0.200 F 
ATOM     85  F   UNL A   1      39.311  36.384  40.304  1.00  0.00    -0.200 F 
ENDBRANCH  51  75
BRANCH  63  86
ATOM     86  C   UNL A   1      43.995  28.757  35.292  1.00  0.00     0.064 A 
ATOM     87  C   UNL A   1      45.300  29.231  35.097  1.00  0.00     0.173 A 
ATOM     88  C   UNL A   1      43.804  27.713  36.209  1.00  0.00     0.173 A 
ATOM     89  F   UNL A   1      45.536  30.218  34.219  1.00  0.00    -0.203 F 
ATOM     90  C   UNL A   1      46.375  28.665  35.778  1.00  0.00     0.198 A 
ATOM     91  C   UNL A   1      44.878  27.167  36.907  1.00  0.00     0.198 A 
ATOM     92  F   UNL A   1      42.573  27.228  36.435  1.00  0.00    -0.203 F 
ATOM     93  F   UNL A   1      47.619  29.105  35.544  1.00  0.00    -0.200 F 
ATOM     94  C   UNL A   1      46.162  27.640  36.687  1.00  0.00     0.200 A 
ATOM     95  F   UNL A   1      44.669  26.183  37.793  1.00  0.00    -0.200 F 
ATOM     96  F   UNL A   1      47.198  27.102  37.345  1.00  0.00    -0.200 F 
ENDBRANCH  63  86
ENDBRANCH  37  38
ENDBRANCH  29  32
ENDBRANCH  27  28
ENDBRANCH  26  27
ENDBRANCH   1  26
TORSDOF 14
ENDMDL
MODEL 2
REMARK VINA RESULT:     -11.9      0.508      1.681
REMARK SMILES C[C@H]1C[NH+](CC[C@@H]2CCC[C@]2([NH3+])C(=O)NCCCNC(=O)c2ccc(-c3c4nc(c(-c5c(F)c(F)c(F)c(F)c5F)c5ccc([nH]5)c(-c5c(F)c(F)c(F)c(F)c5F)c5nc(c(-c6c(F)c(F)c(F)c(F)c6F)c6ccc3[nH]6)C=C5)C=C4)cc2)C[C@H](C)O1
REMARK SMILES IDX 16 1 15 2 13 3 14 4 11 6 7 7 8 8 9 9 10 10 6 11 5 12 4 13
REMARK SMILES IDX 1 14 2 15 3 16 88 17 86 18 85 19 87 21 12 22 17 26 18 27
REMARK SMILES IDX 19 28 20 29 21 31 22 32 23 33 84 34 24 35 83 36 25 37 26 38
REMARK SMILES IDX 27 39 77 40 28 41 82 42 76 43 78 44 29 45 81 46 75 47 74 48
REMARK SMILES IDX 30 50 62 51 42 52 61 53 43 54 46 55 60 56 79 57 44 58 45 59
REMARK SMILES IDX 59 61 80 62 47 63 31 64 32 65 40 66 33 67 34 68 38 69 41 70
REMARK SMILES IDX 35 71 36 72 39 73 37 74 63 75 64 76 72 77 65 78 66 79 70 80
REMARK SMILES IDX 73 81 67 82 68 83 71 84 69 85 48 86 49 87 57 88 50 89 51 90
REMARK SMILES IDX 55 91 58 92 52 93 53 94 56 95 54 96
REMARK H PARENT 15 5 4 20 12 23 12 24 12 25 19 30 78 49 46 60
REMARK Flexibility Score: inf
ROOT
ATOM      1  C   UNL A   1      31.053  31.116  26.247  1.00  0.00     0.118 C 
ENDROOT
BRANCH   1   2
ATOM      2  N   UNL A   1      31.524  30.445  25.038  1.00  0.00    -0.351 N 
ATOM      3  C   UNL A   1      32.350  29.374  24.824  1.00  0.00     0.281 C 
ATOM      4  O   UNL A   1      32.471  29.027  23.644  1.00  0.00    -0.268 OA
ATOM      5  H   UNL A   1      31.175  30.844  24.208  1.00  0.00     0.163 HD
BRANCH   3   6
ATOM      6  C   UNL A   1      33.169  28.660  25.967  1.00  0.00     0.177 C 
ATOM      7  C   UNL A   1      33.341  27.128  25.737  1.00  0.00     0.066 C 
ATOM      8  C   UNL A   1      32.029  26.532  26.252  1.00  0.00     0.011 C 
ATOM      9  C   UNL A   1      31.475  27.487  27.302  1.00  0.00     0.008 C 
ATOM     10  C   UNL A   1      32.381  28.709  27.295  1.00  0.00     0.079 C 
BRANCH   7  11
ATOM     11  C   UNL A   1      33.779  26.761  24.308  1.00  0.00     0.072 C 
BRANCH  11  12
ATOM     12  C   UNL A   1      33.522  25.374  23.691  1.00  0.00     0.262 C 
BRANCH  12  13
ATOM     13  N   UNL A   1      34.400  24.248  24.043  1.00  0.00    -0.331 N 
ATOM     14  C   UNL A   1      33.942  20.525  24.847  1.00  0.00     0.045 C 
ATOM     15  C   UNL A   1      34.691  21.846  24.685  1.00  0.00     0.170 C 
ATOM     16  C   UNL A   1      33.761  22.933  24.129  1.00  0.00     0.294 C 
ATOM     17  O   UNL A   1      35.147  22.229  25.986  1.00  0.00    -0.364 OA
ATOM     18  C   UNL A   1      35.933  23.424  25.968  1.00  0.00     0.170 C 
ATOM     19  C   UNL A   1      35.352  24.573  25.105  1.00  0.00     0.294 C 
ATOM     20  H   UNL A   1      34.978  24.114  23.214  1.00  0.00     0.348 HD
ATOM     21  C   UNL A   1      37.375  23.087  25.608  1.00  0.00     0.045 C 
ENDBRANCH  12  13
ENDBRANCH  11  12
ENDBRANCH   7  11
BRANCH   6  22
ATOM     22  N   UNL A   1      34.449  29.362  26.191  1.00  0.00    -0.345 N 
ATOM     23  H   UNL A   1      34.533  29.611  27.176  1.00  0.00     0.345 HD
ATOM     24  H   UNL A   1      34.477  30.208  25.622  1.00  0.00     0.345 HD
ATOM     25  H   UNL A   1      35.222  28.750  25.928  1.00  0.00     0.345 HD
ENDBRANCH   6  22
ENDBRANCH   3   6
ENDBRANCH   1   2
BRANCH   1  26
ATOM     26  C   UNL A   1      31.388  32.610  26.314  1.00  0.00     0.042 C 
BRANCH  26  27
ATOM     27  C   UNL A   1      32.510  32.981  27.272  1.00  0.00     0.118 C 
BRANCH  27  28
ATOM     28  N   UNL A   1      32.427  34.368  27.693  1.00  0.00    -0.352 N 
ATOM     29  C   UNL A   1      33.036  35.016  28.740  1.00  0.00     0.251 C 
ATOM     30  H   UNL A   1      31.840  34.934  27.140  1.00  0.00     0.163 HD
ATOM     31  O   UNL A   1      32.625  36.125  29.077  1.00  0.00    -0.269 OA
BRANCH  29  32
ATOM     32  C   UNL A   1      34.172  34.411  29.477  1.00  0.00     0.039 A 
ATOM     33  C   UNL A   1      35.460  34.538  28.943  1.00  0.00     0.014 A 
ATOM     34  C   UNL A   1      33.984  33.646  30.632  1.00  0.00     0.014 A 
ATOM     35  C   UNL A   1      36.551  33.935  29.579  1.00  0.00     0.010 A 
ATOM     36  C   UNL A   1      35.082  33.108  31.309  1.00  0.00     0.010 A 
ATOM     37  C   UNL A   1      36.376  33.231  30.779  1.00  0.00    -0.014 A 
BRANCH  37  38
ATOM     38  C   UNL A   1      37.524  32.584  31.470  1.00  0.00     0.031 A 
ATOM     39  C   UNL A   1      38.238  31.420  30.834  1.00  0.00     0.074 A 
ATOM     40  C   UNL A   1      37.902  33.010  32.691  1.00  0.00     0.049 A 
ATOM     41  N   UNL A   1      39.213  30.685  31.308  1.00  0.00    -0.248 NA
ATOM     42  C   UNL A   1      37.778  31.015  29.497  1.00  0.00     0.031 C 
ATOM     43  C   UNL A   1      37.275  34.101  33.437  1.00  0.00     0.029 A 
ATOM     44  N   UNL A   1      38.899  32.567  33.526  1.00  0.00    -0.354 N 
ATOM     45  C   UNL A   1      39.464  29.720  30.339  1.00  0.00     0.074 A 
ATOM     46  C   UNL A   1      38.513  29.936  29.271  1.00  0.00     0.031 C 
ATOM     47  C   UNL A   1      37.912  34.255  34.609  1.00  0.00     0.029 A 
ATOM     48  C   UNL A   1      38.969  33.253  34.714  1.00  0.00     0.049 A 
ATOM     49  H   UNL A   1      39.506  31.827  33.295  1.00  0.00     0.167 HD
ATOM     50  C   UNL A   1      40.416  28.756  30.330  1.00  0.00     0.037 A 
ATOM     51  C   UNL A   1      39.787  33.089  35.771  1.00  0.00     0.037 A 
ATOM     52  C   UNL A   1      41.390  28.562  31.373  1.00  0.00     0.049 A 
ATOM     53  C   UNL A   1      40.842  32.015  35.732  1.00  0.00     0.074 A 
ATOM     54  C   UNL A   1      42.433  27.654  31.422  1.00  0.00     0.029 A 
ATOM     55  N   UNL A   1      41.440  29.292  32.550  1.00  0.00    -0.354 N 
ATOM     56  N   UNL A   1      41.106  31.149  34.786  1.00  0.00    -0.248 NA
ATOM     57  C   UNL A   1      41.714  31.902  36.910  1.00  0.00     0.031 C 
ATOM     58  C   UNL A   1      43.093  27.809  32.646  1.00  0.00     0.029 A 
ATOM     59  C   UNL A   1      42.486  28.843  33.340  1.00  0.00     0.049 A 
ATOM     60  H   UNL A   1      40.824  30.022  32.789  1.00  0.00     0.167 HD
ATOM     61  C   UNL A   1      42.188  30.407  35.240  1.00  0.00     0.074 A 
ATOM     62  C   UNL A   1      42.540  30.932  36.542  1.00  0.00     0.031 C 
ATOM     63  C   UNL A   1      42.831  29.381  34.631  1.00  0.00     0.037 A 
BRANCH  50  64
ATOM     64  C   UNL A   1      40.457  27.833  29.147  1.00  0.00     0.064 A 
ATOM     65  C   UNL A   1      41.302  28.075  28.054  1.00  0.00     0.173 A 
ATOM     66  C   UNL A   1      39.672  26.670  29.125  1.00  0.00     0.173 A 
ATOM     67  F   UNL A   1      42.065  29.178  28.022  1.00  0.00    -0.203 F 
ATOM     68  C   UNL A   1      41.337  27.204  26.969  1.00  0.00     0.198 A 
ATOM     69  C   UNL A   1      39.730  25.786  28.050  1.00  0.00     0.198 A 
ATOM     70  F   UNL A   1      38.853  26.387  30.148  1.00  0.00    -0.203 F 
ATOM     71  F   UNL A   1      42.117  27.480  25.914  1.00  0.00    -0.200 F 
ATOM     72  C   UNL A   1      40.557  26.057  26.970  1.00  0.00     0.200 A 
ATOM     73  F   UNL A   1      38.986  24.671  28.059  1.00  0.00    -0.200 F 
ATOM     74  F   UNL A   1      40.597  25.216  25.928  1.00  0.00    -0.200 F 
ENDBRANCH  50  64
BRANCH  51  75
ATOM     75  C   UNL A   1      39.660  33.984  36.949  1.00  0.00     0.064 A 
ATOM     76  C   UNL A   1      38.881  33.612  38.053  1.00  0.00     0.173 A 
ATOM     77  C   UNL A   1      40.311  35.225  36.996  1.00  0.00     0.173 A 
ATOM     78  F   UNL A   1      38.221  32.445  38.042  1.00  0.00    -0.203 F 
ATOM     79  C   UNL A   1      38.743  34.455  39.153  1.00  0.00     0.198 A 
ATOM     80  C   UNL A   1      40.194  36.056  38.109  1.00  0.00     0.198 A 
ATOM     81  F   UNL A   1      41.070  35.626  35.967  1.00  0.00    -0.203 F 
ATOM     82  F   UNL A   1      37.960  34.092  40.178  1.00  0.00    -0.200 F 
ATOM     83  C   UNL A   1      39.405  35.673  39.184  1.00  0.00     0.200 A 
ATOM     84  F   UNL A   1      40.844  37.227  38.139  1.00  0.00    -0.200 F 
ATOM     85  F   UNL A   1      39.276  36.481  40.245  1.00  0.00    -0.200 F 
ENDBRANCH  51  75
BRANCH  63  86
ATOM     86  C   UNL A   1      44.003  28.779  35.349  1.00  0.00     0.064 A 
ATOM     87  C   UNL A   1      43.846  27.712  36.245  1.00  0.00     0.173 A 
ATOM     88  C   UNL A   1      45.302  29.250  35.107  1.00  0.00     0.173 A 
ATOM     89  F   UNL A   1      42.622  27.238  36.522  1.00  0.00    -0.203 F 
ATOM     90  C   UNL A   1      44.947  27.153  36.890  1.00  0.00     0.198 A 
ATOM     91  C   UNL A   1      46.403  28.671  35.733  1.00  0.00     0.198 A 
ATOM     92  F   UNL A   1      45.505  30.266  34.254  1.00  0.00    -0.203 F 
ATOM     93  F   UNL A   1      44.769  26.161  37.775  1.00  0.00    -0.200 F 
ATOM     94  C   UNL A   1      46.223  27.627  36.627  1.00  0.00     0.200 A 
ATOM     95  F   UNL A   1      47.636  29.124  35.471  1.00  0.00    -0.200 F 
ATOM     96  F   UNL A   1      47.281  27.082  37.244  1.00  0.00    -0.200 F 
ENDBRANCH  63  86
ENDBRANCH  37  38
ENDBRANCH  29  32
ENDBRANCH  27  28
ENDBRANCH  26  27
ENDBRANCH   1  26
TORSDOF 14
ENDMDL
MODEL 3
REMARK VINA RESULT:     -11.8      5.492     11.304
REMARK SMILES C[C@H]1C[NH+](CC[C@@H]2CCC[C@]2([NH3+])C(=O)NCCCNC(=O)c2ccc(-c3c4nc(c(-c5c(F)c(F)c(F)c(F)c5F)c5ccc([nH]5)c(-c5c(F)c(F)c(F)c(F)c5F)c5nc(c(-c6c(F)c(F)c(F)c(F)c6F)c6ccc3[nH]6)C=C5)C=C4)cc2)C[C@H](C)O1
REMARK SMILES IDX 16 1 15 2 13 3 14 4 11 6 7 7 8 8 9 9 10 10 6 11 5 12 4 13
REMARK SMILES IDX 1 14 2 15 3 16 88 17 86 18 85 19 87 21 12 22 17 26 18 27
REMARK SMILES IDX 19 28 20 29 21 31 22 32 23 33 84 34 24 35 83 36 25 37 26 38
REMARK SMILES IDX 27 39 77 40 28 41 82 42 76 43 78 44 29 45 81 46 75 47 74 48
REMARK SMILES IDX 30 50 62 51 42 52 61 53 43 54 46 55 60 56 79 57 44 58 45 59
REMARK SMILES IDX 59 61 80 62 47 63 31 64 32 65 40 66 33 67 34 68 38 69 41 70
REMARK SMILES IDX 35 71 36 72 39 73 37 74 63 75 64 76 72 77 65 78 66 79 70 80
REMARK SMILES IDX 73 81 67 82 68 83 71 84 69 85 48 86 49 87 57 88 50 89 51 90
REMARK SMILES IDX 55 91 58 92 52 93 53 94 56 95 54 96
REMARK H PARENT 15 5 4 20 12 23 12 24 12 25 19 30 78 49 46 60
REMARK Flexibility Score: inf
ROOT
ATOM      1  C   UNL A   1      37.124  19.851  24.602  1.00  0.00     0.118 C 
ENDROOT
BRANCH   1   2
ATOM      2  N   UNL A   1      35.974  20.260  25.405  1.00  0.00    -0.351 N 
ATOM      3  C   UNL A   1      35.474  21.482  25.768  1.00  0.00     0.281 C 
ATOM      4  O   UNL A   1      34.416  21.451  26.407  1.00  0.00    -0.268 OA
ATOM      5  H   UNL A   1      35.451  19.502  25.755  1.00  0.00     0.163 HD
BRANCH   3   6
ATOM      6  C   UNL A   1      36.209  22.847  25.481  1.00  0.00     0.177 C 
ATOM      7  C   UNL A   1      35.241  23.987  25.041  1.00  0.00     0.066 C 
ATOM      8  C   UNL A   1      35.040  23.738  23.545  1.00  0.00     0.011 C 
ATOM      9  C   UNL A   1      36.277  23.011  23.033  1.00  0.00     0.008 C 
ATOM     10  C   UNL A   1      37.133  22.705  24.252  1.00  0.00     0.079 C 
BRANCH   7  11
ATOM     11  C   UNL A   1      33.984  24.107  25.920  1.00  0.00     0.072 C 
BRANCH  11  12
ATOM     12  C   UNL A   1      32.676  24.745  25.417  1.00  0.00     0.262 C 
BRANCH  12  13
ATOM     13  N   UNL A   1      32.569  26.208  25.327  1.00  0.00    -0.331 N 
ATOM     14  C   UNL A   1      33.766  28.928  22.900  1.00  0.00     0.045 C 
ATOM     15  C   UNL A   1      33.121  28.353  24.159  1.00  0.00     0.170 C 
ATOM     16  C   UNL A   1      33.090  26.820  24.102  1.00  0.00     0.294 C 
ATOM     17  O   UNL A   1      33.924  28.772  25.267  1.00  0.00    -0.364 OA
ATOM     18  C   UNL A   1      33.388  28.358  26.528  1.00  0.00     0.170 C 
ATOM     19  C   UNL A   1      32.905  26.887  26.578  1.00  0.00     0.294 C 
ATOM     20  H   UNL A   1      31.572  26.379  25.203  1.00  0.00     0.348 HD
ATOM     21  C   UNL A   1      32.321  29.346  26.982  1.00  0.00     0.045 C 
ENDBRANCH  12  13
ENDBRANCH  11  12
ENDBRANCH   7  11
BRANCH   6  22
ATOM     22  N   UNL A   1      37.061  23.218  26.630  1.00  0.00    -0.345 N 
ATOM     23  H   UNL A   1      37.902  23.684  26.292  1.00  0.00     0.345 HD
ATOM     24  H   UNL A   1      37.321  22.377  27.145  1.00  0.00     0.345 HD
ATOM     25  H   UNL A   1      36.546  23.848  27.245  1.00  0.00     0.345 HD
ENDBRANCH   6  22
ENDBRANCH   3   6
ENDBRANCH   1   2
BRANCH   1  26
ATOM     26  C   UNL A   1      38.154  19.002  25.356  1.00  0.00     0.042 C 
BRANCH  26  27
ATOM     27  C   UNL A   1      39.407  19.743  25.797  1.00  0.00     0.118 C 
BRANCH  27  28
ATOM     28  N   UNL A   1      40.542  18.849  25.942  1.00  0.00    -0.352 N 
ATOM     29  C   UNL A   1      41.883  19.127  26.043  1.00  0.00     0.251 C 
ATOM     30  H   UNL A   1      40.313  17.891  25.971  1.00  0.00     0.163 HD
ATOM     31  O   UNL A   1      42.695  18.217  25.892  1.00  0.00    -0.269 OA
BRANCH  29  32
ATOM     32  C   UNL A   1      42.377  20.498  26.324  1.00  0.00     0.039 A 
ATOM     33  C   UNL A   1      42.383  20.947  27.650  1.00  0.00     0.014 A 
ATOM     34  C   UNL A   1      42.747  21.377  25.303  1.00  0.00     0.014 A 
ATOM     35  C   UNL A   1      42.789  22.252  27.952  1.00  0.00     0.010 A 
ATOM     36  C   UNL A   1      43.225  22.654  25.610  1.00  0.00     0.010 A 
ATOM     37  C   UNL A   1      43.233  23.112  26.937  1.00  0.00    -0.014 A 
BRANCH  37  38
ATOM     38  C   UNL A   1      43.670  24.502  27.238  1.00  0.00     0.031 A 
ATOM     39  C   UNL A   1      42.678  25.521  27.735  1.00  0.00     0.074 A 
ATOM     40  C   UNL A   1      44.950  24.868  27.024  1.00  0.00     0.049 A 
ATOM     41  N   UNL A   1      42.852  26.795  27.988  1.00  0.00    -0.248 NA
ATOM     42  C   UNL A   1      41.302  25.049  27.954  1.00  0.00     0.031 C 
ATOM     43  C   UNL A   1      46.004  23.993  26.511  1.00  0.00     0.029 A 
ATOM     44  N   UNL A   1      45.578  26.077  27.201  1.00  0.00    -0.354 N 
ATOM     45  C   UNL A   1      41.607  27.277  28.372  1.00  0.00     0.074 A 
ATOM     46  C   UNL A   1      40.678  26.172  28.278  1.00  0.00     0.031 C 
ATOM     47  C   UNL A   1      47.150  24.687  26.431  1.00  0.00     0.029 A 
ATOM     48  C   UNL A   1      46.906  26.064  26.854  1.00  0.00     0.049 A 
ATOM     49  H   UNL A   1      45.118  26.878  27.543  1.00  0.00     0.167 HD
ATOM     50  C   UNL A   1      41.272  28.523  28.787  1.00  0.00     0.037 A 
ATOM     51  C   UNL A   1      47.823  27.049  26.869  1.00  0.00     0.037 A 
ATOM     52  C   UNL A   1      42.200  29.616  28.919  1.00  0.00     0.049 A 
ATOM     53  C   UNL A   1      47.427  28.423  27.341  1.00  0.00     0.074 A 
ATOM     54  C   UNL A   1      41.967  30.895  29.393  1.00  0.00     0.029 A 
ATOM     55  N   UNL A   1      43.543  29.555  28.578  1.00  0.00    -0.354 N 
ATOM     56  N   UNL A   1      46.261  28.850  27.757  1.00  0.00    -0.248 NA
ATOM     57  C   UNL A   1      48.480  29.449  27.350  1.00  0.00     0.031 C 
ATOM     58  C   UNL A   1      43.159  31.621  29.303  1.00  0.00     0.029 A 
ATOM     59  C   UNL A   1      44.146  30.780  28.814  1.00  0.00     0.049 A 
ATOM     60  H   UNL A   1      43.999  28.759  28.221  1.00  0.00     0.167 HD
ATOM     61  C   UNL A   1      46.443  30.182  28.100  1.00  0.00     0.074 A 
ATOM     62  C   UNL A   1      47.836  30.492  27.857  1.00  0.00     0.031 C 
ATOM     63  C   UNL A   1      45.536  31.071  28.576  1.00  0.00     0.037 A 
BRANCH  50  64
ATOM     64  C   UNL A   1      39.833  28.775  29.136  1.00  0.00     0.064 A 
ATOM     65  C   UNL A   1      39.349  28.581  30.437  1.00  0.00     0.173 A 
ATOM     66  C   UNL A   1      38.939  29.254  28.167  1.00  0.00     0.173 A 
ATOM     67  F   UNL A   1      40.160  28.115  31.398  1.00  0.00    -0.203 F 
ATOM     68  C   UNL A   1      38.014  28.829  30.750  1.00  0.00     0.198 A 
ATOM     69  C   UNL A   1      37.612  29.528  28.489  1.00  0.00     0.198 A 
ATOM     70  F   UNL A   1      39.354  29.464  26.908  1.00  0.00    -0.203 F 
ATOM     71  F   UNL A   1      37.562  28.592  31.988  1.00  0.00    -0.200 F 
ATOM     72  C   UNL A   1      37.149  29.308  29.777  1.00  0.00     0.200 A 
ATOM     73  F   UNL A   1      36.781  30.004  27.551  1.00  0.00    -0.200 F 
ATOM     74  F   UNL A   1      35.867  29.553  30.081  1.00  0.00    -0.200 F 
ENDBRANCH  50  64
BRANCH  51  75
ATOM     75  C   UNL A   1      49.219  26.767  26.445  1.00  0.00     0.064 A 
ATOM     76  C   UNL A   1      50.165  26.288  27.361  1.00  0.00     0.173 A 
ATOM     77  C   UNL A   1      49.635  26.972  25.122  1.00  0.00     0.173 A 
ATOM     78  F   UNL A   1      49.818  26.100  28.643  1.00  0.00    -0.203 F 
ATOM     79  C   UNL A   1      51.479  26.039  26.975  1.00  0.00     0.198 A 
ATOM     80  C   UNL A   1      50.944  26.697  24.730  1.00  0.00     0.198 A 
ATOM     81  F   UNL A   1      48.767  27.427  24.207  1.00  0.00    -0.203 F 
ATOM     82  F   UNL A   1      52.373  25.619  27.880  1.00  0.00    -0.200 F 
ATOM     83  C   UNL A   1      51.867  26.237  25.658  1.00  0.00     0.200 A 
ATOM     84  F   UNL A   1      51.311  26.879  23.454  1.00  0.00    -0.200 F 
ATOM     85  F   UNL A   1      53.130  25.992  25.286  1.00  0.00    -0.200 F 
ENDBRANCH  51  75
BRANCH  63  86
ATOM     86  C   UNL A   1      46.027  32.452  28.896  1.00  0.00     0.064 A 
ATOM     87  C   UNL A   1      45.989  33.484  27.947  1.00  0.00     0.173 A 
ATOM     88  C   UNL A   1      46.503  32.756  30.180  1.00  0.00     0.173 A 
ATOM     89  F   UNL A   1      45.557  33.238  26.700  1.00  0.00    -0.203 F 
ATOM     90  C   UNL A   1      46.430  34.765  28.266  1.00  0.00     0.198 A 
ATOM     91  C   UNL A   1      46.919  34.045  30.503  1.00  0.00     0.198 A 
ATOM     92  F   UNL A   1      46.554  31.805  31.125  1.00  0.00    -0.203 F 
ATOM     93  F   UNL A   1      46.425  35.725  27.331  1.00  0.00    -0.200 F 
ATOM     94  C   UNL A   1      46.887  35.046  29.545  1.00  0.00     0.200 A 
ATOM     95  F   UNL A   1      47.351  34.317  31.742  1.00  0.00    -0.200 F 
ATOM     96  F   UNL A   1      47.306  36.282  29.851  1.00  0.00    -0.200 F 
ENDBRANCH  63  86
ENDBRANCH  37  38
ENDBRANCH  29  32
ENDBRANCH  27  28
ENDBRANCH  26  27
ENDBRANCH   1  26
TORSDOF 14
ENDMDL
