MODEL 1
REMARK VINA RESULT:     -12.2      0.000      0.000
REMARK SMILES Cc1n[nH]c(CCC(=O)NCCCNC(=O)c2ccc(-c3c4nc(c(-c5c(F)c(F)c(F)c(F)c5F)c5ccc([nH]5)c(-c5c(F)c(F)c(F)c(F)c5F)c5nc(c(-c6c(F)c(F)c(F)c(F)c6F)c6ccc3[nH]6)C=C5)C=C4)cc2)c1C
REMARK SMILES IDX 12 1 11 2 10 3 8 4 9 5 7 7 6 8 5 9 1 10 2 11 3 12 80 13 4 14
REMARK SMILES IDX 81 15 13 17 14 18 15 19 16 21 17 22 18 23 79 24 19 25 78 26
REMARK SMILES IDX 20 27 21 28 22 29 72 30 23 31 77 32 71 33 73 34 24 35 76 36
REMARK SMILES IDX 70 37 69 38 25 40 57 41 37 42 56 43 38 44 41 45 55 46 74 47
REMARK SMILES IDX 39 48 40 49 54 51 75 52 42 53 26 54 27 55 35 56 28 57 29 58
REMARK SMILES IDX 33 59 36 60 30 61 31 62 34 63 32 64 58 65 59 66 67 67 60 68
REMARK SMILES IDX 61 69 65 70 68 71 62 72 63 73 66 74 64 75 43 76 44 77 52 78
REMARK SMILES IDX 45 79 46 80 50 81 53 82 47 83 48 84 51 85 49 86
REMARK H PARENT 10 6 4 16 14 20 73 39 41 50
REMARK Flexibility Score: inf
ROOT
ATOM      1  C   UNL A   1      38.635  21.324  25.676  1.00  0.00     0.042 C 
ENDROOT
BRANCH   1   2
ATOM      2  C   UNL A   1      37.486  22.291  25.425  1.00  0.00     0.117 C 
BRANCH   2   3
ATOM      3  N   UNL A   1      36.350  22.088  26.316  1.00  0.00    -0.356 N 
ATOM      4  C   UNL A   1      35.157  21.460  26.116  1.00  0.00     0.220 C 
ATOM      5  O   UNL A   1      34.355  21.430  27.052  1.00  0.00    -0.275 OA
ATOM      6  H   UNL A   1      36.463  22.470  27.216  1.00  0.00     0.163 HD
BRANCH   4   7
ATOM      7  C   UNL A   1      34.829  20.804  24.791  1.00  0.00     0.106 C 
BRANCH   7   8
ATOM      8  C   UNL A   1      33.340  20.481  24.650  1.00  0.00     0.066 C 
BRANCH   8   9
ATOM      9  C   UNL A   1      33.016  19.075  25.035  1.00  0.00     0.039 A 
ATOM     10  C   UNL A   1      32.692  15.420  25.041  1.00  0.00     0.069 C 
ATOM     11  C   UNL A   1      32.700  16.890  25.257  1.00  0.00     0.062 A 
ATOM     12  N   UNL A   1      32.686  17.380  26.502  1.00  0.00    -0.181 NA
ATOM     13  C   UNL A   1      32.861  17.921  24.285  1.00  0.00    -0.007 A 
ATOM     14  N   UNL A   1      32.836  18.701  26.339  1.00  0.00    -0.282 N 
ATOM     15  C   UNL A   1      32.950  17.771  22.812  1.00  0.00     0.048 C 
ATOM     16  H   UNL A   1      32.818  19.342  27.085  1.00  0.00     0.190 HD
ENDBRANCH   8   9
ENDBRANCH   7   8
ENDBRANCH   4   7
ENDBRANCH   2   3
ENDBRANCH   1   2
BRANCH   1  17
ATOM     17  C   UNL A   1      39.717  21.878  26.578  1.00  0.00     0.118 C 
BRANCH  17  18
ATOM     18  N   UNL A   1      41.025  21.988  25.940  1.00  0.00    -0.352 N 
ATOM     19  C   UNL A   1      41.885  23.055  25.833  1.00  0.00     0.251 C 
ATOM     20  H   UNL A   1      41.344  21.159  25.515  1.00  0.00     0.163 HD
ATOM     21  O   UNL A   1      42.891  22.943  25.117  1.00  0.00    -0.269 OA
BRANCH  19  22
ATOM     22  C   UNL A   1      41.647  24.329  26.549  1.00  0.00     0.039 A 
ATOM     23  C   UNL A   1      40.827  25.325  26.000  1.00  0.00     0.014 A 
ATOM     24  C   UNL A   1      42.270  24.573  27.769  1.00  0.00     0.014 A 
ATOM     25  C   UNL A   1      40.721  26.553  26.652  1.00  0.00     0.010 A 
ATOM     26  C   UNL A   1      41.932  25.643  28.537  1.00  0.00     0.010 A 
ATOM     27  C   UNL A   1      41.328  26.704  27.904  1.00  0.00    -0.014 A 
BRANCH  27  28
ATOM     28  C   UNL A   1      41.354  27.950  28.642  1.00  0.00     0.031 A 
ATOM     29  C   UNL A   1      42.463  28.835  28.248  1.00  0.00     0.074 A 
ATOM     30  C   UNL A   1      40.312  28.360  29.405  1.00  0.00     0.049 A 
ATOM     31  N   UNL A   1      43.486  29.157  28.961  1.00  0.00    -0.248 NA
ATOM     32  C   UNL A   1      42.539  29.274  26.846  1.00  0.00     0.031 C 
ATOM     33  C   UNL A   1      39.004  27.718  29.595  1.00  0.00     0.029 A 
ATOM     34  N   UNL A   1      40.168  29.521  30.097  1.00  0.00    -0.354 N 
ATOM     35  C   UNL A   1      44.231  30.018  28.172  1.00  0.00     0.074 A 
ATOM     36  C   UNL A   1      43.730  29.875  26.830  1.00  0.00     0.031 C 
ATOM     37  C   UNL A   1      38.143  28.595  30.159  1.00  0.00     0.029 A 
ATOM     38  C   UNL A   1      38.866  29.804  30.503  1.00  0.00     0.049 A 
ATOM     39  H   UNL A   1      40.926  30.117  30.297  1.00  0.00     0.167 HD
ATOM     40  C   UNL A   1      45.001  30.979  28.749  1.00  0.00     0.037 A 
ATOM     41  C   UNL A   1      38.428  30.972  31.040  1.00  0.00     0.037 A 
ATOM     42  C   UNL A   1      45.195  30.705  30.155  1.00  0.00     0.049 A 
ATOM     43  C   UNL A   1      39.626  31.696  31.542  1.00  0.00     0.074 A 
ATOM     44  C   UNL A   1      45.723  29.644  30.867  1.00  0.00     0.029 A 
ATOM     45  N   UNL A   1      44.441  31.418  31.057  1.00  0.00    -0.354 N 
ATOM     46  N   UNL A   1      40.339  31.296  32.557  1.00  0.00    -0.248 NA
ATOM     47  C   UNL A   1      40.304  32.592  30.618  1.00  0.00     0.031 C 
ATOM     48  C   UNL A   1      44.874  29.503  32.005  1.00  0.00     0.029 A 
ATOM     49  C   UNL A   1      43.931  30.530  31.971  1.00  0.00     0.049 A 
ATOM     50  H   UNL A   1      44.293  32.391  31.049  1.00  0.00     0.167 HD
ATOM     51  C   UNL A   1      41.653  31.506  32.165  1.00  0.00     0.074 A 
ATOM     52  C   UNL A   1      41.567  32.386  31.001  1.00  0.00     0.031 C 
ATOM     53  C   UNL A   1      42.658  30.705  32.628  1.00  0.00     0.037 A 
BRANCH  40  54
ATOM     54  C   UNL A   1      45.235  32.348  28.156  1.00  0.00     0.064 A 
ATOM     55  C   UNL A   1      44.129  33.201  27.983  1.00  0.00     0.173 A 
ATOM     56  C   UNL A   1      46.415  32.739  27.486  1.00  0.00     0.173 A 
ATOM     57  F   UNL A   1      42.953  32.922  28.566  1.00  0.00    -0.203 F 
ATOM     58  C   UNL A   1      44.175  34.303  27.127  1.00  0.00     0.198 A 
ATOM     59  C   UNL A   1      46.473  33.873  26.679  1.00  0.00     0.198 A 
ATOM     60  F   UNL A   1      47.525  31.993  27.482  1.00  0.00    -0.203 F 
ATOM     61  F   UNL A   1      43.058  35.002  26.886  1.00  0.00    -0.200 F 
ATOM     62  C   UNL A   1      45.345  34.633  26.469  1.00  0.00     0.200 A 
ATOM     63  F   UNL A   1      47.614  34.165  26.038  1.00  0.00    -0.200 F 
ATOM     64  F   UNL A   1      45.374  35.649  25.598  1.00  0.00    -0.200 F 
ENDBRANCH  40  54
BRANCH  41  65
ATOM     65  C   UNL A   1      37.113  31.644  30.878  1.00  0.00     0.064 A 
ATOM     66  C   UNL A   1      36.214  31.748  31.956  1.00  0.00     0.173 A 
ATOM     67  C   UNL A   1      36.834  32.453  29.759  1.00  0.00     0.173 A 
ATOM     68  F   UNL A   1      36.421  31.042  33.077  1.00  0.00    -0.203 F 
ATOM     69  C   UNL A   1      35.133  32.637  31.933  1.00  0.00     0.198 A 
ATOM     70  C   UNL A   1      35.750  33.335  29.735  1.00  0.00     0.198 A 
ATOM     71  F   UNL A   1      37.661  32.481  28.706  1.00  0.00    -0.203 F 
ATOM     72  F   UNL A   1      34.343  32.760  33.009  1.00  0.00    -0.200 F 
ATOM     73  C   UNL A   1      34.910  33.440  30.827  1.00  0.00     0.200 A 
ATOM     74  F   UNL A   1      35.565  34.130  28.671  1.00  0.00    -0.200 F 
ATOM     75  F   UNL A   1      33.917  34.341  30.831  1.00  0.00    -0.200 F 
ENDBRANCH  41  65
BRANCH  53  76
ATOM     76  C   UNL A   1      42.343  29.780  33.773  1.00  0.00     0.064 A 
ATOM     77  C   UNL A   1      41.833  28.476  33.625  1.00  0.00     0.173 A 
ATOM     78  C   UNL A   1      42.684  30.188  35.068  1.00  0.00     0.173 A 
ATOM     79  F   UNL A   1      41.581  27.965  32.415  1.00  0.00    -0.203 F 
ATOM     80  C   UNL A   1      41.620  27.650  34.728  1.00  0.00     0.198 A 
ATOM     81  C   UNL A   1      42.509  29.347  36.164  1.00  0.00     0.198 A 
ATOM     82  F   UNL A   1      43.229  31.399  35.268  1.00  0.00    -0.203 F 
ATOM     83  F   UNL A   1      41.109  26.421  34.559  1.00  0.00    -0.200 F 
ATOM     84  C   UNL A   1      41.963  28.086  35.995  1.00  0.00     0.200 A 
ATOM     85  F   UNL A   1      42.892  29.755  37.382  1.00  0.00    -0.200 F 
ATOM     86  F   UNL A   1      41.792  27.280  37.054  1.00  0.00    -0.200 F 
ENDBRANCH  53  76
ENDBRANCH  27  28
ENDBRANCH  19  22
ENDBRANCH  17  18
ENDBRANCH   1  17
TORSDOF 12
ENDMDL
MODEL 2
REMARK VINA RESULT:     -12.1      5.176     11.209
REMARK SMILES Cc1n[nH]c(CCC(=O)NCCCNC(=O)c2ccc(-c3c4nc(c(-c5c(F)c(F)c(F)c(F)c5F)c5ccc([nH]5)c(-c5c(F)c(F)c(F)c(F)c5F)c5nc(c(-c6c(F)c(F)c(F)c(F)c6F)c6ccc3[nH]6)C=C5)C=C4)cc2)c1C
REMARK SMILES IDX 12 1 11 2 10 3 8 4 9 5 7 7 6 8 5 9 1 10 2 11 3 12 80 13 4 14
REMARK SMILES IDX 81 15 13 17 14 18 15 19 16 21 17 22 18 23 79 24 19 25 78 26
REMARK SMILES IDX 20 27 21 28 22 29 72 30 23 31 77 32 71 33 73 34 24 35 76 36
REMARK SMILES IDX 70 37 69 38 25 40 57 41 37 42 56 43 38 44 41 45 55 46 74 47
REMARK SMILES IDX 39 48 40 49 54 51 75 52 42 53 26 54 27 55 35 56 28 57 29 58
REMARK SMILES IDX 33 59 36 60 30 61 31 62 34 63 32 64 58 65 59 66 67 67 60 68
REMARK SMILES IDX 61 69 65 70 68 71 62 72 63 73 66 74 64 75 43 76 44 77 52 78
REMARK SMILES IDX 45 79 46 80 50 81 53 82 47 83 48 84 51 85 49 86
REMARK H PARENT 10 6 4 16 14 20 73 39 41 50
REMARK Flexibility Score: inf
ROOT
ATOM      1  C   UNL A   1      35.537  34.015  31.719  1.00  0.00     0.042 C 
ENDROOT
BRANCH   1   2
ATOM      2  C   UNL A   1      36.576  34.100  32.829  1.00  0.00     0.117 C 
BRANCH   2   3
ATOM      3  N   UNL A   1      37.928  33.781  32.385  1.00  0.00    -0.356 N 
ATOM      4  C   UNL A   1      38.721  32.701  32.638  1.00  0.00     0.220 C 
ATOM      5  O   UNL A   1      39.844  32.678  32.132  1.00  0.00    -0.275 OA
ATOM      6  H   UNL A   1      38.339  34.461  31.804  1.00  0.00     0.163 HD
BRANCH   4   7
ATOM      7  C   UNL A   1      38.234  31.556  33.501  1.00  0.00     0.106 C 
BRANCH   7   8
ATOM      8  C   UNL A   1      39.199  31.232  34.643  1.00  0.00     0.066 C 
BRANCH   8   9
ATOM      9  C   UNL A   1      38.565  31.362  35.989  1.00  0.00     0.039 A 
ATOM     10  C   UNL A   1      36.878  32.692  38.964  1.00  0.00     0.069 C 
ATOM     11  C   UNL A   1      37.571  31.938  37.888  1.00  0.00     0.062 A 
ATOM     12  N   UNL A   1      37.390  30.617  37.777  1.00  0.00    -0.181 NA
ATOM     13  C   UNL A   1      38.345  32.457  36.808  1.00  0.00    -0.007 A 
ATOM     14  N   UNL A   1      38.033  30.288  36.649  1.00  0.00    -0.282 N 
ATOM     15  C   UNL A   1      38.731  33.869  36.568  1.00  0.00     0.048 C 
ATOM     16  H   UNL A   1      38.115  29.363  36.326  1.00  0.00     0.190 HD
ENDBRANCH   8   9
ENDBRANCH   7   8
ENDBRANCH   4   7
ENDBRANCH   2   3
ENDBRANCH   1   2
BRANCH   1  17
ATOM     17  C   UNL A   1      35.012  32.617  31.477  1.00  0.00     0.118 C 
BRANCH  17  18
ATOM     18  N   UNL A   1      34.389  32.433  30.170  1.00  0.00    -0.352 N 
ATOM     19  C   UNL A   1      34.866  31.843  29.023  1.00  0.00     0.251 C 
ATOM     20  H   UNL A   1      33.475  32.793  30.097  1.00  0.00     0.163 HD
ATOM     21  O   UNL A   1      34.196  31.929  27.983  1.00  0.00    -0.269 OA
BRANCH  19  22
ATOM     22  C   UNL A   1      36.150  31.106  28.996  1.00  0.00     0.039 A 
ATOM     23  C   UNL A   1      36.189  29.732  28.716  1.00  0.00     0.014 A 
ATOM     24  C   UNL A   1      37.341  31.764  29.285  1.00  0.00     0.014 A 
ATOM     25  C   UNL A   1      37.404  29.054  28.813  1.00  0.00     0.010 A 
ATOM     26  C   UNL A   1      38.547  31.167  29.089  1.00  0.00     0.010 A 
ATOM     27  C   UNL A   1      38.568  29.792  29.051  1.00  0.00    -0.014 A 
BRANCH  27  28
ATOM     28  C   UNL A   1      39.874  29.197  29.248  1.00  0.00     0.031 A 
ATOM     29  C   UNL A   1      40.196  28.958  30.664  1.00  0.00     0.074 A 
ATOM     30  C   UNL A   1      40.590  28.670  28.225  1.00  0.00     0.049 A 
ATOM     31  N   UNL A   1      41.095  29.559  31.365  1.00  0.00    -0.248 NA
ATOM     32  C   UNL A   1      39.307  28.081  31.442  1.00  0.00     0.031 C 
ATOM     33  C   UNL A   1      40.212  28.539  26.811  1.00  0.00     0.029 A 
ATOM     34  N   UNL A   1      41.788  28.029  28.265  1.00  0.00    -0.354 N 
ATOM     35  C   UNL A   1      41.032  28.979  32.623  1.00  0.00     0.074 A 
ATOM     36  C   UNL A   1      39.789  28.255  32.674  1.00  0.00     0.031 C 
ATOM     37  C   UNL A   1      41.050  27.677  26.192  1.00  0.00     0.029 A 
ATOM     38  C   UNL A   1      42.106  27.309  27.116  1.00  0.00     0.049 A 
ATOM     39  H   UNL A   1      42.385  28.071  29.046  1.00  0.00     0.167 HD
ATOM     40  C   UNL A   1      42.145  28.917  33.402  1.00  0.00     0.037 A 
ATOM     41  C   UNL A   1      43.142  26.443  26.972  1.00  0.00     0.037 A 
ATOM     42  C   UNL A   1      43.165  29.815  32.911  1.00  0.00     0.049 A 
ATOM     43  C   UNL A   1      44.117  26.747  28.053  1.00  0.00     0.074 A 
ATOM     44  C   UNL A   1      43.222  31.177  32.680  1.00  0.00     0.029 A 
ATOM     45  N   UNL A   1      44.203  29.274  32.189  1.00  0.00    -0.354 N 
ATOM     46  N   UNL A   1      44.816  27.847  28.105  1.00  0.00    -0.248 NA
ATOM     47  C   UNL A   1      43.955  26.050  29.319  1.00  0.00     0.031 C 
ATOM     48  C   UNL A   1      43.960  31.318  31.467  1.00  0.00     0.029 A 
ATOM     49  C   UNL A   1      44.384  30.049  31.070  1.00  0.00     0.049 A 
ATOM     50  H   UNL A   1      44.722  28.474  32.430  1.00  0.00     0.167 HD
ATOM     51  C   UNL A   1      44.788  28.214  29.442  1.00  0.00     0.074 A 
ATOM     52  C   UNL A   1      44.319  27.028  30.155  1.00  0.00     0.031 C 
ATOM     53  C   UNL A   1      44.850  29.529  29.807  1.00  0.00     0.037 A 
BRANCH  40  54
ATOM     54  C   UNL A   1      42.459  27.778  34.341  1.00  0.00     0.064 A 
ATOM     55  C   UNL A   1      43.011  26.599  33.804  1.00  0.00     0.173 A 
ATOM     56  C   UNL A   1      41.977  27.674  35.664  1.00  0.00     0.173 A 
ATOM     57  F   UNL A   1      43.491  26.579  32.550  1.00  0.00    -0.203 F 
ATOM     58  C   UNL A   1      42.991  25.391  34.502  1.00  0.00     0.198 A 
ATOM     59  C   UNL A   1      42.011  26.480  36.379  1.00  0.00     0.198 A 
ATOM     60  F   UNL A   1      41.349  28.679  36.285  1.00  0.00    -0.203 F 
ATOM     61  F   UNL A   1      43.399  24.268  33.896  1.00  0.00    -0.200 F 
ATOM     62  C   UNL A   1      42.483  25.330  35.786  1.00  0.00     0.200 A 
ATOM     63  F   UNL A   1      41.499  26.440  37.618  1.00  0.00    -0.200 F 
ATOM     64  F   UNL A   1      42.400  24.161  36.432  1.00  0.00    -0.200 F 
ENDBRANCH  40  54
BRANCH  41  65
ATOM     65  C   UNL A   1      43.212  25.187  26.180  1.00  0.00     0.064 A 
ATOM     66  C   UNL A   1      44.266  24.960  25.275  1.00  0.00     0.173 A 
ATOM     67  C   UNL A   1      42.424  24.066  26.506  1.00  0.00     0.173 A 
ATOM     68  F   UNL A   1      45.091  25.960  24.935  1.00  0.00    -0.203 F 
ATOM     69  C   UNL A   1      44.539  23.684  24.765  1.00  0.00     0.198 A 
ATOM     70  C   UNL A   1      42.693  22.796  25.991  1.00  0.00     0.198 A 
ATOM     71  F   UNL A   1      41.437  24.158  27.408  1.00  0.00    -0.203 F 
ATOM     72  F   UNL A   1      45.597  23.496  23.964  1.00  0.00    -0.200 F 
ATOM     73  C   UNL A   1      43.760  22.601  25.135  1.00  0.00     0.200 A 
ATOM     74  F   UNL A   1      41.951  21.750  26.384  1.00  0.00    -0.200 F 
ATOM     75  F   UNL A   1      44.062  21.368  24.704  1.00  0.00    -0.200 F 
ENDBRANCH  41  65
BRANCH  53  76
ATOM     76  C   UNL A   1      45.224  30.531  28.748  1.00  0.00     0.064 A 
ATOM     77  C   UNL A   1      44.311  31.126  27.857  1.00  0.00     0.173 A 
ATOM     78  C   UNL A   1      46.545  30.998  28.714  1.00  0.00     0.173 A 
ATOM     79  F   UNL A   1      43.010  30.819  27.893  1.00  0.00    -0.203 F 
ATOM     80  C   UNL A   1      44.717  32.094  26.939  1.00  0.00     0.198 A 
ATOM     81  C   UNL A   1      46.940  31.993  27.825  1.00  0.00     0.198 A 
ATOM     82  F   UNL A   1      47.450  30.512  29.578  1.00  0.00    -0.203 F 
ATOM     83  F   UNL A   1      43.830  32.625  26.085  1.00  0.00    -0.200 F 
ATOM     84  C   UNL A   1      46.031  32.529  26.928  1.00  0.00     0.200 A 
ATOM     85  F   UNL A   1      48.200  32.448  27.854  1.00  0.00    -0.200 F 
ATOM     86  F   UNL A   1      46.416  33.485  26.069  1.00  0.00    -0.200 F 
ENDBRANCH  53  76
ENDBRANCH  27  28
ENDBRANCH  19  22
ENDBRANCH  17  18
ENDBRANCH   1  17
TORSDOF 12
ENDMDL
MODEL 3
REMARK VINA RESULT:     -12.0      5.096     11.068
REMARK SMILES Cc1n[nH]c(CCC(=O)NCCCNC(=O)c2ccc(-c3c4nc(c(-c5c(F)c(F)c(F)c(F)c5F)c5ccc([nH]5)c(-c5c(F)c(F)c(F)c(F)c5F)c5nc(c(-c6c(F)c(F)c(F)c(F)c6F)c6ccc3[nH]6)C=C5)C=C4)cc2)c1C
REMARK SMILES IDX 12 1 11 2 10 3 8 4 9 5 7 7 6 8 5 9 1 10 2 11 3 12 80 13 4 14
REMARK SMILES IDX 81 15 13 17 14 18 15 19 16 21 17 22 18 23 79 24 19 25 78 26
REMARK SMILES IDX 20 27 21 28 22 29 72 30 23 31 77 32 71 33 73 34 24 35 76 36
REMARK SMILES IDX 70 37 69 38 25 40 57 41 37 42 56 43 38 44 41 45 55 46 74 47
REMARK SMILES IDX 39 48 40 49 54 51 75 52 42 53 26 54 27 55 35 56 28 57 29 58
REMARK SMILES IDX 33 59 36 60 30 61 31 62 34 63 32 64 58 65 59 66 67 67 60 68
REMARK SMILES IDX 61 69 65 70 68 71 62 72 63 73 66 74 64 75 43 76 44 77 52 78
REMARK SMILES IDX 45 79 46 80 50 81 53 82 47 83 48 84 51 85 49 86
REMARK H PARENT 10 6 4 16 14 20 73 39 41 50
REMARK Flexibility Score: inf
ROOT
ATOM      1  C   UNL A   1      34.975  34.835  29.095  1.00  0.00     0.042 C 
ENDROOT
BRANCH   1   2
ATOM      2  C   UNL A   1      33.598  35.455  28.900  1.00  0.00     0.117 C 
BRANCH   2   3
ATOM      3  N   UNL A   1      33.382  36.656  29.699  1.00  0.00    -0.356 N 
ATOM      4  C   UNL A   1      33.019  36.808  31.003  1.00  0.00     0.220 C 
ATOM      5  O   UNL A   1      32.903  37.954  31.441  1.00  0.00    -0.275 OA
ATOM      6  H   UNL A   1      33.523  37.500  29.214  1.00  0.00     0.163 HD
BRANCH   4   7
ATOM      7  C   UNL A   1      32.779  35.608  31.896  1.00  0.00     0.106 C 
BRANCH   7   8
ATOM      8  C   UNL A   1      33.936  35.361  32.867  1.00  0.00     0.066 C 
BRANCH   8   9
ATOM      9  C   UNL A   1      34.644  34.073  32.604  1.00  0.00     0.039 A 
ATOM     10  C   UNL A   1      36.877  31.173  32.872  1.00  0.00     0.069 C 
ATOM     11  C   UNL A   1      35.897  32.242  32.549  1.00  0.00     0.062 A 
ATOM     12  N   UNL A   1      34.810  31.952  31.823  1.00  0.00    -0.181 NA
ATOM     13  C   UNL A   1      35.868  33.584  33.031  1.00  0.00    -0.007 A 
ATOM     14  N   UNL A   1      34.093  33.083  31.837  1.00  0.00    -0.282 N 
ATOM     15  C   UNL A   1      36.873  34.261  33.887  1.00  0.00     0.048 C 
ATOM     16  H   UNL A   1      33.250  33.192  31.342  1.00  0.00     0.190 HD
ENDBRANCH   8   9
ENDBRANCH   7   8
ENDBRANCH   4   7
ENDBRANCH   2   3
ENDBRANCH   1   2
BRANCH   1  17
ATOM     17  C   UNL A   1      35.366  33.856  28.010  1.00  0.00     0.118 C 
BRANCH  17  18
ATOM     18  N   UNL A   1      34.479  32.701  27.903  1.00  0.00    -0.352 N 
ATOM     19  C   UNL A   1      34.739  31.356  28.010  1.00  0.00     0.251 C 
ATOM     20  H   UNL A   1      33.536  32.924  27.723  1.00  0.00     0.163 HD
ATOM     21  O   UNL A   1      33.838  30.548  27.742  1.00  0.00    -0.269 OA
BRANCH  19  22
ATOM     22  C   UNL A   1      36.061  30.844  28.440  1.00  0.00     0.039 A 
ATOM     23  C   UNL A   1      37.004  31.692  29.040  1.00  0.00     0.014 A 
ATOM     24  C   UNL A   1      36.403  29.514  28.219  1.00  0.00     0.014 A 
ATOM     25  C   UNL A   1      38.277  31.198  29.324  1.00  0.00     0.010 A 
ATOM     26  C   UNL A   1      37.524  28.969  28.763  1.00  0.00     0.010 A 
ATOM     27  C   UNL A   1      38.527  29.835  29.130  1.00  0.00    -0.014 A 
BRANCH  27  28
ATOM     28  C   UNL A   1      39.826  29.220  29.315  1.00  0.00     0.031 A 
ATOM     29  C   UNL A   1      40.151  28.967  30.729  1.00  0.00     0.074 A 
ATOM     30  C   UNL A   1      40.529  28.691  28.286  1.00  0.00     0.049 A 
ATOM     31  N   UNL A   1      41.062  29.550  31.429  1.00  0.00    -0.248 NA
ATOM     32  C   UNL A   1      39.255  28.096  31.504  1.00  0.00     0.031 C 
ATOM     33  C   UNL A   1      40.143  28.576  26.872  1.00  0.00     0.029 A 
ATOM     34  N   UNL A   1      41.719  28.034  28.314  1.00  0.00    -0.354 N 
ATOM     35  C   UNL A   1      40.997  28.961  32.683  1.00  0.00     0.074 A 
ATOM     36  C   UNL A   1      39.745  28.254  32.735  1.00  0.00     0.031 C 
ATOM     37  C   UNL A   1      40.966  27.707  26.243  1.00  0.00     0.029 A 
ATOM     38  C   UNL A   1      42.021  27.318  27.159  1.00  0.00     0.049 A 
ATOM     39  H   UNL A   1      42.321  28.062  29.093  1.00  0.00     0.167 HD
ATOM     40  C   UNL A   1      42.113  28.878  33.456  1.00  0.00     0.037 A 
ATOM     41  C   UNL A   1      43.045  26.439  27.003  1.00  0.00     0.037 A 
ATOM     42  C   UNL A   1      43.143  29.766  32.967  1.00  0.00     0.049 A 
ATOM     43  C   UNL A   1      44.029  26.723  28.081  1.00  0.00     0.074 A 
ATOM     44  C   UNL A   1      43.217  31.129  32.746  1.00  0.00     0.029 A 
ATOM     45  N   UNL A   1      44.170  29.217  32.235  1.00  0.00    -0.354 N 
ATOM     46  N   UNL A   1      44.744  27.812  28.138  1.00  0.00    -0.248 NA
ATOM     47  C   UNL A   1      43.864  26.018  29.343  1.00  0.00     0.031 C 
ATOM     48  C   UNL A   1      43.951  31.269  31.530  1.00  0.00     0.029 A 
ATOM     49  C   UNL A   1      44.356  29.998  31.122  1.00  0.00     0.049 A 
ATOM     50  H   UNL A   1      44.679  28.408  32.468  1.00  0.00     0.167 HD
ATOM     51  C   UNL A   1      44.727  28.170  29.478  1.00  0.00     0.074 A 
ATOM     52  C   UNL A   1      44.246  26.984  30.184  1.00  0.00     0.031 C 
ATOM     53  C   UNL A   1      44.809  29.481  29.852  1.00  0.00     0.037 A 
BRANCH  40  54
ATOM     54  C   UNL A   1      42.417  27.728  34.385  1.00  0.00     0.064 A 
ATOM     55  C   UNL A   1      42.995  26.564  33.844  1.00  0.00     0.173 A 
ATOM     56  C   UNL A   1      41.903  27.599  35.694  1.00  0.00     0.173 A 
ATOM     57  F   UNL A   1      43.506  26.568  32.603  1.00  0.00    -0.203 F 
ATOM     58  C   UNL A   1      42.970  25.345  34.523  1.00  0.00     0.198 A 
ATOM     59  C   UNL A   1      41.933  26.393  36.391  1.00  0.00     0.198 A 
ATOM     60  F   UNL A   1      41.249  28.587  36.314  1.00  0.00    -0.203 F 
ATOM     61  F   UNL A   1      43.405  24.236  33.909  1.00  0.00    -0.200 F 
ATOM     62  C   UNL A   1      42.431  25.258  35.793  1.00  0.00     0.200 A 
ATOM     63  F   UNL A   1      41.390  26.329  37.616  1.00  0.00    -0.200 F 
ATOM     64  F   UNL A   1      42.346  24.078  36.418  1.00  0.00    -0.200 F 
ENDBRANCH  40  54
BRANCH  41  65
ATOM     65  C   UNL A   1      43.095  25.189  26.201  1.00  0.00     0.064 A 
ATOM     66  C   UNL A   1      44.159  24.938  25.315  1.00  0.00     0.173 A 
ATOM     67  C   UNL A   1      42.267  24.089  26.502  1.00  0.00     0.173 A 
ATOM     68  F   UNL A   1      45.019  25.917  25.000  1.00  0.00    -0.203 F 
ATOM     69  C   UNL A   1      44.404  23.660  24.799  1.00  0.00     0.198 A 
ATOM     70  C   UNL A   1      42.510  22.815  25.981  1.00  0.00     0.198 A 
ATOM     71  F   UNL A   1      41.267  24.201  27.386  1.00  0.00    -0.203 F 
ATOM     72  F   UNL A   1      45.472  23.447  24.016  1.00  0.00    -0.200 F 
ATOM     73  C   UNL A   1      43.587  22.597  25.144  1.00  0.00     0.200 A 
ATOM     74  F   UNL A   1      41.730  21.788  26.350  1.00  0.00    -0.200 F 
ATOM     75  F   UNL A   1      43.862  21.359  24.708  1.00  0.00    -0.200 F 
ENDBRANCH  41  65
BRANCH  53  76
ATOM     76  C   UNL A   1      45.191  30.486  28.799  1.00  0.00     0.064 A 
ATOM     77  C   UNL A   1      44.274  31.157  27.969  1.00  0.00     0.173 A 
ATOM     78  C   UNL A   1      46.534  30.874  28.710  1.00  0.00     0.173 A 
ATOM     79  F   UNL A   1      42.959  30.928  28.063  1.00  0.00    -0.203 F 
ATOM     80  C   UNL A   1      44.693  32.122  27.054  1.00  0.00     0.198 A 
ATOM     81  C   UNL A   1      46.946  31.866  27.824  1.00  0.00     0.198 A 
ATOM     82  F   UNL A   1      47.449  30.312  29.516  1.00  0.00    -0.203 F 
ATOM     83  F   UNL A   1      43.799  32.727  26.258  1.00  0.00    -0.200 F 
ATOM     84  C   UNL A   1      46.028  32.478  26.987  1.00  0.00     0.200 A 
ATOM     85  F   UNL A   1      48.231  32.244  27.800  1.00  0.00    -0.200 F 
ATOM     86  F   UNL A   1      46.429  33.431  26.131  1.00  0.00    -0.200 F 
ENDBRANCH  53  76
ENDBRANCH  27  28
ENDBRANCH  19  22
ENDBRANCH  17  18
ENDBRANCH   1  17
TORSDOF 12
ENDMDL
