MODEL 1
REMARK VINA RESULT:     -12.2      0.000      0.000
REMARK SMILES CC[C@@H](NC(=O)N1CCO[C@H](CC(=O)NCCCNC(=O)c2ccc(-c3c4nc(c(-c5c(F)c(F)c(F)c(F)c5F)c5ccc([nH]5)c(-c5c(F)c(F)c(F)c(F)c5F)c5nc(c(-c6c(F)c(F)c(F)c(F)c6F)c6ccc3[nH]6)C=C5)C=C4)cc2)C1)c1cccs1
REMARK SMILES IDX 16 1 15 2 13 3 14 4 12 6 11 7 7 8 8 9 85 10 9 11 10 12 5 13
REMARK SMILES IDX 4 14 6 16 3 17 2 18 1 19 86 20 87 21 90 22 88 23 89 24 17 25
REMARK SMILES IDX 18 26 19 27 20 28 21 30 22 31 23 32 84 33 24 34 83 35 25 36
REMARK SMILES IDX 26 37 27 38 77 39 28 40 82 41 76 42 78 43 29 44 81 45 75 46
REMARK SMILES IDX 74 47 30 49 62 50 42 51 61 52 43 53 46 54 60 55 79 56 44 57
REMARK SMILES IDX 45 58 59 60 80 61 47 62 31 63 32 64 40 65 33 66 34 67 38 68
REMARK SMILES IDX 41 69 35 70 36 71 39 72 37 73 63 74 64 75 72 76 65 77 66 78
REMARK SMILES IDX 70 79 73 80 67 81 68 82 71 83 69 84 48 85 49 86 57 87 50 88
REMARK SMILES IDX 51 89 55 90 58 91 52 92 53 93 56 94 54 95
REMARK H PARENT 15 5 4 15 19 29 78 48 46 59
REMARK Flexibility Score: inf
ROOT
ATOM      1  C   UNL A   1      31.831  30.647  26.194  1.00  0.00     0.117 C 
ENDROOT
BRANCH   1   2
ATOM      2  N   UNL A   1      33.244  30.347  26.316  1.00  0.00    -0.356 N 
ATOM      3  C   UNL A   1      33.839  29.170  26.651  1.00  0.00     0.222 C 
ATOM      4  O   UNL A   1      35.042  29.165  26.909  1.00  0.00    -0.275 OA
ATOM      5  H   UNL A   1      33.856  31.095  26.130  1.00  0.00     0.163 HD
BRANCH   3   6
ATOM      6  C   UNL A   1      33.028  27.904  26.662  1.00  0.00     0.133 C 
BRANCH   6   7
ATOM      7  C   UNL A   1      33.697  26.756  25.895  1.00  0.00     0.147 C 
ATOM      8  N   UNL A   1      32.248  27.137  23.979  1.00  0.00    -0.320 N 
ATOM      9  C   UNL A   1      31.501  25.903  24.220  1.00  0.00     0.150 C 
ATOM     10  C   UNL A   1      33.649  27.038  24.389  1.00  0.00     0.154 C 
ATOM     11  C   UNL A   1      31.763  25.306  25.624  1.00  0.00     0.182 C 
ATOM     12  O   UNL A   1      33.099  25.461  26.135  1.00  0.00    -0.374 OA
BRANCH   8  13
ATOM     13  C   UNL A   1      31.827  28.266  23.331  1.00  0.00     0.318 C 
ATOM     14  N   UNL A   1      30.636  28.247  22.679  1.00  0.00    -0.330 N 
ATOM     15  H   UNL A   1      30.616  27.858  21.775  1.00  0.00     0.166 HD
ATOM     16  O   UNL A   1      32.522  29.276  23.235  1.00  0.00    -0.249 OA
BRANCH  14  17
ATOM     17  C   UNL A   1      29.370  28.768  23.227  1.00  0.00     0.124 C 
BRANCH  17  18
ATOM     18  C   UNL A   1      28.153  27.822  23.237  1.00  0.00     0.027 C 
ATOM     19  C   UNL A   1      26.842  28.569  23.465  1.00  0.00     0.006 C 
ENDBRANCH  17  18
BRANCH  17  20
ATOM     20  C   UNL A   1      29.058  30.138  22.672  1.00  0.00     0.027 A 
ATOM     21  C   UNL A   1      28.909  30.492  21.342  1.00  0.00     0.017 A 
ATOM     22  S   UNL A   1      28.983  31.537  23.647  1.00  0.00    -0.147 S 
ATOM     23  C   UNL A   1      28.417  31.820  21.186  1.00  0.00     0.012 A 
ATOM     24  C   UNL A   1      28.272  32.454  22.398  1.00  0.00     0.065 A 
ENDBRANCH  17  20
ENDBRANCH  14  17
ENDBRANCH   8  13
ENDBRANCH   6   7
ENDBRANCH   3   6
ENDBRANCH   1   2
BRANCH   1  25
ATOM     25  C   UNL A   1      31.510  32.026  26.755  1.00  0.00     0.042 C 
BRANCH  25  26
ATOM     26  C   UNL A   1      32.737  32.773  27.257  1.00  0.00     0.118 C 
BRANCH  26  27
ATOM     27  N   UNL A   1      32.449  34.156  27.610  1.00  0.00    -0.352 N 
ATOM     28  C   UNL A   1      33.008  34.942  28.590  1.00  0.00     0.251 C 
ATOM     29  H   UNL A   1      31.753  34.592  27.067  1.00  0.00     0.163 HD
ATOM     30  O   UNL A   1      32.522  36.029  28.863  1.00  0.00    -0.269 OA
BRANCH  28  31
ATOM     31  C   UNL A   1      34.189  34.447  29.330  1.00  0.00     0.039 A 
ATOM     32  C   UNL A   1      33.999  33.803  30.554  1.00  0.00     0.014 A 
ATOM     33  C   UNL A   1      35.473  34.613  28.809  1.00  0.00     0.014 A 
ATOM     34  C   UNL A   1      35.097  33.262  31.226  1.00  0.00     0.010 A 
ATOM     35  C   UNL A   1      36.552  33.999  29.434  1.00  0.00     0.010 A 
ATOM     36  C   UNL A   1      36.377  33.325  30.652  1.00  0.00    -0.014 A 
BRANCH  36  37
ATOM     37  C   UNL A   1      37.560  32.720  31.312  1.00  0.00     0.031 A 
ATOM     38  C   UNL A   1      38.288  31.591  30.637  1.00  0.00     0.074 A 
ATOM     39  C   UNL A   1      37.924  33.122  32.544  1.00  0.00     0.049 A 
ATOM     40  N   UNL A   1      39.252  30.832  31.095  1.00  0.00    -0.248 NA
ATOM     41  C   UNL A   1      37.852  31.249  29.274  1.00  0.00     0.031 C 
ATOM     42  C   UNL A   1      37.277  34.186  33.313  1.00  0.00     0.029 A 
ATOM     43  N   UNL A   1      38.916  32.668  33.377  1.00  0.00    -0.354 N 
ATOM     44  C   UNL A   1      39.517  29.914  30.088  1.00  0.00     0.074 A 
ATOM     45  C   UNL A   1      38.579  30.172  29.018  1.00  0.00     0.031 C 
ATOM     46  C   UNL A   1      37.897  34.312  34.498  1.00  0.00     0.029 A 
ATOM     47  C   UNL A   1      38.951  33.306  34.592  1.00  0.00     0.049 A 
ATOM     48  H   UNL A   1      39.543  31.952  33.126  1.00  0.00     0.167 HD
ATOM     49  C   UNL A   1      40.473  28.956  30.052  1.00  0.00     0.037 A 
ATOM     50  C   UNL A   1      39.732  33.090  35.668  1.00  0.00     0.037 A 
ATOM     51  C   UNL A   1      41.418  28.722  31.110  1.00  0.00     0.049 A 
ATOM     52  C   UNL A   1      40.770  31.999  35.613  1.00  0.00     0.074 A 
ATOM     53  C   UNL A   1      42.458  27.810  31.152  1.00  0.00     0.029 A 
ATOM     54  N   UNL A   1      41.434  29.404  32.318  1.00  0.00    -0.354 N 
ATOM     55  N   UNL A   1      41.051  31.173  34.635  1.00  0.00    -0.248 NA
ATOM     56  C   UNL A   1      41.600  31.813  36.811  1.00  0.00     0.031 C 
ATOM     57  C   UNL A   1      43.069  27.904  32.405  1.00  0.00     0.029 A 
ATOM     58  C   UNL A   1      42.453  28.918  33.120  1.00  0.00     0.049 A 
ATOM     59  H   UNL A   1      40.814  30.127  32.568  1.00  0.00     0.167 HD
ATOM     60  C   UNL A   1      42.114  30.399  35.081  1.00  0.00     0.074 A 
ATOM     61  C   UNL A   1      42.430  30.856  36.418  1.00  0.00     0.031 C 
ATOM     62  C   UNL A   1      42.773  29.404  34.439  1.00  0.00     0.037 A 
BRANCH  49  63
ATOM     63  C   UNL A   1      40.543  28.088  28.828  1.00  0.00     0.064 A 
ATOM     64  C   UNL A   1      39.829  26.882  28.737  1.00  0.00     0.173 A 
ATOM     65  C   UNL A   1      41.306  28.482  27.718  1.00  0.00     0.173 A 
ATOM     66  F   UNL A   1      39.093  26.453  29.773  1.00  0.00    -0.203 F 
ATOM     67  C   UNL A   1      39.904  26.090  27.594  1.00  0.00     0.198 A 
ATOM     68  C   UNL A   1      41.350  27.704  26.565  1.00  0.00     0.198 A 
ATOM     69  F   UNL A   1      42.003  29.629  27.749  1.00  0.00    -0.203 F 
ATOM     70  F   UNL A   1      39.257  24.917  27.552  1.00  0.00    -0.200 F 
ATOM     71  C   UNL A   1      40.656  26.505  26.507  1.00  0.00     0.200 A 
ATOM     72  F   UNL A   1      42.064  28.115  25.509  1.00  0.00    -0.200 F 
ATOM     73  F   UNL A   1      40.720  25.746  25.405  1.00  0.00    -0.200 F 
ENDBRANCH  49  63
BRANCH  50  74
ATOM     74  C   UNL A   1      39.577  33.932  36.884  1.00  0.00     0.064 A 
ATOM     75  C   UNL A   1      38.814  33.488  37.974  1.00  0.00     0.173 A 
ATOM     76  C   UNL A   1      40.172  35.199  36.980  1.00  0.00     0.173 A 
ATOM     77  F   UNL A   1      38.207  32.293  37.923  1.00  0.00    -0.203 F 
ATOM     78  C   UNL A   1      38.634  34.286  39.100  1.00  0.00     0.198 A 
ATOM     79  C   UNL A   1      40.018  35.983  38.121  1.00  0.00     0.198 A 
ATOM     80  F   UNL A   1      40.917  35.670  35.968  1.00  0.00    -0.203 F 
ATOM     81  F   UNL A   1      37.857  33.857  40.105  1.00  0.00    -0.200 F 
ATOM     82  C   UNL A   1      39.240  35.531  39.176  1.00  0.00     0.200 A 
ATOM     83  F   UNL A   1      40.620  37.179  38.197  1.00  0.00    -0.200 F 
ATOM     84  F   UNL A   1      39.069  36.298  40.262  1.00  0.00    -0.200 F 
ENDBRANCH  50  74
BRANCH  62  85
ATOM     85  C   UNL A   1      43.944  28.777  35.138  1.00  0.00     0.064 A 
ATOM     86  C   UNL A   1      45.248  29.267  34.986  1.00  0.00     0.173 A 
ATOM     87  C   UNL A   1      43.740  27.715  36.034  1.00  0.00     0.173 A 
ATOM     88  F   UNL A   1      45.497  30.270  34.131  1.00  0.00    -0.203 F 
ATOM     89  C   UNL A   1      46.309  28.707  35.693  1.00  0.00     0.198 A 
ATOM     90  C   UNL A   1      44.797  27.180  36.763  1.00  0.00     0.198 A 
ATOM     91  F   UNL A   1      42.510  27.214  36.220  1.00  0.00    -0.203 F 
ATOM     92  F   UNL A   1      47.554  29.166  35.504  1.00  0.00    -0.200 F 
ATOM     93  C   UNL A   1      46.081  27.672  36.589  1.00  0.00     0.200 A 
ATOM     94  F   UNL A   1      44.570  26.192  37.641  1.00  0.00    -0.200 F 
ATOM     95  F   UNL A   1      47.100  27.149  37.283  1.00  0.00    -0.200 F 
ENDBRANCH  62  85
ENDBRANCH  36  37
ENDBRANCH  28  31
ENDBRANCH  26  27
ENDBRANCH  25  26
ENDBRANCH   1  25
TORSDOF 15
ENDMDL
MODEL 2
REMARK VINA RESULT:     -12.1      6.424     11.688
REMARK SMILES CC[C@@H](NC(=O)N1CCO[C@H](CC(=O)NCCCNC(=O)c2ccc(-c3c4nc(c(-c5c(F)c(F)c(F)c(F)c5F)c5ccc([nH]5)c(-c5c(F)c(F)c(F)c(F)c5F)c5nc(c(-c6c(F)c(F)c(F)c(F)c6F)c6ccc3[nH]6)C=C5)C=C4)cc2)C1)c1cccs1
REMARK SMILES IDX 16 1 15 2 13 3 14 4 12 6 11 7 7 8 8 9 85 10 9 11 10 12 5 13
REMARK SMILES IDX 4 14 6 16 3 17 2 18 1 19 86 20 87 21 90 22 88 23 89 24 17 25
REMARK SMILES IDX 18 26 19 27 20 28 21 30 22 31 23 32 84 33 24 34 83 35 25 36
REMARK SMILES IDX 26 37 27 38 77 39 28 40 82 41 76 42 78 43 29 44 81 45 75 46
REMARK SMILES IDX 74 47 30 49 62 50 42 51 61 52 43 53 46 54 60 55 79 56 44 57
REMARK SMILES IDX 45 58 59 60 80 61 47 62 31 63 32 64 40 65 33 66 34 67 38 68
REMARK SMILES IDX 41 69 35 70 36 71 39 72 37 73 63 74 64 75 72 76 65 77 66 78
REMARK SMILES IDX 70 79 73 80 67 81 68 82 71 83 69 84 48 85 49 86 57 87 50 88
REMARK SMILES IDX 51 89 55 90 58 91 52 92 53 93 56 94 54 95
REMARK H PARENT 15 5 4 15 19 29 78 48 46 59
REMARK Flexibility Score: inf
ROOT
ATOM      1  C   UNL A   1      36.928  20.798  24.937  1.00  0.00     0.117 C 
ENDROOT
BRANCH   1   2
ATOM      2  N   UNL A   1      37.218  21.897  25.838  1.00  0.00    -0.356 N 
ATOM      3  C   UNL A   1      36.897  23.212  25.707  1.00  0.00     0.222 C 
ATOM      4  O   UNL A   1      37.413  24.029  26.470  1.00  0.00    -0.275 OA
ATOM      5  H   UNL A   1      37.714  21.658  26.654  1.00  0.00     0.163 HD
BRANCH   3   6
ATOM      6  C   UNL A   1      35.897  23.634  24.666  1.00  0.00     0.133 C 
BRANCH   6   7
ATOM      7  C   UNL A   1      34.801  24.551  25.223  1.00  0.00     0.147 C 
ATOM      8  N   UNL A   1      33.260  22.677  25.388  1.00  0.00    -0.320 N 
ATOM      9  C   UNL A   1      32.442  23.172  24.280  1.00  0.00     0.150 C 
ATOM     10  C   UNL A   1      33.880  23.756  26.157  1.00  0.00     0.154 C 
ATOM     11  C   UNL A   1      33.148  24.277  23.459  1.00  0.00     0.182 C 
ATOM     12  O   UNL A   1      33.985  25.178  24.207  1.00  0.00    -0.374 OA
BRANCH   8  13
ATOM     13  C   UNL A   1      33.392  21.389  25.830  1.00  0.00     0.318 C 
ATOM     14  N   UNL A   1      32.602  20.423  25.295  1.00  0.00    -0.330 N 
ATOM     15  H   UNL A   1      31.688  20.331  25.651  1.00  0.00     0.166 HD
ATOM     16  O   UNL A   1      34.136  21.078  26.759  1.00  0.00    -0.249 OA
BRANCH  14  17
ATOM     17  C   UNL A   1      33.013  19.502  24.219  1.00  0.00     0.124 C 
BRANCH  17  18
ATOM     18  C   UNL A   1      32.153  19.469  22.940  1.00  0.00     0.027 C 
ATOM     19  C   UNL A   1      32.328  18.169  22.160  1.00  0.00     0.006 C 
ENDBRANCH  17  18
BRANCH  17  20
ATOM     20  C   UNL A   1      33.323  18.129  24.767  1.00  0.00     0.027 A 
ATOM     21  C   UNL A   1      32.527  17.353  25.594  1.00  0.00     0.017 A 
ATOM     22  S   UNL A   1      34.833  17.363  24.546  1.00  0.00    -0.147 S 
ATOM     23  C   UNL A   1      33.034  16.031  25.751  1.00  0.00     0.012 A 
ATOM     24  C   UNL A   1      34.231  15.865  25.095  1.00  0.00     0.065 A 
ENDBRANCH  17  20
ENDBRANCH  14  17
ENDBRANCH   8  13
ENDBRANCH   6   7
ENDBRANCH   3   6
ENDBRANCH   1   2
BRANCH   1  25
ATOM     25  C   UNL A   1      38.013  19.732  25.001  1.00  0.00     0.042 C 
BRANCH  25  26
ATOM     26  C   UNL A   1      39.258  20.183  25.751  1.00  0.00     0.118 C 
BRANCH  26  27
ATOM     27  N   UNL A   1      40.241  19.119  25.902  1.00  0.00    -0.352 N 
ATOM     28  C   UNL A   1      41.595  19.206  26.121  1.00  0.00     0.251 C 
ATOM     29  H   UNL A   1      39.883  18.204  25.837  1.00  0.00     0.163 HD
ATOM     30  O   UNL A   1      42.299  18.210  26.048  1.00  0.00    -0.269 OA
BRANCH  28  31
ATOM     31  C   UNL A   1      42.197  20.522  26.424  1.00  0.00     0.039 A 
ATOM     32  C   UNL A   1      42.677  21.305  25.372  1.00  0.00     0.014 A 
ATOM     33  C   UNL A   1      42.276  20.981  27.740  1.00  0.00     0.014 A 
ATOM     34  C   UNL A   1      43.177  22.582  25.634  1.00  0.00     0.010 A 
ATOM     35  C   UNL A   1      42.691  22.284  27.989  1.00  0.00     0.010 A 
ATOM     36  C   UNL A   1      43.153  23.094  26.941  1.00  0.00    -0.014 A 
BRANCH  36  37
ATOM     37  C   UNL A   1      43.630  24.464  27.252  1.00  0.00     0.031 A 
ATOM     38  C   UNL A   1      42.653  25.495  27.745  1.00  0.00     0.074 A 
ATOM     39  C   UNL A   1      44.911  24.803  27.012  1.00  0.00     0.049 A 
ATOM     40  N   UNL A   1      42.827  26.777  27.941  1.00  0.00    -0.248 NA
ATOM     41  C   UNL A   1      41.286  25.025  28.023  1.00  0.00     0.031 C 
ATOM     42  C   UNL A   1      45.946  23.899  26.506  1.00  0.00     0.029 A 
ATOM     43  N   UNL A   1      45.557  26.007  27.142  1.00  0.00    -0.354 N 
ATOM     44  C   UNL A   1      41.591  27.266  28.342  1.00  0.00     0.074 A 
ATOM     45  C   UNL A   1      40.663  26.158  28.308  1.00  0.00     0.031 C 
ATOM     46  C   UNL A   1      47.099  24.576  26.382  1.00  0.00     0.029 A 
ATOM     47  C   UNL A   1      46.874  25.971  26.751  1.00  0.00     0.049 A 
ATOM     48  H   UNL A   1      45.118  26.819  27.483  1.00  0.00     0.167 HD
ATOM     49  C   UNL A   1      41.266  28.524  28.725  1.00  0.00     0.037 A 
ATOM     50  C   UNL A   1      47.789  26.956  26.679  1.00  0.00     0.037 A 
ATOM     51  C   UNL A   1      42.201  29.615  28.780  1.00  0.00     0.049 A 
ATOM     52  C   UNL A   1      47.395  28.354  27.085  1.00  0.00     0.074 A 
ATOM     53  C   UNL A   1      41.985  30.914  29.202  1.00  0.00     0.029 A 
ATOM     54  N   UNL A   1      43.532  29.534  28.395  1.00  0.00    -0.354 N 
ATOM     55  N   UNL A   1      46.238  28.794  27.516  1.00  0.00    -0.248 NA
ATOM     56  C   UNL A   1      48.434  29.388  26.995  1.00  0.00     0.031 C 
ATOM     57  C   UNL A   1      43.171  31.633  29.022  1.00  0.00     0.029 A 
ATOM     58  C   UNL A   1      44.143  30.766  28.550  1.00  0.00     0.049 A 
ATOM     59  H   UNL A   1      43.976  28.720  28.063  1.00  0.00     0.167 HD
ATOM     60  C   UNL A   1      46.421  30.144  27.789  1.00  0.00     0.074 A 
ATOM     61  C   UNL A   1      47.801  30.449  27.476  1.00  0.00     0.031 C 
ATOM     62  C   UNL A   1      45.527  31.047  28.261  1.00  0.00     0.037 A 
BRANCH  49  63
ATOM     63  C   UNL A   1      39.840  28.786  29.114  1.00  0.00     0.064 A 
ATOM     64  C   UNL A   1      39.396  28.635  30.438  1.00  0.00     0.173 A 
ATOM     65  C   UNL A   1      38.911  29.228  28.160  1.00  0.00     0.173 A 
ATOM     66  F   UNL A   1      40.239  28.204  31.388  1.00  0.00    -0.203 F 
ATOM     67  C   UNL A   1      38.070  28.883  30.782  1.00  0.00     0.198 A 
ATOM     68  C   UNL A   1      37.595  29.509  28.515  1.00  0.00     0.198 A 
ATOM     69  F   UNL A   1      39.283  29.396  26.881  1.00  0.00    -0.203 F 
ATOM     70  F   UNL A   1      37.657  28.679  32.041  1.00  0.00    -0.200 F 
ATOM     71  C   UNL A   1      37.173  29.328  29.824  1.00  0.00     0.200 A 
ATOM     72  F   UNL A   1      36.734  29.955  27.591  1.00  0.00    -0.200 F 
ATOM     73  F   UNL A   1      35.900  29.576  30.159  1.00  0.00    -0.200 F 
ENDBRANCH  49  63
BRANCH  50  74
ATOM     74  C   UNL A   1      49.171  26.659  26.220  1.00  0.00     0.064 A 
ATOM     75  C   UNL A   1      50.146  26.206  27.121  1.00  0.00     0.173 A 
ATOM     76  C   UNL A   1      49.553  26.831  24.881  1.00  0.00     0.173 A 
ATOM     77  F   UNL A   1      49.837  26.044  28.416  1.00  0.00    -0.203 F 
ATOM     78  C   UNL A   1      51.453  25.961  26.705  1.00  0.00     0.198 A 
ATOM     79  C   UNL A   1      50.852  26.555  24.461  1.00  0.00     0.198 A 
ATOM     80  F   UNL A   1      48.658  27.257  23.977  1.00  0.00    -0.203 F 
ATOM     81  F   UNL A   1      52.376  25.578  27.598  1.00  0.00    -0.200 F 
ATOM     82  C   UNL A   1      51.804  26.130  25.375  1.00  0.00     0.200 A 
ATOM     83  F   UNL A   1      51.183  26.703  23.170  1.00  0.00    -0.200 F 
ATOM     84  F   UNL A   1      53.060  25.891  24.975  1.00  0.00    -0.200 F 
ENDBRANCH  50  74
BRANCH  62  85
ATOM     85  C   UNL A   1      46.018  32.439  28.534  1.00  0.00     0.064 A 
ATOM     86  C   UNL A   1      45.911  33.463  27.585  1.00  0.00     0.173 A 
ATOM     87  C   UNL A   1      46.536  32.764  29.798  1.00  0.00     0.173 A 
ATOM     88  F   UNL A   1      45.436  33.201  26.358  1.00  0.00    -0.203 F 
ATOM     89  C   UNL A   1      46.317  34.761  27.885  1.00  0.00     0.198 A 
ATOM     90  C   UNL A   1      46.911  34.068  30.105  1.00  0.00     0.198 A 
ATOM     91  F   UNL A   1      46.654  31.820  30.744  1.00  0.00    -0.203 F 
ATOM     92  F   UNL A   1      46.240  35.719  26.951  1.00  0.00    -0.200 F 
ATOM     93  C   UNL A   1      46.806  35.065  29.148  1.00  0.00     0.200 A 
ATOM     94  F   UNL A   1      47.367  34.361  31.332  1.00  0.00    -0.200 F 
ATOM     95  F   UNL A   1      47.178  36.318  29.441  1.00  0.00    -0.200 F 
ENDBRANCH  62  85
ENDBRANCH  36  37
ENDBRANCH  28  31
ENDBRANCH  26  27
ENDBRANCH  25  26
ENDBRANCH   1  25
TORSDOF 15
ENDMDL
MODEL 3
REMARK VINA RESULT:     -12.0      6.380     11.740
REMARK SMILES CC[C@@H](NC(=O)N1CCO[C@H](CC(=O)NCCCNC(=O)c2ccc(-c3c4nc(c(-c5c(F)c(F)c(F)c(F)c5F)c5ccc([nH]5)c(-c5c(F)c(F)c(F)c(F)c5F)c5nc(c(-c6c(F)c(F)c(F)c(F)c6F)c6ccc3[nH]6)C=C5)C=C4)cc2)C1)c1cccs1
REMARK SMILES IDX 16 1 15 2 13 3 14 4 12 6 11 7 7 8 8 9 85 10 9 11 10 12 5 13
REMARK SMILES IDX 4 14 6 16 3 17 2 18 1 19 86 20 87 21 90 22 88 23 89 24 17 25
REMARK SMILES IDX 18 26 19 27 20 28 21 30 22 31 23 32 84 33 24 34 83 35 25 36
REMARK SMILES IDX 26 37 27 38 77 39 28 40 82 41 76 42 78 43 29 44 81 45 75 46
REMARK SMILES IDX 74 47 30 49 62 50 42 51 61 52 43 53 46 54 60 55 79 56 44 57
REMARK SMILES IDX 45 58 59 60 80 61 47 62 31 63 32 64 40 65 33 66 34 67 38 68
REMARK SMILES IDX 41 69 35 70 36 71 39 72 37 73 63 74 64 75 72 76 65 77 66 78
REMARK SMILES IDX 70 79 73 80 67 81 68 82 71 83 69 84 48 85 49 86 57 87 50 88
REMARK SMILES IDX 51 89 55 90 58 91 52 92 53 93 56 94 54 95
REMARK H PARENT 15 5 4 15 19 29 78 48 46 59
REMARK Flexibility Score: inf
ROOT
ATOM      1  C   UNL A   1      36.908  20.824  25.023  1.00  0.00     0.117 C 
ENDROOT
BRANCH   1   2
ATOM      2  N   UNL A   1      37.278  21.960  25.844  1.00  0.00    -0.356 N 
ATOM      3  C   UNL A   1      36.863  23.252  25.746  1.00  0.00     0.222 C 
ATOM      4  O   UNL A   1      37.449  24.116  26.399  1.00  0.00    -0.275 OA
ATOM      5  H   UNL A   1      37.915  21.771  26.570  1.00  0.00     0.163 HD
BRANCH   3   6
ATOM      6  C   UNL A   1      35.681  23.590  24.880  1.00  0.00     0.133 C 
BRANCH   6   7
ATOM      7  C   UNL A   1      34.626  24.434  25.606  1.00  0.00     0.147 C 
ATOM      8  N   UNL A   1      33.101  22.541  25.677  1.00  0.00    -0.320 N 
ATOM      9  C   UNL A   1      32.208  23.144  24.688  1.00  0.00     0.150 C 
ATOM     10  C   UNL A   1      33.773  23.538  26.511  1.00  0.00     0.154 C 
ATOM     11  C   UNL A   1      32.854  24.336  23.942  1.00  0.00     0.182 C 
ATOM     12  O   UNL A   1      33.741  25.159  24.721  1.00  0.00    -0.374 OA
BRANCH   8  13
ATOM     13  C   UNL A   1      33.265  21.214  25.970  1.00  0.00     0.318 C 
ATOM     14  N   UNL A   1      32.540  20.293  25.285  1.00  0.00    -0.330 N 
ATOM     15  H   UNL A   1      31.615  20.128  25.580  1.00  0.00     0.166 HD
ATOM     16  O   UNL A   1      33.977  20.820  26.892  1.00  0.00    -0.249 OA
BRANCH  14  17
ATOM     17  C   UNL A   1      33.037  19.523  24.130  1.00  0.00     0.124 C 
BRANCH  17  18
ATOM     18  C   UNL A   1      32.170  19.506  22.855  1.00  0.00     0.027 C 
ATOM     19  C   UNL A   1      32.432  18.275  21.993  1.00  0.00     0.006 C 
ENDBRANCH  17  18
BRANCH  17  20
ATOM     20  C   UNL A   1      33.507  18.151  24.551  1.00  0.00     0.027 A 
ATOM     21  C   UNL A   1      34.732  17.563  24.285  1.00  0.00     0.017 A 
ATOM     22  S   UNL A   1      32.490  17.023  25.331  1.00  0.00    -0.147 S 
ATOM     23  C   UNL A   1      34.919  16.347  25.004  1.00  0.00     0.012 A 
ATOM     24  C   UNL A   1      33.805  16.017  25.740  1.00  0.00     0.065 A 
ENDBRANCH  17  20
ENDBRANCH  14  17
ENDBRANCH   8  13
ENDBRANCH   6   7
ENDBRANCH   3   6
ENDBRANCH   1   2
BRANCH   1  25
ATOM     25  C   UNL A   1      38.019  19.784  24.988  1.00  0.00     0.042 C 
BRANCH  25  26
ATOM     26  C   UNL A   1      39.272  20.216  25.736  1.00  0.00     0.118 C 
BRANCH  26  27
ATOM     27  N   UNL A   1      40.256  19.148  25.851  1.00  0.00    -0.352 N 
ATOM     28  C   UNL A   1      41.612  19.228  26.059  1.00  0.00     0.251 C 
ATOM     29  H   UNL A   1      39.896  18.235  25.766  1.00  0.00     0.163 HD
ATOM     30  O   UNL A   1      42.314  18.235  25.954  1.00  0.00    -0.269 OA
BRANCH  28  31
ATOM     31  C   UNL A   1      42.218  20.536  26.390  1.00  0.00     0.039 A 
ATOM     32  C   UNL A   1      42.704  21.337  25.354  1.00  0.00     0.014 A 
ATOM     33  C   UNL A   1      42.294  20.969  27.714  1.00  0.00     0.014 A 
ATOM     34  C   UNL A   1      43.208  22.607  25.643  1.00  0.00     0.010 A 
ATOM     35  C   UNL A   1      42.714  22.265  27.990  1.00  0.00     0.010 A 
ATOM     36  C   UNL A   1      43.182  23.094  26.959  1.00  0.00    -0.014 A 
BRANCH  36  37
ATOM     37  C   UNL A   1      43.663  24.456  27.299  1.00  0.00     0.031 A 
ATOM     38  C   UNL A   1      42.690  25.476  27.821  1.00  0.00     0.074 A 
ATOM     39  C   UNL A   1      44.943  24.798  27.058  1.00  0.00     0.049 A 
ATOM     40  N   UNL A   1      42.868  26.754  28.046  1.00  0.00    -0.248 NA
ATOM     41  C   UNL A   1      41.325  25.002  28.098  1.00  0.00     0.031 C 
ATOM     42  C   UNL A   1      45.972  23.905  26.524  1.00  0.00     0.029 A 
ATOM     43  N   UNL A   1      45.592  25.998  27.211  1.00  0.00    -0.354 N 
ATOM     44  C   UNL A   1      41.635  27.235  28.466  1.00  0.00     0.074 A 
ATOM     45  C   UNL A   1      40.705  26.129  28.413  1.00  0.00     0.031 C 
ATOM     46  C   UNL A   1      47.126  24.583  26.408  1.00  0.00     0.029 A 
ATOM     47  C   UNL A   1      46.905  25.970  26.811  1.00  0.00     0.049 A 
ATOM     48  H   UNL A   1      45.156  26.803  27.574  1.00  0.00     0.167 HD
ATOM     49  C   UNL A   1      41.314  28.484  28.880  1.00  0.00     0.037 A 
ATOM     50  C   UNL A   1      47.821  26.955  26.756  1.00  0.00     0.037 A 
ATOM     51  C   UNL A   1      42.251  29.572  28.954  1.00  0.00     0.049 A 
ATOM     52  C   UNL A   1      47.432  28.343  27.196  1.00  0.00     0.074 A 
ATOM     53  C   UNL A   1      42.040  30.862  29.407  1.00  0.00     0.029 A 
ATOM     54  N   UNL A   1      43.579  29.498  28.559  1.00  0.00    -0.354 N 
ATOM     55  N   UNL A   1      46.278  28.775  27.645  1.00  0.00    -0.248 NA
ATOM     56  C   UNL A   1      48.472  29.378  27.123  1.00  0.00     0.031 C 
ATOM     57  C   UNL A   1      43.225  31.583  29.236  1.00  0.00     0.029 A 
ATOM     58  C   UNL A   1      44.194  30.726  28.738  1.00  0.00     0.049 A 
ATOM     59  H   UNL A   1      44.020  28.691  28.204  1.00  0.00     0.167 HD
ATOM     60  C   UNL A   1      46.465  30.118  27.947  1.00  0.00     0.074 A 
ATOM     61  C   UNL A   1      47.843  30.429  27.632  1.00  0.00     0.031 C 
ATOM     62  C   UNL A   1      45.576  31.011  28.446  1.00  0.00     0.037 A 
BRANCH  49  63
ATOM     63  C   UNL A   1      39.891  28.739  29.285  1.00  0.00     0.064 A 
ATOM     64  C   UNL A   1      38.936  29.207  28.368  1.00  0.00     0.173 A 
ATOM     65  C   UNL A   1      39.466  28.481  30.597  1.00  0.00     0.173 A 
ATOM     66  F   UNL A   1      39.291  29.481  27.104  1.00  0.00    -0.203 F 
ATOM     67  C   UNL A   1      37.620  29.437  28.759  1.00  0.00     0.198 A 
ATOM     68  C   UNL A   1      38.141  28.679  30.974  1.00  0.00     0.198 A 
ATOM     69  F   UNL A   1      40.335  28.025  31.512  1.00  0.00    -0.203 F 
ATOM     70  F   UNL A   1      36.739  29.937  27.880  1.00  0.00    -0.200 F 
ATOM     71  C   UNL A   1      37.221  29.166  30.058  1.00  0.00     0.200 A 
ATOM     72  F   UNL A   1      37.754  28.399  32.226  1.00  0.00    -0.200 F 
ATOM     73  F   UNL A   1      35.952  29.379  30.430  1.00  0.00    -0.200 F 
ENDBRANCH  49  63
BRANCH  50  74
ATOM     74  C   UNL A   1      49.200  26.667  26.281  1.00  0.00     0.064 A 
ATOM     75  C   UNL A   1      49.566  26.903  24.948  1.00  0.00     0.173 A 
ATOM     76  C   UNL A   1      50.176  26.139  27.140  1.00  0.00     0.173 A 
ATOM     77  F   UNL A   1      48.663  27.387  24.082  1.00  0.00    -0.203 F 
ATOM     78  C   UNL A   1      50.845  26.600  24.487  1.00  0.00     0.198 A 
ATOM     79  C   UNL A   1      51.465  25.868  26.685  1.00  0.00     0.198 A 
ATOM     80  F   UNL A   1      49.881  25.900  28.426  1.00  0.00    -0.203 F 
ATOM     81  F   UNL A   1      51.151  26.788  23.195  1.00  0.00    -0.200 F 
ATOM     82  C   UNL A   1      51.795  26.088  25.356  1.00  0.00     0.200 A 
ATOM     83  F   UNL A   1      52.386  25.388  27.533  1.00  0.00    -0.200 F 
ATOM     84  F   UNL A   1      53.027  25.800  24.914  1.00  0.00    -0.200 F 
ENDBRANCH  50  74
BRANCH  62  85
ATOM     85  C   UNL A   1      46.071  32.396  28.747  1.00  0.00     0.064 A 
ATOM     86  C   UNL A   1      46.655  32.723  29.978  1.00  0.00     0.173 A 
ATOM     87  C   UNL A   1      46.026  33.389  27.755  1.00  0.00     0.173 A 
ATOM     88  F   UNL A   1      46.709  31.815  30.963  1.00  0.00    -0.203 F 
ATOM     89  C   UNL A   1      47.163  33.999  30.211  1.00  0.00     0.198 A 
ATOM     90  C   UNL A   1      46.563  34.652  27.980  1.00  0.00     0.198 A 
ATOM     91  F   UNL A   1      45.483  33.124  26.558  1.00  0.00    -0.203 F 
ATOM     92  F   UNL A   1      47.684  34.302  31.408  1.00  0.00    -0.200 F 
ATOM     93  C   UNL A   1      47.127  34.958  29.209  1.00  0.00     0.200 A 
ATOM     94  F   UNL A   1      46.543  35.570  27.003  1.00  0.00    -0.200 F 
ATOM     95  F   UNL A   1      47.634  36.178  29.429  1.00  0.00    -0.200 F 
ENDBRANCH  62  85
ENDBRANCH  36  37
ENDBRANCH  28  31
ENDBRANCH  26  27
ENDBRANCH  25  26
ENDBRANCH   1  25
TORSDOF 15
ENDMDL
