MODEL 1
REMARK VINA RESULT:     -14.0      0.000      0.000
REMARK SMILES C[C@H](CCC(=O)NCCCNC(=O)c1ccc(-c2c3nc(c(-c4c(F)c(F)c(F)c(F)c4F)c4ccc([nH]4)c(-c4c(F)c(F)c(F)c(F)c4F)c4nc(c(-c5c(F)c(F)c(F)c(F)c5F)c5ccc2[nH]5)C=C4)C=C3)cc1)[C@H]1CC[C@H]2C3C[C@H](O)[C@@H]4C[C@H](O)CC[C@]4(C)[C@H]3CC[C@@]12C
REMARK SMILES IDX 8 1 7 2 5 3 6 4 4 6 3 7 2 8 1 9 77 10 78 11 96 12 79 13
REMARK SMILES IDX 80 14 95 15 97 16 81 17 94 18 82 19 93 20 83 21 91 22 85 23
REMARK SMILES IDX 90 24 92 25 86 26 89 27 87 28 84 29 88 31 9 33 10 34 11 35
REMARK SMILES IDX 12 36 13 38 14 39 15 40 76 41 16 42 75 43 17 44 18 45 19 46
REMARK SMILES IDX 69 47 20 48 74 49 68 50 70 51 21 52 73 53 67 54 66 55 22 57
REMARK SMILES IDX 54 58 34 59 53 60 35 61 38 62 52 63 71 64 36 65 37 66 51 68
REMARK SMILES IDX 72 69 39 70 23 71 24 72 32 73 25 74 26 75 30 76 33 77 27 78
REMARK SMILES IDX 28 79 31 80 29 81 55 82 56 83 64 84 57 85 58 86 62 87 65 88
REMARK SMILES IDX 59 89 60 90 63 91 61 92 40 93 41 94 49 95 42 96 43 97 47 98
REMARK SMILES IDX 50 99 44 100 45 101 48 102 46 103
REMARK H PARENT 7 5 84 30 88 32 11 37 70 56 38 67
REMARK Flexibility Score: inf
ROOT
ATOM      1  C   UNL A   1      40.489  19.860  26.300  1.00  0.00     0.117 C 
ENDROOT
BRANCH   1   2
ATOM      2  N   UNL A   1      40.411  21.220  26.802  1.00  0.00    -0.356 N 
ATOM      3  C   UNL A   1      39.528  22.225  26.499  1.00  0.00     0.220 C 
ATOM      4  O   UNL A   1      39.796  23.349  26.928  1.00  0.00    -0.275 OA
ATOM      5  H   UNL A   1      41.100  21.459  27.464  1.00  0.00     0.163 HD
BRANCH   3   6
ATOM      6  C   UNL A   1      38.210  21.962  25.751  1.00  0.00     0.100 C 
BRANCH   6   7
ATOM      7  C   UNL A   1      37.083  23.063  25.674  1.00  0.00     0.013 C 
BRANCH   7   8
ATOM      8  C   UNL A   1      35.961  22.765  24.636  1.00  0.00    -0.010 C 
ATOM      9  C   UNL A   1      36.517  22.578  23.217  1.00  0.00     0.008 C 
BRANCH   8  10
ATOM     10  C   UNL A   1      34.759  21.769  24.848  1.00  0.00    -0.002 C 
ATOM     11  C   UNL A   1      34.150  21.521  26.331  1.00  0.00     0.005 C 
ATOM     12  C   UNL A   1      33.435  22.269  24.050  1.00  0.00    -0.026 C 
ATOM     13  C   UNL A   1      32.683  22.166  26.363  1.00  0.00     0.005 C 
ATOM     14  C   UNL A   1      32.838  23.138  25.208  1.00  0.00    -0.001 C 
ATOM     15  C   UNL A   1      33.384  22.950  22.611  1.00  0.00     0.007 C 
ATOM     16  C   UNL A   1      32.704  20.897  23.777  1.00  0.00     0.012 C 
ATOM     17  C   UNL A   1      32.686  24.663  24.968  1.00  0.00    -0.001 C 
ATOM     18  C   UNL A   1      33.351  24.470  22.206  1.00  0.00     0.005 C 
ATOM     19  C   UNL A   1      32.656  25.818  26.529  1.00  0.00     0.036 C 
ATOM     20  C   UNL A   1      32.566  25.410  23.175  1.00  0.00    -0.001 C 
ATOM     21  C   UNL A   1      32.569  27.765  26.300  1.00  0.00     0.118 C 
ATOM     22  C   UNL A   1      32.420  27.380  22.933  1.00  0.00    -0.024 C 
ATOM     23  C   UNL A   1      32.300  28.552  24.540  1.00  0.00     0.026 C 
ATOM     24  C   UNL A   1      31.167  27.708  22.001  1.00  0.00     0.010 C 
ATOM     25  C   UNL A   1      33.653  27.842  22.055  1.00  0.00     0.012 C 
ATOM     26  C   UNL A   1      30.972  29.325  24.696  1.00  0.00     0.038 C 
ATOM     27  C   UNL A   1      29.961  28.470  22.570  1.00  0.00     0.032 C 
ATOM     28  C   UNL A   1      30.305  29.701  23.399  1.00  0.00     0.114 C 
BRANCH  21  29
ATOM     29  O   UNL A   1      31.826  28.432  27.321  1.00  0.00    -0.393 OA
ATOM     30  H   UNL A   1      32.125  28.127  28.191  1.00  0.00     0.210 HD
ENDBRANCH  21  29
BRANCH  28  31
ATOM     31  O   UNL A   1      29.099  30.401  23.720  1.00  0.00    -0.393 OA
ATOM     32  H   UNL A   1      29.317  31.229  24.176  1.00  0.00     0.210 HD
ENDBRANCH  28  31
ENDBRANCH   8  10
ENDBRANCH   7   8
ENDBRANCH   6   7
ENDBRANCH   3   6
ENDBRANCH   1   2
BRANCH   1  33
ATOM     33  C   UNL A   1      41.939  19.487  26.020  1.00  0.00     0.042 C 
BRANCH  33  34
ATOM     34  C   UNL A   1      43.103  20.591  25.751  1.00  0.00     0.118 C 
BRANCH  34  35
ATOM     35  N   UNL A   1      43.527  22.529  26.023  1.00  0.00    -0.352 N 
ATOM     36  C   UNL A   1      43.270  23.964  25.880  1.00  0.00     0.251 C 
ATOM     37  H   UNL A   1      44.371  22.504  26.530  1.00  0.00     0.163 HD
ATOM     38  O   UNL A   1      43.458  24.592  24.828  1.00  0.00    -0.269 OA
BRANCH  36  39
ATOM     39  C   UNL A   1      43.255  24.900  27.025  1.00  0.00     0.039 A 
ATOM     40  C   UNL A   1      43.740  26.210  26.888  1.00  0.00     0.014 A 
ATOM     41  C   UNL A   1      42.811  24.502  28.262  1.00  0.00     0.014 A 
ATOM     42  C   UNL A   1      43.624  27.111  27.943  1.00  0.00     0.010 A 
ATOM     43  C   UNL A   1      42.513  25.408  29.240  1.00  0.00     0.010 A 
ATOM     44  C   UNL A   1      42.921  26.723  29.087  1.00  0.00    -0.014 A 
BRANCH  44  45
ATOM     45  C   UNL A   1      42.474  27.655  30.124  1.00  0.00     0.031 A 
ATOM     46  C   UNL A   1      43.139  27.626  31.466  1.00  0.00     0.074 A 
ATOM     47  C   UNL A   1      41.325  28.311  29.883  1.00  0.00     0.049 A 
ATOM     48  N   UNL A   1      42.804  28.249  32.562  1.00  0.00    -0.248 NA
ATOM     49  C   UNL A   1      44.290  26.715  31.625  1.00  0.00     0.031 C 
ATOM     50  C   UNL A   1      40.539  28.218  28.645  1.00  0.00     0.029 A 
ATOM     51  N   UNL A   1      40.600  29.158  30.668  1.00  0.00    -0.354 N 
ATOM     52  C   UNL A   1      43.689  27.796  33.531  1.00  0.00     0.074 A 
ATOM     53  C   UNL A   1      44.507  26.772  32.929  1.00  0.00     0.031 C 
ATOM     54  C   UNL A   1      39.472  29.022  28.736  1.00  0.00     0.029 A 
ATOM     55  C   UNL A   1      39.481  29.653  30.045  1.00  0.00     0.049 A 
ATOM     56  H   UNL A   1      40.853  29.391  31.591  1.00  0.00     0.167 HD
ATOM     57  C   UNL A   1      43.820  28.239  34.802  1.00  0.00     0.037 A 
ATOM     58  C   UNL A   1      38.580  30.540  30.499  1.00  0.00     0.037 A 
ATOM     59  C   UNL A   1      42.984  29.279  35.337  1.00  0.00     0.049 A 
ATOM     60  C   UNL A   1      38.806  31.092  31.876  1.00  0.00     0.074 A 
ATOM     61  C   UNL A   1      43.047  29.901  36.567  1.00  0.00     0.029 A 
ATOM     62  N   UNL A   1      41.920  29.851  34.646  1.00  0.00    -0.354 N 
ATOM     63  N   UNL A   1      39.728  30.765  32.753  1.00  0.00    -0.248 NA
ATOM     64  C   UNL A   1      37.895  32.146  32.322  1.00  0.00     0.031 C 
ATOM     65  C   UNL A   1      41.997  30.823  36.634  1.00  0.00     0.029 A 
ATOM     66  C   UNL A   1      41.310  30.812  35.427  1.00  0.00     0.049 A 
ATOM     67  H   UNL A   1      41.643  29.605  33.734  1.00  0.00     0.167 HD
ATOM     68  C   UNL A   1      39.525  31.587  33.848  1.00  0.00     0.074 A 
ATOM     69  C   UNL A   1      38.404  32.445  33.508  1.00  0.00     0.031 C 
ATOM     70  C   UNL A   1      40.193  31.634  35.028  1.00  0.00     0.037 A 
BRANCH  57  71
ATOM     71  C   UNL A   1      44.904  27.629  35.646  1.00  0.00     0.064 A 
ATOM     72  C   UNL A   1      46.217  28.129  35.630  1.00  0.00     0.173 A 
ATOM     73  C   UNL A   1      44.639  26.531  36.476  1.00  0.00     0.173 A 
ATOM     74  F   UNL A   1      46.537  29.170  34.844  1.00  0.00    -0.203 F 
ATOM     75  C   UNL A   1      47.229  27.529  36.377  1.00  0.00     0.198 A 
ATOM     76  C   UNL A   1      45.645  25.955  37.249  1.00  0.00     0.198 A 
ATOM     77  F   UNL A   1      43.405  26.007  36.533  1.00  0.00    -0.203 F 
ATOM     78  F   UNL A   1      48.486  27.985  36.290  1.00  0.00    -0.200 F 
ATOM     79  C   UNL A   1      46.941  26.446  37.192  1.00  0.00     0.200 A 
ATOM     80  F   UNL A   1      45.363  24.912  38.045  1.00  0.00    -0.200 F 
ATOM     81  F   UNL A   1      47.912  25.869  37.912  1.00  0.00    -0.200 F 
ENDBRANCH  57  71
BRANCH  58  82
ATOM     82  C   UNL A   1      37.487  31.008  29.609  1.00  0.00     0.064 A 
ATOM     83  C   UNL A   1      36.376  30.189  29.354  1.00  0.00     0.173 A 
ATOM     84  C   UNL A   1      37.487  32.293  29.050  1.00  0.00     0.173 A 
ATOM     85  F   UNL A   1      36.324  28.953  29.872  1.00  0.00    -0.203 F 
ATOM     86  C   UNL A   1      35.325  30.627  28.552  1.00  0.00     0.198 A 
ATOM     87  C   UNL A   1      36.421  32.741  28.269  1.00  0.00     0.198 A 
ATOM     88  F   UNL A   1      38.509  33.129  29.286  1.00  0.00    -0.203 F 
ATOM     89  F   UNL A   1      34.295  29.809  28.298  1.00  0.00    -0.200 F 
ATOM     90  C   UNL A   1      35.346  31.905  28.014  1.00  0.00     0.200 A 
ATOM     91  F   UNL A   1      36.433  33.986  27.774  1.00  0.00    -0.200 F 
ATOM     92  F   UNL A   1      34.329  32.329  27.251  1.00  0.00    -0.200 F 
ENDBRANCH  58  82
BRANCH  70  93
ATOM     93  C   UNL A   1      39.725  32.660  36.011  1.00  0.00     0.064 A 
ATOM     94  C   UNL A   1      38.706  32.379  36.930  1.00  0.00     0.173 A 
ATOM     95  C   UNL A   1      40.337  33.921  36.058  1.00  0.00     0.173 A 
ATOM     96  F   UNL A   1      38.084  31.190  36.907  1.00  0.00    -0.203 F 
ATOM     97  C   UNL A   1      38.293  33.339  37.847  1.00  0.00     0.198 A 
ATOM     98  C   UNL A   1      39.946  34.865  37.000  1.00  0.00     0.198 A 
ATOM     99  F   UNL A   1      41.323  34.227  35.202  1.00  0.00    -0.203 F 
ATOM    100  F   UNL A   1      37.280  33.070  38.682  1.00  0.00    -0.200 F 
ATOM    101  C   UNL A   1      38.920  34.576  37.887  1.00  0.00     0.200 A 
ATOM    102  F   UNL A   1      40.563  36.053  37.050  1.00  0.00    -0.200 F 
ATOM    103  F   UNL A   1      38.528  35.495  38.779  1.00  0.00    -0.200 F 
ENDBRANCH  70  93
ENDBRANCH  44  45
ENDBRANCH  36  39
ENDBRANCH  34  35
ENDBRANCH  33  34
ENDBRANCH   1  33
TORSDOF 15
ENDMDL
MODEL 2
REMARK VINA RESULT:     -13.9      5.194     10.605
REMARK SMILES C[C@H](CCC(=O)NCCCNC(=O)c1ccc(-c2c3nc(c(-c4c(F)c(F)c(F)c(F)c4F)c4ccc([nH]4)c(-c4c(F)c(F)c(F)c(F)c4F)c4nc(c(-c5c(F)c(F)c(F)c(F)c5F)c5ccc2[nH]5)C=C4)C=C3)cc1)[C@H]1CC[C@H]2C3C[C@H](O)[C@@H]4C[C@H](O)CC[C@]4(C)[C@H]3CC[C@@]12C
REMARK SMILES IDX 8 1 7 2 5 3 6 4 4 6 3 7 2 8 1 9 77 10 78 11 96 12 79 13
REMARK SMILES IDX 80 14 95 15 97 16 81 17 94 18 82 19 93 20 83 21 91 22 85 23
REMARK SMILES IDX 90 24 92 25 86 26 89 27 87 28 84 29 88 31 9 33 10 34 11 35
REMARK SMILES IDX 12 36 13 38 14 39 15 40 76 41 16 42 75 43 17 44 18 45 19 46
REMARK SMILES IDX 69 47 20 48 74 49 68 50 70 51 21 52 73 53 67 54 66 55 22 57
REMARK SMILES IDX 54 58 34 59 53 60 35 61 38 62 52 63 71 64 36 65 37 66 51 68
REMARK SMILES IDX 72 69 39 70 23 71 24 72 32 73 25 74 26 75 30 76 33 77 27 78
REMARK SMILES IDX 28 79 31 80 29 81 55 82 56 83 64 84 57 85 58 86 62 87 65 88
REMARK SMILES IDX 59 89 60 90 63 91 61 92 40 93 41 94 49 95 42 96 43 97 47 98
REMARK SMILES IDX 50 99 44 100 45 101 48 102 46 103
REMARK H PARENT 7 5 84 30 88 32 11 37 70 56 38 67
REMARK Flexibility Score: inf
ROOT
ATOM      1  C   UNL A   1      33.284  33.758  27.987  1.00  0.00     0.117 C 
ENDROOT
BRANCH   1   2
ATOM      2  N   UNL A   1      34.426  32.881  28.168  1.00  0.00    -0.356 N 
ATOM      3  C   UNL A   1      34.535  31.524  27.997  1.00  0.00     0.220 C 
ATOM      4  O   UNL A   1      35.573  30.994  28.400  1.00  0.00    -0.275 OA
ATOM      5  H   UNL A   1      35.253  33.330  28.458  1.00  0.00     0.163 HD
BRANCH   3   6
ATOM      6  C   UNL A   1      33.471  30.702  27.250  1.00  0.00     0.100 C 
BRANCH   6   7
ATOM      7  C   UNL A   1      33.734  29.198  26.852  1.00  0.00     0.013 C 
BRANCH   7   8
ATOM      8  C   UNL A   1      32.458  28.411  26.432  1.00  0.00    -0.010 C 
ATOM      9  C   UNL A   1      31.415  28.351  27.558  1.00  0.00     0.008 C 
BRANCH   8  10
ATOM     10  C   UNL A   1      31.710  28.547  25.052  1.00  0.00    -0.002 C 
ATOM     11  C   UNL A   1      32.535  28.922  23.706  1.00  0.00     0.005 C 
ATOM     12  C   UNL A   1      31.028  27.139  24.613  1.00  0.00    -0.026 C 
ATOM     13  C   UNL A   1      32.533  27.627  22.762  1.00  0.00     0.005 C 
ATOM     14  C   UNL A   1      32.257  26.576  23.822  1.00  0.00    -0.001 C 
ATOM     15  C   UNL A   1      30.309  26.085  25.566  1.00  0.00     0.007 C 
ATOM     16  C   UNL A   1      29.820  27.645  23.732  1.00  0.00     0.012 C 
ATOM     17  C   UNL A   1      32.919  25.273  24.339  1.00  0.00    -0.001 C 
ATOM     18  C   UNL A   1      30.875  24.793  26.262  1.00  0.00     0.005 C 
ATOM     19  C   UNL A   1      34.779  24.963  23.870  1.00  0.00     0.036 C 
ATOM     20  C   UNL A   1      31.949  24.002  25.449  1.00  0.00    -0.001 C 
ATOM     21  C   UNL A   1      35.712  23.388  24.574  1.00  0.00     0.118 C 
ATOM     22  C   UNL A   1      32.870  22.371  26.122  1.00  0.00    -0.024 C 
ATOM     23  C   UNL A   1      34.750  22.015  25.563  1.00  0.00     0.026 C 
ATOM     24  C   UNL A   1      32.004  21.083  25.751  1.00  0.00     0.010 C 
ATOM     25  C   UNL A   1      32.806  22.408  27.702  1.00  0.00     0.012 C 
ATOM     26  C   UNL A   1      34.955  20.749  24.704  1.00  0.00     0.038 C 
ATOM     27  C   UNL A   1      32.553  20.042  24.764  1.00  0.00     0.032 C 
ATOM     28  C   UNL A   1      33.998  19.624  25.001  1.00  0.00     0.114 C 
BRANCH  21  29
ATOM     29  O   UNL A   1      36.678  22.843  23.674  1.00  0.00    -0.393 OA
ATOM     30  H   UNL A   1      36.696  23.368  22.860  1.00  0.00     0.210 HD
ENDBRANCH  21  29
BRANCH  28  31
ATOM     31  O   UNL A   1      34.321  18.540  24.125  1.00  0.00    -0.393 OA
ATOM     32  H   UNL A   1      35.284  18.490  24.013  1.00  0.00     0.210 HD
ENDBRANCH  28  31
ENDBRANCH   8  10
ENDBRANCH   7   8
ENDBRANCH   6   7
ENDBRANCH   3   6
ENDBRANCH   1   2
BRANCH   1  33
ATOM     33  C   UNL A   1      33.210  34.763  29.128  1.00  0.00     0.042 C 
BRANCH  33  34
ATOM     34  C   UNL A   1      33.948  34.537  30.560  1.00  0.00     0.118 C 
BRANCH  34  35
ATOM     35  N   UNL A   1      35.487  33.572  31.401  1.00  0.00    -0.352 N 
ATOM     36  C   UNL A   1      36.207  32.374  31.839  1.00  0.00     0.251 C 
ATOM     37  H   UNL A   1      36.091  34.304  31.667  1.00  0.00     0.163 HD
ATOM     38  O   UNL A   1      35.904  31.724  32.849  1.00  0.00    -0.269 OA
BRANCH  36  39
ATOM     39  C   UNL A   1      37.612  32.095  31.468  1.00  0.00     0.039 A 
ATOM     40  C   UNL A   1      38.440  31.338  32.311  1.00  0.00     0.014 A 
ATOM     41  C   UNL A   1      38.156  32.605  30.315  1.00  0.00     0.014 A 
ATOM     42  C   UNL A   1      39.726  30.995  31.901  1.00  0.00     0.010 A 
ATOM     43  C   UNL A   1      39.332  32.129  29.809  1.00  0.00     0.010 A 
ATOM     44  C   UNL A   1      40.129  31.319  30.602  1.00  0.00    -0.014 A 
BRANCH  44  45
ATOM     45  C   UNL A   1      41.319  30.764  29.955  1.00  0.00     0.031 A 
ATOM     46  C   UNL A   1      42.468  31.671  29.640  1.00  0.00     0.074 A 
ATOM     47  C   UNL A   1      41.204  29.518  29.462  1.00  0.00     0.049 A 
ATOM     48  N   UNL A   1      43.542  31.424  28.942  1.00  0.00    -0.248 NA
ATOM     49  C   UNL A   1      42.365  33.070  30.102  1.00  0.00     0.031 C 
ATOM     50  C   UNL A   1      40.016  28.662  29.588  1.00  0.00     0.029 A 
ATOM     51  N   UNL A   1      42.075  28.764  28.732  1.00  0.00    -0.354 N 
ATOM     52  C   UNL A   1      44.225  32.630  28.873  1.00  0.00     0.074 A 
ATOM     53  C   UNL A   1      43.404  33.633  29.505  1.00  0.00     0.031 C 
ATOM     54  C   UNL A   1      40.257  27.481  29.004  1.00  0.00     0.029 A 
ATOM     55  C   UNL A   1      41.594  27.513  28.436  1.00  0.00     0.049 A 
ATOM     56  H   UNL A   1      42.960  29.085  28.446  1.00  0.00     0.167 HD
ATOM     57  C   UNL A   1      45.455  32.854  28.357  1.00  0.00     0.037 A 
ATOM     58  C   UNL A   1      42.198  26.504  27.787  1.00  0.00     0.037 A 
ATOM     59  C   UNL A   1      46.233  31.806  27.756  1.00  0.00     0.049 A 
ATOM     60  C   UNL A   1      43.601  26.746  27.313  1.00  0.00     0.074 A 
ATOM     61  C   UNL A   1      47.524  31.847  27.272  1.00  0.00     0.029 A 
ATOM     62  N   UNL A   1      45.768  30.508  27.565  1.00  0.00    -0.354 N 
ATOM     63  N   UNL A   1      44.309  27.852  27.366  1.00  0.00    -0.248 NA
ATOM     64  C   UNL A   1      44.301  25.609  26.714  1.00  0.00     0.031 C 
ATOM     65  C   UNL A   1      47.827  30.583  26.753  1.00  0.00     0.029 A 
ATOM     66  C   UNL A   1      46.743  29.740  26.960  1.00  0.00     0.049 A 
ATOM     67  H   UNL A   1      44.875  30.185  27.824  1.00  0.00     0.167 HD
ATOM     68  C   UNL A   1      45.547  27.542  26.830  1.00  0.00     0.074 A 
ATOM     69  C   UNL A   1      45.495  26.133  26.480  1.00  0.00     0.031 C 
ATOM     70  C   UNL A   1      46.628  28.338  26.637  1.00  0.00     0.037 A 
BRANCH  57  71
ATOM     71  C   UNL A   1      46.012  34.247  28.460  1.00  0.00     0.064 A 
ATOM     72  C   UNL A   1      45.828  35.189  27.434  1.00  0.00     0.173 A 
ATOM     73  C   UNL A   1      46.744  34.649  29.586  1.00  0.00     0.173 A 
ATOM     74  F   UNL A   1      45.149  34.859  26.324  1.00  0.00    -0.203 F 
ATOM     75  C   UNL A   1      46.389  36.463  27.512  1.00  0.00     0.198 A 
ATOM     76  C   UNL A   1      47.274  35.935  29.677  1.00  0.00     0.198 A 
ATOM     77  F   UNL A   1      46.955  33.794  30.597  1.00  0.00    -0.203 F 
ATOM     78  F   UNL A   1      46.255  37.318  26.489  1.00  0.00    -0.200 F 
ATOM     79  C   UNL A   1      47.106  36.837  28.638  1.00  0.00     0.200 A 
ATOM     80  F   UNL A   1      47.960  36.300  30.771  1.00  0.00    -0.200 F 
ATOM     81  F   UNL A   1      47.644  38.062  28.715  1.00  0.00    -0.200 F 
ENDBRANCH  57  71
BRANCH  58  82
ATOM     82  C   UNL A   1      41.517  25.190  27.658  1.00  0.00     0.064 A 
ATOM     83  C   UNL A   1      40.457  25.023  26.754  1.00  0.00     0.173 A 
ATOM     84  C   UNL A   1      41.941  24.064  28.377  1.00  0.00     0.173 A 
ATOM     85  F   UNL A   1      40.018  26.067  26.038  1.00  0.00    -0.203 F 
ATOM     86  C   UNL A   1      39.832  23.787  26.596  1.00  0.00     0.198 A 
ATOM     87  C   UNL A   1      41.333  22.821  28.197  1.00  0.00     0.198 A 
ATOM     88  F   UNL A   1      42.970  24.159  29.232  1.00  0.00    -0.203 F 
ATOM     89  F   UNL A   1      38.799  23.667  25.751  1.00  0.00    -0.200 F 
ATOM     90  C   UNL A   1      40.274  22.687  27.314  1.00  0.00     0.200 A 
ATOM     91  F   UNL A   1      41.781  21.754  28.872  1.00  0.00    -0.200 F 
ATOM     92  F   UNL A   1      39.678  21.497  27.152  1.00  0.00    -0.200 F 
ENDBRANCH  58  82
BRANCH  70  93
ATOM     93  C   UNL A   1      47.832  27.683  26.037  1.00  0.00     0.064 A 
ATOM     94  C   UNL A   1      47.969  27.540  24.650  1.00  0.00     0.173 A 
ATOM     95  C   UNL A   1      48.874  27.236  26.861  1.00  0.00     0.173 A 
ATOM     96  F   UNL A   1      46.988  27.940  23.828  1.00  0.00    -0.203 F 
ATOM     97  C   UNL A   1      49.102  26.942  24.108  1.00  0.00     0.198 A 
ATOM     98  C   UNL A   1      50.020  26.672  26.313  1.00  0.00     0.198 A 
ATOM     99  F   UNL A   1      48.786  27.362  28.193  1.00  0.00    -0.203 F 
ATOM    100  F   UNL A   1      49.192  26.765  22.783  1.00  0.00    -0.200 F 
ATOM    101  C   UNL A   1      50.129  26.518  24.939  1.00  0.00     0.200 A 
ATOM    102  F   UNL A   1      51.019  26.278  27.114  1.00  0.00    -0.200 F 
ATOM    103  F   UNL A   1      51.223  25.953  24.414  1.00  0.00    -0.200 F 
ENDBRANCH  70  93
ENDBRANCH  44  45
ENDBRANCH  36  39
ENDBRANCH  34  35
ENDBRANCH  33  34
ENDBRANCH   1  33
TORSDOF 15
ENDMDL
MODEL 3
REMARK VINA RESULT:     -13.7      5.168     10.583
REMARK SMILES C[C@H](CCC(=O)NCCCNC(=O)c1ccc(-c2c3nc(c(-c4c(F)c(F)c(F)c(F)c4F)c4ccc([nH]4)c(-c4c(F)c(F)c(F)c(F)c4F)c4nc(c(-c5c(F)c(F)c(F)c(F)c5F)c5ccc2[nH]5)C=C4)C=C3)cc1)[C@H]1CC[C@H]2C3C[C@H](O)[C@@H]4C[C@H](O)CC[C@]4(C)[C@H]3CC[C@@]12C
REMARK SMILES IDX 8 1 7 2 5 3 6 4 4 6 3 7 2 8 1 9 77 10 78 11 96 12 79 13
REMARK SMILES IDX 80 14 95 15 97 16 81 17 94 18 82 19 93 20 83 21 91 22 85 23
REMARK SMILES IDX 90 24 92 25 86 26 89 27 87 28 84 29 88 31 9 33 10 34 11 35
REMARK SMILES IDX 12 36 13 38 14 39 15 40 76 41 16 42 75 43 17 44 18 45 19 46
REMARK SMILES IDX 69 47 20 48 74 49 68 50 70 51 21 52 73 53 67 54 66 55 22 57
REMARK SMILES IDX 54 58 34 59 53 60 35 61 38 62 52 63 71 64 36 65 37 66 51 68
REMARK SMILES IDX 72 69 39 70 23 71 24 72 32 73 25 74 26 75 30 76 33 77 27 78
REMARK SMILES IDX 28 79 31 80 29 81 55 82 56 83 64 84 57 85 58 86 62 87 65 88
REMARK SMILES IDX 59 89 60 90 63 91 61 92 40 93 41 94 49 95 42 96 43 97 47 98
REMARK SMILES IDX 50 99 44 100 45 101 48 102 46 103
REMARK H PARENT 7 5 84 30 88 32 11 37 70 56 38 67
REMARK Flexibility Score: inf
ROOT
ATOM      1  C   UNL A   1      33.260  33.716  27.990  1.00  0.00     0.117 C 
ENDROOT
BRANCH   1   2
ATOM      2  N   UNL A   1      34.442  32.874  28.036  1.00  0.00    -0.356 N 
ATOM      3  C   UNL A   1      34.569  31.518  27.873  1.00  0.00     0.220 C 
ATOM      4  O   UNL A   1      35.665  31.024  28.147  1.00  0.00    -0.275 OA
ATOM      5  H   UNL A   1      35.286  33.351  28.212  1.00  0.00     0.163 HD
BRANCH   3   6
ATOM      6  C   UNL A   1      33.444  30.653  27.279  1.00  0.00     0.100 C 
BRANCH   6   7
ATOM      7  C   UNL A   1      33.756  29.265  26.598  1.00  0.00     0.013 C 
BRANCH   7   8
ATOM      8  C   UNL A   1      32.494  28.448  26.194  1.00  0.00    -0.010 C 
ATOM      9  C   UNL A   1      31.455  28.385  27.324  1.00  0.00     0.008 C 
BRANCH   8  10
ATOM     10  C   UNL A   1      31.739  28.551  24.814  1.00  0.00    -0.002 C 
ATOM     11  C   UNL A   1      32.559  28.883  23.454  1.00  0.00     0.005 C 
ATOM     12  C   UNL A   1      31.046  27.136  24.418  1.00  0.00    -0.026 C 
ATOM     13  C   UNL A   1      32.544  27.563  22.547  1.00  0.00     0.005 C 
ATOM     14  C   UNL A   1      32.267  26.543  23.637  1.00  0.00    -0.001 C 
ATOM     15  C   UNL A   1      30.325  26.113  25.404  1.00  0.00     0.007 C 
ATOM     16  C   UNL A   1      29.836  27.625  23.530  1.00  0.00     0.012 C 
ATOM     17  C   UNL A   1      32.924  25.251  24.187  1.00  0.00    -0.001 C 
ATOM     18  C   UNL A   1      30.887  24.837  26.133  1.00  0.00     0.005 C 
ATOM     19  C   UNL A   1      34.779  24.916  23.717  1.00  0.00     0.036 C 
ATOM     20  C   UNL A   1      31.952  24.018  25.337  1.00  0.00    -0.001 C 
ATOM     21  C   UNL A   1      35.706  23.355  24.459  1.00  0.00     0.118 C 
ATOM     22  C   UNL A   1      32.866  22.400  26.050  1.00  0.00    -0.024 C 
ATOM     23  C   UNL A   1      34.740  22.017  25.492  1.00  0.00     0.026 C 
ATOM     24  C   UNL A   1      31.990  21.107  25.719  1.00  0.00     0.010 C 
ATOM     25  C   UNL A   1      32.810  22.481  27.628  1.00  0.00     0.012 C 
ATOM     26  C   UNL A   1      34.933  20.725  24.667  1.00  0.00     0.038 C 
ATOM     27  C   UNL A   1      32.527  20.036  24.759  1.00  0.00     0.032 C 
ATOM     28  C   UNL A   1      33.971  19.615  25.000  1.00  0.00     0.114 C 
BRANCH  21  29
ATOM     29  O   UNL A   1      36.664  22.779  23.571  1.00  0.00    -0.393 OA
ATOM     30  H   UNL A   1      37.254  22.192  24.067  1.00  0.00     0.210 HD
ENDBRANCH  21  29
BRANCH  28  31
ATOM     31  O   UNL A   1      34.282  18.505  24.153  1.00  0.00    -0.393 OA
ATOM     32  H   UNL A   1      35.161  18.632  23.763  1.00  0.00     0.210 HD
ENDBRANCH  28  31
ENDBRANCH   8  10
ENDBRANCH   7   8
ENDBRANCH   6   7
ENDBRANCH   3   6
ENDBRANCH   1   2
BRANCH   1  33
ATOM     33  C   UNL A   1      33.288  34.721  29.134  1.00  0.00     0.042 C 
BRANCH  33  34
ATOM     34  C   UNL A   1      34.027  34.431  30.553  1.00  0.00     0.118 C 
BRANCH  34  35
ATOM     35  N   UNL A   1      35.521  33.369  31.361  1.00  0.00    -0.352 N 
ATOM     36  C   UNL A   1      36.206  32.125  31.720  1.00  0.00     0.251 C 
ATOM     37  H   UNL A   1      36.125  34.065  31.710  1.00  0.00     0.163 HD
ATOM     38  O   UNL A   1      35.857  31.398  32.659  1.00  0.00    -0.269 OA
BRANCH  36  39
ATOM     39  C   UNL A   1      37.619  31.854  31.374  1.00  0.00     0.039 A 
ATOM     40  C   UNL A   1      38.425  31.071  32.215  1.00  0.00     0.014 A 
ATOM     41  C   UNL A   1      38.191  32.394  30.249  1.00  0.00     0.014 A 
ATOM     42  C   UNL A   1      39.720  30.737  31.827  1.00  0.00     0.010 A 
ATOM     43  C   UNL A   1      39.379  31.929  29.758  1.00  0.00     0.010 A 
ATOM     44  C   UNL A   1      40.155  31.096  30.548  1.00  0.00    -0.014 A 
BRANCH  44  45
ATOM     45  C   UNL A   1      41.358  30.556  29.914  1.00  0.00     0.031 A 
ATOM     46  C   UNL A   1      42.516  31.469  29.649  1.00  0.00     0.074 A 
ATOM     47  C   UNL A   1      41.254  29.324  29.385  1.00  0.00     0.049 A 
ATOM     48  N   UNL A   1      43.606  31.239  28.970  1.00  0.00    -0.248 NA
ATOM     49  C   UNL A   1      42.404  32.855  30.147  1.00  0.00     0.031 C 
ATOM     50  C   UNL A   1      40.062  28.467  29.460  1.00  0.00     0.029 A 
ATOM     51  N   UNL A   1      42.140  28.587  28.656  1.00  0.00    -0.354 N 
ATOM     52  C   UNL A   1      44.291  32.445  28.949  1.00  0.00     0.074 A 
ATOM     53  C   UNL A   1      43.456  33.432  29.589  1.00  0.00     0.031 C 
ATOM     54  C   UNL A   1      40.315  27.301  28.852  1.00  0.00     0.029 A 
ATOM     55  C   UNL A   1      41.665  27.345  28.316  1.00  0.00     0.049 A 
ATOM     56  H   UNL A   1      43.033  28.914  28.399  1.00  0.00     0.167 HD
ATOM     57  C   UNL A   1      45.533  32.680  28.469  1.00  0.00     0.037 A 
ATOM     58  C   UNL A   1      42.283  26.353  27.654  1.00  0.00     0.037 A 
ATOM     59  C   UNL A   1      46.324  31.647  27.858  1.00  0.00     0.049 A 
ATOM     60  C   UNL A   1      43.697  26.606  27.219  1.00  0.00     0.074 A 
ATOM     61  C   UNL A   1      47.626  31.699  27.405  1.00  0.00     0.029 A 
ATOM     62  N   UNL A   1      45.862  30.355  27.622  1.00  0.00    -0.354 N 
ATOM     63  N   UNL A   1      44.405  27.708  27.319  1.00  0.00    -0.248 NA
ATOM     64  C   UNL A   1      44.409  25.483  26.607  1.00  0.00     0.031 C 
ATOM     65  C   UNL A   1      47.939  30.449  26.861  1.00  0.00     0.029 A 
ATOM     66  C   UNL A   1      46.850  29.602  27.019  1.00  0.00     0.049 A 
ATOM     67  H   UNL A   1      44.963  30.027  27.851  1.00  0.00     0.167 HD
ATOM     68  C   UNL A   1      45.654  27.410  26.804  1.00  0.00     0.074 A 
ATOM     69  C   UNL A   1      45.610  26.011  26.415  1.00  0.00     0.031 C 
ATOM     70  C   UNL A   1      46.741  28.209  26.656  1.00  0.00     0.037 A 
BRANCH  57  71
ATOM     71  C   UNL A   1      46.089  34.069  28.621  1.00  0.00     0.064 A 
ATOM     72  C   UNL A   1      46.749  34.472  29.794  1.00  0.00     0.173 A 
ATOM     73  C   UNL A   1      45.961  35.013  27.593  1.00  0.00     0.173 A 
ATOM     74  F   UNL A   1      46.890  33.617  30.820  1.00  0.00    -0.203 F 
ATOM     75  C   UNL A   1      47.219  35.774  29.949  1.00  0.00     0.198 A 
ATOM     76  C   UNL A   1      46.463  36.306  27.737  1.00  0.00     0.198 A 
ATOM     77  F   UNL A   1      45.339  34.689  26.449  1.00  0.00    -0.203 F 
ATOM     78  F   UNL A   1      47.783  36.150  31.105  1.00  0.00    -0.200 F 
ATOM     79  C   UNL A   1      47.082  36.689  28.917  1.00  0.00     0.200 A 
ATOM     80  F   UNL A   1      46.338  37.187  26.733  1.00  0.00    -0.200 F 
ATOM     81  F   UNL A   1      47.534  37.941  29.064  1.00  0.00    -0.200 F 
ENDBRANCH  57  71
BRANCH  58  82
ATOM     82  C   UNL A   1      41.604  25.044  27.475  1.00  0.00     0.064 A 
ATOM     83  C   UNL A   1      42.022  23.920  28.202  1.00  0.00     0.173 A 
ATOM     84  C   UNL A   1      40.491  24.897  26.635  1.00  0.00     0.173 A 
ATOM     85  F   UNL A   1      43.077  24.010  29.025  1.00  0.00    -0.203 F 
ATOM     86  C   UNL A   1      41.372  22.694  28.073  1.00  0.00     0.198 A 
ATOM     87  C   UNL A   1      39.824  23.677  26.527  1.00  0.00     0.198 A 
ATOM     88  F   UNL A   1      40.029  25.947  25.940  1.00  0.00    -0.203 F 
ATOM     89  F   UNL A   1      41.817  21.629  28.753  1.00  0.00    -0.200 F 
ATOM     90  C   UNL A   1      40.271  22.575  27.240  1.00  0.00     0.200 A 
ATOM     91  F   UNL A   1      38.744  23.572  25.742  1.00  0.00    -0.200 F 
ATOM     92  F   UNL A   1      39.640  21.398  27.124  1.00  0.00    -0.200 F 
ENDBRANCH  58  82
BRANCH  70  93
ATOM     93  C   UNL A   1      47.957  27.568  26.068  1.00  0.00     0.064 A 
ATOM     94  C   UNL A   1      48.124  27.454  24.682  1.00  0.00     0.173 A 
ATOM     95  C   UNL A   1      48.984  27.105  26.903  1.00  0.00     0.173 A 
ATOM     96  F   UNL A   1      47.158  27.871  23.848  1.00  0.00    -0.203 F 
ATOM     97  C   UNL A   1      49.268  26.870  24.150  1.00  0.00     0.198 A 
ATOM     98  C   UNL A   1      50.141  26.554  26.367  1.00  0.00     0.198 A 
ATOM     99  F   UNL A   1      48.868  27.203  28.236  1.00  0.00    -0.203 F 
ATOM    100  F   UNL A   1      49.385  26.721  22.823  1.00  0.00    -0.200 F 
ATOM    101  C   UNL A   1      50.278  26.429  24.993  1.00  0.00     0.200 A 
ATOM    102  F   UNL A   1      51.124  26.144  27.180  1.00  0.00    -0.200 F 
ATOM    103  F   UNL A   1      51.384  25.876  24.478  1.00  0.00    -0.200 F 
ENDBRANCH  70  93
ENDBRANCH  44  45
ENDBRANCH  36  39
ENDBRANCH  34  35
ENDBRANCH  33  34
ENDBRANCH   1  33
TORSDOF 15
ENDMDL
