MODEL 1
REMARK VINA RESULT:     -12.9      0.000      0.000
REMARK SMILES COC(=O)[C@H]1Sc2nnc(CCC(=O)NCCCNC(=O)c3ccc(-c4c5nc(c(-c6c(F)c(F)c(F)c(F)c6F)c6ccc([nH]6)c(-c6c(F)c(F)c(F)c(F)c6F)c6nc(c(-c7c(F)c(F)c(F)c(F)c7F)c7ccc4[nH]7)C=C6)C=C5)cc3)c(=O)n2N=C1C
REMARK SMILES IDX 16 1 15 2 13 3 14 4 12 6 11 7 10 8 5 9 6 10 89 11 7 12 88 13
REMARK SMILES IDX 90 14 8 15 87 16 9 17 85 18 86 19 3 20 4 21 2 22 1 23 17 24
REMARK SMILES IDX 18 25 19 26 20 27 21 29 22 30 23 31 84 32 24 33 83 34 25 35
REMARK SMILES IDX 26 36 27 37 77 38 28 39 82 40 76 41 78 42 29 43 81 44 75 45
REMARK SMILES IDX 74 46 30 48 62 49 42 50 61 51 43 52 46 53 60 54 79 55 44 56
REMARK SMILES IDX 45 57 59 59 80 60 47 61 31 62 32 63 40 64 33 65 34 66 38 67
REMARK SMILES IDX 41 68 35 69 36 70 39 71 37 72 63 73 64 74 72 75 65 76 66 77
REMARK SMILES IDX 70 78 73 79 67 80 68 81 71 82 69 83 48 84 49 85 57 86 50 87
REMARK SMILES IDX 51 88 55 89 58 90 52 91 53 92 56 93 54 94
REMARK H PARENT 15 5 19 28 78 47 46 58
REMARK Flexibility Score: inf
ROOT
ATOM      1  C   UNL A   1      31.987  30.077  25.623  1.00  0.00     0.117 C 
ENDROOT
BRANCH   1   2
ATOM      2  N   UNL A   1      30.951  30.255  24.615  1.00  0.00    -0.356 N 
ATOM      3  C   UNL A   1      30.316  29.384  23.776  1.00  0.00     0.220 C 
ATOM      4  O   UNL A   1      29.493  29.863  22.992  1.00  0.00    -0.275 OA
ATOM      5  H   UNL A   1      30.651  31.188  24.518  1.00  0.00     0.163 HD
BRANCH   3   6
ATOM      6  C   UNL A   1      30.551  27.877  23.810  1.00  0.00     0.106 C 
BRANCH   6   7
ATOM      7  C   UNL A   1      31.584  27.400  22.781  1.00  0.00     0.074 C 
BRANCH   7   8
ATOM      8  C   UNL A   1      31.559  25.898  22.680  1.00  0.00     0.131 A 
ATOM      9  C   UNL A   1      34.015  21.736  24.049  1.00  0.00     0.210 C 
ATOM     10  S   UNL A   1      32.371  21.601  23.242  1.00  0.00    -0.063 SA
ATOM     11  C   UNL A   1      34.740  22.982  23.556  1.00  0.00     0.061 C 
ATOM     12  C   UNL A   1      32.007  23.293  23.053  1.00  0.00     0.214 A 
ATOM     13  N   UNL A   1      34.304  23.870  22.731  1.00  0.00    -0.171 NA
ATOM     14  C   UNL A   1      36.159  23.338  23.855  1.00  0.00     0.065 C 
ATOM     15  N   UNL A   1      30.838  23.768  23.336  1.00  0.00    -0.123 NA
ATOM     16  N   UNL A   1      33.005  24.049  22.525  1.00  0.00    -0.169 N 
ATOM     17  N   UNL A   1      30.667  25.180  23.295  1.00  0.00    -0.147 NA
ATOM     18  C   UNL A   1      32.718  25.274  21.972  1.00  0.00     0.296 A 
ATOM     19  O   UNL A   1      33.342  25.883  21.137  1.00  0.00    -0.265 OA
BRANCH   9  20
ATOM     20  C   UNL A   1      33.794  21.279  25.493  1.00  0.00     0.325 C 
ATOM     21  O   UNL A   1      33.383  20.150  25.754  1.00  0.00    -0.250 OA
BRANCH  20  22
ATOM     22  O   UNL A   1      33.926  22.219  26.447  1.00  0.00    -0.468 OA
ATOM     23  C   UNL A   1      32.785  23.068  26.725  1.00  0.00     0.282 C 
ENDBRANCH  20  22
ENDBRANCH   9  20
ENDBRANCH   7   8
ENDBRANCH   6   7
ENDBRANCH   3   6
ENDBRANCH   1   2
BRANCH   1  24
ATOM     24  C   UNL A   1      31.847  31.045  26.823  1.00  0.00     0.042 C 
BRANCH  24  25
ATOM     25  C   UNL A   1      31.591  32.575  26.609  1.00  0.00     0.118 C 
BRANCH  25  26
ATOM     26  N   UNL A   1      32.441  33.633  27.315  1.00  0.00    -0.352 N 
ATOM     27  C   UNL A   1      33.633  34.029  27.922  1.00  0.00     0.251 C 
ATOM     28  H   UNL A   1      31.860  34.426  27.367  1.00  0.00     0.163 HD
ATOM     29  O   UNL A   1      33.696  35.256  28.096  1.00  0.00    -0.269 OA
BRANCH  27  30
ATOM     30  C   UNL A   1      34.817  33.281  28.502  1.00  0.00     0.039 A 
ATOM     31  C   UNL A   1      34.595  31.980  29.017  1.00  0.00     0.014 A 
ATOM     32  C   UNL A   1      36.099  33.774  28.700  1.00  0.00     0.014 A 
ATOM     33  C   UNL A   1      35.633  31.148  29.523  1.00  0.00     0.010 A 
ATOM     34  C   UNL A   1      37.162  32.917  29.106  1.00  0.00     0.010 A 
ATOM     35  C   UNL A   1      36.956  31.591  29.534  1.00  0.00    -0.014 A 
BRANCH  35  36
ATOM     36  C   UNL A   1      38.093  30.826  30.171  1.00  0.00     0.031 A 
ATOM     37  C   UNL A   1      38.426  31.132  31.619  1.00  0.00     0.074 A 
ATOM     38  C   UNL A   1      38.893  29.954  29.514  1.00  0.00     0.049 A 
ATOM     39  N   UNL A   1      39.424  30.724  32.366  1.00  0.00    -0.248 NA
ATOM     40  C   UNL A   1      37.529  32.081  32.295  1.00  0.00     0.031 C 
ATOM     41  C   UNL A   1      38.763  29.557  28.115  1.00  0.00     0.029 A 
ATOM     42  N   UNL A   1      40.013  29.262  29.944  1.00  0.00    -0.354 N 
ATOM     43  C   UNL A   1      39.275  31.383  33.582  1.00  0.00     0.074 A 
ATOM     44  C   UNL A   1      38.162  32.291  33.435  1.00  0.00     0.031 C 
ATOM     45  C   UNL A   1      39.764  28.712  27.797  1.00  0.00     0.029 A 
ATOM     46  C   UNL A   1      40.614  28.496  28.968  1.00  0.00     0.049 A 
ATOM     47  H   UNL A   1      40.351  29.313  30.867  1.00  0.00     0.167 HD
ATOM     48  C   UNL A   1      39.959  31.224  34.742  1.00  0.00     0.037 A 
ATOM     49  C   UNL A   1      41.709  27.701  29.012  1.00  0.00     0.037 A 
ATOM     50  C   UNL A   1      41.057  30.315  34.921  1.00  0.00     0.049 A 
ATOM     51  C   UNL A   1      42.479  27.537  30.304  1.00  0.00     0.074 A 
ATOM     52  C   UNL A   1      41.779  30.046  36.070  1.00  0.00     0.029 A 
ATOM     53  N   UNL A   1      41.594  29.525  33.916  1.00  0.00    -0.354 N 
ATOM     54  N   UNL A   1      42.271  28.102  31.468  1.00  0.00    -0.248 NA
ATOM     55  C   UNL A   1      43.625  26.608  30.292  1.00  0.00     0.031 C 
ATOM     56  C   UNL A   1      42.776  29.118  35.752  1.00  0.00     0.029 A 
ATOM     57  C   UNL A   1      42.645  28.776  34.416  1.00  0.00     0.049 A 
ATOM     58  H   UNL A   1      41.274  29.500  32.985  1.00  0.00     0.167 HD
ATOM     59  C   UNL A   1      43.225  27.573  32.331  1.00  0.00     0.074 A 
ATOM     60  C   UNL A   1      44.016  26.638  31.560  1.00  0.00     0.031 C 
ATOM     61  C   UNL A   1      43.420  27.836  33.647  1.00  0.00     0.037 A 
BRANCH  48  62
ATOM     62  C   UNL A   1      39.497  32.034  35.924  1.00  0.00     0.064 A 
ATOM     63  C   UNL A   1      40.108  33.256  36.251  1.00  0.00     0.173 A 
ATOM     64  C   UNL A   1      38.442  31.595  36.735  1.00  0.00     0.173 A 
ATOM     65  F   UNL A   1      41.133  33.717  35.516  1.00  0.00    -0.203 F 
ATOM     66  C   UNL A   1      39.714  33.981  37.371  1.00  0.00     0.198 A 
ATOM     67  C   UNL A   1      38.022  32.343  37.833  1.00  0.00     0.198 A 
ATOM     68  F   UNL A   1      37.815  30.440  36.467  1.00  0.00    -0.203 F 
ATOM     69  F   UNL A   1      40.366  35.105  37.702  1.00  0.00    -0.200 F 
ATOM     70  C   UNL A   1      38.667  33.528  38.158  1.00  0.00     0.200 A 
ATOM     71  F   UNL A   1      37.001  31.913  38.586  1.00  0.00    -0.200 F 
ATOM     72  F   UNL A   1      38.287  34.228  39.235  1.00  0.00    -0.200 F 
ENDBRANCH  48  62
BRANCH  49  73
ATOM     73  C   UNL A   1      42.102  26.911  27.809  1.00  0.00     0.064 A 
ATOM     74  C   UNL A   1      43.056  27.418  26.911  1.00  0.00     0.173 A 
ATOM     75  C   UNL A   1      41.564  25.646  27.533  1.00  0.00     0.173 A 
ATOM     76  F   UNL A   1      43.569  28.641  27.104  1.00  0.00    -0.203 F 
ATOM     77  C   UNL A   1      43.463  26.687  25.796  1.00  0.00     0.198 A 
ATOM     78  C   UNL A   1      41.986  24.907  26.426  1.00  0.00     0.198 A 
ATOM     79  F   UNL A   1      40.634  25.121  28.345  1.00  0.00    -0.203 F 
ATOM     80  F   UNL A   1      44.362  27.206  24.949  1.00  0.00    -0.200 F 
ATOM     81  C   UNL A   1      42.938  25.426  25.561  1.00  0.00     0.200 A 
ATOM     82  F   UNL A   1      41.476  23.688  26.201  1.00  0.00    -0.200 F 
ATOM     83  F   UNL A   1      43.345  24.715  24.500  1.00  0.00    -0.200 F 
ENDBRANCH  49  73
BRANCH  61  84
ATOM     84  C   UNL A   1      44.505  27.087  34.368  1.00  0.00     0.064 A 
ATOM     85  C   UNL A   1      45.786  27.631  34.536  1.00  0.00     0.173 A 
ATOM     86  C   UNL A   1      44.231  25.851  34.975  1.00  0.00     0.173 A 
ATOM     87  F   UNL A   1      46.100  28.807  33.970  1.00  0.00    -0.203 F 
ATOM     88  C   UNL A   1      46.757  26.960  35.276  1.00  0.00     0.198 A 
ATOM     89  C   UNL A   1      45.196  25.196  35.735  1.00  0.00     0.198 A 
ATOM     90  F   UNL A   1      43.017  25.293  34.854  1.00  0.00    -0.203 F 
ATOM     91  F   UNL A   1      47.982  27.486  35.404  1.00  0.00    -0.200 F 
ATOM     92  C   UNL A   1      46.458  25.749  35.883  1.00  0.00     0.200 A 
ATOM     93  F   UNL A   1      44.899  24.034  36.334  1.00  0.00    -0.200 F 
ATOM     94  F   UNL A   1      47.388  25.114  36.610  1.00  0.00    -0.200 F 
ENDBRANCH  61  84
ENDBRANCH  35  36
ENDBRANCH  27  30
ENDBRANCH  25  26
ENDBRANCH  24  25
ENDBRANCH   1  24
TORSDOF 14
ENDMDL
MODEL 2
REMARK VINA RESULT:     -12.7      0.177      1.945
REMARK SMILES COC(=O)[C@H]1Sc2nnc(CCC(=O)NCCCNC(=O)c3ccc(-c4c5nc(c(-c6c(F)c(F)c(F)c(F)c6F)c6ccc([nH]6)c(-c6c(F)c(F)c(F)c(F)c6F)c6nc(c(-c7c(F)c(F)c(F)c(F)c7F)c7ccc4[nH]7)C=C6)C=C5)cc3)c(=O)n2N=C1C
REMARK SMILES IDX 16 1 15 2 13 3 14 4 12 6 11 7 10 8 5 9 6 10 89 11 7 12 88 13
REMARK SMILES IDX 90 14 8 15 87 16 9 17 85 18 86 19 3 20 4 21 2 22 1 23 17 24
REMARK SMILES IDX 18 25 19 26 20 27 21 29 22 30 23 31 84 32 24 33 83 34 25 35
REMARK SMILES IDX 26 36 27 37 77 38 28 39 82 40 76 41 78 42 29 43 81 44 75 45
REMARK SMILES IDX 74 46 30 48 62 49 42 50 61 51 43 52 46 53 60 54 79 55 44 56
REMARK SMILES IDX 45 57 59 59 80 60 47 61 31 62 32 63 40 64 33 65 34 66 38 67
REMARK SMILES IDX 41 68 35 69 36 70 39 71 37 72 63 73 64 74 72 75 65 76 66 77
REMARK SMILES IDX 70 78 73 79 67 80 68 81 71 82 69 83 48 84 49 85 57 86 50 87
REMARK SMILES IDX 51 88 55 89 58 90 52 91 53 92 56 93 54 94
REMARK H PARENT 15 5 19 28 78 47 46 58
REMARK Flexibility Score: inf
ROOT
ATOM      1  C   UNL A   1      31.961  29.928  25.661  1.00  0.00     0.117 C 
ENDROOT
BRANCH   1   2
ATOM      2  N   UNL A   1      30.958  30.240  24.651  1.00  0.00    -0.356 N 
ATOM      3  C   UNL A   1      30.275  29.468  23.755  1.00  0.00     0.220 C 
ATOM      4  O   UNL A   1      29.502  30.051  22.990  1.00  0.00    -0.275 OA
ATOM      5  H   UNL A   1      30.729  31.196  24.605  1.00  0.00     0.163 HD
BRANCH   3   6
ATOM      6  C   UNL A   1      30.398  27.948  23.704  1.00  0.00     0.106 C 
BRANCH   6   7
ATOM      7  C   UNL A   1      31.584  27.463  22.861  1.00  0.00     0.074 C 
BRANCH   7   8
ATOM      8  C   UNL A   1      31.545  25.963  22.730  1.00  0.00     0.131 A 
ATOM      9  C   UNL A   1      33.957  21.752  24.025  1.00  0.00     0.210 C 
ATOM     10  S   UNL A   1      32.316  21.648  23.208  1.00  0.00    -0.063 SA
ATOM     11  C   UNL A   1      34.697  23.001  23.561  1.00  0.00     0.061 C 
ATOM     12  C   UNL A   1      31.969  23.347  23.051  1.00  0.00     0.214 A 
ATOM     13  N   UNL A   1      34.273  23.910  22.753  1.00  0.00    -0.171 NA
ATOM     14  C   UNL A   1      36.117  23.338  23.875  1.00  0.00     0.065 C 
ATOM     15  N   UNL A   1      30.802  23.827  23.338  1.00  0.00    -0.123 NA
ATOM     16  N   UNL A   1      32.976  24.105  22.544  1.00  0.00    -0.169 N 
ATOM     17  N   UNL A   1      30.645  25.240  23.326  1.00  0.00    -0.147 NA
ATOM     18  C   UNL A   1      32.703  25.343  22.014  1.00  0.00     0.296 A 
ATOM     19  O   UNL A   1      33.336  25.964  21.196  1.00  0.00    -0.265 OA
BRANCH   9  20
ATOM     20  C   UNL A   1      33.725  21.267  25.458  1.00  0.00     0.325 C 
ATOM     21  O   UNL A   1      33.202  20.179  25.692  1.00  0.00    -0.250 OA
BRANCH  20  22
ATOM     22  O   UNL A   1      33.981  22.152  26.440  1.00  0.00    -0.468 OA
ATOM     23  C   UNL A   1      33.054  23.251  26.622  1.00  0.00     0.282 C 
ENDBRANCH  20  22
ENDBRANCH   9  20
ENDBRANCH   7   8
ENDBRANCH   6   7
ENDBRANCH   3   6
ENDBRANCH   1   2
BRANCH   1  24
ATOM     24  C   UNL A   1      31.949  30.909  26.859  1.00  0.00     0.042 C 
BRANCH  24  25
ATOM     25  C   UNL A   1      31.660  32.434  26.659  1.00  0.00     0.118 C 
BRANCH  25  26
ATOM     26  N   UNL A   1      32.526  33.505  27.327  1.00  0.00    -0.352 N 
ATOM     27  C   UNL A   1      33.728  33.907  27.910  1.00  0.00     0.251 C 
ATOM     28  H   UNL A   1      31.952  34.303  27.363  1.00  0.00     0.163 HD
ATOM     29  O   UNL A   1      33.802  35.138  28.049  1.00  0.00    -0.269 OA
BRANCH  27  30
ATOM     30  C   UNL A   1      34.911  33.166  28.499  1.00  0.00     0.039 A 
ATOM     31  C   UNL A   1      34.679  31.893  29.077  1.00  0.00     0.014 A 
ATOM     32  C   UNL A   1      36.204  33.646  28.649  1.00  0.00     0.014 A 
ATOM     33  C   UNL A   1      35.714  31.067  29.599  1.00  0.00     0.010 A 
ATOM     34  C   UNL A   1      37.263  32.790  29.072  1.00  0.00     0.010 A 
ATOM     35  C   UNL A   1      37.043  31.488  29.564  1.00  0.00    -0.014 A 
BRANCH  35  36
ATOM     36  C   UNL A   1      38.182  30.733  30.211  1.00  0.00     0.031 A 
ATOM     37  C   UNL A   1      38.513  31.058  31.655  1.00  0.00     0.074 A 
ATOM     38  C   UNL A   1      38.983  29.854  29.566  1.00  0.00     0.049 A 
ATOM     39  N   UNL A   1      39.510  30.661  32.408  1.00  0.00    -0.248 NA
ATOM     40  C   UNL A   1      37.613  32.014  32.318  1.00  0.00     0.031 C 
ATOM     41  C   UNL A   1      38.855  29.440  28.171  1.00  0.00     0.029 A 
ATOM     42  N   UNL A   1      40.105  29.170  30.005  1.00  0.00    -0.354 N 
ATOM     43  C   UNL A   1      39.359  31.335  33.616  1.00  0.00     0.074 A 
ATOM     44  C   UNL A   1      38.245  32.239  33.456  1.00  0.00     0.031 C 
ATOM     45  C   UNL A   1      39.858  28.592  27.865  1.00  0.00     0.029 A 
ATOM     46  C   UNL A   1      40.707  28.392  29.040  1.00  0.00     0.049 A 
ATOM     47  H   UNL A   1      40.442  29.233  30.928  1.00  0.00     0.167 HD
ATOM     48  C   UNL A   1      40.042  31.192  34.778  1.00  0.00     0.037 A 
ATOM     49  C   UNL A   1      41.804  27.600  29.095  1.00  0.00     0.037 A 
ATOM     50  C   UNL A   1      41.142  30.286  34.969  1.00  0.00     0.049 A 
ATOM     51  C   UNL A   1      42.573  27.454  30.389  1.00  0.00     0.074 A 
ATOM     52  C   UNL A   1      41.862  30.034  36.123  1.00  0.00     0.029 A 
ATOM     53  N   UNL A   1      41.681  29.486  33.975  1.00  0.00    -0.354 N 
ATOM     54  N   UNL A   1      42.363  28.032  31.546  1.00  0.00    -0.248 NA
ATOM     55  C   UNL A   1      43.720  26.527  30.391  1.00  0.00     0.031 C 
ATOM     56  C   UNL A   1      42.862  29.104  35.818  1.00  0.00     0.029 A 
ATOM     57  C   UNL A   1      42.733  28.744  34.486  1.00  0.00     0.049 A 
ATOM     58  H   UNL A   1      41.362  29.448  33.044  1.00  0.00     0.167 HD
ATOM     59  C   UNL A   1      43.317  27.516  32.417  1.00  0.00     0.074 A 
ATOM     60  C   UNL A   1      44.110  26.573  31.659  1.00  0.00     0.031 C 
ATOM     61  C   UNL A   1      43.510  27.796  33.730  1.00  0.00     0.037 A 
BRANCH  48  62
ATOM     62  C   UNL A   1      39.578  32.016  35.949  1.00  0.00     0.064 A 
ATOM     63  C   UNL A   1      38.509  31.593  36.757  1.00  0.00     0.173 A 
ATOM     64  C   UNL A   1      40.198  33.231  36.271  1.00  0.00     0.173 A 
ATOM     65  F   UNL A   1      37.870  30.444  36.486  1.00  0.00    -0.203 F 
ATOM     66  C   UNL A   1      38.048  32.378  37.810  1.00  0.00     0.198 A 
ATOM     67  C   UNL A   1      39.760  33.995  37.351  1.00  0.00     0.198 A 
ATOM     68  F   UNL A   1      41.228  33.682  35.540  1.00  0.00    -0.203 F 
ATOM     69  F   UNL A   1      36.978  31.985  38.517  1.00  0.00    -0.200 F 
ATOM     70  C   UNL A   1      38.678  33.575  38.111  1.00  0.00     0.200 A 
ATOM     71  F   UNL A   1      40.378  35.146  37.651  1.00  0.00    -0.200 F 
ATOM     72  F   UNL A   1      38.235  34.328  39.126  1.00  0.00    -0.200 F 
ENDBRANCH  48  62
BRANCH  49  73
ATOM     73  C   UNL A   1      42.199  26.795  27.902  1.00  0.00     0.064 A 
ATOM     74  C   UNL A   1      41.642  25.523  27.692  1.00  0.00     0.173 A 
ATOM     75  C   UNL A   1      43.109  27.268  26.947  1.00  0.00     0.173 A 
ATOM     76  F   UNL A   1      40.801  25.006  28.598  1.00  0.00    -0.203 F 
ATOM     77  C   UNL A   1      41.970  24.764  26.570  1.00  0.00     0.198 A 
ATOM     78  C   UNL A   1      43.423  26.514  25.813  1.00  0.00     0.198 A 
ATOM     79  F   UNL A   1      43.688  28.467  27.106  1.00  0.00    -0.203 F 
ATOM     80  F   UNL A   1      41.436  23.546  26.408  1.00  0.00    -0.200 F 
ATOM     81  C   UNL A   1      42.851  25.265  25.624  1.00  0.00     0.200 A 
ATOM     82  F   UNL A   1      44.276  27.001  24.901  1.00  0.00    -0.200 F 
ATOM     83  F   UNL A   1      43.150  24.543  24.535  1.00  0.00    -0.200 F 
ENDBRANCH  49  73
BRANCH  61  84
ATOM     84  C   UNL A   1      44.596  27.059  34.461  1.00  0.00     0.064 A 
ATOM     85  C   UNL A   1      44.349  25.839  35.107  1.00  0.00     0.173 A 
ATOM     86  C   UNL A   1      45.917  27.533  34.436  1.00  0.00     0.173 A 
ATOM     87  F   UNL A   1      43.102  25.346  35.166  1.00  0.00    -0.203 F 
ATOM     88  C   UNL A   1      45.383  25.128  35.712  1.00  0.00     0.198 A 
ATOM     89  C   UNL A   1      46.951  26.806  35.018  1.00  0.00     0.198 A 
ATOM     90  F   UNL A   1      46.208  28.688  33.819  1.00  0.00    -0.203 F 
ATOM     91  F   UNL A   1      45.120  23.977  36.346  1.00  0.00    -0.200 F 
ATOM     92  C   UNL A   1      46.684  25.606  35.658  1.00  0.00     0.200 A 
ATOM     93  F   UNL A   1      48.210  27.264  34.951  1.00  0.00    -0.200 F 
ATOM     94  F   UNL A   1      47.680  24.911  36.225  1.00  0.00    -0.200 F 
ENDBRANCH  61  84
ENDBRANCH  35  36
ENDBRANCH  27  30
ENDBRANCH  25  26
ENDBRANCH  24  25
ENDBRANCH   1  24
TORSDOF 14
ENDMDL
MODEL 3
REMARK VINA RESULT:     -12.3      4.390     10.413
REMARK SMILES COC(=O)[C@H]1Sc2nnc(CCC(=O)NCCCNC(=O)c3ccc(-c4c5nc(c(-c6c(F)c(F)c(F)c(F)c6F)c6ccc([nH]6)c(-c6c(F)c(F)c(F)c(F)c6F)c6nc(c(-c7c(F)c(F)c(F)c(F)c7F)c7ccc4[nH]7)C=C6)C=C5)cc3)c(=O)n2N=C1C
REMARK SMILES IDX 16 1 15 2 13 3 14 4 12 6 11 7 10 8 5 9 6 10 89 11 7 12 88 13
REMARK SMILES IDX 90 14 8 15 87 16 9 17 85 18 86 19 3 20 4 21 2 22 1 23 17 24
REMARK SMILES IDX 18 25 19 26 20 27 21 29 22 30 23 31 84 32 24 33 83 34 25 35
REMARK SMILES IDX 26 36 27 37 77 38 28 39 82 40 76 41 78 42 29 43 81 44 75 45
REMARK SMILES IDX 74 46 30 48 62 49 42 50 61 51 43 52 46 53 60 54 79 55 44 56
REMARK SMILES IDX 45 57 59 59 80 60 47 61 31 62 32 63 40 64 33 65 34 66 38 67
REMARK SMILES IDX 41 68 35 69 36 70 39 71 37 72 63 73 64 74 72 75 65 76 66 77
REMARK SMILES IDX 70 78 73 79 67 80 68 81 71 82 69 83 48 84 49 85 57 86 50 87
REMARK SMILES IDX 51 88 55 89 58 90 52 91 53 92 56 93 54 94
REMARK H PARENT 15 5 19 28 78 47 46 58
REMARK Flexibility Score: inf
ROOT
ATOM      1  C   UNL A   1      36.375  21.084  25.258  1.00  0.00     0.117 C 
ENDROOT
BRANCH   1   2
ATOM      2  N   UNL A   1      36.001  22.491  25.189  1.00  0.00    -0.356 N 
ATOM      3  C   UNL A   1      35.009  23.215  25.787  1.00  0.00     0.220 C 
ATOM      4  O   UNL A   1      34.931  24.409  25.487  1.00  0.00    -0.275 OA
ATOM      5  H   UNL A   1      36.577  23.024  24.595  1.00  0.00     0.163 HD
BRANCH   3   6
ATOM      6  C   UNL A   1      34.054  22.622  26.818  1.00  0.00     0.106 C 
BRANCH   6   7
ATOM      7  C   UNL A   1      32.921  21.798  26.193  1.00  0.00     0.074 C 
BRANCH   7   8
ATOM      8  C   UNL A   1      31.931  22.708  25.515  1.00  0.00     0.131 A 
ATOM      9  C   UNL A   1      30.760  27.537  24.785  1.00  0.00     0.210 C 
ATOM     10  S   UNL A   1      29.864  26.231  23.854  1.00  0.00    -0.063 SA
ATOM     11  C   UNL A   1      31.202  27.006  26.142  1.00  0.00     0.061 C 
ATOM     12  C   UNL A   1      30.699  24.828  24.461  1.00  0.00     0.214 A 
ATOM     13  N   UNL A   1      31.041  25.816  26.611  1.00  0.00    -0.171 NA
ATOM     14  C   UNL A   1      31.806  27.818  27.240  1.00  0.00     0.065 C 
ATOM     15  N   UNL A   1      31.084  23.878  23.672  1.00  0.00    -0.123 NA
ATOM     16  N   UNL A   1      30.846  24.775  25.811  1.00  0.00    -0.169 N 
ATOM     17  N   UNL A   1      31.887  22.842  24.224  1.00  0.00    -0.147 NA
ATOM     18  C   UNL A   1      31.119  23.575  26.424  1.00  0.00     0.296 A 
ATOM     19  O   UNL A   1      30.896  23.249  27.564  1.00  0.00    -0.265 OA
BRANCH   9  20
ATOM     20  C   UNL A   1      31.599  28.273  23.737  1.00  0.00     0.325 C 
ATOM     21  O   UNL A   1      31.097  29.092  22.970  1.00  0.00    -0.250 OA
BRANCH  20  22
ATOM     22  O   UNL A   1      32.876  27.870  23.600  1.00  0.00    -0.468 OA
ATOM     23  C   UNL A   1      33.253  27.221  22.360  1.00  0.00     0.282 C 
ENDBRANCH  20  22
ENDBRANCH   9  20
ENDBRANCH   7   8
ENDBRANCH   6   7
ENDBRANCH   3   6
ENDBRANCH   1   2
BRANCH   1  24
ATOM     24  C   UNL A   1      37.877  20.836  24.977  1.00  0.00     0.042 C 
BRANCH  24  25
ATOM     25  C   UNL A   1      38.564  19.482  25.359  1.00  0.00     0.118 C 
BRANCH  25  26
ATOM     26  N   UNL A   1      39.893  19.447  26.117  1.00  0.00    -0.352 N 
ATOM     27  C   UNL A   1      40.868  20.077  26.891  1.00  0.00     0.251 C 
ATOM     28  H   UNL A   1      40.222  18.527  26.002  1.00  0.00     0.163 HD
ATOM     29  O   UNL A   1      41.672  19.274  27.391  1.00  0.00    -0.269 OA
BRANCH  27  30
ATOM     30  C   UNL A   1      41.217  21.525  27.169  1.00  0.00     0.039 A 
ATOM     31  C   UNL A   1      40.680  22.516  26.311  1.00  0.00     0.014 A 
ATOM     32  C   UNL A   1      42.116  21.999  28.114  1.00  0.00     0.014 A 
ATOM     33  C   UNL A   1      40.874  23.913  26.507  1.00  0.00     0.010 A 
ATOM     34  C   UNL A   1      42.233  23.393  28.384  1.00  0.00     0.010 A 
ATOM     35  C   UNL A   1      41.625  24.381  27.585  1.00  0.00    -0.014 A 
BRANCH  35  36
ATOM     36  C   UNL A   1      41.986  25.834  27.789  1.00  0.00     0.031 A 
ATOM     37  C   UNL A   1      43.336  26.304  27.281  1.00  0.00     0.074 A 
ATOM     38  C   UNL A   1      41.230  26.723  28.474  1.00  0.00     0.049 A 
ATOM     39  N   UNL A   1      43.950  27.452  27.436  1.00  0.00    -0.248 NA
ATOM     40  C   UNL A   1      44.122  25.307  26.539  1.00  0.00     0.031 C 
ATOM     41  C   UNL A   1      39.924  26.457  29.073  1.00  0.00     0.029 A 
ATOM     42  N   UNL A   1      41.478  28.043  28.813  1.00  0.00    -0.354 N 
ATOM     43  C   UNL A   1      45.192  27.299  26.828  1.00  0.00     0.074 A 
ATOM     44  C   UNL A   1      45.283  25.922  26.401  1.00  0.00     0.031 C 
ATOM     45  C   UNL A   1      39.495  27.563  29.714  1.00  0.00     0.029 A 
ATOM     46  C   UNL A   1      40.489  28.628  29.574  1.00  0.00     0.049 A 
ATOM     47  H   UNL A   1      42.291  28.523  28.533  1.00  0.00     0.167 HD
ATOM     48  C   UNL A   1      46.160  28.218  26.593  1.00  0.00     0.037 A 
ATOM     49  C   UNL A   1      40.386  29.876  30.088  1.00  0.00     0.037 A 
ATOM     50  C   UNL A   1      46.086  29.597  26.991  1.00  0.00     0.049 A 
ATOM     51  C   UNL A   1      41.474  30.896  29.837  1.00  0.00     0.074 A 
ATOM     52  C   UNL A   1      46.992  30.615  26.753  1.00  0.00     0.029 A 
ATOM     53  N   UNL A   1      45.042  30.150  27.716  1.00  0.00    -0.354 N 
ATOM     54  N   UNL A   1      42.602  30.757  29.184  1.00  0.00    -0.248 NA
ATOM     55  C   UNL A   1      41.265  32.252  30.375  1.00  0.00     0.031 C 
ATOM     56  C   UNL A   1      46.512  31.778  27.364  1.00  0.00     0.029 A 
ATOM     57  C   UNL A   1      45.286  31.494  27.943  1.00  0.00     0.049 A 
ATOM     58  H   UNL A   1      44.245  29.660  28.022  1.00  0.00     0.167 HD
ATOM     59  C   UNL A   1      43.215  32.006  29.199  1.00  0.00     0.074 A 
ATOM     60  C   UNL A   1      42.334  32.896  29.924  1.00  0.00     0.031 C 
ATOM     61  C   UNL A   1      44.398  32.379  28.653  1.00  0.00     0.037 A 
BRANCH  48  62
ATOM     62  C   UNL A   1      47.369  27.755  25.826  1.00  0.00     0.064 A 
ATOM     63  C   UNL A   1      48.535  27.338  26.490  1.00  0.00     0.173 A 
ATOM     64  C   UNL A   1      47.371  27.725  24.424  1.00  0.00     0.173 A 
ATOM     65  F   UNL A   1      48.594  27.359  27.830  1.00  0.00    -0.203 F 
ATOM     66  C   UNL A   1      49.670  26.956  25.780  1.00  0.00     0.198 A 
ATOM     67  C   UNL A   1      48.495  27.304  23.717  1.00  0.00     0.198 A 
ATOM     68  F   UNL A   1      46.283  28.105  23.737  1.00  0.00    -0.203 F 
ATOM     69  F   UNL A   1      50.793  26.635  26.439  1.00  0.00    -0.200 F 
ATOM     70  C   UNL A   1      49.648  26.933  24.395  1.00  0.00     0.200 A 
ATOM     71  F   UNL A   1      48.469  27.268  22.378  1.00  0.00    -0.200 F 
ATOM     72  F   UNL A   1      50.740  26.563  23.713  1.00  0.00    -0.200 F 
ENDBRANCH  48  62
BRANCH  49  73
ATOM     73  C   UNL A   1      39.151  30.276  30.824  1.00  0.00     0.064 A 
ATOM     74  C   UNL A   1      39.087  30.145  32.221  1.00  0.00     0.173 A 
ATOM     75  C   UNL A   1      38.028  30.806  30.173  1.00  0.00     0.173 A 
ATOM     76  F   UNL A   1      40.116  29.603  32.887  1.00  0.00    -0.203 F 
ATOM     77  C   UNL A   1      37.957  30.540  32.936  1.00  0.00     0.198 A 
ATOM     78  C   UNL A   1      36.904  31.218  30.892  1.00  0.00     0.198 A 
ATOM     79  F   UNL A   1      38.025  30.934  28.838  1.00  0.00    -0.203 F 
ATOM     80  F   UNL A   1      37.921  30.385  34.266  1.00  0.00    -0.200 F 
ATOM     81  C   UNL A   1      36.870  31.088  32.272  1.00  0.00     0.200 A 
ATOM     82  F   UNL A   1      35.854  31.747  30.248  1.00  0.00    -0.200 F 
ATOM     83  F   UNL A   1      35.793  31.487  32.962  1.00  0.00    -0.200 F 
ENDBRANCH  49  73
BRANCH  61  84
ATOM     84  C   UNL A   1      44.815  33.817  28.775  1.00  0.00     0.064 A 
ATOM     85  C   UNL A   1      44.417  34.779  27.836  1.00  0.00     0.173 A 
ATOM     86  C   UNL A   1      45.544  34.253  29.893  1.00  0.00     0.173 A 
ATOM     87  F   UNL A   1      43.725  34.414  26.746  1.00  0.00    -0.203 F 
ATOM     88  C   UNL A   1      44.744  36.123  28.007  1.00  0.00     0.198 A 
ATOM     89  C   UNL A   1      45.846  35.600  30.072  1.00  0.00     0.198 A 
ATOM     90  F   UNL A   1      45.938  33.374  30.827  1.00  0.00    -0.203 F 
ATOM     91  F   UNL A   1      44.375  37.022  27.084  1.00  0.00    -0.200 F 
ATOM     92  C   UNL A   1      45.448  36.533  29.128  1.00  0.00     0.200 A 
ATOM     93  F   UNL A   1      46.514  35.995  31.166  1.00  0.00    -0.200 F 
ATOM     94  F   UNL A   1      45.746  37.829  29.299  1.00  0.00    -0.200 F 
ENDBRANCH  61  84
ENDBRANCH  35  36
ENDBRANCH  27  30
ENDBRANCH  25  26
ENDBRANCH  24  25
ENDBRANCH   1  24
TORSDOF 14
ENDMDL
