MODEL 1
REMARK VINA RESULT:     -16.0      0.000      0.000
REMARK SMILES Cc1ccc(-c2cc(C(=O)NCCCNC(=O)c3ccc(-c4c5nc(c(-c6c(F)c(F)c(F)c(F)c6F)c6ccc([nH]6)c(-c6c(F)c(F)c(F)c(F)c6F)c6nc(c(-c7c(F)c(F)c(F)c(F)c7F)c7ccc4[nH]7)C=C6)C=C5)cc3)c3c(-c4cccc([N+](=O)[O-])c4)[nH]nc3n2)cc1
REMARK SMILES IDX 13 1 12 2 11 3 9 4 10 5 8 7 6 8 7 9 95 10 94 11 81 12 93 13
REMARK SMILES IDX 82 14 92 15 5 17 1 18 2 19 3 20 97 21 4 22 96 23 83 24 84 25
REMARK SMILES IDX 91 26 85 27 87 28 86 29 88 30 89 31 90 32 14 33 15 34 16 35
REMARK SMILES IDX 17 37 18 38 19 39 80 40 20 41 79 42 21 43 22 44 23 45 73 46
REMARK SMILES IDX 24 47 78 48 72 49 74 50 25 51 77 52 71 53 70 54 26 56 58 57
REMARK SMILES IDX 38 58 57 59 39 60 42 61 56 62 75 63 40 64 41 65 55 67 76 68
REMARK SMILES IDX 43 69 27 70 28 71 36 72 29 73 30 74 34 75 37 76 31 77 32 78
REMARK SMILES IDX 35 79 33 80 59 81 60 82 68 83 61 84 62 85 66 86 69 87 63 88
REMARK SMILES IDX 64 89 67 90 65 91 44 92 45 93 53 94 46 95 47 96 51 97 54 98
REMARK SMILES IDX 48 99 49 100 52 101 50 102
REMARK H PARENT 11 6 92 16 15 36 74 55 42 66
REMARK Flexibility Score: inf
ROOT
ATOM      1  C   UNL A   1      33.358  29.778  27.569  1.00  0.00     0.042 C 
ENDROOT
BRANCH   1   2
ATOM      2  C   UNL A   1      33.648  28.338  27.133  1.00  0.00     0.118 C 
BRANCH   2   3
ATOM      3  N   UNL A   1      32.434  27.541  26.982  1.00  0.00    -0.352 N 
ATOM      4  C   UNL A   1      32.049  26.472  26.200  1.00  0.00     0.252 C 
ATOM      5  O   UNL A   1      30.957  26.004  26.509  1.00  0.00    -0.269 OA
ATOM      6  H   UNL A   1      31.715  27.840  27.585  1.00  0.00     0.163 HD
BRANCH   4   7
ATOM      7  C   UNL A   1      32.843  25.899  25.079  1.00  0.00     0.055 A 
ATOM      8  C   UNL A   1      34.491  24.221  24.221  1.00  0.00     0.074 A 
ATOM      9  C   UNL A   1      33.741  24.840  25.250  1.00  0.00     0.043 A 
ATOM     10  N   UNL A   1      34.483  24.586  22.922  1.00  0.00    -0.226 NA
ATOM     11  C   UNL A   1      33.643  25.624  22.680  1.00  0.00     0.182 A 
ATOM     12  C   UNL A   1      32.854  26.273  23.715  1.00  0.00     0.059 A 
ATOM     13  N   UNL A   1      33.437  26.164  21.481  1.00  0.00    -0.154 NA
ATOM     14  C   UNL A   1      32.185  27.283  23.038  1.00  0.00     0.076 A 
ATOM     15  N   UNL A   1      32.555  27.140  21.720  1.00  0.00    -0.275 N 
ATOM     16  H   UNL A   1      32.197  27.715  21.006  1.00  0.00     0.190 HD
BRANCH   8  17
ATOM     17  C   UNL A   1      35.340  23.083  24.613  1.00  0.00     0.000 A 
ATOM     18  C   UNL A   1      37.935  19.645  25.027  1.00  0.00     0.044 C 
ATOM     19  C   UNL A   1      37.041  20.846  24.927  1.00  0.00    -0.051 A 
ATOM     20  C   UNL A   1      35.649  20.702  25.003  1.00  0.00     0.004 A 
ATOM     21  C   UNL A   1      37.583  22.119  24.742  1.00  0.00     0.004 A 
ATOM     22  C   UNL A   1      34.806  21.811  24.853  1.00  0.00     0.010 A 
ATOM     23  C   UNL A   1      36.742  23.222  24.595  1.00  0.00     0.010 A 
ENDBRANCH   8  17
BRANCH  14  24
ATOM     24  C   UNL A   1      31.295  28.369  23.420  1.00  0.00     0.007 A 
ATOM     25  C   UNL A   1      31.716  29.343  24.335  1.00  0.00     0.011 A 
ATOM     26  C   UNL A   1      30.025  28.467  22.838  1.00  0.00     0.096 A 
ATOM     27  C   UNL A   1      30.899  30.438  24.631  1.00  0.00     0.008 A 
ATOM     28  C   UNL A   1      29.230  29.588  23.105  1.00  0.00     0.270 A 
ATOM     29  C   UNL A   1      29.659  30.573  24.006  1.00  0.00     0.085 A 
BRANCH  28  30
ATOM     30  N   UNL A   1      27.962  29.758  22.388  1.00  0.00     0.062 N 
ATOM     31  O   UNL A   1      26.915  29.729  23.051  1.00  0.00    -0.258 OA
ATOM     32  O   UNL A   1      28.008  29.916  21.159  1.00  0.00    -0.258 OA
ENDBRANCH  28  30
ENDBRANCH  14  24
ENDBRANCH   4   7
ENDBRANCH   2   3
ENDBRANCH   1   2
BRANCH   1  33
ATOM     33  C   UNL A   1      34.480  30.748  27.245  1.00  0.00     0.118 C 
BRANCH  33  34
ATOM     34  N   UNL A   1      34.973  31.500  28.396  1.00  0.00    -0.352 N 
ATOM     35  C   UNL A   1      35.974  31.134  29.283  1.00  0.00     0.251 C 
ATOM     36  H   UNL A   1      34.544  32.369  28.563  1.00  0.00     0.163 HD
ATOM     37  O   UNL A   1      36.283  31.847  30.224  1.00  0.00    -0.269 OA
BRANCH  35  38
ATOM     38  C   UNL A   1      36.737  29.903  28.982  1.00  0.00     0.039 A 
ATOM     39  C   UNL A   1      37.078  29.069  30.051  1.00  0.00     0.014 A 
ATOM     40  C   UNL A   1      37.340  29.754  27.735  1.00  0.00     0.014 A 
ATOM     41  C   UNL A   1      38.201  28.254  29.937  1.00  0.00     0.010 A 
ATOM     42  C   UNL A   1      38.509  29.021  27.655  1.00  0.00     0.010 A 
ATOM     43  C   UNL A   1      38.978  28.328  28.779  1.00  0.00    -0.014 A 
BRANCH  43  44
ATOM     44  C   UNL A   1      40.335  27.798  28.696  1.00  0.00     0.031 A 
ATOM     45  C   UNL A   1      40.567  26.370  28.408  1.00  0.00     0.074 A 
ATOM     46  C   UNL A   1      41.400  28.623  28.815  1.00  0.00     0.049 A 
ATOM     47  N   UNL A   1      41.648  25.734  28.718  1.00  0.00    -0.248 NA
ATOM     48  C   UNL A   1      39.569  25.528  27.763  1.00  0.00     0.031 C 
ATOM     49  C   UNL A   1      42.796  28.311  28.513  1.00  0.00     0.029 A 
ATOM     50  N   UNL A   1      41.459  29.875  29.453  1.00  0.00    -0.354 N 
ATOM     51  C   UNL A   1      41.614  24.516  28.084  1.00  0.00     0.074 A 
ATOM     52  C   UNL A   1      40.274  24.412  27.549  1.00  0.00     0.031 C 
ATOM     53  C   UNL A   1      43.584  29.122  29.233  1.00  0.00     0.029 A 
ATOM     54  C   UNL A   1      42.722  29.901  30.101  1.00  0.00     0.049 A 
ATOM     55  H   UNL A   1      40.773  30.581  29.451  1.00  0.00     0.167 HD
ATOM     56  C   UNL A   1      42.761  23.783  27.977  1.00  0.00     0.037 A 
ATOM     57  C   UNL A   1      42.816  29.977  31.460  1.00  0.00     0.037 A 
ATOM     58  C   UNL A   1      43.880  24.403  28.686  1.00  0.00     0.049 A 
ATOM     59  C   UNL A   1      43.494  28.794  32.117  1.00  0.00     0.074 A 
ATOM     60  C   UNL A   1      44.984  25.150  28.309  1.00  0.00     0.029 A 
ATOM     61  N   UNL A   1      43.800  24.523  30.062  1.00  0.00    -0.354 N 
ATOM     62  N   UNL A   1      43.982  27.771  31.472  1.00  0.00    -0.248 NA
ATOM     63  C   UNL A   1      43.573  28.624  33.569  1.00  0.00     0.031 C 
ATOM     64  C   UNL A   1      45.572  25.708  29.482  1.00  0.00     0.029 A 
ATOM     65  C   UNL A   1      44.820  25.306  30.568  1.00  0.00     0.049 A 
ATOM     66  H   UNL A   1      43.102  24.101  30.614  1.00  0.00     0.167 HD
ATOM     67  C   UNL A   1      44.367  26.811  32.371  1.00  0.00     0.074 A 
ATOM     68  C   UNL A   1      44.096  27.391  33.672  1.00  0.00     0.031 C 
ATOM     69  C   UNL A   1      44.837  25.588  31.991  1.00  0.00     0.037 A 
BRANCH  56  70
ATOM     70  C   UNL A   1      42.911  22.621  27.023  1.00  0.00     0.064 A 
ATOM     71  C   UNL A   1      42.221  21.409  27.237  1.00  0.00     0.173 A 
ATOM     72  C   UNL A   1      43.766  22.621  25.906  1.00  0.00     0.173 A 
ATOM     73  F   UNL A   1      41.280  21.294  28.182  1.00  0.00    -0.203 F 
ATOM     74  C   UNL A   1      42.473  20.259  26.484  1.00  0.00     0.198 A 
ATOM     75  C   UNL A   1      44.070  21.456  25.194  1.00  0.00     0.198 A 
ATOM     76  F   UNL A   1      44.290  23.760  25.435  1.00  0.00    -0.203 F 
ATOM     77  F   UNL A   1      41.788  19.135  26.737  1.00  0.00    -0.200 F 
ATOM     78  C   UNL A   1      43.433  20.270  25.493  1.00  0.00     0.200 A 
ATOM     79  F   UNL A   1      44.986  21.495  24.215  1.00  0.00    -0.200 F 
ATOM     80  F   UNL A   1      43.719  19.153  24.811  1.00  0.00    -0.200 F 
ENDBRANCH  56  70
BRANCH  57  81
ATOM     81  C   UNL A   1      41.715  30.784  32.048  1.00  0.00     0.064 A 
ATOM     82  C   UNL A   1      41.800  32.186  31.930  1.00  0.00     0.173 A 
ATOM     83  C   UNL A   1      40.458  30.228  32.303  1.00  0.00     0.173 A 
ATOM     84  F   UNL A   1      42.986  32.769  31.696  1.00  0.00    -0.203 F 
ATOM     85  C   UNL A   1      40.655  32.975  31.893  1.00  0.00     0.198 A 
ATOM     86  C   UNL A   1      39.316  31.029  32.302  1.00  0.00     0.198 A 
ATOM     87  F   UNL A   1      40.312  28.899  32.418  1.00  0.00    -0.203 F 
ATOM     88  F   UNL A   1      40.752  34.283  31.610  1.00  0.00    -0.200 F 
ATOM     89  C   UNL A   1      39.410  32.389  32.046  1.00  0.00     0.200 A 
ATOM     90  F   UNL A   1      38.109  30.462  32.442  1.00  0.00    -0.200 F 
ATOM     91  F   UNL A   1      38.301  33.125  31.893  1.00  0.00    -0.200 F 
ENDBRANCH  57  81
BRANCH  69  92
ATOM     92  C   UNL A   1      45.328  24.551  32.962  1.00  0.00     0.064 A 
ATOM     93  C   UNL A   1      44.538  23.457  33.351  1.00  0.00     0.173 A 
ATOM     94  C   UNL A   1      46.568  24.684  33.622  1.00  0.00     0.173 A 
ATOM     95  F   UNL A   1      43.307  23.284  32.845  1.00  0.00    -0.203 F 
ATOM     96  C   UNL A   1      44.986  22.523  34.288  1.00  0.00     0.198 A 
ATOM     97  C   UNL A   1      46.991  23.780  34.594  1.00  0.00     0.198 A 
ATOM     98  F   UNL A   1      47.416  25.680  33.327  1.00  0.00    -0.203 F 
ATOM     99  F   UNL A   1      44.224  21.461  34.585  1.00  0.00    -0.200 F 
ATOM    100  C   UNL A   1      46.207  22.689  34.915  1.00  0.00     0.200 A 
ATOM    101  F   UNL A   1      48.165  23.968  35.212  1.00  0.00    -0.200 F 
ATOM    102  F   UNL A   1      46.629  21.801  35.826  1.00  0.00    -0.200 F 
ENDBRANCH  69  92
ENDBRANCH  43  44
ENDBRANCH  35  38
ENDBRANCH  33  34
ENDBRANCH   1  33
TORSDOF 13
ENDMDL
MODEL 2
REMARK VINA RESULT:     -15.8      4.052     10.188
REMARK SMILES Cc1ccc(-c2cc(C(=O)NCCCNC(=O)c3ccc(-c4c5nc(c(-c6c(F)c(F)c(F)c(F)c6F)c6ccc([nH]6)c(-c6c(F)c(F)c(F)c(F)c6F)c6nc(c(-c7c(F)c(F)c(F)c(F)c7F)c7ccc4[nH]7)C=C6)C=C5)cc3)c3c(-c4cccc([N+](=O)[O-])c4)[nH]nc3n2)cc1
REMARK SMILES IDX 13 1 12 2 11 3 9 4 10 5 8 7 6 8 7 9 95 10 94 11 81 12 93 13
REMARK SMILES IDX 82 14 92 15 5 17 1 18 2 19 3 20 97 21 4 22 96 23 83 24 84 25
REMARK SMILES IDX 91 26 85 27 87 28 86 29 88 30 89 31 90 32 14 33 15 34 16 35
REMARK SMILES IDX 17 37 18 38 19 39 80 40 20 41 79 42 21 43 22 44 23 45 73 46
REMARK SMILES IDX 24 47 78 48 72 49 74 50 25 51 77 52 71 53 70 54 26 56 58 57
REMARK SMILES IDX 38 58 57 59 39 60 42 61 56 62 75 63 40 64 41 65 55 67 76 68
REMARK SMILES IDX 43 69 27 70 28 71 36 72 29 73 30 74 34 75 37 76 31 77 32 78
REMARK SMILES IDX 35 79 33 80 59 81 60 82 68 83 61 84 62 85 66 86 69 87 63 88
REMARK SMILES IDX 64 89 67 90 65 91 44 92 45 93 53 94 46 95 47 96 51 97 54 98
REMARK SMILES IDX 48 99 49 100 52 101 50 102
REMARK H PARENT 11 6 92 16 15 36 74 55 42 66
REMARK Flexibility Score: inf
ROOT
ATOM      1  C   UNL A   1      37.178  22.718  24.893  1.00  0.00     0.042 C 
ENDROOT
BRANCH   1   2
ATOM      2  C   UNL A   1      35.647  22.796  24.917  1.00  0.00     0.118 C 
BRANCH   2   3
ATOM      3  N   UNL A   1      35.101  23.486  23.753  1.00  0.00    -0.352 N 
ATOM      4  C   UNL A   1      34.201  24.512  23.549  1.00  0.00     0.252 C 
ATOM      5  O   UNL A   1      34.140  24.889  22.383  1.00  0.00    -0.269 OA
ATOM      6  H   UNL A   1      35.462  23.134  22.907  1.00  0.00     0.163 HD
BRANCH   4   7
ATOM      7  C   UNL A   1      33.361  25.139  24.606  1.00  0.00     0.055 A 
ATOM      8  C   UNL A   1      32.855  27.071  26.116  1.00  0.00     0.074 A 
ATOM      9  C   UNL A   1      33.636  26.400  25.145  1.00  0.00     0.043 A 
ATOM     10  N   UNL A   1      31.744  26.575  26.701  1.00  0.00    -0.226 NA
ATOM     11  C   UNL A   1      31.421  25.341  26.239  1.00  0.00     0.182 A 
ATOM     12  C   UNL A   1      32.199  24.633  25.236  1.00  0.00     0.059 A 
ATOM     13  N   UNL A   1      30.363  24.639  26.638  1.00  0.00    -0.154 NA
ATOM     14  C   UNL A   1      31.538  23.420  25.097  1.00  0.00     0.076 A 
ATOM     15  N   UNL A   1      30.449  23.506  25.934  1.00  0.00    -0.275 N 
ATOM     16  H   UNL A   1      29.782  22.786  26.008  1.00  0.00     0.190 HD
BRANCH   8  17
ATOM     17  C   UNL A   1      33.297  28.420  26.507  1.00  0.00     0.000 A 
ATOM     18  C   UNL A   1      34.538  32.128  28.358  1.00  0.00     0.044 C 
ATOM     19  C   UNL A   1      34.124  30.858  27.677  1.00  0.00    -0.051 A 
ATOM     20  C   UNL A   1      32.803  30.685  27.241  1.00  0.00     0.004 A 
ATOM     21  C   UNL A   1      35.043  29.825  27.482  1.00  0.00     0.004 A 
ATOM     22  C   UNL A   1      32.395  29.479  26.657  1.00  0.00     0.010 A 
ATOM     23  C   UNL A   1      34.635  28.627  26.899  1.00  0.00     0.010 A 
ENDBRANCH   8  17
BRANCH  14  24
ATOM     24  C   UNL A   1      31.774  22.195  24.348  1.00  0.00     0.007 A 
ATOM     25  C   UNL A   1      31.652  22.181  22.953  1.00  0.00     0.011 A 
ATOM     26  C   UNL A   1      32.167  21.032  25.022  1.00  0.00     0.096 A 
ATOM     27  C   UNL A   1      31.970  21.030  22.225  1.00  0.00     0.008 A 
ATOM     28  C   UNL A   1      32.526  19.897  24.285  1.00  0.00     0.270 A 
ATOM     29  C   UNL A   1      32.423  19.889  22.886  1.00  0.00     0.085 A 
BRANCH  28  30
ATOM     30  N   UNL A   1      33.071  18.728  24.982  1.00  0.00     0.062 N 
ATOM     31  O   UNL A   1      34.219  18.364  24.691  1.00  0.00    -0.258 OA
ATOM     32  O   UNL A   1      32.349  18.164  25.819  1.00  0.00    -0.258 OA
ENDBRANCH  28  30
ENDBRANCH  14  24
ENDBRANCH   4   7
ENDBRANCH   2   3
ENDBRANCH   1   2
BRANCH   1  33
ATOM     33  C   UNL A   1      37.851  23.719  25.815  1.00  0.00     0.118 C 
BRANCH  33  34
ATOM     34  N   UNL A   1      39.255  23.427  26.093  1.00  0.00    -0.352 N 
ATOM     35  C   UNL A   1      40.190  24.253  26.696  1.00  0.00     0.251 C 
ATOM     36  H   UNL A   1      39.575  22.537  25.821  1.00  0.00     0.163 HD
ATOM     37  O   UNL A   1      41.346  23.897  26.856  1.00  0.00    -0.269 OA
BRANCH  35  38
ATOM     38  C   UNL A   1      39.711  25.541  27.246  1.00  0.00     0.039 A 
ATOM     39  C   UNL A   1      40.089  26.713  26.587  1.00  0.00     0.014 A 
ATOM     40  C   UNL A   1      39.167  25.582  28.528  1.00  0.00     0.014 A 
ATOM     41  C   UNL A   1      40.156  27.901  27.311  1.00  0.00     0.010 A 
ATOM     42  C   UNL A   1      39.326  26.736  29.271  1.00  0.00     0.010 A 
ATOM     43  C   UNL A   1      39.888  27.875  28.681  1.00  0.00    -0.014 A 
BRANCH  43  44
ATOM     44  C   UNL A   1      40.261  28.959  29.585  1.00  0.00     0.031 A 
ATOM     45  C   UNL A   1      39.282  30.001  29.952  1.00  0.00     0.074 A 
ATOM     46  C   UNL A   1      41.488  28.985  30.152  1.00  0.00     0.049 A 
ATOM     47  N   UNL A   1      39.602  31.178  30.376  1.00  0.00    -0.248 NA
ATOM     48  C   UNL A   1      37.845  29.801  29.840  1.00  0.00     0.031 C 
ATOM     49  C   UNL A   1      41.933  29.838  31.253  1.00  0.00     0.029 A 
ATOM     50  N   UNL A   1      42.669  28.377  29.690  1.00  0.00    -0.354 N 
ATOM     51  C   UNL A   1      38.461  31.777  30.851  1.00  0.00     0.074 A 
ATOM     52  C   UNL A   1      37.384  30.902  30.441  1.00  0.00     0.031 C 
ATOM     53  C   UNL A   1      43.264  29.979  31.176  1.00  0.00     0.029 A 
ATOM     54  C   UNL A   1      43.699  29.315  29.963  1.00  0.00     0.049 A 
ATOM     55  H   UNL A   1      42.761  27.492  29.269  1.00  0.00     0.167 HD
ATOM     56  C   UNL A   1      38.563  32.884  31.643  1.00  0.00     0.037 A 
ATOM     57  C   UNL A   1      44.418  29.885  28.953  1.00  0.00     0.037 A 
ATOM     58  C   UNL A   1      39.947  33.339  31.779  1.00  0.00     0.049 A 
ATOM     59  C   UNL A   1      44.289  31.390  28.855  1.00  0.00     0.074 A 
ATOM     60  C   UNL A   1      40.920  33.232  32.760  1.00  0.00     0.029 A 
ATOM     61  N   UNL A   1      40.605  33.791  30.650  1.00  0.00    -0.354 N 
ATOM     62  N   UNL A   1      43.575  32.125  29.661  1.00  0.00    -0.248 NA
ATOM     63  C   UNL A   1      44.873  32.172  27.763  1.00  0.00     0.031 C 
ATOM     64  C   UNL A   1      42.167  33.641  32.204  1.00  0.00     0.029 A 
ATOM     65  C   UNL A   1      41.952  33.987  30.884  1.00  0.00     0.049 A 
ATOM     66  H   UNL A   1      40.166  33.954  29.783  1.00  0.00     0.167 HD
ATOM     67  C   UNL A   1      43.541  33.411  29.191  1.00  0.00     0.074 A 
ATOM     68  C   UNL A   1      44.371  33.394  28.003  1.00  0.00     0.031 C 
ATOM     69  C   UNL A   1      42.798  34.394  29.778  1.00  0.00     0.037 A 
BRANCH  56  70
ATOM     70  C   UNL A   1      37.421  33.407  32.482  1.00  0.00     0.064 A 
ATOM     71  C   UNL A   1      36.382  34.168  31.906  1.00  0.00     0.173 A 
ATOM     72  C   UNL A   1      37.322  33.236  33.875  1.00  0.00     0.173 A 
ATOM     73  F   UNL A   1      36.270  34.313  30.580  1.00  0.00    -0.203 F 
ATOM     74  C   UNL A   1      35.413  34.817  32.676  1.00  0.00     0.198 A 
ATOM     75  C   UNL A   1      36.394  33.937  34.652  1.00  0.00     0.198 A 
ATOM     76  F   UNL A   1      38.083  32.341  34.519  1.00  0.00    -0.203 F 
ATOM     77  F   UNL A   1      34.453  35.531  32.071  1.00  0.00    -0.200 F 
ATOM     78  C   UNL A   1      35.448  34.740  34.052  1.00  0.00     0.200 A 
ATOM     79  F   UNL A   1      36.427  33.825  35.988  1.00  0.00    -0.200 F 
ATOM     80  F   UNL A   1      34.555  35.411  34.794  1.00  0.00    -0.200 F 
ENDBRANCH  56  70
BRANCH  57  81
ATOM     81  C   UNL A   1      44.610  28.953  27.812  1.00  0.00     0.064 A 
ATOM     82  C   UNL A   1      45.422  27.820  28.025  1.00  0.00     0.173 A 
ATOM     83  C   UNL A   1      43.713  28.919  26.739  1.00  0.00     0.173 A 
ATOM     84  F   UNL A   1      46.306  27.809  29.035  1.00  0.00    -0.203 F 
ATOM     85  C   UNL A   1      45.220  26.646  27.307  1.00  0.00     0.198 A 
ATOM     86  C   UNL A   1      43.541  27.750  25.999  1.00  0.00     0.198 A 
ATOM     87  F   UNL A   1      42.908  29.962  26.491  1.00  0.00    -0.203 F 
ATOM     88  F   UNL A   1      45.888  25.533  27.643  1.00  0.00    -0.200 F 
ATOM     89  C   UNL A   1      44.254  26.602  26.316  1.00  0.00     0.200 A 
ATOM     90  F   UNL A   1      42.601  27.703  25.044  1.00  0.00    -0.200 F 
ATOM     91  F   UNL A   1      43.975  25.444  25.704  1.00  0.00    -0.200 F 
ENDBRANCH  57  81
BRANCH  69  92
ATOM     92  C   UNL A   1      42.803  35.824  29.317  1.00  0.00     0.064 A 
ATOM     93  C   UNL A   1      42.146  36.236  28.147  1.00  0.00     0.173 A 
ATOM     94  C   UNL A   1      43.568  36.811  29.977  1.00  0.00     0.173 A 
ATOM     95  F   UNL A   1      41.460  35.358  27.399  1.00  0.00    -0.203 F 
ATOM     96  C   UNL A   1      42.195  37.559  27.703  1.00  0.00     0.198 A 
ATOM     97  C   UNL A   1      43.657  38.118  29.503  1.00  0.00     0.198 A 
ATOM     98  F   UNL A   1      44.229  36.542  31.111  1.00  0.00    -0.203 F 
ATOM     99  F   UNL A   1      41.503  37.921  26.613  1.00  0.00    -0.200 F 
ATOM    100  C   UNL A   1      42.956  38.497  28.376  1.00  0.00     0.200 A 
ATOM    101  F   UNL A   1      44.420  39.009  30.151  1.00  0.00    -0.200 F 
ATOM    102  F   UNL A   1      43.016  39.763  27.939  1.00  0.00    -0.200 F 
ENDBRANCH  69  92
ENDBRANCH  43  44
ENDBRANCH  35  38
ENDBRANCH  33  34
ENDBRANCH   1  33
TORSDOF 13
ENDMDL
MODEL 3
REMARK VINA RESULT:     -15.4      1.390      2.125
REMARK SMILES Cc1ccc(-c2cc(C(=O)NCCCNC(=O)c3ccc(-c4c5nc(c(-c6c(F)c(F)c(F)c(F)c6F)c6ccc([nH]6)c(-c6c(F)c(F)c(F)c(F)c6F)c6nc(c(-c7c(F)c(F)c(F)c(F)c7F)c7ccc4[nH]7)C=C6)C=C5)cc3)c3c(-c4cccc([N+](=O)[O-])c4)[nH]nc3n2)cc1
REMARK SMILES IDX 13 1 12 2 11 3 9 4 10 5 8 7 6 8 7 9 95 10 94 11 81 12 93 13
REMARK SMILES IDX 82 14 92 15 5 17 1 18 2 19 3 20 97 21 4 22 96 23 83 24 84 25
REMARK SMILES IDX 91 26 85 27 87 28 86 29 88 30 89 31 90 32 14 33 15 34 16 35
REMARK SMILES IDX 17 37 18 38 19 39 80 40 20 41 79 42 21 43 22 44 23 45 73 46
REMARK SMILES IDX 24 47 78 48 72 49 74 50 25 51 77 52 71 53 70 54 26 56 58 57
REMARK SMILES IDX 38 58 57 59 39 60 42 61 56 62 75 63 40 64 41 65 55 67 76 68
REMARK SMILES IDX 43 69 27 70 28 71 36 72 29 73 30 74 34 75 37 76 31 77 32 78
REMARK SMILES IDX 35 79 33 80 59 81 60 82 68 83 61 84 62 85 66 86 69 87 63 88
REMARK SMILES IDX 64 89 67 90 65 91 44 92 45 93 53 94 46 95 47 96 51 97 54 98
REMARK SMILES IDX 48 99 49 100 52 101 50 102
REMARK H PARENT 11 6 92 16 15 36 74 55 42 66
REMARK Flexibility Score: inf
ROOT
ATOM      1  C   UNL A   1      33.585  29.030  27.567  1.00  0.00     0.042 C 
ENDROOT
BRANCH   1   2
ATOM      2  C   UNL A   1      33.658  27.938  26.495  1.00  0.00     0.118 C 
BRANCH   2   3
ATOM      3  N   UNL A   1      32.553  26.987  26.585  1.00  0.00    -0.352 N 
ATOM      4  C   UNL A   1      32.300  25.724  26.093  1.00  0.00     0.252 C 
ATOM      5  O   UNL A   1      31.280  25.214  26.546  1.00  0.00    -0.269 OA
ATOM      6  H   UNL A   1      31.808  27.333  27.127  1.00  0.00     0.163 HD
BRANCH   4   7
ATOM      7  C   UNL A   1      33.151  24.999  25.109  1.00  0.00     0.055 A 
ATOM      8  C   UNL A   1      35.194  23.651  24.582  1.00  0.00     0.074 A 
ATOM      9  C   UNL A   1      34.362  24.391  25.456  1.00  0.00     0.043 A 
ATOM     10  N   UNL A   1      34.963  23.453  23.267  1.00  0.00    -0.226 NA
ATOM     11  C   UNL A   1      33.807  24.030  22.851  1.00  0.00     0.182 A 
ATOM     12  C   UNL A   1      32.930  24.788  23.728  1.00  0.00     0.059 A 
ATOM     13  N   UNL A   1      33.340  23.969  21.606  1.00  0.00    -0.154 NA
ATOM     14  C   UNL A   1      31.910  25.216  22.889  1.00  0.00     0.076 A 
ATOM     15  N   UNL A   1      32.203  24.672  21.659  1.00  0.00    -0.275 N 
ATOM     16  H   UNL A   1      31.619  24.791  20.876  1.00  0.00     0.190 HD
BRANCH   8  17
ATOM     17  C   UNL A   1      36.402  23.048  25.169  1.00  0.00     0.000 A 
ATOM     18  C   UNL A   1      40.315  21.610  26.327  1.00  0.00     0.044 C 
ATOM     19  C   UNL A   1      38.943  22.097  25.966  1.00  0.00    -0.051 A 
ATOM     20  C   UNL A   1      38.065  21.275  25.247  1.00  0.00     0.004 A 
ATOM     21  C   UNL A   1      38.528  23.380  26.328  1.00  0.00     0.004 A 
ATOM     22  C   UNL A   1      36.804  21.744  24.856  1.00  0.00     0.010 A 
ATOM     23  C   UNL A   1      37.273  23.844  25.941  1.00  0.00     0.010 A 
ENDBRANCH   8  17
BRANCH  14  24
ATOM     24  C   UNL A   1      30.741  26.070  23.036  1.00  0.00     0.007 A 
ATOM     25  C   UNL A   1      29.611  25.613  23.725  1.00  0.00     0.011 A 
ATOM     26  C   UNL A   1      30.761  27.373  22.522  1.00  0.00     0.096 A 
ATOM     27  C   UNL A   1      28.524  26.464  23.949  1.00  0.00     0.008 A 
ATOM     28  C   UNL A   1      29.690  28.234  22.788  1.00  0.00     0.270 A 
ATOM     29  C   UNL A   1      28.566  27.783  23.495  1.00  0.00     0.085 A 
BRANCH  28  30
ATOM     30  N   UNL A   1      29.773  29.637  22.371  1.00  0.00     0.062 N 
ATOM     31  O   UNL A   1      30.567  29.924  21.463  1.00  0.00    -0.258 OA
ATOM     32  O   UNL A   1      29.051  30.459  22.955  1.00  0.00    -0.258 OA
ENDBRANCH  28  30
ENDBRANCH  14  24
ENDBRANCH   4   7
ENDBRANCH   2   3
ENDBRANCH   1   2
BRANCH   1  33
ATOM     33  C   UNL A   1      34.469  30.229  27.273  1.00  0.00     0.118 C 
BRANCH  33  34
ATOM     34  N   UNL A   1      34.775  31.048  28.443  1.00  0.00    -0.352 N 
ATOM     35  C   UNL A   1      35.809  30.878  29.351  1.00  0.00     0.251 C 
ATOM     36  H   UNL A   1      34.176  31.812  28.607  1.00  0.00     0.163 HD
ATOM     37  O   UNL A   1      35.947  31.625  30.305  1.00  0.00    -0.269 OA
BRANCH  35  38
ATOM     38  C   UNL A   1      36.810  29.828  29.058  1.00  0.00     0.039 A 
ATOM     39  C   UNL A   1      37.122  28.923  30.075  1.00  0.00     0.014 A 
ATOM     40  C   UNL A   1      37.612  29.940  27.925  1.00  0.00     0.014 A 
ATOM     41  C   UNL A   1      38.373  28.311  30.071  1.00  0.00     0.010 A 
ATOM     42  C   UNL A   1      38.888  29.412  27.971  1.00  0.00     0.010 A 
ATOM     43  C   UNL A   1      39.293  28.656  29.079  1.00  0.00    -0.014 A 
BRANCH  43  44
ATOM     44  C   UNL A   1      40.718  28.356  29.176  1.00  0.00     0.031 A 
ATOM     45  C   UNL A   1      41.261  27.106  28.611  1.00  0.00     0.074 A 
ATOM     46  C   UNL A   1      41.569  29.251  29.725  1.00  0.00     0.049 A 
ATOM     47  N   UNL A   1      42.368  26.560  28.992  1.00  0.00    -0.248 NA
ATOM     48  C   UNL A   1      40.572  26.348  27.576  1.00  0.00     0.031 C 
ATOM     49  C   UNL A   1      43.031  29.223  29.676  1.00  0.00     0.029 A 
ATOM     50  N   UNL A   1      41.277  30.275  30.643  1.00  0.00    -0.354 N 
ATOM     51  C   UNL A   1      42.679  25.569  28.091  1.00  0.00     0.074 A 
ATOM     52  C   UNL A   1      41.500  25.438  27.263  1.00  0.00     0.031 C 
ATOM     53  C   UNL A   1      43.509  29.902  30.728  1.00  0.00     0.029 A 
ATOM     54  C   UNL A   1      42.375  30.291  31.543  1.00  0.00     0.049 A 
ATOM     55  H   UNL A   1      40.482  30.856  30.658  1.00  0.00     0.167 HD
ATOM     56  C   UNL A   1      43.943  25.054  28.070  1.00  0.00     0.037 A 
ATOM     57  C   UNL A   1      42.205  30.002  32.866  1.00  0.00     0.037 A 
ATOM     58  C   UNL A   1      44.779  25.599  29.139  1.00  0.00     0.049 A 
ATOM     59  C   UNL A   1      42.964  28.786  33.352  1.00  0.00     0.074 A 
ATOM     60  C   UNL A   1      45.773  26.562  29.210  1.00  0.00     0.029 A 
ATOM     61  N   UNL A   1      44.431  25.325  30.450  1.00  0.00    -0.354 N 
ATOM     62  N   UNL A   1      43.743  28.055  32.606  1.00  0.00    -0.248 NA
ATOM     63  C   UNL A   1      42.810  28.236  34.700  1.00  0.00     0.031 C 
ATOM     64  C   UNL A   1      46.025  26.849  30.583  1.00  0.00     0.029 A 
ATOM     65  C   UNL A   1      45.177  26.067  31.345  1.00  0.00     0.049 A 
ATOM     66  H   UNL A   1      43.737  24.678  30.713  1.00  0.00     0.167 HD
ATOM     67  C   UNL A   1      44.133  26.945  33.309  1.00  0.00     0.074 A 
ATOM     68  C   UNL A   1      43.528  27.103  34.617  1.00  0.00     0.031 C 
ATOM     69  C   UNL A   1      44.885  25.947  32.760  1.00  0.00     0.037 A 
BRANCH  56  70
ATOM     70  C   UNL A   1      44.478  24.230  26.923  1.00  0.00     0.064 A 
ATOM     71  C   UNL A   1      44.088  22.885  26.748  1.00  0.00     0.173 A 
ATOM     72  C   UNL A   1      45.423  24.693  25.990  1.00  0.00     0.173 A 
ATOM     73  F   UNL A   1      43.107  22.338  27.476  1.00  0.00    -0.203 F 
ATOM     74  C   UNL A   1      44.697  22.043  25.813  1.00  0.00     0.198 A 
ATOM     75  C   UNL A   1      46.081  23.838  25.100  1.00  0.00     0.198 A 
ATOM     76  F   UNL A   1      45.698  26.000  25.873  1.00  0.00    -0.203 F 
ATOM     77  F   UNL A   1      44.287  20.773  25.696  1.00  0.00    -0.200 F 
ATOM     78  C   UNL A   1      45.726  22.508  25.022  1.00  0.00     0.200 A 
ATOM     79  F   UNL A   1      47.059  24.317  24.318  1.00  0.00    -0.200 F 
ATOM     80  F   UNL A   1      46.352  21.686  24.167  1.00  0.00    -0.200 F 
ENDBRANCH  56  70
BRANCH  57  81
ATOM     81  C   UNL A   1      40.885  30.462  33.370  1.00  0.00     0.064 A 
ATOM     82  C   UNL A   1      40.692  31.851  33.517  1.00  0.00     0.173 A 
ATOM     83  C   UNL A   1      39.749  29.652  33.284  1.00  0.00     0.173 A 
ATOM     84  F   UNL A   1      41.751  32.669  33.615  1.00  0.00    -0.203 F 
ATOM     85  C   UNL A   1      39.425  32.416  33.406  1.00  0.00     0.198 A 
ATOM     86  C   UNL A   1      38.478  30.222  33.210  1.00  0.00     0.198 A 
ATOM     87  F   UNL A   1      39.868  28.325  33.135  1.00  0.00    -0.203 F 
ATOM     88  F   UNL A   1      39.288  33.749  33.380  1.00  0.00    -0.200 F 
ATOM     89  C   UNL A   1      38.322  31.601  33.218  1.00  0.00     0.200 A 
ATOM     90  F   UNL A   1      37.410  29.435  33.020  1.00  0.00    -0.200 F 
ATOM     91  F   UNL A   1      37.119  32.145  32.993  1.00  0.00    -0.200 F 
ENDBRANCH  57  81
BRANCH  69  92
ATOM     92  C   UNL A   1      45.378  24.759  33.536  1.00  0.00     0.064 A 
ATOM     93  C   UNL A   1      46.688  24.682  34.036  1.00  0.00     0.173 A 
ATOM     94  C   UNL A   1      44.583  23.605  33.706  1.00  0.00     0.173 A 
ATOM     95  F   UNL A   1      47.553  25.692  33.855  1.00  0.00    -0.203 F 
ATOM     96  C   UNL A   1      47.150  23.554  34.717  1.00  0.00     0.198 A 
ATOM     97  C   UNL A   1      45.063  22.461  34.340  1.00  0.00     0.198 A 
ATOM     98  F   UNL A   1      43.311  23.562  33.284  1.00  0.00    -0.203 F 
ATOM     99  F   UNL A   1      48.389  23.548  35.230  1.00  0.00    -0.200 F 
ATOM    100  C   UNL A   1      46.342  22.441  34.862  1.00  0.00     0.200 A 
ATOM    101  F   UNL A   1      44.277  21.382  34.450  1.00  0.00    -0.200 F 
ATOM    102  F   UNL A   1      46.792  21.353  35.501  1.00  0.00    -0.200 F 
ENDBRANCH  69  92
ENDBRANCH  43  44
ENDBRANCH  35  38
ENDBRANCH  33  34
ENDBRANCH   1  33
TORSDOF 13
ENDMDL
