MODEL 1
REMARK VINA RESULT:     -10.8      0.000      0.000
REMARK SMILES C[C@@H]1C[C@@H](C)CN(C(=O)CCn2cc(C(=O)NCCCNC(=O)c3ccc(-c4c5nc(c(-c6c(F)c(F)c(F)c(F)c6F)c6ccc([nH]6)c(-c6c(F)c(F)c(F)c(F)c6F)c6nc(c(-c7c(F)c(F)c(F)c(F)c7F)c7ccc4[nH]7)C=C6)C=C5)cc3)cn2)C1
REMARK SMILES IDX 18 1 17 2 15 3 16 4 14 6 12 7 13 8 88 9 87 10 11 11 10 12
REMARK SMILES IDX 8 13 1 14 2 15 3 16 89 17 4 18 7 19 6 20 5 21 9 22 19 23
REMARK SMILES IDX 20 24 21 25 22 26 23 28 24 29 25 30 86 31 26 32 85 33 27 34
REMARK SMILES IDX 28 35 29 36 79 37 30 38 84 39 78 40 80 41 31 42 83 43 77 44
REMARK SMILES IDX 76 45 32 47 64 48 44 49 63 50 45 51 48 52 62 53 81 54 46 55
REMARK SMILES IDX 47 56 61 58 82 59 49 60 33 61 34 62 42 63 35 64 36 65 40 66
REMARK SMILES IDX 43 67 37 68 38 69 41 70 39 71 65 72 66 73 74 74 67 75 68 76
REMARK SMILES IDX 72 77 75 78 69 79 70 80 73 81 71 82 50 83 51 84 59 85 52 86
REMARK SMILES IDX 53 87 57 88 60 89 54 90 55 91 58 92 56 93
REMARK H PARENT 17 5 21 27 80 46 48 57
REMARK Flexibility Score: inf
ROOT
ATOM      1  C   UNL A   1      45.289  23.239  26.280  1.00  0.00     0.118 C 
ENDROOT
BRANCH   1   2
ATOM      2  N   UNL A   1      45.708  24.303  25.386  1.00  0.00    -0.352 N 
ATOM      3  C   UNL A   1      45.849  25.651  25.613  1.00  0.00     0.254 C 
ATOM      4  O   UNL A   1      45.943  26.380  24.627  1.00  0.00    -0.269 OA
ATOM      5  H   UNL A   1      45.928  24.012  24.472  1.00  0.00     0.163 HD
BRANCH   3   6
ATOM      6  C   UNL A   1      46.005  26.174  26.961  1.00  0.00     0.077 A 
ATOM      7  N   UNL A   1      46.230  26.307  29.139  1.00  0.00    -0.271 N 
ATOM      8  C   UNL A   1      45.413  25.819  28.157  1.00  0.00     0.122 A 
ATOM      9  N   UNL A   1      47.079  27.241  28.691  1.00  0.00    -0.181 NA
ATOM     10  C   UNL A   1      46.942  27.162  27.363  1.00  0.00     0.149 A 
BRANCH   7  11
ATOM     11  C   UNL A   1      46.311  25.788  30.494  1.00  0.00     0.154 C 
BRANCH  11  12
ATOM     12  C   UNL A   1      44.943  25.724  31.178  1.00  0.00     0.124 C 
BRANCH  12  13
ATOM     13  C   UNL A   1      44.779  24.470  32.005  1.00  0.00     0.224 C 
ATOM     14  C   UNL A   1      42.722  23.491  34.747  1.00  0.00     0.009 C 
ATOM     15  C   UNL A   1      44.171  23.266  35.205  1.00  0.00     0.006 C 
ATOM     16  C   UNL A   1      44.660  24.380  36.140  1.00  0.00     0.010 C 
ATOM     17  C   UNL A   1      45.136  23.146  34.021  1.00  0.00     0.122 C 
ATOM     18  C   UNL A   1      44.885  25.710  35.399  1.00  0.00     0.006 C 
ATOM     19  N   UNL A   1      45.243  24.417  33.310  1.00  0.00    -0.342 N 
ATOM     20  C   UNL A   1      45.757  25.515  34.138  1.00  0.00     0.122 C 
ATOM     21  C   UNL A   1      45.467  26.740  36.369  1.00  0.00     0.009 C 
ATOM     22  O   UNL A   1      44.248  23.497  31.461  1.00  0.00    -0.275 OA
ENDBRANCH  12  13
ENDBRANCH  11  12
ENDBRANCH   7  11
ENDBRANCH   3   6
ENDBRANCH   1   2
BRANCH   1  23
ATOM     23  C   UNL A   1      44.295  22.302  25.579  1.00  0.00     0.042 C 
BRANCH  23  24
ATOM     24  C   UNL A   1      43.060  23.066  25.144  1.00  0.00     0.118 C 
BRANCH  24  25
ATOM     25  N   UNL A   1      41.828  22.334  25.458  1.00  0.00    -0.352 N 
ATOM     26  C   UNL A   1      41.022  22.450  26.579  1.00  0.00     0.251 C 
ATOM     27  H   UNL A   1      41.536  21.677  24.786  1.00  0.00     0.163 HD
ATOM     28  O   UNL A   1      40.247  21.571  26.898  1.00  0.00    -0.269 OA
BRANCH  26  29
ATOM     29  C   UNL A   1      41.121  23.692  27.362  1.00  0.00     0.039 A 
ATOM     30  C   UNL A   1      42.088  23.889  28.352  1.00  0.00     0.014 A 
ATOM     31  C   UNL A   1      40.225  24.697  27.028  1.00  0.00     0.014 A 
ATOM     32  C   UNL A   1      42.151  25.137  28.966  1.00  0.00     0.010 A 
ATOM     33  C   UNL A   1      40.489  25.974  27.402  1.00  0.00     0.010 A 
ATOM     34  C   UNL A   1      41.339  26.170  28.474  1.00  0.00    -0.014 A 
BRANCH  34  35
ATOM     35  C   UNL A   1      41.352  27.515  29.011  1.00  0.00     0.031 A 
ATOM     36  C   UNL A   1      42.478  28.345  28.533  1.00  0.00     0.074 A 
ATOM     37  C   UNL A   1      40.288  28.022  29.672  1.00  0.00     0.049 A 
ATOM     38  N   UNL A   1      43.488  28.757  29.221  1.00  0.00    -0.248 NA
ATOM     39  C   UNL A   1      42.581  28.614  27.091  1.00  0.00     0.031 C 
ATOM     40  C   UNL A   1      38.975  27.411  29.933  1.00  0.00     0.029 A 
ATOM     41  N   UNL A   1      40.137  29.266  30.191  1.00  0.00    -0.354 N 
ATOM     42  C   UNL A   1      44.257  29.514  28.346  1.00  0.00     0.074 A 
ATOM     43  C   UNL A   1      43.769  29.221  27.023  1.00  0.00     0.031 C 
ATOM     44  C   UNL A   1      38.107  28.354  30.362  1.00  0.00     0.029 A 
ATOM     45  C   UNL A   1      38.840  29.586  30.572  1.00  0.00     0.049 A 
ATOM     46  H   UNL A   1      40.889  29.893  30.289  1.00  0.00     0.167 HD
ATOM     47  C   UNL A   1      45.052  30.516  28.815  1.00  0.00     0.037 A 
ATOM     48  C   UNL A   1      38.412  30.797  31.008  1.00  0.00     0.037 A 
ATOM     49  C   UNL A   1      45.240  30.394  30.241  1.00  0.00     0.049 A 
ATOM     50  C   UNL A   1      39.620  31.527  31.481  1.00  0.00     0.074 A 
ATOM     51  C   UNL A   1      45.789  29.429  31.065  1.00  0.00     0.029 A 
ATOM     52  N   UNL A   1      44.457  31.175  31.059  1.00  0.00    -0.354 N 
ATOM     53  N   UNL A   1      40.326  31.147  32.512  1.00  0.00    -0.248 NA
ATOM     54  C   UNL A   1      40.323  32.355  30.513  1.00  0.00     0.031 C 
ATOM     55  C   UNL A   1      44.925  29.381  32.201  1.00  0.00     0.029 A 
ATOM     56  C   UNL A   1      43.950  30.366  32.045  1.00  0.00     0.049 A 
ATOM     57  H   UNL A   1      44.291  32.140  30.955  1.00  0.00     0.167 HD
ATOM     58  C   UNL A   1      41.648  31.325  32.124  1.00  0.00     0.074 A 
ATOM     59  C   UNL A   1      41.581  32.133  30.906  1.00  0.00     0.031 C 
ATOM     60  C   UNL A   1      42.648  30.553  32.646  1.00  0.00     0.037 A 
BRANCH  47  61
ATOM     61  C   UNL A   1      45.336  31.800  28.076  1.00  0.00     0.064 A 
ATOM     62  C   UNL A   1      44.251  32.610  27.685  1.00  0.00     0.173 A 
ATOM     63  C   UNL A   1      46.576  32.118  27.482  1.00  0.00     0.173 A 
ATOM     64  F   UNL A   1      43.024  32.396  28.183  1.00  0.00    -0.203 F 
ATOM     65  C   UNL A   1      44.382  33.596  26.703  1.00  0.00     0.198 A 
ATOM     66  C   UNL A   1      46.713  33.138  26.543  1.00  0.00     0.198 A 
ATOM     67  F   UNL A   1      47.680  31.392  27.687  1.00  0.00    -0.203 F 
ATOM     68  F   UNL A   1      43.296  34.247  26.269  1.00  0.00    -0.200 F 
ATOM     69  C   UNL A   1      45.612  33.852  26.127  1.00  0.00     0.200 A 
ATOM     70  F   UNL A   1      47.912  33.361  25.985  1.00  0.00    -0.200 F 
ATOM     71  F   UNL A   1      45.728  34.749  25.139  1.00  0.00    -0.200 F 
ENDBRANCH  47  61
BRANCH  48  72
ATOM     72  C   UNL A   1      37.121  31.461  30.709  1.00  0.00     0.064 A 
ATOM     73  C   UNL A   1      36.178  31.720  31.715  1.00  0.00     0.173 A 
ATOM     74  C   UNL A   1      36.903  32.100  29.471  1.00  0.00     0.173 A 
ATOM     75  F   UNL A   1      36.337  31.192  32.938  1.00  0.00    -0.203 F 
ATOM     76  C   UNL A   1      35.091  32.578  31.501  1.00  0.00     0.198 A 
ATOM     77  C   UNL A   1      35.818  32.953  29.258  1.00  0.00     0.198 A 
ATOM     78  F   UNL A   1      37.790  31.983  28.473  1.00  0.00    -0.203 F 
ATOM     79  F   UNL A   1      34.240  32.843  32.504  1.00  0.00    -0.200 F 
ATOM     80  C   UNL A   1      34.918  33.201  30.276  1.00  0.00     0.200 A 
ATOM     81  F   UNL A   1      35.687  33.580  28.080  1.00  0.00    -0.200 F 
ATOM     82  F   UNL A   1      33.911  34.066  30.089  1.00  0.00    -0.200 F 
ENDBRANCH  48  72
BRANCH  60  83
ATOM     83  C   UNL A   1      42.307  29.652  33.805  1.00  0.00     0.064 A 
ATOM     84  C   UNL A   1      41.815  28.343  33.661  1.00  0.00     0.173 A 
ATOM     85  C   UNL A   1      42.652  30.065  35.098  1.00  0.00     0.173 A 
ATOM     86  F   UNL A   1      41.553  27.834  32.454  1.00  0.00    -0.203 F 
ATOM     87  C   UNL A   1      41.644  27.501  34.760  1.00  0.00     0.198 A 
ATOM     88  C   UNL A   1      42.512  29.212  36.190  1.00  0.00     0.198 A 
ATOM     89  F   UNL A   1      43.182  31.282  35.293  1.00  0.00    -0.203 F 
ATOM     90  F   UNL A   1      41.173  26.256  34.589  1.00  0.00    -0.200 F 
ATOM     91  C   UNL A   1      42.002  27.934  36.023  1.00  0.00     0.200 A 
ATOM     92  F   UNL A   1      42.906  29.619  37.405  1.00  0.00    -0.200 F 
ATOM     93  F   UNL A   1      41.884  27.112  37.076  1.00  0.00    -0.200 F 
ENDBRANCH  60  83
ENDBRANCH  34  35
ENDBRANCH  26  29
ENDBRANCH  24  25
ENDBRANCH  23  24
ENDBRANCH   1  23
TORSDOF 13
ENDMDL
MODEL 2
REMARK VINA RESULT:     -10.8      3.926      7.363
REMARK SMILES C[C@@H]1C[C@@H](C)CN(C(=O)CCn2cc(C(=O)NCCCNC(=O)c3ccc(-c4c5nc(c(-c6c(F)c(F)c(F)c(F)c6F)c6ccc([nH]6)c(-c6c(F)c(F)c(F)c(F)c6F)c6nc(c(-c7c(F)c(F)c(F)c(F)c7F)c7ccc4[nH]7)C=C6)C=C5)cc3)cn2)C1
REMARK SMILES IDX 18 1 17 2 15 3 16 4 14 6 12 7 13 8 88 9 87 10 11 11 10 12
REMARK SMILES IDX 8 13 1 14 2 15 3 16 89 17 4 18 7 19 6 20 5 21 9 22 19 23
REMARK SMILES IDX 20 24 21 25 22 26 23 28 24 29 25 30 86 31 26 32 85 33 27 34
REMARK SMILES IDX 28 35 29 36 79 37 30 38 84 39 78 40 80 41 31 42 83 43 77 44
REMARK SMILES IDX 76 45 32 47 64 48 44 49 63 50 45 51 48 52 62 53 81 54 46 55
REMARK SMILES IDX 47 56 61 58 82 59 49 60 33 61 34 62 42 63 35 64 36 65 40 66
REMARK SMILES IDX 43 67 37 68 38 69 41 70 39 71 65 72 66 73 74 74 67 75 68 76
REMARK SMILES IDX 72 77 75 78 69 79 70 80 73 81 71 82 50 83 51 84 59 85 52 86
REMARK SMILES IDX 53 87 57 88 60 89 54 90 55 91 58 92 56 93
REMARK H PARENT 17 5 21 27 80 46 48 57
REMARK Flexibility Score: inf
ROOT
ATOM      1  C   UNL A   1      36.051  21.602  25.843  1.00  0.00     0.118 C 
ENDROOT
BRANCH   1   2
ATOM      2  N   UNL A   1      35.598  20.386  25.191  1.00  0.00    -0.352 N 
ATOM      3  C   UNL A   1      34.337  20.003  24.802  1.00  0.00     0.254 C 
ATOM      4  O   UNL A   1      34.169  18.815  24.529  1.00  0.00    -0.269 OA
ATOM      5  H   UNL A   1      36.307  19.733  24.997  1.00  0.00     0.163 HD
BRANCH   3   6
ATOM      6  C   UNL A   1      33.282  20.985  24.599  1.00  0.00     0.077 A 
ATOM      7  N   UNL A   1      31.826  22.589  24.939  1.00  0.00    -0.271 N 
ATOM      8  C   UNL A   1      32.212  21.356  25.387  1.00  0.00     0.122 A 
ATOM      9  N   UNL A   1      32.307  22.872  23.722  1.00  0.00    -0.181 NA
ATOM     10  C   UNL A   1      33.194  21.894  23.511  1.00  0.00     0.149 A 
BRANCH   7  11
ATOM     11  C   UNL A   1      31.108  23.578  25.725  1.00  0.00     0.154 C 
BRANCH  11  12
ATOM     12  C   UNL A   1      31.967  24.801  26.052  1.00  0.00     0.124 C 
BRANCH  12  13
ATOM     13  C   UNL A   1      31.506  26.034  25.310  1.00  0.00     0.224 C 
ATOM     14  C   UNL A   1      33.084  28.540  23.325  1.00  0.00     0.009 C 
ATOM     15  C   UNL A   1      32.358  29.290  24.452  1.00  0.00     0.006 C 
ATOM     16  C   UNL A   1      33.321  29.744  25.557  1.00  0.00     0.010 C 
ATOM     17  C   UNL A   1      31.242  28.447  25.076  1.00  0.00     0.122 C 
ATOM     18  C   UNL A   1      33.843  28.567  26.400  1.00  0.00     0.006 C 
ATOM     19  N   UNL A   1      31.796  27.300  25.792  1.00  0.00    -0.342 N 
ATOM     20  C   UNL A   1      32.687  27.671  26.898  1.00  0.00     0.122 C 
ATOM     21  C   UNL A   1      34.712  29.104  27.540  1.00  0.00     0.009 C 
ATOM     22  O   UNL A   1      30.840  25.863  24.284  1.00  0.00    -0.275 OA
ENDBRANCH  12  13
ENDBRANCH  11  12
ENDBRANCH   7  11
ENDBRANCH   3   6
ENDBRANCH   1   2
BRANCH   1  23
ATOM     23  C   UNL A   1      37.314  22.145  25.159  1.00  0.00     0.042 C 
BRANCH  23  24
ATOM     24  C   UNL A   1      38.266  22.726  26.184  1.00  0.00     0.118 C 
BRANCH  24  25
ATOM     25  N   UNL A   1      39.612  22.155  26.063  1.00  0.00    -0.352 N 
ATOM     26  C   UNL A   1      40.832  22.786  26.244  1.00  0.00     0.251 C 
ATOM     27  H   UNL A   1      39.653  21.202  25.823  1.00  0.00     0.163 HD
ATOM     28  O   UNL A   1      41.859  22.328  25.783  1.00  0.00    -0.269 OA
BRANCH  26  29
ATOM     29  C   UNL A   1      40.846  24.025  27.038  1.00  0.00     0.039 A 
ATOM     30  C   UNL A   1      41.549  24.148  28.240  1.00  0.00     0.014 A 
ATOM     31  C   UNL A   1      40.158  25.103  26.500  1.00  0.00     0.014 A 
ATOM     32  C   UNL A   1      41.571  25.394  28.861  1.00  0.00     0.010 A 
ATOM     33  C   UNL A   1      40.437  26.356  26.939  1.00  0.00     0.010 A 
ATOM     34  C   UNL A   1      41.006  26.489  28.191  1.00  0.00    -0.014 A 
BRANCH  34  35
ATOM     35  C   UNL A   1      41.009  27.835  28.726  1.00  0.00     0.031 A 
ATOM     36  C   UNL A   1      42.093  28.691  28.202  1.00  0.00     0.074 A 
ATOM     37  C   UNL A   1      39.961  28.316  29.430  1.00  0.00     0.049 A 
ATOM     38  N   UNL A   1      43.121  29.128  28.847  1.00  0.00    -0.248 NA
ATOM     39  C   UNL A   1      42.131  28.961  26.757  1.00  0.00     0.031 C 
ATOM     40  C   UNL A   1      38.675  27.673  29.745  1.00  0.00     0.029 A 
ATOM     41  N   UNL A   1      39.801  29.557  29.954  1.00  0.00    -0.354 N 
ATOM     42  C   UNL A   1      43.834  29.903  27.941  1.00  0.00     0.074 A 
ATOM     43  C   UNL A   1      43.299  29.596  26.640  1.00  0.00     0.031 C 
ATOM     44  C   UNL A   1      37.802  28.596  30.209  1.00  0.00     0.029 A 
ATOM     45  C   UNL A   1      38.513  29.846  30.387  1.00  0.00     0.049 A 
ATOM     46  H   UNL A   1      40.540  30.203  30.021  1.00  0.00     0.167 HD
ATOM     47  C   UNL A   1      44.623  30.925  28.376  1.00  0.00     0.037 A 
ATOM     48  C   UNL A   1      38.074  31.047  30.841  1.00  0.00     0.037 A 
ATOM     49  C   UNL A   1      44.873  30.810  29.793  1.00  0.00     0.049 A 
ATOM     50  C   UNL A   1      39.282  31.807  31.263  1.00  0.00     0.074 A 
ATOM     51  C   UNL A   1      45.478  29.860  30.594  1.00  0.00     0.029 A 
ATOM     52  N   UNL A   1      44.105  31.573  30.642  1.00  0.00    -0.354 N 
ATOM     53  N   UNL A   1      40.039  31.446  32.264  1.00  0.00    -0.248 NA
ATOM     54  C   UNL A   1      39.924  32.651  30.266  1.00  0.00     0.031 C 
ATOM     55  C   UNL A   1      44.663  29.793  31.765  1.00  0.00     0.029 A 
ATOM     56  C   UNL A   1      43.659  30.754  31.649  1.00  0.00     0.049 A 
ATOM     57  H   UNL A   1      43.911  32.534  30.545  1.00  0.00     0.167 HD
ATOM     58  C   UNL A   1      41.339  31.655  31.822  1.00  0.00     0.074 A 
ATOM     59  C   UNL A   1      41.202  32.460  30.607  1.00  0.00     0.031 C 
ATOM     60  C   UNL A   1      42.378  30.910  32.303  1.00  0.00     0.037 A 
BRANCH  47  61
ATOM     61  C   UNL A   1      44.845  32.214  27.625  1.00  0.00     0.064 A 
ATOM     62  C   UNL A   1      46.070  32.404  26.954  1.00  0.00     0.173 A 
ATOM     63  C   UNL A   1      44.052  33.372  27.779  1.00  0.00     0.173 A 
ATOM     64  F   UNL A   1      46.907  31.375  26.755  1.00  0.00    -0.203 F 
ATOM     65  C   UNL A   1      46.506  33.671  26.558  1.00  0.00     0.198 A 
ATOM     66  C   UNL A   1      44.467  34.625  27.334  1.00  0.00     0.198 A 
ATOM     67  F   UNL A   1      42.904  33.371  28.464  1.00  0.00    -0.203 F 
ATOM     68  F   UNL A   1      47.734  33.819  26.046  1.00  0.00    -0.200 F 
ATOM     69  C   UNL A   1      45.708  34.782  26.757  1.00  0.00     0.200 A 
ATOM     70  F   UNL A   1      43.684  35.692  27.550  1.00  0.00    -0.200 F 
ATOM     71  F   UNL A   1      46.150  36.005  26.440  1.00  0.00    -0.200 F 
ENDBRANCH  47  61
BRANCH  48  72
ATOM     72  C   UNL A   1      36.756  31.679  30.594  1.00  0.00     0.064 A 
ATOM     73  C   UNL A   1      35.919  32.068  31.652  1.00  0.00     0.173 A 
ATOM     74  C   UNL A   1      36.409  32.160  29.315  1.00  0.00     0.173 A 
ATOM     75  F   UNL A   1      36.205  31.695  32.908  1.00  0.00    -0.203 F 
ATOM     76  C   UNL A   1      34.812  32.901  31.444  1.00  0.00     0.198 A 
ATOM     77  C   UNL A   1      35.304  32.989  29.109  1.00  0.00     0.198 A 
ATOM     78  F   UNL A   1      37.190  31.913  28.254  1.00  0.00    -0.203 F 
ATOM     79  F   UNL A   1      34.066  33.295  32.488  1.00  0.00    -0.200 F 
ATOM     80  C   UNL A   1      34.512  33.369  30.176  1.00  0.00     0.200 A 
ATOM     81  F   UNL A   1      35.050  33.465  27.883  1.00  0.00    -0.200 F 
ATOM     82  F   UNL A   1      33.487  34.211  29.986  1.00  0.00    -0.200 F 
ENDBRANCH  48  72
BRANCH  60  83
ATOM     83  C   UNL A   1      42.108  30.002  33.475  1.00  0.00     0.064 A 
ATOM     84  C   UNL A   1      41.777  28.641  33.352  1.00  0.00     0.173 A 
ATOM     85  C   UNL A   1      42.360  30.483  34.766  1.00  0.00     0.173 A 
ATOM     86  F   UNL A   1      41.615  28.077  32.153  1.00  0.00    -0.203 F 
ATOM     87  C   UNL A   1      41.670  27.811  34.469  1.00  0.00     0.198 A 
ATOM     88  C   UNL A   1      42.285  29.645  35.876  1.00  0.00     0.198 A 
ATOM     89  F   UNL A   1      42.737  31.758  34.943  1.00  0.00    -0.203 F 
ATOM     90  F   UNL A   1      41.354  26.516  34.317  1.00  0.00    -0.200 F 
ATOM     91  C   UNL A   1      41.934  28.313  35.730  1.00  0.00     0.200 A 
ATOM     92  F   UNL A   1      42.589  30.125  37.091  1.00  0.00    -0.200 F 
ATOM     93  F   UNL A   1      41.879  27.508  36.800  1.00  0.00    -0.200 F 
ENDBRANCH  60  83
ENDBRANCH  34  35
ENDBRANCH  26  29
ENDBRANCH  24  25
ENDBRANCH  23  24
ENDBRANCH   1  23
TORSDOF 13
ENDMDL
MODEL 3
REMARK VINA RESULT:     -10.7      4.552     10.256
REMARK SMILES C[C@@H]1C[C@@H](C)CN(C(=O)CCn2cc(C(=O)NCCCNC(=O)c3ccc(-c4c5nc(c(-c6c(F)c(F)c(F)c(F)c6F)c6ccc([nH]6)c(-c6c(F)c(F)c(F)c(F)c6F)c6nc(c(-c7c(F)c(F)c(F)c(F)c7F)c7ccc4[nH]7)C=C6)C=C5)cc3)cn2)C1
REMARK SMILES IDX 18 1 17 2 15 3 16 4 14 6 12 7 13 8 88 9 87 10 11 11 10 12
REMARK SMILES IDX 8 13 1 14 2 15 3 16 89 17 4 18 7 19 6 20 5 21 9 22 19 23
REMARK SMILES IDX 20 24 21 25 22 26 23 28 24 29 25 30 86 31 26 32 85 33 27 34
REMARK SMILES IDX 28 35 29 36 79 37 30 38 84 39 78 40 80 41 31 42 83 43 77 44
REMARK SMILES IDX 76 45 32 47 64 48 44 49 63 50 45 51 48 52 62 53 81 54 46 55
REMARK SMILES IDX 47 56 61 58 82 59 49 60 33 61 34 62 42 63 35 64 36 65 40 66
REMARK SMILES IDX 43 67 37 68 38 69 41 70 39 71 65 72 66 73 74 74 67 75 68 76
REMARK SMILES IDX 72 77 75 78 69 79 70 80 73 81 71 82 50 83 51 84 59 85 52 86
REMARK SMILES IDX 53 87 57 88 60 89 54 90 55 91 58 92 56 93
REMARK H PARENT 17 5 21 27 80 46 48 57
REMARK Flexibility Score: inf
ROOT
ATOM      1  C   UNL A   1      36.124  20.791  25.216  1.00  0.00     0.118 C 
ENDROOT
BRANCH   1   2
ATOM      2  N   UNL A   1      34.946  19.978  24.976  1.00  0.00    -0.352 N 
ATOM      3  C   UNL A   1      33.682  20.067  25.506  1.00  0.00     0.254 C 
ATOM      4  O   UNL A   1      32.941  19.095  25.362  1.00  0.00    -0.269 OA
ATOM      5  H   UNL A   1      35.073  19.247  24.330  1.00  0.00     0.163 HD
BRANCH   3   6
ATOM      6  C   UNL A   1      33.201  21.305  26.101  1.00  0.00     0.077 A 
ATOM      7  N   UNL A   1      31.909  22.974  26.697  1.00  0.00    -0.271 N 
ATOM      8  C   UNL A   1      32.389  22.305  25.605  1.00  0.00     0.122 A 
ATOM      9  N   UNL A   1      32.617  22.730  27.807  1.00  0.00    -0.181 NA
ATOM     10  C   UNL A   1      33.408  21.714  27.445  1.00  0.00     0.149 A 
BRANCH   7  11
ATOM     11  C   UNL A   1      30.680  23.748  26.730  1.00  0.00     0.154 C 
BRANCH  11  12
ATOM     12  C   UNL A   1      30.689  24.903  25.727  1.00  0.00     0.124 C 
BRANCH  12  13
ATOM     13  C   UNL A   1      31.572  26.043  26.179  1.00  0.00     0.224 C 
ATOM     14  C   UNL A   1      32.106  29.409  25.134  1.00  0.00     0.009 C 
ATOM     15  C   UNL A   1      33.483  28.730  25.091  1.00  0.00     0.006 C 
ATOM     16  C   UNL A   1      33.899  28.358  23.661  1.00  0.00     0.010 C 
ATOM     17  C   UNL A   1      33.533  27.476  25.969  1.00  0.00     0.122 C 
ATOM     18  C   UNL A   1      33.077  27.185  23.098  1.00  0.00     0.006 C 
ATOM     19  N   UNL A   1      32.669  26.429  25.428  1.00  0.00    -0.342 N 
ATOM     20  C   UNL A   1      33.049  25.992  24.079  1.00  0.00     0.122 C 
ATOM     21  C   UNL A   1      33.614  26.806  21.716  1.00  0.00     0.009 C 
ATOM     22  O   UNL A   1      31.292  26.586  27.253  1.00  0.00    -0.275 OA
ENDBRANCH  12  13
ENDBRANCH  11  12
ENDBRANCH   7  11
ENDBRANCH   3   6
ENDBRANCH   1   2
BRANCH   1  23
ATOM     23  C   UNL A   1      37.394  20.048  24.775  1.00  0.00     0.042 C 
BRANCH  23  24
ATOM     24  C   UNL A   1      38.586  20.498  25.597  1.00  0.00     0.118 C 
BRANCH  24  25
ATOM     25  N   UNL A   1      39.595  19.439  25.717  1.00  0.00    -0.352 N 
ATOM     26  C   UNL A   1      40.959  19.572  25.919  1.00  0.00     0.251 C 
ATOM     27  H   UNL A   1      39.259  18.517  25.646  1.00  0.00     0.163 HD
ATOM     28  O   UNL A   1      41.731  18.672  25.653  1.00  0.00    -0.269 OA
BRANCH  26  29
ATOM     29  C   UNL A   1      41.442  20.838  26.491  1.00  0.00     0.039 A 
ATOM     30  C   UNL A   1      42.002  21.856  25.715  1.00  0.00     0.014 A 
ATOM     31  C   UNL A   1      41.263  20.998  27.858  1.00  0.00     0.014 A 
ATOM     32  C   UNL A   1      42.339  23.051  26.346  1.00  0.00     0.010 A 
ATOM     33  C   UNL A   1      41.305  22.244  28.393  1.00  0.00     0.010 A 
ATOM     34  C   UNL A   1      41.981  23.224  27.691  1.00  0.00    -0.014 A 
BRANCH  34  35
ATOM     35  C   UNL A   1      42.247  24.440  28.433  1.00  0.00     0.031 A 
ATOM     36  C   UNL A   1      41.203  25.476  28.290  1.00  0.00     0.074 A 
ATOM     37  C   UNL A   1      43.224  24.498  29.365  1.00  0.00     0.049 A 
ATOM     38  N   UNL A   1      41.303  26.602  27.671  1.00  0.00    -0.248 NA
ATOM     39  C   UNL A   1      39.840  25.158  28.745  1.00  0.00     0.031 C 
ATOM     40  C   UNL A   1      44.126  23.436  29.837  1.00  0.00     0.029 A 
ATOM     41  N   UNL A   1      43.562  25.542  30.162  1.00  0.00    -0.354 N 
ATOM     42  C   UNL A   1      40.076  27.233  27.833  1.00  0.00     0.074 A 
ATOM     43  C   UNL A   1      39.165  26.225  28.311  1.00  0.00     0.031 C 
ATOM     44  C   UNL A   1      44.746  23.831  30.972  1.00  0.00     0.029 A 
ATOM     45  C   UNL A   1      44.422  25.225  31.206  1.00  0.00     0.049 A 
ATOM     46  H   UNL A   1      43.223  26.454  30.013  1.00  0.00     0.167 HD
ATOM     47  C   UNL A   1      39.989  28.592  27.808  1.00  0.00     0.037 A 
ATOM     48  C   UNL A   1      44.814  26.060  32.199  1.00  0.00     0.037 A 
ATOM     49  C   UNL A   1      41.187  29.171  27.246  1.00  0.00     0.049 A 
ATOM     50  C   UNL A   1      44.590  27.444  31.701  1.00  0.00     0.074 A 
ATOM     51  C   UNL A   1      41.819  29.083  26.020  1.00  0.00     0.029 A 
ATOM     52  N   UNL A   1      42.138  29.648  28.118  1.00  0.00    -0.354 N 
ATOM     53  N   UNL A   1      45.249  27.957  30.695  1.00  0.00    -0.248 NA
ATOM     54  C   UNL A   1      43.298  28.055  31.978  1.00  0.00     0.031 C 
ATOM     55  C   UNL A   1      43.213  29.029  26.328  1.00  0.00     0.029 A 
ATOM     56  C   UNL A   1      43.356  29.165  27.709  1.00  0.00     0.049 A 
ATOM     57  H   UNL A   1      41.973  30.229  28.896  1.00  0.00     0.167 HD
ATOM     58  C   UNL A   1      44.296  28.653  29.963  1.00  0.00     0.074 A 
ATOM     59  C   UNL A   1      43.126  28.731  30.838  1.00  0.00     0.031 C 
ATOM     60  C   UNL A   1      44.433  28.834  28.615  1.00  0.00     0.037 A 
BRANCH  47  61
ATOM     61  C   UNL A   1      39.016  29.403  28.627  1.00  0.00     0.064 A 
ATOM     62  C   UNL A   1      37.994  30.109  27.961  1.00  0.00     0.173 A 
ATOM     63  C   UNL A   1      39.215  29.756  29.980  1.00  0.00     0.173 A 
ATOM     64  F   UNL A   1      37.720  29.860  26.672  1.00  0.00    -0.203 F 
ATOM     65  C   UNL A   1      37.296  31.152  28.575  1.00  0.00     0.198 A 
ATOM     66  C   UNL A   1      38.479  30.760  30.604  1.00  0.00     0.198 A 
ATOM     67  F   UNL A   1      40.198  29.236  30.721  1.00  0.00    -0.203 F 
ATOM     68  F   UNL A   1      36.430  31.882  27.860  1.00  0.00    -0.200 F 
ATOM     69  C   UNL A   1      37.547  31.483  29.894  1.00  0.00     0.200 A 
ATOM     70  F   UNL A   1      38.748  31.075  31.880  1.00  0.00    -0.200 F 
ATOM     71  F   UNL A   1      36.929  32.524  30.465  1.00  0.00    -0.200 F 
ENDBRANCH  47  61
BRANCH  48  72
ATOM     72  C   UNL A   1      45.018  25.731  33.631  1.00  0.00     0.064 A 
ATOM     73  C   UNL A   1      43.933  25.528  34.498  1.00  0.00     0.173 A 
ATOM     74  C   UNL A   1      46.284  25.342  34.113  1.00  0.00     0.173 A 
ATOM     75  F   UNL A   1      42.688  25.823  34.099  1.00  0.00    -0.203 F 
ATOM     76  C   UNL A   1      44.104  24.956  35.766  1.00  0.00     0.198 A 
ATOM     77  C   UNL A   1      46.453  24.775  35.378  1.00  0.00     0.198 A 
ATOM     78  F   UNL A   1      47.370  25.419  33.330  1.00  0.00    -0.203 F 
ATOM     79  F   UNL A   1      43.037  24.728  36.546  1.00  0.00    -0.200 F 
ATOM     80  C   UNL A   1      45.362  24.571  36.200  1.00  0.00     0.200 A 
ATOM     81  F   UNL A   1      47.670  24.371  35.767  1.00  0.00    -0.200 F 
ATOM     82  F   UNL A   1      45.517  23.972  37.389  1.00  0.00    -0.200 F 
ENDBRANCH  48  72
BRANCH  60  83
ATOM     83  C   UNL A   1      45.745  28.442  27.984  1.00  0.00     0.064 A 
ATOM     84  C   UNL A   1      45.993  27.184  27.409  1.00  0.00     0.173 A 
ATOM     85  C   UNL A   1      46.722  29.429  27.805  1.00  0.00     0.173 A 
ATOM     86  F   UNL A   1      45.074  26.215  27.448  1.00  0.00    -0.203 F 
ATOM     87  C   UNL A   1      47.174  26.916  26.717  1.00  0.00     0.198 A 
ATOM     88  C   UNL A   1      47.887  29.170  27.086  1.00  0.00     0.198 A 
ATOM     89  F   UNL A   1      46.518  30.667  28.280  1.00  0.00    -0.203 F 
ATOM     90  F   UNL A   1      47.380  25.704  26.178  1.00  0.00    -0.200 F 
ATOM     91  C   UNL A   1      48.116  27.914  26.549  1.00  0.00     0.200 A 
ATOM     92  F   UNL A   1      48.774  30.154  26.883  1.00  0.00    -0.200 F 
ATOM     93  F   UNL A   1      49.232  27.675  25.844  1.00  0.00    -0.200 F 
ENDBRANCH  60  83
ENDBRANCH  34  35
ENDBRANCH  26  29
ENDBRANCH  24  25
ENDBRANCH  23  24
ENDBRANCH   1  23
TORSDOF 13
ENDMDL
