MODEL 1
REMARK VINA RESULT:     -13.7      0.000      0.000
REMARK SMILES CC(C)C[C@H](NC(=O)[C@H]1N2C(=O)c3ccccc3[C@@H]2SC1(C)C)C(=O)N[C@@H](C)C(=O)NCCCNC(=O)c1ccc(-c2c3nc(c(-c4c(F)c(F)c(F)c(F)c4F)c4ccc([nH]4)c(-c4c(F)c(F)c(F)c(F)c4F)c4nc(c(-c5c(F)c(F)c(F)c(F)c5F)c5ccc2[nH]5)C=C4)C=C3)cc1
REMARK SMILES IDX 32 1 31 2 29 3 30 4 27 6 28 7 26 8 24 9 25 10 5 12 4 13 2 14
REMARK SMILES IDX 1 15 3 16 6 17 7 18 8 20 9 21 10 22 21 23 11 24 19 25 20 26
REMARK SMILES IDX 22 27 23 28 12 29 13 30 18 31 14 32 17 33 15 34 16 35 33 36
REMARK SMILES IDX 34 37 35 38 36 39 37 41 38 42 39 43 100 44 40 45 99 46 41 47
REMARK SMILES IDX 42 48 43 49 93 50 44 51 98 52 92 53 94 54 45 55 97 56 91 57
REMARK SMILES IDX 90 58 46 60 78 61 58 62 77 63 59 64 62 65 76 66 95 67 60 68
REMARK SMILES IDX 61 69 75 71 96 72 63 73 47 74 48 75 56 76 49 77 50 78 54 79
REMARK SMILES IDX 57 80 51 81 52 82 55 83 53 84 79 85 80 86 88 87 81 88 82 89
REMARK SMILES IDX 86 90 89 91 83 92 84 93 87 94 85 95 64 96 65 97 73 98 66 99
REMARK SMILES IDX 67 100 71 101 74 102 68 103 69 104 72 105 70 106
REMARK H PARENT 31 5 26 11 6 19 35 40 94 59 62 70
REMARK Flexibility Score: inf
ROOT
ATOM      1  C   UNL A   1      31.688  30.370  26.243  1.00  0.00     0.117 C 
ENDROOT
BRANCH   1   2
ATOM      2  N   UNL A   1      31.211  29.935  24.942  1.00  0.00    -0.354 N 
ATOM      3  C   UNL A   1      31.831  29.303  23.909  1.00  0.00     0.242 C 
ATOM      4  O   UNL A   1      31.131  28.989  22.942  1.00  0.00    -0.273 OA
ATOM      5  H   UNL A   1      30.261  30.134  24.777  1.00  0.00     0.163 HD
BRANCH   3   6
ATOM      6  C   UNL A   1      33.326  28.932  23.940  1.00  0.00     0.168 C 
ATOM      7  C   UNL A   1      33.816  28.382  22.606  1.00  0.00     0.041 C 
BRANCH   6   8
ATOM      8  N   UNL A   1      33.617  28.027  25.046  1.00  0.00    -0.343 N 
ATOM      9  C   UNL A   1      33.469  26.680  25.146  1.00  0.00     0.243 C 
ATOM     10  O   UNL A   1      33.982  26.138  26.132  1.00  0.00    -0.273 OA
ATOM     11  H   UNL A   1      33.979  28.464  25.851  1.00  0.00     0.164 HD
BRANCH   9  12
ATOM     12  C   UNL A   1      32.656  25.841  24.136  1.00  0.00     0.171 C 
BRANCH  12  13
ATOM     13  C   UNL A   1      31.462  25.054  24.686  1.00  0.00     0.038 C 
BRANCH  13  14
ATOM     14  C   UNL A   1      30.282  25.915  25.185  1.00  0.00    -0.015 C 
ATOM     15  C   UNL A   1      29.294  26.286  24.080  1.00  0.00     0.007 C 
ATOM     16  C   UNL A   1      29.529  25.162  26.286  1.00  0.00     0.007 C 
ENDBRANCH  13  14
ENDBRANCH  12  13
BRANCH  12  17
ATOM     17  N   UNL A   1      33.583  25.000  23.368  1.00  0.00    -0.342 N 
ATOM     18  C   UNL A   1      34.125  23.767  23.551  1.00  0.00     0.244 C 
ATOM     19  H   UNL A   1      33.881  25.427  22.532  1.00  0.00     0.164 HD
ATOM     20  O   UNL A   1      34.877  23.402  22.636  1.00  0.00    -0.273 OA
BRANCH  18  21
ATOM     21  C   UNL A   1      33.971  22.890  24.825  1.00  0.00     0.191 C 
ATOM     22  N   UNL A   1      33.778  21.474  24.610  1.00  0.00    -0.309 N 
ATOM     23  C   UNL A   1      35.137  22.981  25.872  1.00  0.00     0.042 C 
ATOM     24  C   UNL A   1      32.639  20.754  24.888  1.00  0.00     0.256 C 
ATOM     25  C   UNL A   1      34.967  20.667  24.529  1.00  0.00     0.176 C 
ATOM     26  S   UNL A   1      35.991  21.312  25.842  1.00  0.00    -0.123 SA
ATOM     27  C   UNL A   1      36.212  24.039  25.622  1.00  0.00     0.026 C 
ATOM     28  C   UNL A   1      34.563  23.159  27.287  1.00  0.00     0.026 C 
ATOM     29  O   UNL A   1      31.522  21.171  25.114  1.00  0.00    -0.269 OA
ATOM     30  C   UNL A   1      33.040  19.342  24.864  1.00  0.00     0.046 A 
ATOM     31  C   UNL A   1      34.421  19.287  24.644  1.00  0.00    -0.002 A 
ATOM     32  C   UNL A   1      32.238  18.219  24.915  1.00  0.00     0.014 A 
ATOM     33  C   UNL A   1      35.033  18.067  24.421  1.00  0.00     0.007 A 
ATOM     34  C   UNL A   1      32.854  16.988  24.687  1.00  0.00     0.001 A 
ATOM     35  C   UNL A   1      34.237  16.915  24.435  1.00  0.00     0.000 A 
ENDBRANCH  18  21
ENDBRANCH  12  17
ENDBRANCH   9  12
ENDBRANCH   6   8
ENDBRANCH   3   6
ENDBRANCH   1   2
BRANCH   1  36
ATOM     36  C   UNL A   1      31.531  31.871  26.448  1.00  0.00     0.042 C 
BRANCH  36  37
ATOM     37  C   UNL A   1      32.679  32.522  27.211  1.00  0.00     0.118 C 
BRANCH  37  38
ATOM     38  N   UNL A   1      32.411  33.908  27.577  1.00  0.00    -0.352 N 
ATOM     39  C   UNL A   1      33.005  34.718  28.516  1.00  0.00     0.251 C 
ATOM     40  H   UNL A   1      31.685  34.335  27.067  1.00  0.00     0.163 HD
ATOM     41  O   UNL A   1      32.511  35.810  28.779  1.00  0.00    -0.269 OA
BRANCH  39  42
ATOM     42  C   UNL A   1      34.216  34.269  29.235  1.00  0.00     0.039 A 
ATOM     43  C   UNL A   1      35.485  34.470  28.694  1.00  0.00     0.014 A 
ATOM     44  C   UNL A   1      34.078  33.631  30.472  1.00  0.00     0.014 A 
ATOM     45  C   UNL A   1      36.589  33.863  29.281  1.00  0.00     0.010 A 
ATOM     46  C   UNL A   1      35.203  33.104  31.113  1.00  0.00     0.010 A 
ATOM     47  C   UNL A   1      36.461  33.164  30.493  1.00  0.00    -0.014 A 
BRANCH  47  48
ATOM     48  C   UNL A   1      37.651  32.489  31.072  1.00  0.00     0.031 A 
ATOM     49  C   UNL A   1      38.116  32.818  32.466  1.00  0.00     0.074 A 
ATOM     50  C   UNL A   1      38.269  31.522  30.367  1.00  0.00     0.049 A 
ATOM     51  N   UNL A   1      39.118  32.314  33.142  1.00  0.00    -0.248 NA
ATOM     52  C   UNL A   1      37.362  33.848  33.198  1.00  0.00     0.031 C 
ATOM     53  C   UNL A   1      37.899  31.101  29.015  1.00  0.00     0.029 A 
ATOM     54  N   UNL A   1      39.311  30.694  30.699  1.00  0.00    -0.354 N 
ATOM     55  C   UNL A   1      39.125  32.975  34.364  1.00  0.00     0.074 A 
ATOM     56  C   UNL A   1      38.045  33.937  34.331  1.00  0.00     0.031 C 
ATOM     57  C   UNL A   1      38.657  30.055  28.658  1.00  0.00     0.029 A 
ATOM     58  C   UNL A   1      39.610  29.772  29.726  1.00  0.00     0.049 A 
ATOM     59  H   UNL A   1      39.798  30.756  31.553  1.00  0.00     0.167 HD
ATOM     60  C   UNL A   1      39.949  32.785  35.422  1.00  0.00     0.037 A 
ATOM     61  C   UNL A   1      40.552  28.811  29.694  1.00  0.00     0.037 A 
ATOM     62  C   UNL A   1      41.002  31.805  35.467  1.00  0.00     0.049 A 
ATOM     63  C   UNL A   1      41.476  28.650  30.866  1.00  0.00     0.074 A 
ATOM     64  C   UNL A   1      41.879  31.530  36.502  1.00  0.00     0.029 A 
ATOM     65  N   UNL A   1      41.315  30.933  34.434  1.00  0.00    -0.354 N 
ATOM     66  N   UNL A   1      41.479  29.290  32.009  1.00  0.00    -0.248 NA
ATOM     67  C   UNL A   1      42.538  27.642  30.739  1.00  0.00     0.031 C 
ATOM     68  C   UNL A   1      42.746  30.514  36.083  1.00  0.00     0.029 A 
ATOM     69  C   UNL A   1      42.381  30.130  34.803  1.00  0.00     0.049 A 
ATOM     70  H   UNL A   1      40.847  30.892  33.569  1.00  0.00     0.167 HD
ATOM     71  C   UNL A   1      42.533  28.763  32.738  1.00  0.00     0.074 A 
ATOM     72  C   UNL A   1      43.135  27.731  31.919  1.00  0.00     0.031 C 
ATOM     73  C   UNL A   1      42.969  29.110  33.973  1.00  0.00     0.037 A 
BRANCH  60  74
ATOM     74  C   UNL A   1      39.754  33.655  36.629  1.00  0.00     0.064 A 
ATOM     75  C   UNL A   1      40.345  34.923  36.723  1.00  0.00     0.173 A 
ATOM     76  C   UNL A   1      38.903  33.247  37.668  1.00  0.00     0.173 A 
ATOM     77  F   UNL A   1      41.175  35.353  35.761  1.00  0.00    -0.203 F 
ATOM     78  C   UNL A   1      40.101  35.746  37.819  1.00  0.00     0.198 A 
ATOM     79  C   UNL A   1      38.643  34.083  38.751  1.00  0.00     0.198 A 
ATOM     80  F   UNL A   1      38.310  32.045  37.623  1.00  0.00    -0.203 F 
ATOM     81  F   UNL A   1      40.698  36.944  37.902  1.00  0.00    -0.200 F 
ATOM     82  C   UNL A   1      39.244  35.330  38.827  1.00  0.00     0.200 A 
ATOM     83  F   UNL A   1      37.806  33.683  39.718  1.00  0.00    -0.200 F 
ATOM     84  F   UNL A   1      38.997  36.131  39.873  1.00  0.00    -0.200 F 
ENDBRANCH  60  74
BRANCH  61  85
ATOM     85  C   UNL A   1      40.659  27.929  28.502  1.00  0.00     0.064 A 
ATOM     86  C   UNL A   1      41.436  28.307  27.399  1.00  0.00     0.173 A 
ATOM     87  C   UNL A   1      40.014  26.686  28.455  1.00  0.00     0.173 A 
ATOM     88  F   UNL A   1      42.055  29.497  27.390  1.00  0.00    -0.203 F 
ATOM     89  C   UNL A   1      41.561  27.472  26.291  1.00  0.00     0.198 A 
ATOM     90  C   UNL A   1      40.163  25.840  27.359  1.00  0.00     0.198 A 
ATOM     91  F   UNL A   1      39.262  26.280  29.488  1.00  0.00    -0.203 F 
ATOM     92  F   UNL A   1      42.286  27.867  25.235  1.00  0.00    -0.200 F 
ATOM     93  C   UNL A   1      40.931  26.236  26.275  1.00  0.00     0.200 A 
ATOM     94  F   UNL A   1      39.566  24.641  27.355  1.00  0.00    -0.200 F 
ATOM     95  F   UNL A   1      41.065  25.427  25.215  1.00  0.00    -0.200 F 
ENDBRANCH  61  85
BRANCH  73  96
ATOM     96  C   UNL A   1      44.150  28.367  34.520  1.00  0.00     0.064 A 
ATOM     97  C   UNL A   1      45.454  28.856  34.363  1.00  0.00     0.173 A 
ATOM     98  C   UNL A   1      43.971  27.190  35.263  1.00  0.00     0.173 A 
ATOM     99  F   UNL A   1      45.675  29.971  33.650  1.00  0.00    -0.203 F 
ATOM    100  C   UNL A   1      46.540  28.187  34.919  1.00  0.00     0.198 A 
ATOM    101  C   UNL A   1      45.056  26.536  35.838  1.00  0.00     0.198 A 
ATOM    102  F   UNL A   1      42.741  26.687  35.445  1.00  0.00    -0.203 F 
ATOM    103  F   UNL A   1      47.782  28.654  34.731  1.00  0.00    -0.200 F 
ATOM    104  C   UNL A   1      46.340  27.032  35.663  1.00  0.00     0.200 A 
ATOM    105  F   UNL A   1      44.860  25.429  36.565  1.00  0.00    -0.200 F 
ATOM    106  F   UNL A   1      47.385  26.396  36.208  1.00  0.00    -0.200 F 
ENDBRANCH  73  96
ENDBRANCH  47  48
ENDBRANCH  39  42
ENDBRANCH  37  38
ENDBRANCH  36  37
ENDBRANCH   1  36
TORSDOF 16
ENDMDL
MODEL 2
REMARK VINA RESULT:     -13.6      0.152      1.509
REMARK SMILES CC(C)C[C@H](NC(=O)[C@H]1N2C(=O)c3ccccc3[C@@H]2SC1(C)C)C(=O)N[C@@H](C)C(=O)NCCCNC(=O)c1ccc(-c2c3nc(c(-c4c(F)c(F)c(F)c(F)c4F)c4ccc([nH]4)c(-c4c(F)c(F)c(F)c(F)c4F)c4nc(c(-c5c(F)c(F)c(F)c(F)c5F)c5ccc2[nH]5)C=C4)C=C3)cc1
REMARK SMILES IDX 32 1 31 2 29 3 30 4 27 6 28 7 26 8 24 9 25 10 5 12 4 13 2 14
REMARK SMILES IDX 1 15 3 16 6 17 7 18 8 20 9 21 10 22 21 23 11 24 19 25 20 26
REMARK SMILES IDX 22 27 23 28 12 29 13 30 18 31 14 32 17 33 15 34 16 35 33 36
REMARK SMILES IDX 34 37 35 38 36 39 37 41 38 42 39 43 100 44 40 45 99 46 41 47
REMARK SMILES IDX 42 48 43 49 93 50 44 51 98 52 92 53 94 54 45 55 97 56 91 57
REMARK SMILES IDX 90 58 46 60 78 61 58 62 77 63 59 64 62 65 76 66 95 67 60 68
REMARK SMILES IDX 61 69 75 71 96 72 63 73 47 74 48 75 56 76 49 77 50 78 54 79
REMARK SMILES IDX 57 80 51 81 52 82 55 83 53 84 79 85 80 86 88 87 81 88 82 89
REMARK SMILES IDX 86 90 89 91 83 92 84 93 87 94 85 95 64 96 65 97 73 98 66 99
REMARK SMILES IDX 67 100 71 101 74 102 68 103 69 104 72 105 70 106
REMARK H PARENT 31 5 26 11 6 19 35 40 94 59 62 70
REMARK Flexibility Score: inf
ROOT
ATOM      1  C   UNL A   1      31.676  30.350  26.247  1.00  0.00     0.117 C 
ENDROOT
BRANCH   1   2
ATOM      2  N   UNL A   1      31.210  29.910  24.944  1.00  0.00    -0.354 N 
ATOM      3  C   UNL A   1      31.842  29.283  23.915  1.00  0.00     0.242 C 
ATOM      4  O   UNL A   1      31.149  28.962  22.943  1.00  0.00    -0.273 OA
ATOM      5  H   UNL A   1      30.259  30.100  24.773  1.00  0.00     0.163 HD
BRANCH   3   6
ATOM      6  C   UNL A   1      33.339  28.924  23.954  1.00  0.00     0.168 C 
ATOM      7  C   UNL A   1      33.843  28.388  22.620  1.00  0.00     0.041 C 
BRANCH   6   8
ATOM      8  N   UNL A   1      33.630  28.015  25.056  1.00  0.00    -0.343 N 
ATOM      9  C   UNL A   1      33.473  26.669  25.154  1.00  0.00     0.243 C 
ATOM     10  O   UNL A   1      33.988  26.121  26.136  1.00  0.00    -0.273 OA
ATOM     11  H   UNL A   1      34.000  28.447  25.860  1.00  0.00     0.164 HD
BRANCH   9  12
ATOM     12  C   UNL A   1      32.647  25.838  24.147  1.00  0.00     0.171 C 
BRANCH  12  13
ATOM     13  C   UNL A   1      31.454  25.055  24.704  1.00  0.00     0.038 C 
BRANCH  13  14
ATOM     14  C   UNL A   1      30.283  25.920  25.217  1.00  0.00    -0.015 C 
ATOM     15  C   UNL A   1      29.292  26.310  24.121  1.00  0.00     0.007 C 
ATOM     16  C   UNL A   1      29.530  25.161  26.315  1.00  0.00     0.007 C 
ENDBRANCH  13  14
ENDBRANCH  12  13
BRANCH  12  17
ATOM     17  N   UNL A   1      33.564  24.996  23.369  1.00  0.00    -0.342 N 
ATOM     18  C   UNL A   1      34.103  23.760  23.543  1.00  0.00     0.244 C 
ATOM     19  H   UNL A   1      33.856  25.424  22.531  1.00  0.00     0.164 HD
ATOM     20  O   UNL A   1      34.845  23.395  22.620  1.00  0.00    -0.273 OA
BRANCH  18  21
ATOM     21  C   UNL A   1      33.956  22.879  24.816  1.00  0.00     0.191 C 
ATOM     22  N   UNL A   1      33.762  21.465  24.599  1.00  0.00    -0.309 N 
ATOM     23  C   UNL A   1      35.129  22.969  25.856  1.00  0.00     0.042 C 
ATOM     24  C   UNL A   1      32.625  20.744  24.882  1.00  0.00     0.256 C 
ATOM     25  C   UNL A   1      34.951  20.658  24.509  1.00  0.00     0.176 C 
ATOM     26  S   UNL A   1      35.983  21.300  25.817  1.00  0.00    -0.123 SA
ATOM     27  C   UNL A   1      36.202  24.028  25.602  1.00  0.00     0.026 C 
ATOM     28  C   UNL A   1      34.564  23.143  27.275  1.00  0.00     0.026 C 
ATOM     29  O   UNL A   1      31.509  21.160  25.116  1.00  0.00    -0.269 OA
ATOM     30  C   UNL A   1      33.027  19.332  24.852  1.00  0.00     0.046 A 
ATOM     31  C   UNL A   1      34.406  19.278  24.624  1.00  0.00    -0.002 A 
ATOM     32  C   UNL A   1      32.224  18.208  24.906  1.00  0.00     0.014 A 
ATOM     33  C   UNL A   1      35.017  18.058  24.394  1.00  0.00     0.007 A 
ATOM     34  C   UNL A   1      32.839  16.978  24.671  1.00  0.00     0.001 A 
ATOM     35  C   UNL A   1      34.221  16.906  24.410  1.00  0.00     0.000 A 
ENDBRANCH  18  21
ENDBRANCH  12  17
ENDBRANCH   9  12
ENDBRANCH   6   8
ENDBRANCH   3   6
ENDBRANCH   1   2
BRANCH   1  36
ATOM     36  C   UNL A   1      31.505  31.849  26.450  1.00  0.00     0.042 C 
BRANCH  36  37
ATOM     37  C   UNL A   1      32.649  32.513  27.207  1.00  0.00     0.118 C 
BRANCH  37  38
ATOM     38  N   UNL A   1      32.381  33.907  27.545  1.00  0.00    -0.352 N 
ATOM     39  C   UNL A   1      32.968  34.732  28.475  1.00  0.00     0.251 C 
ATOM     40  H   UNL A   1      31.662  34.326  27.020  1.00  0.00     0.163 HD
ATOM     41  O   UNL A   1      32.474  35.830  28.713  1.00  0.00    -0.269 OA
BRANCH  39  42
ATOM     42  C   UNL A   1      34.169  34.292  29.216  1.00  0.00     0.039 A 
ATOM     43  C   UNL A   1      35.447  34.535  28.714  1.00  0.00     0.014 A 
ATOM     44  C   UNL A   1      34.013  33.622  30.434  1.00  0.00     0.014 A 
ATOM     45  C   UNL A   1      36.549  33.939  29.316  1.00  0.00     0.010 A 
ATOM     46  C   UNL A   1      35.133  33.105  31.092  1.00  0.00     0.010 A 
ATOM     47  C   UNL A   1      36.404  33.208  30.508  1.00  0.00    -0.014 A 
BRANCH  47  48
ATOM     48  C   UNL A   1      37.594  32.546  31.103  1.00  0.00     0.031 A 
ATOM     49  C   UNL A   1      38.059  32.907  32.488  1.00  0.00     0.074 A 
ATOM     50  C   UNL A   1      38.212  31.562  30.420  1.00  0.00     0.049 A 
ATOM     51  N   UNL A   1      39.060  32.418  33.176  1.00  0.00    -0.248 NA
ATOM     52  C   UNL A   1      37.305  33.954  33.196  1.00  0.00     0.031 C 
ATOM     53  C   UNL A   1      37.841  31.110  29.079  1.00  0.00     0.029 A 
ATOM     54  N   UNL A   1      39.253  30.742  30.772  1.00  0.00    -0.354 N 
ATOM     55  C   UNL A   1      39.068  33.108  34.383  1.00  0.00     0.074 A 
ATOM     56  C   UNL A   1      37.989  34.069  34.326  1.00  0.00     0.031 C 
ATOM     57  C   UNL A   1      38.599  30.055  28.746  1.00  0.00     0.029 A 
ATOM     58  C   UNL A   1      39.551  29.797  29.821  1.00  0.00     0.049 A 
ATOM     59  H   UNL A   1      39.740  30.823  31.624  1.00  0.00     0.167 HD
ATOM     60  C   UNL A   1      39.892  32.942  35.445  1.00  0.00     0.037 A 
ATOM     61  C   UNL A   1      40.492  28.834  29.811  1.00  0.00     0.037 A 
ATOM     62  C   UNL A   1      40.945  31.962  35.512  1.00  0.00     0.049 A 
ATOM     63  C   UNL A   1      41.416  28.700  30.987  1.00  0.00     0.074 A 
ATOM     64  C   UNL A   1      41.821  31.711  36.554  1.00  0.00     0.029 A 
ATOM     65  N   UNL A   1      41.256  31.067  34.501  1.00  0.00    -0.354 N 
ATOM     66  N   UNL A   1      41.419  29.367  32.114  1.00  0.00    -0.248 NA
ATOM     67  C   UNL A   1      42.478  27.689  30.883  1.00  0.00     0.031 C 
ATOM     68  C   UNL A   1      42.687  30.685  36.159  1.00  0.00     0.029 A 
ATOM     69  C   UNL A   1      42.322  30.272  34.888  1.00  0.00     0.049 A 
ATOM     70  H   UNL A   1      40.789  31.005  33.637  1.00  0.00     0.167 HD
ATOM     71  C   UNL A   1      42.474  28.856  32.856  1.00  0.00     0.074 A 
ATOM     72  C   UNL A   1      43.075  27.805  32.062  1.00  0.00     0.031 C 
ATOM     73  C   UNL A   1      42.909  29.232  34.083  1.00  0.00     0.037 A 
BRANCH  60  74
ATOM     74  C   UNL A   1      39.697  33.840  36.631  1.00  0.00     0.064 A 
ATOM     75  C   UNL A   1      38.904  33.454  37.721  1.00  0.00     0.173 A 
ATOM     76  C   UNL A   1      40.373  35.068  36.711  1.00  0.00     0.173 A 
ATOM     77  F   UNL A   1      38.229  32.295  37.687  1.00  0.00    -0.203 F 
ATOM     78  C   UNL A   1      38.786  34.268  38.844  1.00  0.00     0.198 A 
ATOM     79  C   UNL A   1      40.271  35.869  37.846  1.00  0.00     0.198 A 
ATOM     80  F   UNL A   1      41.147  35.480  35.697  1.00  0.00    -0.203 F 
ATOM     81  F   UNL A   1      38.001  33.892  39.863  1.00  0.00    -0.200 F 
ATOM     82  C   UNL A   1      39.476  35.470  38.909  1.00  0.00     0.200 A 
ATOM     83  F   UNL A   1      40.947  37.024  37.911  1.00  0.00    -0.200 F 
ATOM     84  F   UNL A   1      39.373  36.245  39.999  1.00  0.00    -0.200 F 
ENDBRANCH  60  74
BRANCH  61  85
ATOM     85  C   UNL A   1      40.600  27.925  28.641  1.00  0.00     0.064 A 
ATOM     86  C   UNL A   1      39.905  26.709  28.611  1.00  0.00     0.173 A 
ATOM     87  C   UNL A   1      41.373  28.266  27.522  1.00  0.00     0.173 A 
ATOM     88  F   UNL A   1      39.170  26.330  29.667  1.00  0.00    -0.203 F 
ATOM     89  C   UNL A   1      39.982  25.865  27.505  1.00  0.00     0.198 A 
ATOM     90  C   UNL A   1      41.427  27.435  26.405  1.00  0.00     0.198 A 
ATOM     91  F   UNL A   1      42.054  29.421  27.503  1.00  0.00    -0.203 F 
ATOM     92  F   UNL A   1      39.332  24.694  27.512  1.00  0.00    -0.200 F 
ATOM     93  C   UNL A   1      40.736  26.233  26.399  1.00  0.00     0.200 A 
ATOM     94  F   UNL A   1      42.143  27.802  25.335  1.00  0.00    -0.200 F 
ATOM     95  F   UNL A   1      40.797  25.428  25.330  1.00  0.00    -0.200 F 
ENDBRANCH  61  85
BRANCH  73  96
ATOM     96  C   UNL A   1      44.090  28.500  34.647  1.00  0.00     0.064 A 
ATOM     97  C   UNL A   1      45.395  28.984  34.476  1.00  0.00     0.173 A 
ATOM     98  C   UNL A   1      43.909  27.344  35.420  1.00  0.00     0.173 A 
ATOM     99  F   UNL A   1      45.616  30.079  33.733  1.00  0.00    -0.203 F 
ATOM    100  C   UNL A   1      46.480  28.326  35.047  1.00  0.00     0.198 A 
ATOM    101  C   UNL A   1      44.994  26.703  36.011  1.00  0.00     0.198 A 
ATOM    102  F   UNL A   1      42.679  26.848  35.618  1.00  0.00    -0.203 F 
ATOM    103  F   UNL A   1      47.722  28.786  34.845  1.00  0.00    -0.200 F 
ATOM    104  C   UNL A   1      46.279  27.192  35.821  1.00  0.00     0.200 A 
ATOM    105  F   UNL A   1      44.798  25.615  36.767  1.00  0.00    -0.200 F 
ATOM    106  F   UNL A   1      47.324  26.568  36.381  1.00  0.00    -0.200 F 
ENDBRANCH  73  96
ENDBRANCH  47  48
ENDBRANCH  39  42
ENDBRANCH  37  38
ENDBRANCH  36  37
ENDBRANCH   1  36
TORSDOF 16
ENDMDL
MODEL 3
REMARK VINA RESULT:     -13.6      0.455      6.986
REMARK SMILES CC(C)C[C@H](NC(=O)[C@H]1N2C(=O)c3ccccc3[C@@H]2SC1(C)C)C(=O)N[C@@H](C)C(=O)NCCCNC(=O)c1ccc(-c2c3nc(c(-c4c(F)c(F)c(F)c(F)c4F)c4ccc([nH]4)c(-c4c(F)c(F)c(F)c(F)c4F)c4nc(c(-c5c(F)c(F)c(F)c(F)c5F)c5ccc2[nH]5)C=C4)C=C3)cc1
REMARK SMILES IDX 32 1 31 2 29 3 30 4 27 6 28 7 26 8 24 9 25 10 5 12 4 13 2 14
REMARK SMILES IDX 1 15 3 16 6 17 7 18 8 20 9 21 10 22 21 23 11 24 19 25 20 26
REMARK SMILES IDX 22 27 23 28 12 29 13 30 18 31 14 32 17 33 15 34 16 35 33 36
REMARK SMILES IDX 34 37 35 38 36 39 37 41 38 42 39 43 100 44 40 45 99 46 41 47
REMARK SMILES IDX 42 48 43 49 93 50 44 51 98 52 92 53 94 54 45 55 97 56 91 57
REMARK SMILES IDX 90 58 46 60 78 61 58 62 77 63 59 64 62 65 76 66 95 67 60 68
REMARK SMILES IDX 61 69 75 71 96 72 63 73 47 74 48 75 56 76 49 77 50 78 54 79
REMARK SMILES IDX 57 80 51 81 52 82 55 83 53 84 79 85 80 86 88 87 81 88 82 89
REMARK SMILES IDX 86 90 89 91 83 92 84 93 87 94 85 95 64 96 65 97 73 98 66 99
REMARK SMILES IDX 67 100 71 101 74 102 68 103 69 104 72 105 70 106
REMARK H PARENT 31 5 26 11 6 19 35 40 94 59 62 70
REMARK Flexibility Score: inf
ROOT
ATOM      1  C   UNL A   1      31.763  30.461  26.311  1.00  0.00     0.117 C 
ENDROOT
BRANCH   1   2
ATOM      2  N   UNL A   1      31.252  30.004  25.031  1.00  0.00    -0.354 N 
ATOM      3  C   UNL A   1      31.840  29.335  24.002  1.00  0.00     0.242 C 
ATOM      4  O   UNL A   1      31.115  29.012  23.056  1.00  0.00    -0.273 OA
ATOM      5  H   UNL A   1      30.303  30.217  24.879  1.00  0.00     0.163 HD
BRANCH   3   6
ATOM      6  C   UNL A   1      33.328  28.936  24.013  1.00  0.00     0.168 C 
ATOM      7  C   UNL A   1      33.796  28.400  22.665  1.00  0.00     0.041 C 
BRANCH   6   8
ATOM      8  N   UNL A   1      33.611  28.007  25.100  1.00  0.00    -0.343 N 
ATOM      9  C   UNL A   1      33.455  26.658  25.172  1.00  0.00     0.243 C 
ATOM     10  O   UNL A   1      33.963  26.093  26.148  1.00  0.00    -0.273 OA
ATOM     11  H   UNL A   1      33.973  28.424  25.916  1.00  0.00     0.164 HD
BRANCH   9  12
ATOM     12  C   UNL A   1      32.639  25.845  24.143  1.00  0.00     0.171 C 
BRANCH  12  13
ATOM     13  C   UNL A   1      31.434  25.063  24.673  1.00  0.00     0.038 C 
BRANCH  13  14
ATOM     14  C   UNL A   1      30.259  25.928  25.179  1.00  0.00    -0.015 C 
ATOM     15  C   UNL A   1      29.245  26.269  24.088  1.00  0.00     0.007 C 
ATOM     16  C   UNL A   1      29.536  25.196  26.313  1.00  0.00     0.007 C 
ENDBRANCH  13  14
ENDBRANCH  12  13
BRANCH  12  17
ATOM     17  N   UNL A   1      33.562  25.008  23.368  1.00  0.00    -0.342 N 
ATOM     18  C   UNL A   1      34.103  23.772  23.542  1.00  0.00     0.244 C 
ATOM     19  H   UNL A   1      33.858  25.438  22.533  1.00  0.00     0.164 HD
ATOM     20  O   UNL A   1      34.851  23.411  22.622  1.00  0.00    -0.273 OA
BRANCH  18  21
ATOM     21  C   UNL A   1      33.951  22.888  24.811  1.00  0.00     0.191 C 
ATOM     22  N   UNL A   1      33.757  21.474  24.589  1.00  0.00    -0.309 N 
ATOM     23  C   UNL A   1      35.119  22.973  25.856  1.00  0.00     0.042 C 
ATOM     24  C   UNL A   1      32.619  20.752  24.866  1.00  0.00     0.256 C 
ATOM     25  C   UNL A   1      34.946  20.667  24.500  1.00  0.00     0.176 C 
ATOM     26  S   UNL A   1      35.974  21.304  25.815  1.00  0.00    -0.123 SA
ATOM     27  C   UNL A   1      36.195  24.033  25.609  1.00  0.00     0.026 C 
ATOM     28  C   UNL A   1      34.549  23.144  27.273  1.00  0.00     0.026 C 
ATOM     29  O   UNL A   1      31.502  21.168  25.096  1.00  0.00    -0.269 OA
ATOM     30  C   UNL A   1      33.020  19.340  24.833  1.00  0.00     0.046 A 
ATOM     31  C   UNL A   1      34.400  19.287  24.610  1.00  0.00    -0.002 A 
ATOM     32  C   UNL A   1      32.217  18.217  24.880  1.00  0.00     0.014 A 
ATOM     33  C   UNL A   1      35.012  18.068  24.378  1.00  0.00     0.007 A 
ATOM     34  C   UNL A   1      32.833  16.988  24.643  1.00  0.00     0.001 A 
ATOM     35  C   UNL A   1      34.216  16.916  24.388  1.00  0.00     0.000 A 
ENDBRANCH  18  21
ENDBRANCH  12  17
ENDBRANCH   9  12
ENDBRANCH   6   8
ENDBRANCH   3   6
ENDBRANCH   1   2
BRANCH   1  36
ATOM     36  C   UNL A   1      31.597  31.962  26.501  1.00  0.00     0.042 C 
BRANCH  36  37
ATOM     37  C   UNL A   1      32.757  32.633  27.229  1.00  0.00     0.118 C 
BRANCH  37  38
ATOM     38  N   UNL A   1      32.485  34.022  27.584  1.00  0.00    -0.352 N 
ATOM     39  C   UNL A   1      33.009  34.811  28.580  1.00  0.00     0.251 C 
ATOM     40  H   UNL A   1      31.815  34.467  27.016  1.00  0.00     0.163 HD
ATOM     41  O   UNL A   1      32.515  35.911  28.810  1.00  0.00    -0.269 OA
BRANCH  39  42
ATOM     42  C   UNL A   1      34.141  34.331  29.399  1.00  0.00     0.039 A 
ATOM     43  C   UNL A   1      35.456  34.478  28.959  1.00  0.00     0.014 A 
ATOM     44  C   UNL A   1      33.882  33.718  30.630  1.00  0.00     0.014 A 
ATOM     45  C   UNL A   1      36.487  33.842  29.640  1.00  0.00     0.010 A 
ATOM     46  C   UNL A   1      34.933  33.162  31.365  1.00  0.00     0.010 A 
ATOM     47  C   UNL A   1      36.237  33.167  30.847  1.00  0.00    -0.014 A 
BRANCH  47  48
ATOM     48  C   UNL A   1      37.352  32.460  31.528  1.00  0.00     0.031 A 
ATOM     49  C   UNL A   1      38.117  31.373  30.821  1.00  0.00     0.074 A 
ATOM     50  C   UNL A   1      37.725  32.851  32.763  1.00  0.00     0.049 A 
ATOM     51  N   UNL A   1      39.132  30.665  31.249  1.00  0.00    -0.248 NA
ATOM     52  C   UNL A   1      37.688  31.033  29.454  1.00  0.00     0.031 C 
ATOM     53  C   UNL A   1      37.075  33.905  33.542  1.00  0.00     0.029 A 
ATOM     54  N   UNL A   1      38.760  32.437  33.562  1.00  0.00    -0.354 N 
ATOM     55  C   UNL A   1      39.447  29.788  30.218  1.00  0.00     0.074 A 
ATOM     56  C   UNL A   1      38.501  30.032  29.151  1.00  0.00     0.031 C 
ATOM     57  C   UNL A   1      37.762  34.099  34.678  1.00  0.00     0.029 A 
ATOM     58  C   UNL A   1      38.860  33.141  34.737  1.00  0.00     0.049 A 
ATOM     59  H   UNL A   1      39.372  31.705  33.317  1.00  0.00     0.167 HD
ATOM     60  C   UNL A   1      40.445  28.874  30.163  1.00  0.00     0.037 A 
ATOM     61  C   UNL A   1      39.735  33.023  35.754  1.00  0.00     0.037 A 
ATOM     62  C   UNL A   1      41.406  28.655  31.212  1.00  0.00     0.049 A 
ATOM     63  C   UNL A   1      40.806  31.973  35.681  1.00  0.00     0.074 A 
ATOM     64  C   UNL A   1      42.462  27.761  31.240  1.00  0.00     0.029 A 
ATOM     65  N   UNL A   1      41.433  29.345  32.415  1.00  0.00    -0.354 N 
ATOM     66  N   UNL A   1      41.085  31.144  34.706  1.00  0.00    -0.248 NA
ATOM     67  C   UNL A   1      41.678  31.834  36.857  1.00  0.00     0.031 C 
ATOM     68  C   UNL A   1      43.108  27.885  32.474  1.00  0.00     0.029 A 
ATOM     69  C   UNL A   1      42.479  28.884  33.198  1.00  0.00     0.049 A 
ATOM     70  H   UNL A   1      40.804  30.055  32.673  1.00  0.00     0.167 HD
ATOM     71  C   UNL A   1      42.162  30.389  35.144  1.00  0.00     0.074 A 
ATOM     72  C   UNL A   1      42.505  30.874  36.465  1.00  0.00     0.031 C 
ATOM     73  C   UNL A   1      42.804  29.378  34.511  1.00  0.00     0.037 A 
BRANCH  60  74
ATOM     74  C   UNL A   1      40.557  28.031  28.927  1.00  0.00     0.064 A 
ATOM     75  C   UNL A   1      39.830  26.841  28.782  1.00  0.00     0.173 A 
ATOM     76  C   UNL A   1      41.342  28.458  27.844  1.00  0.00     0.173 A 
ATOM     77  F   UNL A   1      39.075  26.384  29.793  1.00  0.00    -0.203 F 
ATOM     78  C   UNL A   1      39.892  26.103  27.603  1.00  0.00     0.198 A 
ATOM     79  C   UNL A   1      41.383  27.730  26.658  1.00  0.00     0.198 A 
ATOM     80  F   UNL A   1      42.052  29.592  27.931  1.00  0.00    -0.203 F 
ATOM     81  F   UNL A   1      39.210  24.954  27.496  1.00  0.00    -0.200 F 
ATOM     82  C   UNL A   1      40.661  26.552  26.539  1.00  0.00     0.200 A 
ATOM     83  F   UNL A   1      42.118  28.171  25.628  1.00  0.00    -0.200 F 
ATOM     84  F   UNL A   1      40.706  25.849  25.399  1.00  0.00    -0.200 F 
ENDBRANCH  60  74
BRANCH  61  85
ATOM     85  C   UNL A   1      39.623  33.929  36.926  1.00  0.00     0.064 A 
ATOM     86  C   UNL A   1      40.259  35.177  36.930  1.00  0.00     0.173 A 
ATOM     87  C   UNL A   1      38.859  33.579  38.048  1.00  0.00     0.173 A 
ATOM     88  F   UNL A   1      41.019  35.547  35.888  1.00  0.00    -0.203 F 
ATOM     89  C   UNL A   1      40.136  36.041  38.017  1.00  0.00     0.198 A 
ATOM     90  C   UNL A   1      38.714  34.454  39.121  1.00  0.00     0.198 A 
ATOM     91  F   UNL A   1      38.230  32.395  38.089  1.00  0.00    -0.203 F 
ATOM     92  F   UNL A   1      40.777  37.218  38.010  1.00  0.00    -0.200 F 
ATOM     93  C   UNL A   1      39.357  35.683  39.107  1.00  0.00     0.200 A 
ATOM     94  F   UNL A   1      37.948  34.111  40.164  1.00  0.00    -0.200 F 
ATOM     95  F   UNL A   1      39.227  36.521  40.144  1.00  0.00    -0.200 F 
ENDBRANCH  61  85
BRANCH  73  96
ATOM     96  C   UNL A   1      43.946  28.729  35.233  1.00  0.00     0.064 A 
ATOM     97  C   UNL A   1      43.746  27.610  36.055  1.00  0.00     0.173 A 
ATOM     98  C   UNL A   1      45.258  29.188  35.051  1.00  0.00     0.173 A 
ATOM     99  F   UNL A   1      42.506  27.144  36.270  1.00  0.00    -0.203 F 
ATOM    100  C   UNL A   1      44.819  26.983  36.680  1.00  0.00     0.198 A 
ATOM    101  C   UNL A   1      46.332  28.543  35.658  1.00  0.00     0.198 A 
ATOM    102  F   UNL A   1      45.500  30.250  34.268  1.00  0.00    -0.203 F 
ATOM    103  F   UNL A   1      44.603  25.935  37.487  1.00  0.00    -0.200 F 
ATOM    104  C   UNL A   1      46.111  27.444  36.475  1.00  0.00     0.200 A 
ATOM    105  F   UNL A   1      47.580  28.982  35.449  1.00  0.00    -0.200 F 
ATOM    106  F   UNL A   1      47.145  26.830  37.067  1.00  0.00    -0.200 F 
ENDBRANCH  73  96
ENDBRANCH  47  48
ENDBRANCH  39  42
ENDBRANCH  37  38
ENDBRANCH  36  37
ENDBRANCH   1  36
TORSDOF 16
ENDMDL
