MODEL 1
REMARK VINA RESULT:     -13.8      0.000      0.000
REMARK SMILES COc1cc2c(CC(=O)NCCCNC(=O)c3ccc(-c4c5nc(c(-c6c(F)c(F)c(F)c(F)c6F)c6ccc([nH]6)c(-c6c(F)c(F)c(F)c(F)c6F)c6nc(c(-c7c(F)c(F)c(F)c(F)c7F)c7ccc4[nH]7)C=C6)C=C5)cc3)c(C)n(C(=O)c3ccc(Cl)cc3)c2cc1Cl
REMARK SMILES IDX 11 1 10 2 8 3 9 4 7 6 6 7 3 8 4 9 94 10 5 11 93 12 95 13
REMARK SMILES IDX 92 14 80 15 82 16 81 17 2 18 1 19 83 20 84 21 85 22 86 23
REMARK SMILES IDX 91 24 87 25 90 26 88 27 89 28 12 29 13 30 14 31 15 32 16 34
REMARK SMILES IDX 17 35 18 36 79 37 19 38 78 39 20 40 21 41 22 42 72 43 23 44
REMARK SMILES IDX 77 45 71 46 73 47 24 48 76 49 70 50 69 51 25 53 57 54 37 55
REMARK SMILES IDX 56 56 38 57 41 58 55 59 74 60 39 61 40 62 54 64 75 65 42 66
REMARK SMILES IDX 26 67 27 68 35 69 28 70 29 71 33 72 36 73 30 74 31 75 34 76
REMARK SMILES IDX 32 77 58 78 59 79 67 80 60 81 61 82 65 83 68 84 62 85 63 86
REMARK SMILES IDX 66 87 64 88 43 89 44 90 52 91 45 92 46 93 50 94 53 95 47 96
REMARK SMILES IDX 48 97 51 98 49 99
REMARK H PARENT 10 5 14 33 73 52 41 63
REMARK Flexibility Score: inf
ROOT
ATOM      1  C   UNL A   1      33.323  28.238  27.113  1.00  0.00     0.117 C 
ENDROOT
BRANCH   1   2
ATOM      2  N   UNL A   1      33.624  27.840  25.751  1.00  0.00    -0.356 N 
ATOM      3  C   UNL A   1      33.671  26.592  25.200  1.00  0.00     0.224 C 
ATOM      4  O   UNL A   1      33.945  26.498  24.001  1.00  0.00    -0.275 OA
ATOM      5  H   UNL A   1      33.824  28.579  25.132  1.00  0.00     0.163 HD
BRANCH   3   6
ATOM      6  C   UNL A   1      33.342  25.361  26.031  1.00  0.00     0.138 C 
BRANCH   6   7
ATOM      7  C   UNL A   1      33.583  24.066  25.306  1.00  0.00    -0.009 A 
ATOM      8  C   UNL A   1      37.076  22.546  25.746  1.00  0.00     0.138 A 
ATOM      9  C   UNL A   1      36.049  23.483  25.931  1.00  0.00     0.058 A 
ATOM     10  C   UNL A   1      36.847  21.429  24.954  1.00  0.00     0.085 A 
ATOM     11  C   UNL A   1      34.786  23.305  25.313  1.00  0.00     0.008 A 
ATOM     12  C   UNL A   1      35.635  21.281  24.274  1.00  0.00     0.051 A 
ATOM     13  Cl  UNL A   1      37.963  20.114  24.826  1.00  0.00    -0.080 Cl
ATOM     14  C   UNL A   1      34.579  22.187  24.500  1.00  0.00     0.058 A 
ATOM     15  C   UNL A   1      32.694  23.428  24.446  1.00  0.00     0.028 A 
ATOM     16  N   UNL A   1      33.232  22.183  24.094  1.00  0.00    -0.280 N 
ATOM     17  C   UNL A   1      31.363  23.939  23.983  1.00  0.00     0.065 C 
BRANCH   8  18
ATOM     18  O   UNL A   1      38.238  22.774  26.435  1.00  0.00    -0.495 OA
ATOM     19  C   UNL A   1      38.558  24.165  26.520  1.00  0.00     0.278 C 
ENDBRANCH   8  18
BRANCH  16  20
ATOM     20  C   UNL A   1      32.536  21.101  23.473  1.00  0.00     0.262 C 
ATOM     21  O   UNL A   1      31.859  21.321  22.467  1.00  0.00    -0.268 OA
BRANCH  20  22
ATOM     22  C   UNL A   1      32.534  19.711  23.956  1.00  0.00     0.040 A 
ATOM     23  C   UNL A   1      32.586  19.434  25.328  1.00  0.00     0.015 A 
ATOM     24  C   UNL A   1      32.563  18.678  23.012  1.00  0.00     0.015 A 
ATOM     25  C   UNL A   1      32.773  18.116  25.751  1.00  0.00     0.021 A 
ATOM     26  C   UNL A   1      32.733  17.362  23.444  1.00  0.00     0.021 A 
ATOM     27  C   UNL A   1      32.862  17.090  24.808  1.00  0.00     0.041 A 
ATOM     28  Cl  UNL A   1      33.168  15.479  25.327  1.00  0.00    -0.084 Cl
ENDBRANCH  20  22
ENDBRANCH  16  20
ENDBRANCH   6   7
ENDBRANCH   3   6
ENDBRANCH   1   2
BRANCH   1  29
ATOM     29  C   UNL A   1      33.033  29.736  27.242  1.00  0.00     0.042 C 
BRANCH  29  30
ATOM     30  C   UNL A   1      34.289  30.591  27.428  1.00  0.00     0.118 C 
BRANCH  30  31
ATOM     31  N   UNL A   1      34.276  31.390  28.639  1.00  0.00    -0.352 N 
ATOM     32  C   UNL A   1      35.165  31.688  29.631  1.00  0.00     0.251 C 
ATOM     33  H   UNL A   1      33.406  31.828  28.780  1.00  0.00     0.163 HD
ATOM     34  O   UNL A   1      34.777  32.519  30.457  1.00  0.00    -0.269 OA
BRANCH  32  35
ATOM     35  C   UNL A   1      36.499  31.061  29.831  1.00  0.00     0.039 A 
ATOM     36  C   UNL A   1      37.733  31.658  29.578  1.00  0.00     0.014 A 
ATOM     37  C   UNL A   1      36.476  29.713  30.246  1.00  0.00     0.014 A 
ATOM     38  C   UNL A   1      38.900  30.896  29.631  1.00  0.00     0.010 A 
ATOM     39  C   UNL A   1      37.637  28.953  30.311  1.00  0.00     0.010 A 
ATOM     40  C   UNL A   1      38.843  29.532  29.944  1.00  0.00    -0.014 A 
BRANCH  40  41
ATOM     41  C   UNL A   1      40.089  28.768  29.952  1.00  0.00     0.031 A 
ATOM     42  C   UNL A   1      40.736  28.645  31.290  1.00  0.00     0.074 A 
ATOM     43  C   UNL A   1      40.586  28.135  28.868  1.00  0.00     0.049 A 
ATOM     44  N   UNL A   1      41.897  29.084  31.657  1.00  0.00    -0.248 NA
ATOM     45  C   UNL A   1      39.948  28.055  32.383  1.00  0.00     0.031 C 
ATOM     46  C   UNL A   1      39.953  27.925  27.563  1.00  0.00     0.029 A 
ATOM     47  N   UNL A   1      41.769  27.467  28.737  1.00  0.00    -0.354 N 
ATOM     48  C   UNL A   1      42.059  28.691  32.985  1.00  0.00     0.074 A 
ATOM     49  C   UNL A   1      40.785  28.174  33.415  1.00  0.00     0.031 C 
ATOM     50  C   UNL A   1      40.655  27.002  26.865  1.00  0.00     0.029 A 
ATOM     51  C   UNL A   1      41.859  26.667  27.604  1.00  0.00     0.049 A 
ATOM     52  H   UNL A   1      42.499  27.545  29.393  1.00  0.00     0.167 HD
ATOM     53  C   UNL A   1      43.287  28.647  33.571  1.00  0.00     0.037 A 
ATOM     54  C   UNL A   1      42.831  25.759  27.328  1.00  0.00     0.037 A 
ATOM     55  C   UNL A   1      44.241  29.449  32.854  1.00  0.00     0.049 A 
ATOM     56  C   UNL A   1      44.011  26.111  28.157  1.00  0.00     0.074 A 
ATOM     57  C   UNL A   1      44.348  30.795  32.565  1.00  0.00     0.029 A 
ATOM     58  N   UNL A   1      45.117  28.817  32.008  1.00  0.00    -0.354 N 
ATOM     59  N   UNL A   1      44.728  27.185  27.984  1.00  0.00    -0.248 NA
ATOM     60  C   UNL A   1      44.117  25.486  29.467  1.00  0.00     0.031 C 
ATOM     61  C   UNL A   1      44.884  30.843  31.246  1.00  0.00     0.029 A 
ATOM     62  C   UNL A   1      45.126  29.530  30.839  1.00  0.00     0.049 A 
ATOM     63  H   UNL A   1      45.639  28.006  32.205  1.00  0.00     0.167 HD
ATOM     64  C   UNL A   1      45.032  27.611  29.268  1.00  0.00     0.074 A 
ATOM     65  C   UNL A   1      44.692  26.488  30.137  1.00  0.00     0.031 C 
ATOM     66  C   UNL A   1      45.265  28.927  29.537  1.00  0.00     0.037 A 
BRANCH  53  67
ATOM     67  C   UNL A   1      43.716  27.612  34.582  1.00  0.00     0.064 A 
ATOM     68  C   UNL A   1      43.614  26.243  34.257  1.00  0.00     0.173 A 
ATOM     69  C   UNL A   1      43.919  27.898  35.949  1.00  0.00     0.173 A 
ATOM     70  F   UNL A   1      43.402  25.855  32.990  1.00  0.00    -0.203 F 
ATOM     71  C   UNL A   1      43.625  25.248  35.238  1.00  0.00     0.198 A 
ATOM     72  C   UNL A   1      43.982  26.899  36.918  1.00  0.00     0.198 A 
ATOM     73  F   UNL A   1      43.948  29.151  36.416  1.00  0.00    -0.203 F 
ATOM     74  F   UNL A   1      43.392  23.973  34.895  1.00  0.00    -0.200 F 
ATOM     75  C   UNL A   1      43.802  25.577  36.569  1.00  0.00     0.200 A 
ATOM     76  F   UNL A   1      44.134  27.240  38.206  1.00  0.00    -0.200 F 
ATOM     77  F   UNL A   1      43.747  24.634  37.517  1.00  0.00    -0.200 F 
ENDBRANCH  53  67
BRANCH  54  78
ATOM     78  C   UNL A   1      42.696  24.429  26.682  1.00  0.00     0.064 A 
ATOM     79  C   UNL A   1      43.359  24.133  25.478  1.00  0.00     0.173 A 
ATOM     80  C   UNL A   1      42.161  23.330  27.383  1.00  0.00     0.173 A 
ATOM     81  F   UNL A   1      43.940  25.113  24.769  1.00  0.00    -0.203 F 
ATOM     82  C   UNL A   1      43.506  22.817  25.021  1.00  0.00     0.198 A 
ATOM     83  C   UNL A   1      42.304  22.019  26.924  1.00  0.00     0.198 A 
ATOM     84  F   UNL A   1      41.579  23.495  28.579  1.00  0.00    -0.203 F 
ATOM     85  F   UNL A   1      44.204  22.570  23.902  1.00  0.00    -0.200 F 
ATOM     86  C   UNL A   1      42.988  21.760  25.751  1.00  0.00     0.200 A 
ATOM     87  F   UNL A   1      41.831  21.002  27.659  1.00  0.00    -0.200 F 
ATOM     88  F   UNL A   1      43.185  20.497  25.349  1.00  0.00    -0.200 F 
ENDBRANCH  54  78
BRANCH  66  89
ATOM     89  C   UNL A   1      45.426  29.877  28.385  1.00  0.00     0.064 A 
ATOM     90  C   UNL A   1      44.355  30.546  27.769  1.00  0.00     0.173 A 
ATOM     91  C   UNL A   1      46.724  30.280  28.044  1.00  0.00     0.173 A 
ATOM     92  F   UNL A   1      43.087  30.276  28.106  1.00  0.00    -0.203 F 
ATOM     93  C   UNL A   1      44.579  31.567  26.846  1.00  0.00     0.198 A 
ATOM     94  C   UNL A   1      46.943  31.322  27.149  1.00  0.00     0.198 A 
ATOM     95  F   UNL A   1      47.782  29.707  28.639  1.00  0.00    -0.203 F 
ATOM     96  F   UNL A   1      43.541  32.201  26.278  1.00  0.00    -0.200 F 
ATOM     97  C   UNL A   1      45.872  31.964  26.549  1.00  0.00     0.200 A 
ATOM     98  F   UNL A   1      48.195  31.736  26.905  1.00  0.00    -0.200 F 
ATOM     99  F   UNL A   1      46.088  32.987  25.711  1.00  0.00    -0.200 F 
ENDBRANCH  66  89
ENDBRANCH  40  41
ENDBRANCH  32  35
ENDBRANCH  30  31
ENDBRANCH  29  30
ENDBRANCH   1  29
TORSDOF 14
ENDMDL
MODEL 2
REMARK VINA RESULT:     -13.8      3.787      9.001
REMARK SMILES COc1cc2c(CC(=O)NCCCNC(=O)c3ccc(-c4c5nc(c(-c6c(F)c(F)c(F)c(F)c6F)c6ccc([nH]6)c(-c6c(F)c(F)c(F)c(F)c6F)c6nc(c(-c7c(F)c(F)c(F)c(F)c7F)c7ccc4[nH]7)C=C6)C=C5)cc3)c(C)n(C(=O)c3ccc(Cl)cc3)c2cc1Cl
REMARK SMILES IDX 11 1 10 2 8 3 9 4 7 6 6 7 3 8 4 9 94 10 5 11 93 12 95 13
REMARK SMILES IDX 92 14 80 15 82 16 81 17 2 18 1 19 83 20 84 21 85 22 86 23
REMARK SMILES IDX 91 24 87 25 90 26 88 27 89 28 12 29 13 30 14 31 15 32 16 34
REMARK SMILES IDX 17 35 18 36 79 37 19 38 78 39 20 40 21 41 22 42 72 43 23 44
REMARK SMILES IDX 77 45 71 46 73 47 24 48 76 49 70 50 69 51 25 53 57 54 37 55
REMARK SMILES IDX 56 56 38 57 41 58 55 59 74 60 39 61 40 62 54 64 75 65 42 66
REMARK SMILES IDX 26 67 27 68 35 69 28 70 29 71 33 72 36 73 30 74 31 75 34 76
REMARK SMILES IDX 32 77 58 78 59 79 67 80 60 81 61 82 65 83 68 84 62 85 63 86
REMARK SMILES IDX 66 87 64 88 43 89 44 90 52 91 45 92 46 93 50 94 53 95 47 96
REMARK SMILES IDX 48 97 51 98 49 99
REMARK H PARENT 10 5 14 33 73 52 41 63
REMARK Flexibility Score: inf
ROOT
ATOM      1  C   UNL A   1      35.842  22.659  23.927  1.00  0.00     0.117 C 
ENDROOT
BRANCH   1   2
ATOM      2  N   UNL A   1      35.029  22.917  25.101  1.00  0.00    -0.356 N 
ATOM      3  C   UNL A   1      34.376  24.057  25.473  1.00  0.00     0.224 C 
ATOM      4  O   UNL A   1      33.731  24.037  26.525  1.00  0.00    -0.275 OA
ATOM      5  H   UNL A   1      34.936  22.158  25.721  1.00  0.00     0.163 HD
BRANCH   3   6
ATOM      6  C   UNL A   1      34.400  25.293  24.587  1.00  0.00     0.138 C 
BRANCH   6   7
ATOM      7  C   UNL A   1      33.173  26.151  24.723  1.00  0.00    -0.009 A 
ATOM      8  C   UNL A   1      33.679  29.486  26.547  1.00  0.00     0.138 A 
ATOM      9  C   UNL A   1      34.053  28.248  26.005  1.00  0.00     0.058 A 
ATOM     10  C   UNL A   1      32.363  29.914  26.432  1.00  0.00     0.085 A 
ATOM     11  C   UNL A   1      33.100  27.427  25.349  1.00  0.00     0.008 A 
ATOM     12  C   UNL A   1      31.397  29.081  25.860  1.00  0.00     0.051 A 
ATOM     13  Cl  UNL A   1      31.841  31.502  26.876  1.00  0.00    -0.080 Cl
ATOM     14  C   UNL A   1      31.775  27.862  25.262  1.00  0.00     0.058 A 
ATOM     15  C   UNL A   1      31.884  25.812  24.322  1.00  0.00     0.028 A 
ATOM     16  N   UNL A   1      31.058  26.933  24.485  1.00  0.00    -0.280 N 
ATOM     17  C   UNL A   1      31.429  24.495  23.770  1.00  0.00     0.065 C 
BRANCH   8  18
ATOM     18  O   UNL A   1      34.684  30.233  27.103  1.00  0.00    -0.495 OA
ATOM     19  C   UNL A   1      35.733  29.423  27.638  1.00  0.00     0.278 C 
ENDBRANCH   8  18
BRANCH  16  20
ATOM     20  C   UNL A   1      29.752  27.112  23.938  1.00  0.00     0.262 C 
ATOM     21  O   UNL A   1      28.882  26.270  24.169  1.00  0.00    -0.268 OA
BRANCH  20  22
ATOM     22  C   UNL A   1      29.345  28.234  23.076  1.00  0.00     0.040 A 
ATOM     23  C   UNL A   1      30.289  28.904  22.288  1.00  0.00     0.015 A 
ATOM     24  C   UNL A   1      28.014  28.664  23.125  1.00  0.00     0.015 A 
ATOM     25  C   UNL A   1      29.916  30.078  21.628  1.00  0.00     0.021 A 
ATOM     26  C   UNL A   1      27.646  29.827  22.449  1.00  0.00     0.021 A 
ATOM     27  C   UNL A   1      28.602  30.541  21.724  1.00  0.00     0.041 A 
ATOM     28  Cl  UNL A   1      28.165  32.025  20.973  1.00  0.00    -0.084 Cl
ENDBRANCH  20  22
ENDBRANCH  16  20
ENDBRANCH   6   7
ENDBRANCH   3   6
ENDBRANCH   1   2
BRANCH   1  29
ATOM     29  C   UNL A   1      37.072  21.802  24.235  1.00  0.00     0.042 C 
BRANCH  29  30
ATOM     30  C   UNL A   1      37.572  21.940  25.674  1.00  0.00     0.118 C 
BRANCH  30  31
ATOM     31  N   UNL A   1      38.981  21.631  25.835  1.00  0.00    -0.352 N 
ATOM     32  C   UNL A   1      40.043  22.190  26.483  1.00  0.00     0.251 C 
ATOM     33  H   UNL A   1      39.233  20.810  25.354  1.00  0.00     0.163 HD
ATOM     34  O   UNL A   1      41.089  21.535  26.451  1.00  0.00    -0.269 OA
BRANCH  32  35
ATOM     35  C   UNL A   1      40.063  23.519  27.152  1.00  0.00     0.039 A 
ATOM     36  C   UNL A   1      39.111  24.526  27.006  1.00  0.00     0.014 A 
ATOM     37  C   UNL A   1      41.203  23.781  27.940  1.00  0.00     0.014 A 
ATOM     38  C   UNL A   1      39.346  25.792  27.542  1.00  0.00     0.010 A 
ATOM     39  C   UNL A   1      41.437  25.036  28.485  1.00  0.00     0.010 A 
ATOM     40  C   UNL A   1      40.534  26.060  28.234  1.00  0.00    -0.014 A 
BRANCH  40  41
ATOM     41  C   UNL A   1      40.752  27.411  28.746  1.00  0.00     0.031 A 
ATOM     42  C   UNL A   1      41.986  28.078  28.239  1.00  0.00     0.074 A 
ATOM     43  C   UNL A   1      39.874  28.061  29.539  1.00  0.00     0.049 A 
ATOM     44  N   UNL A   1      43.012  28.479  28.919  1.00  0.00    -0.248 NA
ATOM     45  C   UNL A   1      42.143  28.218  26.783  1.00  0.00     0.031 C 
ATOM     46  C   UNL A   1      38.511  27.670  29.906  1.00  0.00     0.029 A 
ATOM     47  N   UNL A   1      40.007  29.281  30.139  1.00  0.00    -0.354 N 
ATOM     48  C   UNL A   1      43.881  29.066  28.001  1.00  0.00     0.074 A 
ATOM     49  C   UNL A   1      43.356  28.767  26.694  1.00  0.00     0.031 C 
ATOM     50  C   UNL A   1      37.875  28.724  30.469  1.00  0.00     0.029 A 
ATOM     51  C   UNL A   1      38.822  29.812  30.637  1.00  0.00     0.049 A 
ATOM     52  H   UNL A   1      40.872  29.746  30.211  1.00  0.00     0.167 HD
ATOM     53  C   UNL A   1      44.867  29.918  28.396  1.00  0.00     0.037 A 
ATOM     54  C   UNL A   1      38.633  31.073  31.103  1.00  0.00     0.037 A 
ATOM     55  C   UNL A   1      45.168  29.761  29.794  1.00  0.00     0.049 A 
ATOM     56  C   UNL A   1      39.968  31.617  31.458  1.00  0.00     0.074 A 
ATOM     57  C   UNL A   1      45.654  28.726  30.568  1.00  0.00     0.029 A 
ATOM     58  N   UNL A   1      44.644  30.671  30.677  1.00  0.00    -0.354 N 
ATOM     59  N   UNL A   1      40.693  31.178  32.448  1.00  0.00    -0.248 NA
ATOM     60  C   UNL A   1      40.686  32.351  30.427  1.00  0.00     0.031 C 
ATOM     61  C   UNL A   1      44.949  28.831  31.801  1.00  0.00     0.029 A 
ATOM     62  C   UNL A   1      44.127  29.956  31.725  1.00  0.00     0.049 A 
ATOM     63  H   UNL A   1      44.642  31.650  30.578  1.00  0.00     0.167 HD
ATOM     64  C   UNL A   1      41.991  31.199  31.964  1.00  0.00     0.074 A 
ATOM     65  C   UNL A   1      41.934  31.998  30.742  1.00  0.00     0.031 C 
ATOM     66  C   UNL A   1      42.935  30.338  32.441  1.00  0.00     0.037 A 
BRANCH  53  67
ATOM     67  C   UNL A   1      45.316  31.128  27.615  1.00  0.00     0.064 A 
ATOM     68  C   UNL A   1      46.653  31.207  27.171  1.00  0.00     0.173 A 
ATOM     69  C   UNL A   1      44.585  32.333  27.561  1.00  0.00     0.173 A 
ATOM     70  F   UNL A   1      47.447  30.126  27.194  1.00  0.00    -0.203 F 
ATOM     71  C   UNL A   1      47.232  32.420  26.788  1.00  0.00     0.198 A 
ATOM     72  C   UNL A   1      45.153  33.531  27.129  1.00  0.00     0.198 A 
ATOM     73  F   UNL A   1      43.336  32.429  28.031  1.00  0.00    -0.203 F 
ATOM     74  F   UNL A   1      48.541  32.470  26.501  1.00  0.00    -0.200 F 
ATOM     75  C   UNL A   1      46.485  33.582  26.775  1.00  0.00     0.200 A 
ATOM     76  F   UNL A   1      44.417  34.651  27.144  1.00  0.00    -0.200 F 
ATOM     77  F   UNL A   1      47.054  34.756  26.474  1.00  0.00    -0.200 F 
ENDBRANCH  53  67
BRANCH  54  78
ATOM     78  C   UNL A   1      37.449  31.953  30.932  1.00  0.00     0.064 A 
ATOM     79  C   UNL A   1      37.075  32.434  29.664  1.00  0.00     0.173 A 
ATOM     80  C   UNL A   1      36.491  32.092  31.955  1.00  0.00     0.173 A 
ATOM     81  F   UNL A   1      37.907  32.299  28.620  1.00  0.00    -0.203 F 
ATOM     82  C   UNL A   1      35.812  32.989  29.429  1.00  0.00     0.198 A 
ATOM     83  C   UNL A   1      35.233  32.651  31.721  1.00  0.00     0.198 A 
ATOM     84  F   UNL A   1      36.717  31.597  33.180  1.00  0.00    -0.203 F 
ATOM     85  F   UNL A   1      35.468  33.374  28.191  1.00  0.00    -0.200 F 
ATOM     86  C   UNL A   1      34.887  33.086  30.455  1.00  0.00     0.200 A 
ATOM     87  F   UNL A   1      34.334  32.704  32.715  1.00  0.00    -0.200 F 
ATOM     88  F   UNL A   1      33.655  33.556  30.217  1.00  0.00    -0.200 F 
ENDBRANCH  54  78
BRANCH  66  89
ATOM     89  C   UNL A   1      42.615  29.530  33.666  1.00  0.00     0.064 A 
ATOM     90  C   UNL A   1      41.930  28.304  33.635  1.00  0.00     0.173 A 
ATOM     91  C   UNL A   1      43.212  29.909  34.875  1.00  0.00     0.173 A 
ATOM     92  F   UNL A   1      41.407  27.834  32.495  1.00  0.00    -0.203 F 
ATOM     93  C   UNL A   1      41.841  27.500  34.771  1.00  0.00     0.198 A 
ATOM     94  C   UNL A   1      43.152  29.089  35.997  1.00  0.00     0.198 A 
ATOM     95  F   UNL A   1      43.920  31.048  34.946  1.00  0.00    -0.203 F 
ATOM     96  F   UNL A   1      41.192  26.327  34.717  1.00  0.00    -0.200 F 
ATOM     97  C   UNL A   1      42.466  27.886  35.946  1.00  0.00     0.200 A 
ATOM     98  F   UNL A   1      43.801  29.443  37.115  1.00  0.00    -0.200 F 
ATOM     99  F   UNL A   1      42.436  27.085  37.020  1.00  0.00    -0.200 F 
ENDBRANCH  66  89
ENDBRANCH  40  41
ENDBRANCH  32  35
ENDBRANCH  30  31
ENDBRANCH  29  30
ENDBRANCH   1  29
TORSDOF 14
ENDMDL
MODEL 3
REMARK VINA RESULT:     -13.2      3.146      8.462
REMARK SMILES COc1cc2c(CC(=O)NCCCNC(=O)c3ccc(-c4c5nc(c(-c6c(F)c(F)c(F)c(F)c6F)c6ccc([nH]6)c(-c6c(F)c(F)c(F)c(F)c6F)c6nc(c(-c7c(F)c(F)c(F)c(F)c7F)c7ccc4[nH]7)C=C6)C=C5)cc3)c(C)n(C(=O)c3ccc(Cl)cc3)c2cc1Cl
REMARK SMILES IDX 11 1 10 2 8 3 9 4 7 6 6 7 3 8 4 9 94 10 5 11 93 12 95 13
REMARK SMILES IDX 92 14 80 15 82 16 81 17 2 18 1 19 83 20 84 21 85 22 86 23
REMARK SMILES IDX 91 24 87 25 90 26 88 27 89 28 12 29 13 30 14 31 15 32 16 34
REMARK SMILES IDX 17 35 18 36 79 37 19 38 78 39 20 40 21 41 22 42 72 43 23 44
REMARK SMILES IDX 77 45 71 46 73 47 24 48 76 49 70 50 69 51 25 53 57 54 37 55
REMARK SMILES IDX 56 56 38 57 41 58 55 59 74 60 39 61 40 62 54 64 75 65 42 66
REMARK SMILES IDX 26 67 27 68 35 69 28 70 29 71 33 72 36 73 30 74 31 75 34 76
REMARK SMILES IDX 32 77 58 78 59 79 67 80 60 81 61 82 65 83 68 84 62 85 63 86
REMARK SMILES IDX 66 87 64 88 43 89 44 90 52 91 45 92 46 93 50 94 53 95 47 96
REMARK SMILES IDX 48 97 51 98 49 99
REMARK H PARENT 10 5 14 33 73 52 41 63
REMARK Flexibility Score: inf
ROOT
ATOM      1  C   UNL A   1      38.966  21.396  25.756  1.00  0.00     0.117 C 
ENDROOT
BRANCH   1   2
ATOM      2  N   UNL A   1      38.569  22.556  26.534  1.00  0.00    -0.356 N 
ATOM      3  C   UNL A   1      37.766  23.603  26.185  1.00  0.00     0.224 C 
ATOM      4  O   UNL A   1      37.562  24.481  27.027  1.00  0.00    -0.275 OA
ATOM      5  H   UNL A   1      38.934  22.593  27.448  1.00  0.00     0.163 HD
BRANCH   3   6
ATOM      6  C   UNL A   1      37.102  23.653  24.818  1.00  0.00     0.138 C 
BRANCH   6   7
ATOM      7  C   UNL A   1      35.666  23.206  24.833  1.00  0.00    -0.009 A 
ATOM      8  C   UNL A   1      33.121  25.850  25.946  1.00  0.00     0.138 A 
ATOM      9  C   UNL A   1      34.389  25.335  25.643  1.00  0.00     0.058 A 
ATOM     10  C   UNL A   1      32.001  25.041  25.804  1.00  0.00     0.085 A 
ATOM     11  C   UNL A   1      34.540  23.996  25.200  1.00  0.00     0.008 A 
ATOM     12  C   UNL A   1      32.142  23.697  25.447  1.00  0.00     0.051 A 
ATOM     13  Cl  UNL A   1      30.382  25.630  25.949  1.00  0.00    -0.080 Cl
ATOM     14  C   UNL A   1      33.405  23.188  25.084  1.00  0.00     0.058 A 
ATOM     15  C   UNL A   1      35.201  21.923  24.560  1.00  0.00     0.028 A 
ATOM     16  N   UNL A   1      33.800  21.954  24.534  1.00  0.00    -0.280 N 
ATOM     17  C   UNL A   1      36.029  20.702  24.296  1.00  0.00     0.065 C 
BRANCH   8  18
ATOM     18  O   UNL A   1      33.073  27.172  26.304  1.00  0.00    -0.495 OA
ATOM     19  C   UNL A   1      33.770  28.013  25.382  1.00  0.00     0.278 C 
ENDBRANCH   8  18
BRANCH  16  20
ATOM     20  C   UNL A   1      32.938  20.940  24.016  1.00  0.00     0.262 C 
ATOM     21  O   UNL A   1      32.041  21.258  23.232  1.00  0.00    -0.268 OA
BRANCH  20  22
ATOM     22  C   UNL A   1      33.009  19.512  24.364  1.00  0.00     0.040 A 
ATOM     23  C   UNL A   1      33.164  18.544  23.363  1.00  0.00     0.015 A 
ATOM     24  C   UNL A   1      32.835  19.142  25.702  1.00  0.00     0.015 A 
ATOM     25  C   UNL A   1      33.040  17.193  23.697  1.00  0.00     0.021 A 
ATOM     26  C   UNL A   1      32.729  17.790  26.029  1.00  0.00     0.021 A 
ATOM     27  C   UNL A   1      32.806  16.824  25.024  1.00  0.00     0.041 A 
ATOM     28  Cl  UNL A   1      32.578  15.166  25.419  1.00  0.00    -0.084 Cl
ENDBRANCH  20  22
ENDBRANCH  16  20
ENDBRANCH   6   7
ENDBRANCH   3   6
ENDBRANCH   1   2
BRANCH   1  29
ATOM     29  C   UNL A   1      40.068  20.578  26.434  1.00  0.00     0.042 C 
BRANCH  29  30
ATOM     30  C   UNL A   1      41.200  21.431  27.011  1.00  0.00     0.118 C 
BRANCH  30  31
ATOM     31  N   UNL A   1      42.012  22.083  26.001  1.00  0.00    -0.352 N 
ATOM     32  C   UNL A   1      42.439  23.354  25.751  1.00  0.00     0.251 C 
ATOM     33  H   UNL A   1      42.338  21.445  25.325  1.00  0.00     0.163 HD
ATOM     34  O   UNL A   1      43.228  23.473  24.810  1.00  0.00    -0.269 OA
BRANCH  32  35
ATOM     35  C   UNL A   1      41.992  24.585  26.457  1.00  0.00     0.039 A 
ATOM     36  C   UNL A   1      41.050  25.502  25.995  1.00  0.00     0.014 A 
ATOM     37  C   UNL A   1      42.657  24.859  27.671  1.00  0.00     0.014 A 
ATOM     38  C   UNL A   1      40.860  26.708  26.668  1.00  0.00     0.010 A 
ATOM     39  C   UNL A   1      42.464  26.055  28.351  1.00  0.00     0.010 A 
ATOM     40  C   UNL A   1      41.608  27.005  27.815  1.00  0.00    -0.014 A 
BRANCH  40  41
ATOM     41  C   UNL A   1      41.400  28.297  28.465  1.00  0.00     0.031 A 
ATOM     42  C   UNL A   1      42.468  29.305  28.206  1.00  0.00     0.074 A 
ATOM     43  C   UNL A   1      40.292  28.611  29.171  1.00  0.00     0.049 A 
ATOM     44  N   UNL A   1      43.262  29.863  29.062  1.00  0.00    -0.248 NA
ATOM     45  C   UNL A   1      42.760  29.652  26.806  1.00  0.00     0.031 C 
ATOM     46  C   UNL A   1      39.044  27.853  29.297  1.00  0.00     0.029 A 
ATOM     47  N   UNL A   1      40.027  29.744  29.884  1.00  0.00    -0.354 N 
ATOM     48  C   UNL A   1      44.053  30.752  28.336  1.00  0.00     0.074 A 
ATOM     49  C   UNL A   1      43.788  30.491  26.945  1.00  0.00     0.031 C 
ATOM     50  C   UNL A   1      38.091  28.641  29.846  1.00  0.00     0.029 A 
ATOM     51  C   UNL A   1      38.693  29.902  30.243  1.00  0.00     0.049 A 
ATOM     52  H   UNL A   1      40.724  30.397  30.123  1.00  0.00     0.167 HD
ATOM     53  C   UNL A   1      44.726  31.769  28.944  1.00  0.00     0.037 A 
ATOM     54  C   UNL A   1      38.124  31.012  30.780  1.00  0.00     0.037 A 
ATOM     55  C   UNL A   1      44.884  31.525  30.352  1.00  0.00     0.049 A 
ATOM     56  C   UNL A   1      39.216  31.823  31.375  1.00  0.00     0.074 A 
ATOM     57  C   UNL A   1      45.525  30.558  31.100  1.00  0.00     0.029 A 
ATOM     58  N   UNL A   1      44.036  32.165  31.221  1.00  0.00    -0.354 N 
ATOM     59  N   UNL A   1      39.904  31.462  32.420  1.00  0.00    -0.248 NA
ATOM     60  C   UNL A   1      39.838  32.830  30.527  1.00  0.00     0.031 C 
ATOM     61  C   UNL A   1      44.672  30.337  32.220  1.00  0.00     0.029 A 
ATOM     62  C   UNL A   1      43.600  31.224  32.116  1.00  0.00     0.049 A 
ATOM     63  H   UNL A   1      43.790  33.118  31.205  1.00  0.00     0.167 HD
ATOM     64  C   UNL A   1      41.201  31.862  32.139  1.00  0.00     0.074 A 
ATOM     65  C   UNL A   1      41.087  32.761  30.994  1.00  0.00     0.031 C 
ATOM     66  C   UNL A   1      42.272  31.211  32.677  1.00  0.00     0.037 A 
BRANCH  53  67
ATOM     67  C   UNL A   1      44.934  33.137  28.343  1.00  0.00     0.064 A 
ATOM     68  C   UNL A   1      46.247  33.601  28.120  1.00  0.00     0.173 A 
ATOM     69  C   UNL A   1      43.922  34.117  28.274  1.00  0.00     0.173 A 
ATOM     70  F   UNL A   1      47.290  32.759  28.179  1.00  0.00    -0.203 F 
ATOM     71  C   UNL A   1      46.529  34.957  27.931  1.00  0.00     0.198 A 
ATOM     72  C   UNL A   1      44.203  35.462  28.034  1.00  0.00     0.198 A 
ATOM     73  F   UNL A   1      42.643  33.840  28.549  1.00  0.00    -0.203 F 
ATOM     74  F   UNL A   1      47.803  35.368  27.856  1.00  0.00    -0.200 F 
ATOM     75  C   UNL A   1      45.507  35.887  27.897  1.00  0.00     0.200 A 
ATOM     76  F   UNL A   1      43.200  36.351  28.024  1.00  0.00    -0.200 F 
ATOM     77  F   UNL A   1      45.779  37.193  27.783  1.00  0.00    -0.200 F 
ENDBRANCH  53  67
BRANCH  54  78
ATOM     78  C   UNL A   1      36.781  31.585  30.509  1.00  0.00     0.064 A 
ATOM     79  C   UNL A   1      35.918  31.947  31.560  1.00  0.00     0.173 A 
ATOM     80  C   UNL A   1      36.439  32.066  29.231  1.00  0.00     0.173 A 
ATOM     81  F   UNL A   1      36.193  31.572  32.818  1.00  0.00    -0.203 F 
ATOM     82  C   UNL A   1      34.802  32.765  31.347  1.00  0.00     0.198 A 
ATOM     83  C   UNL A   1      35.323  32.879  29.019  1.00  0.00     0.198 A 
ATOM     84  F   UNL A   1      37.236  31.844  28.177  1.00  0.00    -0.203 F 
ATOM     85  F   UNL A   1      34.042  33.144  32.385  1.00  0.00    -0.200 F 
ATOM     86  C   UNL A   1      34.512  33.240  30.079  1.00  0.00     0.200 A 
ATOM     87  F   UNL A   1      35.076  33.362  27.794  1.00  0.00    -0.200 F 
ATOM     88  F   UNL A   1      33.483  34.077  29.886  1.00  0.00    -0.200 F 
ENDBRANCH  54  78
BRANCH  66  89
ATOM     89  C   UNL A   1      42.027  30.209  33.768  1.00  0.00     0.064 A 
ATOM     90  C   UNL A   1      41.716  28.859  33.533  1.00  0.00     0.173 A 
ATOM     91  C   UNL A   1      42.332  30.584  35.083  1.00  0.00     0.173 A 
ATOM     92  F   UNL A   1      41.498  28.407  32.291  1.00  0.00    -0.203 F 
ATOM     93  C   UNL A   1      41.702  27.931  34.574  1.00  0.00     0.198 A 
ATOM     94  C   UNL A   1      42.351  29.649  36.114  1.00  0.00     0.198 A 
ATOM     95  F   UNL A   1      42.684  31.851  35.354  1.00  0.00    -0.203 F 
ATOM     96  F   UNL A   1      41.414  26.644  34.325  1.00  0.00    -0.200 F 
ATOM     97  C   UNL A   1      42.036  28.324  35.860  1.00  0.00     0.200 A 
ATOM     98  F   UNL A   1      42.724  30.026  37.345  1.00  0.00    -0.200 F 
ATOM     99  F   UNL A   1      42.085  27.422  36.849  1.00  0.00    -0.200 F 
ENDBRANCH  66  89
ENDBRANCH  40  41
ENDBRANCH  32  35
ENDBRANCH  30  31
ENDBRANCH  29  30
ENDBRANCH   1  29
TORSDOF 14
ENDMDL
