MODEL 1
REMARK VINA RESULT:     -11.9      0.000      0.000
REMARK SMILES CCCC[C@H](C(=O)NCCCNC(=O)c1ccc(-c2c3nc(c(-c4c(F)c(F)c(F)c(F)c4F)c4ccc([nH]4)c(-c4c(F)c(F)c(F)c(F)c4F)c4nc(c(-c5c(F)c(F)c(F)c(F)c5F)c5ccc2[nH]5)C=C4)C=C3)cc1)[C@H](O)c1ccc(C(F)(F)F)cc1
REMARK SMILES IDX 9 1 8 2 6 3 7 4 5 6 4 7 3 8 2 9 1 10 78 11 80 12 81 13 89 14
REMARK SMILES IDX 82 15 88 16 83 17 84 18 85 19 86 20 87 21 79 22 10 24 11 25
REMARK SMILES IDX 12 26 13 27 14 29 15 30 16 31 77 32 17 33 76 34 18 35 19 36
REMARK SMILES IDX 20 37 70 38 21 39 75 40 69 41 71 42 22 43 74 44 68 45 67 46
REMARK SMILES IDX 23 48 55 49 35 50 54 51 36 52 39 53 53 54 72 55 37 56 38 57
REMARK SMILES IDX 52 59 73 60 40 61 24 62 25 63 33 64 26 65 27 66 31 67 34 68
REMARK SMILES IDX 28 69 29 70 32 71 30 72 56 73 57 74 65 75 58 76 59 77 63 78
REMARK SMILES IDX 66 79 60 80 61 81 64 82 62 83 41 84 42 85 50 86 43 87 44 88
REMARK SMILES IDX 48 89 51 90 45 91 46 92 49 93 47 94
REMARK H PARENT 8 5 79 23 12 28 71 47 39 58
REMARK Flexibility Score: inf
ROOT
ATOM      1  C   UNL A   1      31.695  30.739  26.246  1.00  0.00     0.117 C 
ENDROOT
BRANCH   1   2
ATOM      2  N   UNL A   1      31.121  30.457  24.947  1.00  0.00    -0.356 N 
ATOM      3  C   UNL A   1      30.956  29.335  24.215  1.00  0.00     0.226 C 
ATOM      4  O   UNL A   1      30.189  29.469  23.249  1.00  0.00    -0.275 OA
ATOM      5  H   UNL A   1      30.773  31.262  24.498  1.00  0.00     0.163 HD
BRANCH   3   6
ATOM      6  C   UNL A   1      31.651  27.987  24.426  1.00  0.00     0.111 C 
BRANCH   6   7
ATOM      7  C   UNL A   1      30.534  26.923  24.658  1.00  0.00     0.016 C 
BRANCH   7   8
ATOM      8  C   UNL A   1      30.601  26.049  25.919  1.00  0.00     0.001 C 
BRANCH   8   9
ATOM      9  C   UNL A   1      30.750  24.535  25.728  1.00  0.00    -0.003 C 
ATOM     10  C   UNL A   1      31.549  23.823  26.813  1.00  0.00     0.004 C 
ENDBRANCH   8   9
ENDBRANCH   7   8
ENDBRANCH   6   7
BRANCH   6  11
ATOM     11  C   UNL A   1      32.817  27.535  23.531  1.00  0.00     0.157 C 
BRANCH  11  12
ATOM     12  C   UNL A   1      33.466  26.179  23.831  1.00  0.00    -0.019 A 
ATOM     13  C   UNL A   1      33.419  25.151  22.870  1.00  0.00     0.007 A 
ATOM     14  C   UNL A   1      34.182  25.907  25.008  1.00  0.00     0.007 A 
ATOM     15  C   UNL A   1      34.040  23.915  23.081  1.00  0.00     0.013 A 
ATOM     16  C   UNL A   1      34.836  24.686  25.209  1.00  0.00     0.013 A 
ATOM     17  C   UNL A   1      34.768  23.675  24.248  1.00  0.00     0.056 A 
BRANCH  17  18
ATOM     18  C   UNL A   1      35.430  22.338  24.473  1.00  0.00     0.416 C 
ATOM     19  F   UNL A   1      35.835  22.171  25.761  1.00  0.00    -0.166 F 
ATOM     20  F   UNL A   1      34.601  21.292  24.201  1.00  0.00    -0.166 F 
ATOM     21  F   UNL A   1      36.537  22.145  23.702  1.00  0.00    -0.166 F 
ENDBRANCH  17  18
ENDBRANCH  11  12
BRANCH  11  22
ATOM     22  O   UNL A   1      32.323  27.458  22.183  1.00  0.00    -0.388 OA
ATOM     23  H   UNL A   1      33.050  27.621  21.563  1.00  0.00     0.211 HD
ENDBRANCH  11  22
ENDBRANCH   6  11
ENDBRANCH   3   6
ENDBRANCH   1   2
BRANCH   1  24
ATOM     24  C   UNL A   1      31.429  32.162  26.688  1.00  0.00     0.042 C 
BRANCH  24  25
ATOM     25  C   UNL A   1      32.648  32.794  27.337  1.00  0.00     0.118 C 
BRANCH  25  26
ATOM     26  N   UNL A   1      32.449  34.215  27.610  1.00  0.00    -0.352 N 
ATOM     27  C   UNL A   1      32.982  35.002  28.602  1.00  0.00     0.251 C 
ATOM     28  H   UNL A   1      31.842  34.679  26.990  1.00  0.00     0.163 HD
ATOM     29  O   UNL A   1      32.507  36.105  28.840  1.00  0.00    -0.269 OA
BRANCH  27  30
ATOM     30  C   UNL A   1      34.126  34.498  29.383  1.00  0.00     0.039 A 
ATOM     31  C   UNL A   1      33.903  33.895  30.621  1.00  0.00     0.014 A 
ATOM     32  C   UNL A   1      35.419  34.610  28.870  1.00  0.00     0.014 A 
ATOM     33  C   UNL A   1      34.980  33.338  31.312  1.00  0.00     0.010 A 
ATOM     34  C   UNL A   1      36.463  33.949  29.494  1.00  0.00     0.010 A 
ATOM     35  C   UNL A   1      36.259  33.324  30.731  1.00  0.00    -0.014 A 
BRANCH  35  36
ATOM     36  C   UNL A   1      37.415  32.689  31.406  1.00  0.00     0.031 A 
ATOM     37  C   UNL A   1      38.125  31.545  30.736  1.00  0.00     0.074 A 
ATOM     38  C   UNL A   1      37.764  33.089  32.642  1.00  0.00     0.049 A 
ATOM     39  N   UNL A   1      39.090  30.789  31.194  1.00  0.00    -0.248 NA
ATOM     40  C   UNL A   1      37.663  31.174  29.388  1.00  0.00     0.031 C 
ATOM     41  C   UNL A   1      37.106  34.149  33.409  1.00  0.00     0.029 A 
ATOM     42  N   UNL A   1      38.756  32.643  33.479  1.00  0.00    -0.354 N 
ATOM     43  C   UNL A   1      39.332  29.850  30.200  1.00  0.00     0.074 A 
ATOM     44  C   UNL A   1      38.368  30.080  29.148  1.00  0.00     0.031 C 
ATOM     45  C   UNL A   1      37.732  34.293  34.589  1.00  0.00     0.029 A 
ATOM     46  C   UNL A   1      38.802  33.306  34.680  1.00  0.00     0.049 A 
ATOM     47  H   UNL A   1      39.375  31.916  33.240  1.00  0.00     0.167 HD
ATOM     48  C   UNL A   1      40.295  28.900  30.155  1.00  0.00     0.037 A 
ATOM     49  C   UNL A   1      39.617  33.129  35.737  1.00  0.00     0.037 A 
ATOM     50  C   UNL A   1      41.269  28.702  31.194  1.00  0.00     0.049 A 
ATOM     51  C   UNL A   1      40.678  32.064  35.662  1.00  0.00     0.074 A 
ATOM     52  C   UNL A   1      42.325  27.811  31.227  1.00  0.00     0.029 A 
ATOM     53  N   UNL A   1      41.302  29.412  32.386  1.00  0.00    -0.354 N 
ATOM     54  N   UNL A   1      40.946  31.229  34.687  1.00  0.00    -0.248 NA
ATOM     55  C   UNL A   1      41.555  31.921  36.831  1.00  0.00     0.031 C 
ATOM     56  C   UNL A   1      42.967  27.944  32.462  1.00  0.00     0.029 A 
ATOM     57  C   UNL A   1      42.349  28.962  33.173  1.00  0.00     0.049 A 
ATOM     58  H   UNL A   1      40.674  30.128  32.636  1.00  0.00     0.167 HD
ATOM     59  C   UNL A   1      42.039  30.486  35.110  1.00  0.00     0.074 A 
ATOM     60  C   UNL A   1      42.396  30.982  36.423  1.00  0.00     0.031 C 
ATOM     61  C   UNL A   1      42.691  29.482  34.472  1.00  0.00     0.037 A 
BRANCH  48  62
ATOM     62  C   UNL A   1      40.349  28.018  28.941  1.00  0.00     0.064 A 
ATOM     63  C   UNL A   1      41.096  28.370  27.805  1.00  0.00     0.173 A 
ATOM     64  C   UNL A   1      39.676  26.787  28.925  1.00  0.00     0.173 A 
ATOM     65  F   UNL A   1      41.747  29.543  27.763  1.00  0.00    -0.203 F 
ATOM     66  C   UNL A   1      41.143  27.539  26.690  1.00  0.00     0.198 A 
ATOM     67  C   UNL A   1      39.752  25.942  27.820  1.00  0.00     0.198 A 
ATOM     68  F   UNL A   1      38.948  26.399  29.983  1.00  0.00    -0.203 F 
ATOM     69  F   UNL A   1      41.819  27.923  25.599  1.00  0.00    -0.200 F 
ATOM     70  C   UNL A   1      40.479  26.321  26.702  1.00  0.00     0.200 A 
ATOM     71  F   UNL A   1      39.122  24.760  27.838  1.00  0.00    -0.200 F 
ATOM     72  F   UNL A   1      40.534  25.516  25.631  1.00  0.00    -0.200 F 
ENDBRANCH  48  62
BRANCH  49  73
ATOM     73  C   UNL A   1      39.479  33.991  36.942  1.00  0.00     0.064 A 
ATOM     74  C   UNL A   1      40.094  35.250  37.000  1.00  0.00     0.173 A 
ATOM     75  C   UNL A   1      38.747  33.573  38.062  1.00  0.00     0.173 A 
ATOM     76  F   UNL A   1      40.819  35.689  35.960  1.00  0.00    -0.203 F 
ATOM     77  C   UNL A   1      40.008  36.043  38.142  1.00  0.00     0.198 A 
ATOM     78  C   UNL A   1      38.634  34.381  39.191  1.00  0.00     0.198 A 
ATOM     79  F   UNL A   1      38.130  32.382  38.056  1.00  0.00    -0.203 F 
ATOM     80  F   UNL A   1      40.653  37.217  38.191  1.00  0.00    -0.200 F 
ATOM     81  C   UNL A   1      39.273  35.610  39.236  1.00  0.00     0.200 A 
ATOM     82  F   UNL A   1      37.907  33.967  40.239  1.00  0.00    -0.200 F 
ATOM     83  F   UNL A   1      39.190  36.372  40.335  1.00  0.00    -0.200 F 
ENDBRANCH  49  73
BRANCH  61  84
ATOM     84  C   UNL A   1      43.881  28.886  35.166  1.00  0.00     0.064 A 
ATOM     85  C   UNL A   1      45.172  29.402  34.993  1.00  0.00     0.173 A 
ATOM     86  C   UNL A   1      43.716  27.809  36.050  1.00  0.00     0.173 A 
ATOM     87  F   UNL A   1      45.384  30.423  34.147  1.00  0.00    -0.203 F 
ATOM     88  C   UNL A   1      46.260  28.844  35.657  1.00  0.00     0.198 A 
ATOM     89  C   UNL A   1      44.800  27.277  36.741  1.00  0.00     0.198 A 
ATOM     90  F   UNL A   1      42.498  27.283  36.259  1.00  0.00    -0.203 F 
ATOM     91  F   UNL A   1      47.494  29.319  35.435  1.00  0.00    -0.200 F 
ATOM     92  C   UNL A   1      46.073  27.788  36.537  1.00  0.00     0.200 A 
ATOM     93  F   UNL A   1      44.613  26.268  37.603  1.00  0.00    -0.200 F 
ATOM     94  F   UNL A   1      47.120  27.258  37.184  1.00  0.00    -0.200 F 
ENDBRANCH  61  84
ENDBRANCH  35  36
ENDBRANCH  27  30
ENDBRANCH  25  26
ENDBRANCH  24  25
ENDBRANCH   1  24
TORSDOF 17
ENDMDL
MODEL 2
REMARK VINA RESULT:     -11.9      0.195      1.971
REMARK SMILES CCCC[C@H](C(=O)NCCCNC(=O)c1ccc(-c2c3nc(c(-c4c(F)c(F)c(F)c(F)c4F)c4ccc([nH]4)c(-c4c(F)c(F)c(F)c(F)c4F)c4nc(c(-c5c(F)c(F)c(F)c(F)c5F)c5ccc2[nH]5)C=C4)C=C3)cc1)[C@H](O)c1ccc(C(F)(F)F)cc1
REMARK SMILES IDX 9 1 8 2 6 3 7 4 5 6 4 7 3 8 2 9 1 10 78 11 80 12 81 13 89 14
REMARK SMILES IDX 82 15 88 16 83 17 84 18 85 19 86 20 87 21 79 22 10 24 11 25
REMARK SMILES IDX 12 26 13 27 14 29 15 30 16 31 77 32 17 33 76 34 18 35 19 36
REMARK SMILES IDX 20 37 70 38 21 39 75 40 69 41 71 42 22 43 74 44 68 45 67 46
REMARK SMILES IDX 23 48 55 49 35 50 54 51 36 52 39 53 53 54 72 55 37 56 38 57
REMARK SMILES IDX 52 59 73 60 40 61 24 62 25 63 33 64 26 65 27 66 31 67 34 68
REMARK SMILES IDX 28 69 29 70 32 71 30 72 56 73 57 74 65 75 58 76 59 77 63 78
REMARK SMILES IDX 66 79 60 80 61 81 64 82 62 83 41 84 42 85 50 86 43 87 44 88
REMARK SMILES IDX 48 89 51 90 45 91 46 92 49 93 47 94
REMARK H PARENT 8 5 79 23 12 28 71 47 39 58
REMARK Flexibility Score: inf
ROOT
ATOM      1  C   UNL A   1      31.706  30.691  26.219  1.00  0.00     0.117 C 
ENDROOT
BRANCH   1   2
ATOM      2  N   UNL A   1      31.148  30.390  24.916  1.00  0.00    -0.356 N 
ATOM      3  C   UNL A   1      31.011  29.260  24.190  1.00  0.00     0.226 C 
ATOM      4  O   UNL A   1      30.250  29.374  23.217  1.00  0.00    -0.275 OA
ATOM      5  H   UNL A   1      30.789  31.185  24.461  1.00  0.00     0.163 HD
BRANCH   3   6
ATOM      6  C   UNL A   1      31.729  27.927  24.415  1.00  0.00     0.111 C 
BRANCH   6   7
ATOM      7  C   UNL A   1      30.634  26.819  24.491  1.00  0.00     0.016 C 
BRANCH   7   8
ATOM      8  C   UNL A   1      30.443  26.065  25.815  1.00  0.00     0.001 C 
BRANCH   8   9
ATOM      9  C   UNL A   1      30.859  24.590  25.861  1.00  0.00    -0.003 C 
ATOM     10  C   UNL A   1      30.823  23.867  24.520  1.00  0.00     0.004 C 
ENDBRANCH   8   9
ENDBRANCH   7   8
ENDBRANCH   6   7
BRANCH   6  11
ATOM     11  C   UNL A   1      32.993  27.552  23.623  1.00  0.00     0.157 C 
BRANCH  11  12
ATOM     12  C   UNL A   1      33.640  26.191  23.909  1.00  0.00    -0.019 A 
ATOM     13  C   UNL A   1      33.715  25.223  22.888  1.00  0.00     0.007 A 
ATOM     14  C   UNL A   1      34.236  25.860  25.136  1.00  0.00     0.007 A 
ATOM     15  C   UNL A   1      34.340  23.987  23.089  1.00  0.00     0.013 A 
ATOM     16  C   UNL A   1      34.893  24.639  25.331  1.00  0.00     0.013 A 
ATOM     17  C   UNL A   1      34.949  23.688  24.310  1.00  0.00     0.056 A 
BRANCH  17  18
ATOM     18  C   UNL A   1      35.615  22.352  24.522  1.00  0.00     0.416 C 
ATOM     19  F   UNL A   1      36.036  22.181  25.805  1.00  0.00    -0.166 F 
ATOM     20  F   UNL A   1      34.784  21.306  24.257  1.00  0.00    -0.166 F 
ATOM     21  F   UNL A   1      36.712  22.162  23.738  1.00  0.00    -0.166 F 
ENDBRANCH  17  18
ENDBRANCH  11  12
BRANCH  11  22
ATOM     22  O   UNL A   1      32.646  27.551  22.229  1.00  0.00    -0.388 OA
ATOM     23  H   UNL A   1      32.730  28.449  21.874  1.00  0.00     0.211 HD
ENDBRANCH  11  22
ENDBRANCH   6  11
ENDBRANCH   3   6
ENDBRANCH   1   2
BRANCH   1  24
ATOM     24  C   UNL A   1      31.452  32.126  26.627  1.00  0.00     0.042 C 
BRANCH  24  25
ATOM     25  C   UNL A   1      32.643  32.729  27.353  1.00  0.00     0.118 C 
BRANCH  25  26
ATOM     26  N   UNL A   1      32.468  34.159  27.598  1.00  0.00    -0.352 N 
ATOM     27  C   UNL A   1      33.018  34.957  28.571  1.00  0.00     0.251 C 
ATOM     28  H   UNL A   1      31.866  34.620  26.970  1.00  0.00     0.163 HD
ATOM     29  O   UNL A   1      32.562  36.072  28.788  1.00  0.00    -0.269 OA
BRANCH  27  30
ATOM     30  C   UNL A   1      34.158  34.450  29.357  1.00  0.00     0.039 A 
ATOM     31  C   UNL A   1      33.925  33.805  30.572  1.00  0.00     0.014 A 
ATOM     32  C   UNL A   1      35.457  34.602  28.872  1.00  0.00     0.014 A 
ATOM     33  C   UNL A   1      34.999  33.247  31.265  1.00  0.00     0.010 A 
ATOM     34  C   UNL A   1      36.502  33.941  29.494  1.00  0.00     0.010 A 
ATOM     35  C   UNL A   1      36.288  33.275  30.707  1.00  0.00    -0.014 A 
BRANCH  35  36
ATOM     36  C   UNL A   1      37.444  32.641  31.384  1.00  0.00     0.031 A 
ATOM     37  C   UNL A   1      38.157  31.499  30.714  1.00  0.00     0.074 A 
ATOM     38  C   UNL A   1      37.790  33.039  32.622  1.00  0.00     0.049 A 
ATOM     39  N   UNL A   1      39.122  30.744  31.173  1.00  0.00    -0.248 NA
ATOM     40  C   UNL A   1      37.699  31.129  29.364  1.00  0.00     0.031 C 
ATOM     41  C   UNL A   1      37.128  34.097  33.389  1.00  0.00     0.029 A 
ATOM     42  N   UNL A   1      38.780  32.594  33.460  1.00  0.00    -0.354 N 
ATOM     43  C   UNL A   1      39.368  29.806  30.178  1.00  0.00     0.074 A 
ATOM     44  C   UNL A   1      38.406  30.037  29.124  1.00  0.00     0.031 C 
ATOM     45  C   UNL A   1      37.751  34.240  34.570  1.00  0.00     0.029 A 
ATOM     46  C   UNL A   1      38.823  33.255  34.662  1.00  0.00     0.049 A 
ATOM     47  H   UNL A   1      39.402  31.868  33.221  1.00  0.00     0.167 HD
ATOM     48  C   UNL A   1      40.333  28.859  30.134  1.00  0.00     0.037 A 
ATOM     49  C   UNL A   1      39.636  33.078  35.721  1.00  0.00     0.037 A 
ATOM     50  C   UNL A   1      41.305  28.660  31.175  1.00  0.00     0.049 A 
ATOM     51  C   UNL A   1      40.698  32.015  35.646  1.00  0.00     0.074 A 
ATOM     52  C   UNL A   1      42.363  27.771  31.208  1.00  0.00     0.029 A 
ATOM     53  N   UNL A   1      41.334  29.368  32.368  1.00  0.00    -0.354 N 
ATOM     54  N   UNL A   1      40.970  31.181  34.671  1.00  0.00    -0.248 NA
ATOM     55  C   UNL A   1      41.573  31.871  36.817  1.00  0.00     0.031 C 
ATOM     56  C   UNL A   1      43.002  27.904  32.445  1.00  0.00     0.029 A 
ATOM     57  C   UNL A   1      42.380  28.919  33.157  1.00  0.00     0.049 A 
ATOM     58  H   UNL A   1      40.705  30.083  32.617  1.00  0.00     0.167 HD
ATOM     59  C   UNL A   1      42.064  30.440  35.095  1.00  0.00     0.074 A 
ATOM     60  C   UNL A   1      42.416  30.934  36.409  1.00  0.00     0.031 C 
ATOM     61  C   UNL A   1      42.718  29.438  34.457  1.00  0.00     0.037 A 
BRANCH  48  62
ATOM     62  C   UNL A   1      40.391  27.978  28.918  1.00  0.00     0.064 A 
ATOM     63  C   UNL A   1      39.690  26.764  28.852  1.00  0.00     0.173 A 
ATOM     64  C   UNL A   1      41.129  28.369  27.791  1.00  0.00     0.173 A 
ATOM     65  F   UNL A   1      38.981  26.336  29.908  1.00  0.00    -0.203 F 
ATOM     66  C   UNL A   1      39.747  25.962  27.716  1.00  0.00     0.198 A 
ATOM     67  C   UNL A   1      41.157  27.581  26.643  1.00  0.00     0.198 A 
ATOM     68  F   UNL A   1      41.818  29.520  27.798  1.00  0.00    -0.203 F 
ATOM     69  F   UNL A   1      39.112  24.782  27.699  1.00  0.00    -0.200 F 
ATOM     70  C   UNL A   1      40.472  26.375  26.609  1.00  0.00     0.200 A 
ATOM     71  F   UNL A   1      41.848  27.988  25.569  1.00  0.00    -0.200 F 
ATOM     72  F   UNL A   1      40.519  25.607  25.511  1.00  0.00    -0.200 F 
ENDBRANCH  48  62
BRANCH  49  73
ATOM     73  C   UNL A   1      39.494  33.937  36.927  1.00  0.00     0.064 A 
ATOM     74  C   UNL A   1      38.755  33.503  38.037  1.00  0.00     0.173 A 
ATOM     75  C   UNL A   1      40.077  35.211  36.992  1.00  0.00     0.173 A 
ATOM     76  F   UNL A   1      38.166  32.298  38.018  1.00  0.00    -0.203 F 
ATOM     77  C   UNL A   1      38.579  34.320  39.151  1.00  0.00     0.198 A 
ATOM     78  C   UNL A   1      39.928  36.014  38.120  1.00  0.00     0.198 A 
ATOM     79  F   UNL A   1      40.802  35.672  35.962  1.00  0.00    -0.203 F 
ATOM     80  F   UNL A   1      37.821  33.902  40.174  1.00  0.00    -0.200 F 
ATOM     81  C   UNL A   1      39.170  35.574  39.194  1.00  0.00     0.200 A 
ATOM     82  F   UNL A   1      40.516  37.218  38.165  1.00  0.00    -0.200 F 
ATOM     83  F   UNL A   1      39.001  36.361  40.266  1.00  0.00    -0.200 F 
ENDBRANCH  49  73
BRANCH  61  84
ATOM     84  C   UNL A   1      43.908  28.843  35.153  1.00  0.00     0.064 A 
ATOM     85  C   UNL A   1      43.790  27.734  36.001  1.00  0.00     0.173 A 
ATOM     86  C   UNL A   1      45.191  29.366  34.930  1.00  0.00     0.173 A 
ATOM     87  F   UNL A   1      42.582  27.205  36.257  1.00  0.00    -0.203 F 
ATOM     88  C   UNL A   1      44.908  27.188  36.625  1.00  0.00     0.198 A 
ATOM     89  C   UNL A   1      46.311  28.796  35.526  1.00  0.00     0.198 A 
ATOM     90  F   UNL A   1      45.361  30.422  34.118  1.00  0.00    -0.203 F 
ATOM     91  F   UNL A   1      44.764  26.162  37.474  1.00  0.00    -0.200 F 
ATOM     92  C   UNL A   1      46.168  27.714  36.380  1.00  0.00     0.200 A 
ATOM     93  F   UNL A   1      47.529  29.295  35.274  1.00  0.00    -0.200 F 
ATOM     94  F   UNL A   1      47.245  27.181  36.974  1.00  0.00    -0.200 F 
ENDBRANCH  61  84
ENDBRANCH  35  36
ENDBRANCH  27  30
ENDBRANCH  25  26
ENDBRANCH  24  25
ENDBRANCH   1  24
TORSDOF 17
ENDMDL
MODEL 3
REMARK VINA RESULT:     -11.8      0.587      7.276
REMARK SMILES CCCC[C@H](C(=O)NCCCNC(=O)c1ccc(-c2c3nc(c(-c4c(F)c(F)c(F)c(F)c4F)c4ccc([nH]4)c(-c4c(F)c(F)c(F)c(F)c4F)c4nc(c(-c5c(F)c(F)c(F)c(F)c5F)c5ccc2[nH]5)C=C4)C=C3)cc1)[C@H](O)c1ccc(C(F)(F)F)cc1
REMARK SMILES IDX 9 1 8 2 6 3 7 4 5 6 4 7 3 8 2 9 1 10 78 11 80 12 81 13 89 14
REMARK SMILES IDX 82 15 88 16 83 17 84 18 85 19 86 20 87 21 79 22 10 24 11 25
REMARK SMILES IDX 12 26 13 27 14 29 15 30 16 31 77 32 17 33 76 34 18 35 19 36
REMARK SMILES IDX 20 37 70 38 21 39 75 40 69 41 71 42 22 43 74 44 68 45 67 46
REMARK SMILES IDX 23 48 55 49 35 50 54 51 36 52 39 53 53 54 72 55 37 56 38 57
REMARK SMILES IDX 52 59 73 60 40 61 24 62 25 63 33 64 26 65 27 66 31 67 34 68
REMARK SMILES IDX 28 69 29 70 32 71 30 72 56 73 57 74 65 75 58 76 59 77 63 78
REMARK SMILES IDX 66 79 60 80 61 81 64 82 62 83 41 84 42 85 50 86 43 87 44 88
REMARK SMILES IDX 48 89 51 90 45 91 46 92 49 93 47 94
REMARK H PARENT 8 5 79 23 12 28 71 47 39 58
REMARK Flexibility Score: inf
ROOT
ATOM      1  C   UNL A   1      31.509  30.824  26.219  1.00  0.00     0.117 C 
ENDROOT
BRANCH   1   2
ATOM      2  N   UNL A   1      31.013  30.525  24.891  1.00  0.00    -0.356 N 
ATOM      3  C   UNL A   1      30.928  29.399  24.151  1.00  0.00     0.226 C 
ATOM      4  O   UNL A   1      30.207  29.506  23.147  1.00  0.00    -0.275 OA
ATOM      5  H   UNL A   1      30.658  31.317  24.426  1.00  0.00     0.163 HD
BRANCH   3   6
ATOM      6  C   UNL A   1      31.662  28.078  24.396  1.00  0.00     0.111 C 
BRANCH   6   7
ATOM      7  C   UNL A   1      30.578  26.962  24.510  1.00  0.00     0.016 C 
BRANCH   7   8
ATOM      8  C   UNL A   1      30.389  26.255  25.860  1.00  0.00     0.001 C 
BRANCH   8   9
ATOM      9  C   UNL A   1      30.802  24.782  25.957  1.00  0.00    -0.003 C 
ATOM     10  C   UNL A   1      30.785  24.019  24.639  1.00  0.00     0.004 C 
ENDBRANCH   8   9
ENDBRANCH   7   8
ENDBRANCH   6   7
BRANCH   6  11
ATOM     11  C   UNL A   1      32.920  27.696  23.597  1.00  0.00     0.157 C 
BRANCH  11  12
ATOM     12  C   UNL A   1      33.539  26.317  23.851  1.00  0.00    -0.019 A 
ATOM     13  C   UNL A   1      33.586  25.367  22.812  1.00  0.00     0.007 A 
ATOM     14  C   UNL A   1      34.138  25.950  25.067  1.00  0.00     0.007 A 
ATOM     15  C   UNL A   1      34.186  24.115  22.985  1.00  0.00     0.013 A 
ATOM     16  C   UNL A   1      34.771  24.713  25.234  1.00  0.00     0.013 A 
ATOM     17  C   UNL A   1      34.799  23.780  24.194  1.00  0.00     0.056 A 
BRANCH  17  18
ATOM     18  C   UNL A   1      35.438  22.426  24.376  1.00  0.00     0.416 C 
ATOM     19  F   UNL A   1      34.571  21.407  24.127  1.00  0.00    -0.166 F 
ATOM     20  F   UNL A   1      36.496  22.232  23.541  1.00  0.00    -0.166 F 
ATOM     21  F   UNL A   1      35.914  22.217  25.635  1.00  0.00    -0.166 F 
ENDBRANCH  17  18
ENDBRANCH  11  12
BRANCH  11  22
ATOM     22  O   UNL A   1      32.574  27.734  22.202  1.00  0.00    -0.388 OA
ATOM     23  H   UNL A   1      31.610  27.774  22.109  1.00  0.00     0.211 HD
ENDBRANCH  11  22
ENDBRANCH   6  11
ENDBRANCH   3   6
ENDBRANCH   1   2
BRANCH   1  24
ATOM     24  C   UNL A   1      31.393  32.297  26.548  1.00  0.00     0.042 C 
BRANCH  24  25
ATOM     25  C   UNL A   1      32.643  32.828  27.229  1.00  0.00     0.118 C 
BRANCH  25  26
ATOM     26  N   UNL A   1      32.504  34.229  27.615  1.00  0.00    -0.352 N 
ATOM     27  C   UNL A   1      33.079  34.915  28.658  1.00  0.00     0.251 C 
ATOM     28  H   UNL A   1      31.907  34.764  27.043  1.00  0.00     0.163 HD
ATOM     29  O   UNL A   1      32.651  36.012  28.988  1.00  0.00    -0.269 OA
BRANCH  27  30
ATOM     30  C   UNL A   1      34.212  34.307  29.378  1.00  0.00     0.039 A 
ATOM     31  C   UNL A   1      33.969  33.492  30.484  1.00  0.00     0.014 A 
ATOM     32  C   UNL A   1      35.517  34.535  28.938  1.00  0.00     0.014 A 
ATOM     33  C   UNL A   1      35.038  32.847  31.105  1.00  0.00     0.010 A 
ATOM     34  C   UNL A   1      36.559  33.799  29.474  1.00  0.00     0.010 A 
ATOM     35  C   UNL A   1      36.335  32.963  30.575  1.00  0.00    -0.014 A 
BRANCH  35  36
ATOM     36  C   UNL A   1      37.486  32.246  31.170  1.00  0.00     0.031 A 
ATOM     37  C   UNL A   1      37.976  32.638  32.537  1.00  0.00     0.074 A 
ATOM     38  C   UNL A   1      38.130  31.309  30.450  1.00  0.00     0.049 A 
ATOM     39  N   UNL A   1      39.022  32.209  33.196  1.00  0.00    -0.248 NA
ATOM     40  C   UNL A   1      37.212  33.682  33.242  1.00  0.00     0.031 C 
ATOM     41  C   UNL A   1      37.776  30.892  29.091  1.00  0.00     0.029 A 
ATOM     42  N   UNL A   1      39.225  30.542  30.757  1.00  0.00    -0.354 N 
ATOM     43  C   UNL A   1      39.047  32.942  34.375  1.00  0.00     0.074 A 
ATOM     44  C   UNL A   1      37.960  33.892  34.314  1.00  0.00     0.031 C 
ATOM     45  C   UNL A   1      38.618  29.924  28.695  1.00  0.00     0.029 A 
ATOM     46  C   UNL A   1      39.596  29.685  29.750  1.00  0.00     0.049 A 
ATOM     47  H   UNL A   1      39.701  30.601  31.617  1.00  0.00     0.167 HD
ATOM     48  C   UNL A   1      39.883  32.809  35.431  1.00  0.00     0.037 A 
ATOM     49  C   UNL A   1      40.618  28.810  29.689  1.00  0.00     0.037 A 
ATOM     50  C   UNL A   1      40.941  31.837  35.494  1.00  0.00     0.049 A 
ATOM     51  C   UNL A   1      41.535  28.685  30.876  1.00  0.00     0.074 A 
ATOM     52  C   UNL A   1      41.810  31.575  36.537  1.00  0.00     0.029 A 
ATOM     53  N   UNL A   1      41.271  30.966  34.465  1.00  0.00    -0.354 N 
ATOM     54  N   UNL A   1      41.506  29.331  32.017  1.00  0.00    -0.248 NA
ATOM     55  C   UNL A   1      42.623  27.705  30.771  1.00  0.00     0.031 C 
ATOM     56  C   UNL A   1      42.700  30.580  36.121  1.00  0.00     0.029 A 
ATOM     57  C   UNL A   1      42.347  30.180  34.841  1.00  0.00     0.049 A 
ATOM     58  H   UNL A   1      40.809  30.916  33.597  1.00  0.00     0.167 HD
ATOM     59  C   UNL A   1      42.546  28.813  32.776  1.00  0.00     0.074 A 
ATOM     60  C   UNL A   1      43.176  27.787  31.972  1.00  0.00     0.031 C 
ATOM     61  C   UNL A   1      42.947  29.155  34.026  1.00  0.00     0.037 A 
BRANCH  48  62
ATOM     62  C   UNL A   1      39.677  33.725  36.604  1.00  0.00     0.064 A 
ATOM     63  C   UNL A   1      40.262  35.000  36.656  1.00  0.00     0.173 A 
ATOM     64  C   UNL A   1      38.856  33.338  37.674  1.00  0.00     0.173 A 
ATOM     65  F   UNL A   1      41.068  35.414  35.666  1.00  0.00    -0.203 F 
ATOM     66  C   UNL A   1      40.057  35.841  37.745  1.00  0.00     0.198 A 
ATOM     67  C   UNL A   1      38.625  34.196  38.747  1.00  0.00     0.198 A 
ATOM     68  F   UNL A   1      38.271  32.131  37.676  1.00  0.00    -0.203 F 
ATOM     69  F   UNL A   1      40.669  37.031  37.795  1.00  0.00    -0.200 F 
ATOM     70  C   UNL A   1      39.230  35.442  38.785  1.00  0.00     0.200 A 
ATOM     71  F   UNL A   1      37.815  33.814  39.745  1.00  0.00    -0.200 F 
ATOM     72  F   UNL A   1      39.024  36.257  39.830  1.00  0.00    -0.200 F 
ENDBRANCH  48  62
BRANCH  49  73
ATOM     73  C   UNL A   1      40.814  27.971  28.477  1.00  0.00     0.064 A 
ATOM     74  C   UNL A   1      41.579  28.434  27.397  1.00  0.00     0.173 A 
ATOM     75  C   UNL A   1      40.233  26.700  28.364  1.00  0.00     0.173 A 
ATOM     76  F   UNL A   1      42.145  29.650  27.450  1.00  0.00    -0.203 F 
ATOM     77  C   UNL A   1      41.730  27.673  26.239  1.00  0.00     0.198 A 
ATOM     78  C   UNL A   1      40.411  25.926  27.219  1.00  0.00     0.198 A 
ATOM     79  F   UNL A   1      39.499  26.204  29.370  1.00  0.00    -0.203 F 
ATOM     80  F   UNL A   1      42.419  28.165  25.201  1.00  0.00    -0.200 F 
ATOM     81  C   UNL A   1      41.149  26.417  26.153  1.00  0.00     0.200 A 
ATOM     82  F   UNL A   1      39.863  24.704  27.147  1.00  0.00    -0.200 F 
ATOM     83  F   UNL A   1      41.293  25.684  25.040  1.00  0.00    -0.200 F 
ENDBRANCH  49  73
BRANCH  61  84
ATOM     84  C   UNL A   1      44.092  28.383  34.615  1.00  0.00     0.064 A 
ATOM     85  C   UNL A   1      45.420  28.810  34.477  1.00  0.00     0.173 A 
ATOM     86  C   UNL A   1      43.848  27.222  35.365  1.00  0.00     0.173 A 
ATOM     87  F   UNL A   1      45.706  29.906  33.757  1.00  0.00    -0.203 F 
ATOM     88  C   UNL A   1      46.465  28.086  35.043  1.00  0.00     0.198 A 
ATOM     89  C   UNL A   1      44.893  26.522  35.961  1.00  0.00     0.198 A 
ATOM     90  F   UNL A   1      42.594  26.776  35.535  1.00  0.00    -0.203 F 
ATOM     91  F   UNL A   1      47.731  28.483  34.853  1.00  0.00    -0.200 F 
ATOM     92  C   UNL A   1      46.201  26.949  35.792  1.00  0.00     0.200 A 
ATOM     93  F   UNL A   1      44.632  25.433  36.698  1.00  0.00    -0.200 F 
ATOM     94  F   UNL A   1      47.208  26.260  36.345  1.00  0.00    -0.200 F 
ENDBRANCH  61  84
ENDBRANCH  35  36
ENDBRANCH  27  30
ENDBRANCH  25  26
ENDBRANCH  24  25
ENDBRANCH   1  24
TORSDOF 17
ENDMDL
