MODEL 1
REMARK VINA RESULT:     -11.2      0.000      0.000
REMARK SMILES O=C(NCCCNC(=O)[C@H]1CSC2(CCCCC2)[NH2+]1)c1ccc(-c2c3nc(c(-c4c(F)c(F)c(F)c(F)c4F)c4ccc([nH]4)c(-c4c(F)c(F)c(F)c(F)c4F)c4nc(c(-c5c(F)c(F)c(F)c(F)c5F)c5ccc2[nH]5)C=C4)C=C3)cc1
REMARK SMILES IDX 4 1 3 2 1 3 2 4 20 6 21 7 82 8 22 9 81 10 23 11 24 12 25 13
REMARK SMILES IDX 75 14 26 15 80 16 74 17 76 18 27 19 79 20 73 21 72 22 28 24
REMARK SMILES IDX 60 25 40 26 59 27 41 28 44 29 58 30 77 31 42 32 43 33 57 35
REMARK SMILES IDX 78 36 45 37 29 38 30 39 38 40 31 41 32 42 36 43 39 44 33 45
REMARK SMILES IDX 34 46 37 47 35 48 61 49 62 50 70 51 63 52 64 53 68 54 71 55
REMARK SMILES IDX 65 56 66 57 69 58 67 59 46 60 47 61 55 62 48 63 49 64 53 65
REMARK SMILES IDX 56 66 50 67 51 68 54 69 52 70 5 71 6 72 7 73 8 74 9 76 10 77
REMARK SMILES IDX 11 78 19 79 12 80 13 81 14 84 18 85 15 86 17 87 16 88
REMARK H PARENT 3 5 76 23 44 34 7 75 19 82 19 83
REMARK Flexibility Score: inf
ROOT
ATOM      1  C   UNL A   1      34.382  32.570  28.702  1.00  0.00     0.118 C 
ENDROOT
BRANCH   1   2
ATOM      2  N   UNL A   1      33.770  31.331  28.222  1.00  0.00    -0.352 N 
ATOM      3  O   UNL A   1      33.657  29.270  27.326  1.00  0.00    -0.269 OA
ATOM      4  C   UNL A   1      34.332  30.120  27.886  1.00  0.00     0.251 C 
ATOM      5  H   UNL A   1      32.792  31.369  28.121  1.00  0.00     0.163 HD
BRANCH   4   6
ATOM      6  C   UNL A   1      35.752  29.850  28.199  1.00  0.00     0.039 A 
ATOM      7  C   UNL A   1      36.740  30.104  27.251  1.00  0.00     0.014 A 
ATOM      8  C   UNL A   1      36.106  29.371  29.464  1.00  0.00     0.014 A 
ATOM      9  C   UNL A   1      38.043  29.703  27.485  1.00  0.00     0.010 A 
ATOM     10  C   UNL A   1      37.448  29.100  29.754  1.00  0.00     0.010 A 
ATOM     11  C   UNL A   1      38.422  29.245  28.755  1.00  0.00    -0.014 A 
BRANCH  11  12
ATOM     12  C   UNL A   1      39.868  29.058  29.022  1.00  0.00     0.031 A 
ATOM     13  C   UNL A   1      40.659  30.064  29.799  1.00  0.00     0.074 A 
ATOM     14  C   UNL A   1      40.438  27.916  28.586  1.00  0.00     0.049 A 
ATOM     15  N   UNL A   1      41.923  30.027  30.137  1.00  0.00    -0.248 NA
ATOM     16  C   UNL A   1      39.954  31.274  30.252  1.00  0.00     0.031 C 
ATOM     17  C   UNL A   1      39.752  26.878  27.808  1.00  0.00     0.029 A 
ATOM     18  N   UNL A   1      41.702  27.415  28.756  1.00  0.00    -0.354 N 
ATOM     19  C   UNL A   1      42.172  31.213  30.814  1.00  0.00     0.074 A 
ATOM     20  C   UNL A   1      40.931  31.958  30.833  1.00  0.00     0.031 C 
ATOM     21  C   UNL A   1      40.578  25.840  27.627  1.00  0.00     0.029 A 
ATOM     22  C   UNL A   1      41.877  26.174  28.194  1.00  0.00     0.049 A 
ATOM     23  H   UNL A   1      42.415  27.897  29.234  1.00  0.00     0.167 HD
ATOM     24  C   UNL A   1      43.336  31.631  31.366  1.00  0.00     0.037 A 
ATOM     25  C   UNL A   1      42.972  25.399  28.114  1.00  0.00     0.037 A 
ATOM     26  C   UNL A   1      44.554  30.860  31.362  1.00  0.00     0.049 A 
ATOM     27  C   UNL A   1      44.245  25.902  28.729  1.00  0.00     0.074 A 
ATOM     28  C   UNL A   1      45.774  31.174  31.934  1.00  0.00     0.029 A 
ATOM     29  N   UNL A   1      44.707  29.624  30.750  1.00  0.00    -0.354 N 
ATOM     30  N   UNL A   1      44.459  27.011  29.392  1.00  0.00    -0.248 NA
ATOM     31  C   UNL A   1      45.431  25.052  28.573  1.00  0.00     0.031 C 
ATOM     32  C   UNL A   1      46.677  30.151  31.629  1.00  0.00     0.029 A 
ATOM     33  C   UNL A   1      46.008  29.174  30.908  1.00  0.00     0.049 A 
ATOM     34  H   UNL A   1      43.994  29.137  30.274  1.00  0.00     0.167 HD
ATOM     35  C   UNL A   1      45.799  26.993  29.739  1.00  0.00     0.074 A 
ATOM     36  C   UNL A   1      46.341  25.744  29.241  1.00  0.00     0.031 C 
ATOM     37  C   UNL A   1      46.522  27.930  30.400  1.00  0.00     0.037 A 
BRANCH  24  38
ATOM     38  C   UNL A   1      43.369  32.988  32.007  1.00  0.00     0.064 A 
ATOM     39  C   UNL A   1      43.655  34.146  31.270  1.00  0.00     0.173 A 
ATOM     40  C   UNL A   1      43.024  33.138  33.359  1.00  0.00     0.173 A 
ATOM     41  F   UNL A   1      44.001  34.057  29.977  1.00  0.00    -0.203 F 
ATOM     42  C   UNL A   1      43.600  35.405  31.866  1.00  0.00     0.198 A 
ATOM     43  C   UNL A   1      42.946  34.399  33.945  1.00  0.00     0.198 A 
ATOM     44  F   UNL A   1      42.737  32.062  34.106  1.00  0.00    -0.203 F 
ATOM     45  F   UNL A   1      43.897  36.497  31.149  1.00  0.00    -0.200 F 
ATOM     46  C   UNL A   1      43.236  35.530  33.199  1.00  0.00     0.200 A 
ATOM     47  F   UNL A   1      42.582  34.518  35.229  1.00  0.00    -0.200 F 
ATOM     48  F   UNL A   1      43.163  36.744  33.764  1.00  0.00    -0.200 F 
ENDBRANCH  24  38
BRANCH  25  49
ATOM     49  C   UNL A   1      42.915  24.101  27.397  1.00  0.00     0.064 A 
ATOM     50  C   UNL A   1      42.555  22.920  28.059  1.00  0.00     0.173 A 
ATOM     51  C   UNL A   1      43.216  24.015  26.028  1.00  0.00     0.173 A 
ATOM     52  F   UNL A   1      42.273  22.947  29.370  1.00  0.00    -0.203 F 
ATOM     53  C   UNL A   1      42.519  21.700  27.386  1.00  0.00     0.198 A 
ATOM     54  C   UNL A   1      43.145  22.802  25.349  1.00  0.00     0.198 A 
ATOM     55  F   UNL A   1      43.558  25.117  25.345  1.00  0.00    -0.203 F 
ATOM     56  F   UNL A   1      42.220  20.578  28.053  1.00  0.00    -0.200 F 
ATOM     57  C   UNL A   1      42.808  21.644  26.030  1.00  0.00     0.200 A 
ATOM     58  F   UNL A   1      43.403  22.758  24.035  1.00  0.00    -0.200 F 
ATOM     59  F   UNL A   1      42.767  20.471  25.382  1.00  0.00    -0.200 F 
ENDBRANCH  25  49
BRANCH  37  60
ATOM     60  C   UNL A   1      47.971  27.622  30.630  1.00  0.00     0.064 A 
ATOM     61  C   UNL A   1      48.398  26.926  31.770  1.00  0.00     0.173 A 
ATOM     62  C   UNL A   1      48.938  28.016  29.694  1.00  0.00     0.173 A 
ATOM     63  F   UNL A   1      47.510  26.548  32.702  1.00  0.00    -0.203 F 
ATOM     64  C   UNL A   1      49.748  26.661  31.979  1.00  0.00     0.198 A 
ATOM     65  C   UNL A   1      50.283  27.721  29.892  1.00  0.00     0.198 A 
ATOM     66  F   UNL A   1      48.578  28.681  28.586  1.00  0.00    -0.203 F 
ATOM     67  F   UNL A   1      50.140  26.043  33.102  1.00  0.00    -0.200 F 
ATOM     68  C   UNL A   1      50.688  27.052  31.038  1.00  0.00     0.200 A 
ATOM     69  F   UNL A   1      51.190  28.091  28.977  1.00  0.00    -0.200 F 
ATOM     70  F   UNL A   1      51.987  26.795  31.240  1.00  0.00    -0.200 F 
ENDBRANCH  37  60
ENDBRANCH  11  12
ENDBRANCH   4   6
ENDBRANCH   1   2
BRANCH   1  71
ATOM     71  C   UNL A   1      33.807  33.798  28.029  1.00  0.00     0.042 C 
BRANCH  71  72
ATOM     72  C   UNL A   1      33.815  35.007  28.938  1.00  0.00     0.118 C 
BRANCH  72  73
ATOM     73  N   UNL A   1      32.960  34.923  30.092  1.00  0.00    -0.351 N 
ATOM     74  C   UNL A   1      33.212  35.263  31.388  1.00  0.00     0.279 C 
ATOM     75  H   UNL A   1      32.058  34.568  29.919  1.00  0.00     0.163 HD
ATOM     76  O   UNL A   1      32.215  35.342  32.119  1.00  0.00    -0.268 OA
BRANCH  74  77
ATOM     77  C   UNL A   1      34.627  35.497  31.986  1.00  0.00     0.283 C 
ATOM     78  C   UNL A   1      34.650  35.552  33.501  1.00  0.00     0.151 C 
ATOM     79  N   UNL A   1      35.714  34.651  31.430  1.00  0.00    -0.322 N 
ATOM     80  S   UNL A   1      35.405  34.003  34.019  1.00  0.00    -0.089 SA
ATOM     81  C   UNL A   1      36.268  33.710  32.415  1.00  0.00     0.143 C 
ATOM     82  H   UNL A   1      36.465  35.258  31.103  1.00  0.00     0.348 HD
ATOM     83  H   UNL A   1      35.313  34.099  30.671  1.00  0.00     0.348 HD
ATOM     84  C   UNL A   1      36.201  32.263  31.849  1.00  0.00     0.081 C 
ATOM     85  C   UNL A   1      37.773  33.967  32.677  1.00  0.00     0.081 C 
ATOM     86  C   UNL A   1      36.648  31.220  32.861  1.00  0.00     0.007 C 
ATOM     87  C   UNL A   1      38.392  32.925  33.637  1.00  0.00     0.007 C 
ATOM     88  C   UNL A   1      38.096  31.469  33.263  1.00  0.00     0.001 C 
ENDBRANCH  74  77
ENDBRANCH  72  73
ENDBRANCH  71  72
ENDBRANCH   1  71
TORSDOF 10
ENDMDL
MODEL 2
REMARK VINA RESULT:     -11.2      0.072      1.661
REMARK SMILES O=C(NCCCNC(=O)[C@H]1CSC2(CCCCC2)[NH2+]1)c1ccc(-c2c3nc(c(-c4c(F)c(F)c(F)c(F)c4F)c4ccc([nH]4)c(-c4c(F)c(F)c(F)c(F)c4F)c4nc(c(-c5c(F)c(F)c(F)c(F)c5F)c5ccc2[nH]5)C=C4)C=C3)cc1
REMARK SMILES IDX 4 1 3 2 1 3 2 4 20 6 21 7 82 8 22 9 81 10 23 11 24 12 25 13
REMARK SMILES IDX 75 14 26 15 80 16 74 17 76 18 27 19 79 20 73 21 72 22 28 24
REMARK SMILES IDX 60 25 40 26 59 27 41 28 44 29 58 30 77 31 42 32 43 33 57 35
REMARK SMILES IDX 78 36 45 37 29 38 30 39 38 40 31 41 32 42 36 43 39 44 33 45
REMARK SMILES IDX 34 46 37 47 35 48 61 49 62 50 70 51 63 52 64 53 68 54 71 55
REMARK SMILES IDX 65 56 66 57 69 58 67 59 46 60 47 61 55 62 48 63 49 64 53 65
REMARK SMILES IDX 56 66 50 67 51 68 54 69 52 70 5 71 6 72 7 73 8 74 9 76 10 77
REMARK SMILES IDX 11 78 19 79 12 80 13 81 14 84 18 85 15 86 17 87 16 88
REMARK H PARENT 3 5 76 23 44 34 7 75 19 82 19 83
REMARK Flexibility Score: inf
ROOT
ATOM      1  C   UNL A   1      34.428  32.593  28.640  1.00  0.00     0.118 C 
ENDROOT
BRANCH   1   2
ATOM      2  N   UNL A   1      33.804  31.344  28.203  1.00  0.00    -0.352 N 
ATOM      3  O   UNL A   1      33.670  29.258  27.370  1.00  0.00    -0.269 OA
ATOM      4  C   UNL A   1      34.355  30.120  27.898  1.00  0.00     0.251 C 
ATOM      5  H   UNL A   1      32.825  31.385  28.111  1.00  0.00     0.163 HD
BRANCH   4   6
ATOM      6  C   UNL A   1      35.776  29.851  28.205  1.00  0.00     0.039 A 
ATOM      7  C   UNL A   1      36.760  30.103  27.251  1.00  0.00     0.014 A 
ATOM      8  C   UNL A   1      36.137  29.374  29.468  1.00  0.00     0.014 A 
ATOM      9  C   UNL A   1      38.064  29.703  27.479  1.00  0.00     0.010 A 
ATOM     10  C   UNL A   1      37.480  29.104  29.752  1.00  0.00     0.010 A 
ATOM     11  C   UNL A   1      38.450  29.247  28.748  1.00  0.00    -0.014 A 
BRANCH  11  12
ATOM     12  C   UNL A   1      39.897  29.061  29.009  1.00  0.00     0.031 A 
ATOM     13  C   UNL A   1      40.691  30.068  29.781  1.00  0.00     0.074 A 
ATOM     14  C   UNL A   1      40.465  27.919  28.570  1.00  0.00     0.049 A 
ATOM     15  N   UNL A   1      41.957  30.032  30.113  1.00  0.00    -0.248 NA
ATOM     16  C   UNL A   1      39.988  31.278  30.236  1.00  0.00     0.031 C 
ATOM     17  C   UNL A   1      39.776  26.880  27.796  1.00  0.00     0.029 A 
ATOM     18  N   UNL A   1      41.730  27.419  28.734  1.00  0.00    -0.354 N 
ATOM     19  C   UNL A   1      42.208  31.218  30.788  1.00  0.00     0.074 A 
ATOM     20  C   UNL A   1      40.968  31.962  30.813  1.00  0.00     0.031 C 
ATOM     21  C   UNL A   1      40.602  25.843  27.612  1.00  0.00     0.029 A 
ATOM     22  C   UNL A   1      41.903  26.178  28.172  1.00  0.00     0.049 A 
ATOM     23  H   UNL A   1      42.445  27.902  29.209  1.00  0.00     0.167 HD
ATOM     24  C   UNL A   1      43.375  31.636  31.334  1.00  0.00     0.037 A 
ATOM     25  C   UNL A   1      42.998  25.403  28.088  1.00  0.00     0.037 A 
ATOM     26  C   UNL A   1      44.593  30.867  31.324  1.00  0.00     0.049 A 
ATOM     27  C   UNL A   1      44.274  25.906  28.696  1.00  0.00     0.074 A 
ATOM     28  C   UNL A   1      45.816  31.181  31.891  1.00  0.00     0.029 A 
ATOM     29  N   UNL A   1      44.743  29.630  30.712  1.00  0.00    -0.354 N 
ATOM     30  N   UNL A   1      44.490  27.016  29.357  1.00  0.00    -0.248 NA
ATOM     31  C   UNL A   1      45.459  25.057  28.535  1.00  0.00     0.031 C 
ATOM     32  C   UNL A   1      46.718  30.158  31.582  1.00  0.00     0.029 A 
ATOM     33  C   UNL A   1      46.046  29.181  30.865  1.00  0.00     0.049 A 
ATOM     34  H   UNL A   1      44.029  29.143  30.240  1.00  0.00     0.167 HD
ATOM     35  C   UNL A   1      45.832  26.999  29.698  1.00  0.00     0.074 A 
ATOM     36  C   UNL A   1      46.372  25.750  29.198  1.00  0.00     0.031 C 
ATOM     37  C   UNL A   1      46.558  27.936  30.355  1.00  0.00     0.037 A 
BRANCH  24  38
ATOM     38  C   UNL A   1      43.411  32.994  31.974  1.00  0.00     0.064 A 
ATOM     39  C   UNL A   1      43.716  34.150  31.240  1.00  0.00     0.173 A 
ATOM     40  C   UNL A   1      43.048  33.149  33.320  1.00  0.00     0.173 A 
ATOM     41  F   UNL A   1      44.079  34.055  29.952  1.00  0.00    -0.203 F 
ATOM     42  C   UNL A   1      43.663  35.409  31.834  1.00  0.00     0.198 A 
ATOM     43  C   UNL A   1      42.972  34.411  33.905  1.00  0.00     0.198 A 
ATOM     44  F   UNL A   1      42.741  32.076  34.065  1.00  0.00    -0.203 F 
ATOM     45  F   UNL A   1      43.980  36.498  31.120  1.00  0.00    -0.200 F 
ATOM     46  C   UNL A   1      43.282  35.539  33.162  1.00  0.00     0.200 A 
ATOM     47  F   UNL A   1      42.591  34.534  35.183  1.00  0.00    -0.200 F 
ATOM     48  F   UNL A   1      43.212  36.754  33.724  1.00  0.00    -0.200 F 
ENDBRANCH  24  38
BRANCH  25  49
ATOM     49  C   UNL A   1      42.938  24.104  27.372  1.00  0.00     0.064 A 
ATOM     50  C   UNL A   1      43.247  24.011  26.009  1.00  0.00     0.173 A 
ATOM     51  C   UNL A   1      42.574  22.924  28.040  1.00  0.00     0.173 A 
ATOM     52  F   UNL A   1      43.585  25.112  25.322  1.00  0.00    -0.203 F 
ATOM     53  C   UNL A   1      43.172  22.792  25.336  1.00  0.00     0.198 A 
ATOM     54  C   UNL A   1      42.536  21.701  27.376  1.00  0.00     0.198 A 
ATOM     55  F   UNL A   1      42.278  22.957  29.348  1.00  0.00    -0.203 F 
ATOM     56  F   UNL A   1      43.425  22.739  24.022  1.00  0.00    -0.200 F 
ATOM     57  C   UNL A   1      42.824  21.637  26.022  1.00  0.00     0.200 A 
ATOM     58  F   UNL A   1      42.220  20.586  28.049  1.00  0.00    -0.200 F 
ATOM     59  F   UNL A   1      42.759  20.465  25.376  1.00  0.00    -0.200 F 
ENDBRANCH  25  49
BRANCH  37  60
ATOM     60  C   UNL A   1      48.008  27.629  30.578  1.00  0.00     0.064 A 
ATOM     61  C   UNL A   1      48.991  28.037  29.663  1.00  0.00     0.173 A 
ATOM     62  C   UNL A   1      48.418  26.932  31.723  1.00  0.00     0.173 A 
ATOM     63  F   UNL A   1      48.641  28.688  28.544  1.00  0.00    -0.203 F 
ATOM     64  C   UNL A   1      50.331  27.731  29.875  1.00  0.00     0.198 A 
ATOM     65  C   UNL A   1      49.764  26.656  31.946  1.00  0.00     0.198 A 
ATOM     66  F   UNL A   1      47.516  26.525  32.628  1.00  0.00    -0.203 F 
ATOM     67  F   UNL A   1      51.247  28.082  28.962  1.00  0.00    -0.200 F 
ATOM     68  C   UNL A   1      50.717  27.048  31.017  1.00  0.00     0.200 A 
ATOM     69  F   UNL A   1      50.137  26.004  33.056  1.00  0.00    -0.200 F 
ATOM     70  F   UNL A   1      52.009  26.756  31.220  1.00  0.00    -0.200 F 
ENDBRANCH  37  60
ENDBRANCH  11  12
ENDBRANCH   4   6
ENDBRANCH   1   2
BRANCH   1  71
ATOM     71  C   UNL A   1      33.699  33.815  28.123  1.00  0.00     0.042 C 
BRANCH  71  72
ATOM     72  C   UNL A   1      33.797  34.987  29.075  1.00  0.00     0.118 C 
BRANCH  72  73
ATOM     73  N   UNL A   1      32.962  34.910  30.243  1.00  0.00    -0.351 N 
ATOM     74  C   UNL A   1      33.241  35.238  31.536  1.00  0.00     0.279 C 
ATOM     75  H   UNL A   1      32.051  34.572  30.084  1.00  0.00     0.163 HD
ATOM     76  O   UNL A   1      32.259  35.330  32.285  1.00  0.00    -0.268 OA
BRANCH  74  77
ATOM     77  C   UNL A   1      34.671  35.445  32.111  1.00  0.00     0.283 C 
ATOM     78  C   UNL A   1      34.723  35.473  33.626  1.00  0.00     0.151 C 
ATOM     79  N   UNL A   1      35.736  34.594  31.521  1.00  0.00    -0.322 N 
ATOM     80  S   UNL A   1      35.468  33.906  34.104  1.00  0.00    -0.089 SA
ATOM     81  C   UNL A   1      36.296  33.630  32.479  1.00  0.00     0.143 C 
ATOM     82  H   UNL A   1      36.488  35.197  31.189  1.00  0.00     0.348 HD
ATOM     83  H   UNL A   1      35.314  34.061  30.761  1.00  0.00     0.348 HD
ATOM     84  C   UNL A   1      36.200  32.194  31.890  1.00  0.00     0.081 C 
ATOM     85  C   UNL A   1      37.809  33.863  32.716  1.00  0.00     0.081 C 
ATOM     86  C   UNL A   1      36.653  31.128  32.875  1.00  0.00     0.007 C 
ATOM     87  C   UNL A   1      38.433  32.798  33.646  1.00  0.00     0.007 C 
ATOM     88  C   UNL A   1      38.111  31.352  33.254  1.00  0.00     0.001 C 
ENDBRANCH  74  77
ENDBRANCH  72  73
ENDBRANCH  71  72
ENDBRANCH   1  71
TORSDOF 10
ENDMDL
MODEL 3
REMARK VINA RESULT:     -11.0      0.556      7.653
REMARK SMILES O=C(NCCCNC(=O)[C@H]1CSC2(CCCCC2)[NH2+]1)c1ccc(-c2c3nc(c(-c4c(F)c(F)c(F)c(F)c4F)c4ccc([nH]4)c(-c4c(F)c(F)c(F)c(F)c4F)c4nc(c(-c5c(F)c(F)c(F)c(F)c5F)c5ccc2[nH]5)C=C4)C=C3)cc1
REMARK SMILES IDX 4 1 3 2 1 3 2 4 20 6 21 7 82 8 22 9 81 10 23 11 24 12 25 13
REMARK SMILES IDX 75 14 26 15 80 16 74 17 76 18 27 19 79 20 73 21 72 22 28 24
REMARK SMILES IDX 60 25 40 26 59 27 41 28 44 29 58 30 77 31 42 32 43 33 57 35
REMARK SMILES IDX 78 36 45 37 29 38 30 39 38 40 31 41 32 42 36 43 39 44 33 45
REMARK SMILES IDX 34 46 37 47 35 48 61 49 62 50 70 51 63 52 64 53 68 54 71 55
REMARK SMILES IDX 65 56 66 57 69 58 67 59 46 60 47 61 55 62 48 63 49 64 53 65
REMARK SMILES IDX 56 66 50 67 51 68 54 69 52 70 5 71 6 72 7 73 8 74 9 76 10 77
REMARK SMILES IDX 11 78 19 79 12 80 13 81 14 84 18 85 15 86 17 87 16 88
REMARK H PARENT 3 5 76 23 44 34 7 75 19 82 19 83
REMARK Flexibility Score: inf
ROOT
ATOM      1  C   UNL A   1      34.384  32.757  28.678  1.00  0.00     0.118 C 
ENDROOT
BRANCH   1   2
ATOM      2  N   UNL A   1      33.750  31.516  28.236  1.00  0.00    -0.352 N 
ATOM      3  O   UNL A   1      33.596  29.438  27.385  1.00  0.00    -0.269 OA
ATOM      4  C   UNL A   1      34.291  30.292  27.914  1.00  0.00     0.251 C 
ATOM      5  H   UNL A   1      32.770  31.563  28.154  1.00  0.00     0.163 HD
BRANCH   4   6
ATOM      6  C   UNL A   1      35.714  30.013  28.205  1.00  0.00     0.039 A 
ATOM      7  C   UNL A   1      36.691  30.282  27.249  1.00  0.00     0.014 A 
ATOM      8  C   UNL A   1      36.083  29.509  29.456  1.00  0.00     0.014 A 
ATOM      9  C   UNL A   1      37.996  29.873  27.459  1.00  0.00     0.010 A 
ATOM     10  C   UNL A   1      37.428  29.230  29.723  1.00  0.00     0.010 A 
ATOM     11  C   UNL A   1      38.390  29.390  28.715  1.00  0.00    -0.014 A 
BRANCH  11  12
ATOM     12  C   UNL A   1      39.838  29.195  28.961  1.00  0.00     0.031 A 
ATOM     13  C   UNL A   1      40.566  27.991  28.446  1.00  0.00     0.074 A 
ATOM     14  C   UNL A   1      40.494  30.171  29.621  1.00  0.00     0.049 A 
ATOM     15  N   UNL A   1      41.836  27.694  28.556  1.00  0.00    -0.248 NA
ATOM     16  C   UNL A   1      39.776  26.983  27.721  1.00  0.00     0.031 C 
ATOM     17  C   UNL A   1      39.869  31.378  30.174  1.00  0.00     0.029 A 
ATOM     18  N   UNL A   1      41.823  30.328  29.913  1.00  0.00    -0.354 N 
ATOM     19  C   UNL A   1      41.993  26.459  27.943  1.00  0.00     0.074 A 
ATOM     20  C   UNL A   1      40.688  26.052  27.469  1.00  0.00     0.031 C 
ATOM     21  C   UNL A   1      40.818  32.179  30.676  1.00  0.00     0.029 A 
ATOM     22  C   UNL A   1      42.103  31.505  30.564  1.00  0.00     0.049 A 
ATOM     23  H   UNL A   1      42.510  29.663  29.679  1.00  0.00     0.167 HD
ATOM     24  C   UNL A   1      43.131  25.739  27.795  1.00  0.00     0.037 A 
ATOM     25  C   UNL A   1      43.264  31.980  31.046  1.00  0.00     0.037 A 
ATOM     26  C   UNL A   1      44.427  26.175  28.249  1.00  0.00     0.049 A 
ATOM     27  C   UNL A   1      44.500  31.148  30.872  1.00  0.00     0.074 A 
ATOM     28  C   UNL A   1      45.649  25.541  28.106  1.00  0.00     0.029 A 
ATOM     29  N   UNL A   1      44.669  27.355  28.938  1.00  0.00    -0.354 N 
ATOM     30  N   UNL A   1      44.640  29.996  30.264  1.00  0.00    -0.248 NA
ATOM     31  C   UNL A   1      45.736  31.675  31.461  1.00  0.00     0.031 C 
ATOM     32  C   UNL A   1      46.621  26.313  28.749  1.00  0.00     0.029 A 
ATOM     33  C   UNL A   1      46.015  27.454  29.251  1.00  0.00     0.049 A 
ATOM     34  H   UNL A   1      43.984  28.025  29.170  1.00  0.00     0.167 HD
ATOM     35  C   UNL A   1      45.978  29.661  30.391  1.00  0.00     0.074 A 
ATOM     36  C   UNL A   1      46.614  30.749  31.105  1.00  0.00     0.031 C 
ATOM     37  C   UNL A   1      46.622  28.547  29.965  1.00  0.00     0.037 A 
BRANCH  24  38
ATOM     38  C   UNL A   1      43.037  24.394  27.135  1.00  0.00     0.064 A 
ATOM     39  C   UNL A   1      43.362  24.209  25.784  1.00  0.00     0.173 A 
ATOM     40  C   UNL A   1      42.701  23.260  27.890  1.00  0.00     0.173 A 
ATOM     41  F   UNL A   1      43.680  25.262  25.015  1.00  0.00    -0.203 F 
ATOM     42  C   UNL A   1      43.347  22.938  25.211  1.00  0.00     0.198 A 
ATOM     43  C   UNL A   1      42.711  21.989  27.322  1.00  0.00     0.198 A 
ATOM     44  F   UNL A   1      42.387  23.382  29.189  1.00  0.00    -0.203 F 
ATOM     45  F   UNL A   1      43.640  22.787  23.913  1.00  0.00    -0.200 F 
ATOM     46  C   UNL A   1      43.032  21.829  25.983  1.00  0.00     0.200 A 
ATOM     47  F   UNL A   1      42.418  20.918  28.073  1.00  0.00    -0.200 F 
ATOM     48  F   UNL A   1      43.038  20.606  25.436  1.00  0.00    -0.200 F 
ENDBRANCH  24  38
BRANCH  25  49
ATOM     49  C   UNL A   1      43.296  33.277  31.768  1.00  0.00     0.064 A 
ATOM     50  C   UNL A   1      43.478  34.485  31.083  1.00  0.00     0.173 A 
ATOM     51  C   UNL A   1      43.138  33.335  33.162  1.00  0.00     0.173 A 
ATOM     52  F   UNL A   1      43.648  34.481  29.753  1.00  0.00    -0.203 F 
ATOM     53  C   UNL A   1      43.524  35.699  31.765  1.00  0.00     0.198 A 
ATOM     54  C   UNL A   1      43.148  34.551  33.839  1.00  0.00     0.198 A 
ATOM     55  F   UNL A   1      42.952  32.208  33.865  1.00  0.00    -0.203 F 
ATOM     56  F   UNL A   1      43.749  36.835  31.092  1.00  0.00    -0.200 F 
ATOM     57  C   UNL A   1      43.352  35.732  33.142  1.00  0.00     0.200 A 
ATOM     58  F   UNL A   1      42.959  34.579  35.165  1.00  0.00    -0.200 F 
ATOM     59  F   UNL A   1      43.390  36.901  33.797  1.00  0.00    -0.200 F 
ENDBRANCH  25  49
BRANCH  37  60
ATOM     60  C   UNL A   1      48.090  28.468  30.253  1.00  0.00     0.064 A 
ATOM     61  C   UNL A   1      48.575  27.871  31.427  1.00  0.00     0.173 A 
ATOM     62  C   UNL A   1      49.022  28.984  29.340  1.00  0.00     0.173 A 
ATOM     63  F   UNL A   1      47.720  27.384  32.338  1.00  0.00    -0.203 F 
ATOM     64  C   UNL A   1      49.940  27.820  31.689  1.00  0.00     0.198 A 
ATOM     65  C   UNL A   1      50.388  28.902  29.592  1.00  0.00     0.198 A 
ATOM     66  F   UNL A   1      48.607  29.561  28.203  1.00  0.00    -0.203 F 
ATOM     67  F   UNL A   1      50.379  27.294  32.841  1.00  0.00    -0.200 F 
ATOM     68  C   UNL A   1      50.845  28.329  30.770  1.00  0.00     0.200 A 
ATOM     69  F   UNL A   1      51.262  29.385  28.698  1.00  0.00    -0.200 F 
ATOM     70  F   UNL A   1      52.160  28.276  31.023  1.00  0.00    -0.200 F 
ENDBRANCH  37  60
ENDBRANCH  11  12
ENDBRANCH   4   6
ENDBRANCH   1   2
BRANCH   1  71
ATOM     71  C   UNL A   1      33.680  33.988  28.149  1.00  0.00     0.042 C 
BRANCH  71  72
ATOM     72  C   UNL A   1      33.720  35.139  29.129  1.00  0.00     0.118 C 
BRANCH  72  73
ATOM     73  N   UNL A   1      32.890  34.993  30.294  1.00  0.00    -0.351 N 
ATOM     74  C   UNL A   1      33.163  35.276  31.599  1.00  0.00     0.279 C 
ATOM     75  H   UNL A   1      31.988  34.635  30.123  1.00  0.00     0.163 HD
ATOM     76  O   UNL A   1      32.181  35.310  32.352  1.00  0.00    -0.268 OA
BRANCH  74  77
ATOM     77  C   UNL A   1      34.588  35.499  32.180  1.00  0.00     0.283 C 
ATOM     78  C   UNL A   1      34.637  35.507  33.695  1.00  0.00     0.151 C 
ATOM     79  N   UNL A   1      35.669  34.676  31.580  1.00  0.00    -0.322 N 
ATOM     80  S   UNL A   1      35.408  33.947  34.153  1.00  0.00    -0.089 SA
ATOM     81  C   UNL A   1      36.244  33.708  32.525  1.00  0.00     0.143 C 
ATOM     82  H   UNL A   1      36.411  35.297  31.259  1.00  0.00     0.348 HD
ATOM     83  H   UNL A   1      35.258  34.146  30.811  1.00  0.00     0.348 HD
ATOM     84  C   UNL A   1      36.174  32.279  31.917  1.00  0.00     0.081 C 
ATOM     85  C   UNL A   1      37.752  33.964  32.769  1.00  0.00     0.081 C 
ATOM     86  C   UNL A   1      36.643  31.207  32.888  1.00  0.00     0.007 C 
ATOM     87  C   UNL A   1      38.393  32.896  33.686  1.00  0.00     0.007 C 
ATOM     88  C   UNL A   1      38.096  31.451  33.272  1.00  0.00     0.001 C 
ENDBRANCH  74  77
ENDBRANCH  72  73
ENDBRANCH  71  72
ENDBRANCH   1  71
TORSDOF 10
ENDMDL
