MODEL 1
REMARK VINA RESULT:     -12.6      0.000      0.000
REMARK SMILES CCc1c(C)nn(CC(=O)N2CCC[C@@H](Cn3cc(C(=O)NCCCNC(=O)c4ccc(-c5c6nc(c(-c7c(F)c(F)c(F)c(F)c7F)c7ccc([nH]7)c(-c7c(F)c(F)c(F)c(F)c7F)c7nc(c(-c8c(F)c(F)c(F)c(F)c8F)c8ccc5[nH]8)C=C7)C=C6)cc4)nn3)C2)c1C
REMARK SMILES IDX 20 1 21 2 22 3 19 5 17 6 18 7 93 8 92 9 16 10 15 11 11 12
REMARK SMILES IDX 12 13 94 14 13 15 14 16 9 17 10 18 8 19 7 20 3 21 4 22 95 23
REMARK SMILES IDX 5 24 6 25 96 26 2 27 1 28 23 29 24 30 25 31 26 32 27 33
REMARK SMILES IDX 28 35 29 36 30 37 91 38 31 39 90 40 32 41 33 42 34 43 84 44
REMARK SMILES IDX 35 45 89 46 83 47 85 48 36 49 88 50 82 51 81 52 37 54 69 55
REMARK SMILES IDX 49 56 68 57 50 58 53 59 67 60 86 61 51 62 52 63 66 65 87 66
REMARK SMILES IDX 54 67 38 68 39 69 47 70 40 71 41 72 45 73 48 74 42 75 43 76
REMARK SMILES IDX 46 77 44 78 70 79 71 80 79 81 72 82 73 83 77 84 80 85 74 86
REMARK SMILES IDX 75 87 78 88 76 89 55 90 56 91 64 92 57 93 58 94 62 95 65 96
REMARK SMILES IDX 59 97 60 98 63 99 61 100
REMARK H PARENT 22 4 26 34 85 53 53 64
REMARK Flexibility Score: inf
ROOT
ATOM      1  C   UNL A   1      38.790  22.292  26.137  1.00  0.00     0.273 C 
ATOM      2  O   UNL A   1      38.957  23.320  26.792  1.00  0.00    -0.267 OA
ATOM      3  N   UNL A   1      39.770  21.325  26.224  1.00  0.00    -0.351 N 
ATOM      4  H   UNL A   1      40.562  21.581  26.750  1.00  0.00     0.163 HD
ENDROOT
BRANCH   1   5
ATOM      5  C   UNL A   1      37.588  22.055  25.343  1.00  0.00     0.170 A 
ATOM      6  N   UNL A   1      35.585  21.641  24.633  1.00  0.00    -0.251 N 
ATOM      7  C   UNL A   1      36.473  21.280  25.604  1.00  0.00     0.145 A 
ATOM      8  N   UNL A   1      36.173  22.398  23.697  1.00  0.00    -0.067 NA
ATOM      9  N   UNL A   1      37.401  22.664  24.121  1.00  0.00    -0.125 NA
BRANCH   6  10
ATOM     10  C   UNL A   1      34.154  21.426  24.619  1.00  0.00     0.151 C 
BRANCH  10  11
ATOM     11  C   UNL A   1      33.320  22.682  24.280  1.00  0.00     0.030 C 
ATOM     12  N   UNL A   1      32.360  24.073  22.470  1.00  0.00    -0.341 N 
ATOM     13  C   UNL A   1      31.052  24.132  23.127  1.00  0.00     0.119 C 
ATOM     14  C   UNL A   1      33.111  22.858  22.764  1.00  0.00     0.125 C 
ATOM     15  C   UNL A   1      31.177  23.976  24.639  1.00  0.00     0.022 C 
ATOM     16  C   UNL A   1      31.961  22.713  25.004  1.00  0.00     0.009 C 
BRANCH  12  17
ATOM     17  C   UNL A   1      32.833  25.208  21.819  1.00  0.00     0.244 C 
ATOM     18  O   UNL A   1      32.930  25.202  20.581  1.00  0.00    -0.273 OA
BRANCH  17  19
ATOM     19  C   UNL A   1      33.525  26.337  22.564  1.00  0.00     0.244 C 
BRANCH  19  20
ATOM     20  N   UNL A   1      32.749  27.179  23.452  1.00  0.00    -0.260 N 
ATOM     21  C   UNL A   1      31.850  28.114  25.245  1.00  0.00    -0.004 A 
ATOM     22  C   UNL A   1      31.293  28.609  24.029  1.00  0.00     0.063 A 
ATOM     23  C   UNL A   1      32.903  27.319  24.811  1.00  0.00     0.039 A 
ATOM     24  C   UNL A   1      30.279  29.669  23.807  1.00  0.00     0.069 C 
ATOM     25  N   UNL A   1      31.814  28.002  22.955  1.00  0.00    -0.177 NA
ATOM     26  C   UNL A   1      34.022  26.678  25.541  1.00  0.00     0.066 C 
BRANCH  21  27
ATOM     27  C   UNL A   1      31.488  28.438  26.665  1.00  0.00     0.036 C 
ATOM     28  C   UNL A   1      32.215  29.644  27.251  1.00  0.00     0.009 C 
ENDBRANCH  21  27
ENDBRANCH  19  20
ENDBRANCH  17  19
ENDBRANCH  12  17
ENDBRANCH  10  11
ENDBRANCH   6  10
ENDBRANCH   1   5
BRANCH   3  29
ATOM     29  C   UNL A   1      39.813  19.993  25.661  1.00  0.00     0.118 C 
BRANCH  29  30
ATOM     30  C   UNL A   1      41.010  19.203  26.184  1.00  0.00     0.042 C 
BRANCH  30  31
ATOM     31  C   UNL A   1      42.180  20.105  26.535  1.00  0.00     0.118 C 
BRANCH  31  32
ATOM     32  N   UNL A   1      43.419  19.817  25.788  1.00  0.00    -0.352 N 
ATOM     33  C   UNL A   1      44.213  20.688  25.048  1.00  0.00     0.251 C 
ATOM     34  H   UNL A   1      43.724  18.881  25.816  1.00  0.00     0.163 HD
ATOM     35  O   UNL A   1      44.969  20.283  24.190  1.00  0.00    -0.269 OA
BRANCH  33  36
ATOM     36  C   UNL A   1      44.126  22.119  25.381  1.00  0.00     0.039 A 
ATOM     37  C   UNL A   1      43.183  22.991  24.837  1.00  0.00     0.014 A 
ATOM     38  C   UNL A   1      44.999  22.540  26.369  1.00  0.00     0.014 A 
ATOM     39  C   UNL A   1      43.069  24.265  25.393  1.00  0.00     0.010 A 
ATOM     40  C   UNL A   1      44.668  23.633  27.102  1.00  0.00     0.010 A 
ATOM     41  C   UNL A   1      43.803  24.562  26.552  1.00  0.00    -0.014 A 
BRANCH  41  42
ATOM     42  C   UNL A   1      43.648  25.795  27.308  1.00  0.00     0.031 A 
ATOM     43  C   UNL A   1      44.594  26.869  26.914  1.00  0.00     0.074 A 
ATOM     44  C   UNL A   1      42.544  26.020  28.060  1.00  0.00     0.049 A 
ATOM     45  N   UNL A   1      45.532  27.394  27.629  1.00  0.00    -0.248 NA
ATOM     46  C   UNL A   1      44.608  27.305  25.507  1.00  0.00     0.031 C 
ATOM     47  C   UNL A   1      41.368  25.152  28.242  1.00  0.00     0.029 A 
ATOM     48  N   UNL A   1      42.174  27.143  28.731  1.00  0.00    -0.354 N 
ATOM     49  C   UNL A   1      46.103  28.387  26.837  1.00  0.00     0.074 A 
ATOM     50  C   UNL A   1      45.658  28.127  25.495  1.00  0.00     0.031 C 
ATOM     51  C   UNL A   1      40.340  25.867  28.748  1.00  0.00     0.029 A 
ATOM     52  C   UNL A   1      40.832  27.180  29.105  1.00  0.00     0.049 A 
ATOM     53  H   UNL A   1      42.802  27.872  28.935  1.00  0.00     0.167 HD
ATOM     54  C   UNL A   1      46.646  29.498  27.412  1.00  0.00     0.037 A 
ATOM     55  C   UNL A   1      40.175  28.234  29.649  1.00  0.00     0.037 A 
ATOM     56  C   UNL A   1      46.879  29.268  28.820  1.00  0.00     0.049 A 
ATOM     57  C   UNL A   1      41.209  29.155  30.185  1.00  0.00     0.074 A 
ATOM     58  C   UNL A   1      47.621  28.362  29.553  1.00  0.00     0.029 A 
ATOM     59  N   UNL A   1      45.978  29.805  29.708  1.00  0.00    -0.354 N 
ATOM     60  N   UNL A   1      41.987  28.860  31.189  1.00  0.00    -0.248 NA
ATOM     61  C   UNL A   1      41.699  30.196  29.296  1.00  0.00     0.031 C 
ATOM     62  C   UNL A   1      46.814  28.053  30.690  1.00  0.00     0.029 A 
ATOM     63  C   UNL A   1      45.667  28.845  30.632  1.00  0.00     0.049 A 
ATOM     64  H   UNL A   1      45.618  30.722  29.683  1.00  0.00     0.167 HD
ATOM     65  C   UNL A   1      43.234  29.344  30.821  1.00  0.00     0.074 A 
ATOM     66  C   UNL A   1      42.977  30.228  29.683  1.00  0.00     0.031 C 
ATOM     67  C   UNL A   1      44.376  28.747  31.273  1.00  0.00     0.037 A 
BRANCH  54  68
ATOM     68  C   UNL A   1      46.546  30.904  26.843  1.00  0.00     0.064 A 
ATOM     69  C   UNL A   1      47.700  31.717  26.877  1.00  0.00     0.173 A 
ATOM     70  C   UNL A   1      45.341  31.592  26.581  1.00  0.00     0.173 A 
ATOM     71  F   UNL A   1      48.912  31.179  27.087  1.00  0.00    -0.203 F 
ATOM     72  C   UNL A   1      47.631  33.111  26.812  1.00  0.00     0.198 A 
ATOM     73  C   UNL A   1      45.282  32.981  26.468  1.00  0.00     0.198 A 
ATOM     74  F   UNL A   1      44.154  30.982  26.519  1.00  0.00    -0.203 F 
ATOM     75  F   UNL A   1      48.736  33.841  27.011  1.00  0.00    -0.200 F 
ATOM     76  C   UNL A   1      46.417  33.742  26.628  1.00  0.00     0.200 A 
ATOM     77  F   UNL A   1      44.093  33.574  26.290  1.00  0.00    -0.200 F 
ATOM     78  F   UNL A   1      46.333  35.079  26.647  1.00  0.00    -0.200 F 
ENDBRANCH  54  68
BRANCH  55  79
ATOM     79  C   UNL A   1      38.762  28.648  29.463  1.00  0.00     0.064 A 
ATOM     80  C   UNL A   1      37.928  28.895  30.565  1.00  0.00     0.173 A 
ATOM     81  C   UNL A   1      38.289  29.087  28.211  1.00  0.00     0.173 A 
ATOM     82  F   UNL A   1      38.324  28.548  31.799  1.00  0.00    -0.203 F 
ATOM     83  C   UNL A   1      36.710  29.570  30.430  1.00  0.00     0.198 A 
ATOM     84  C   UNL A   1      37.071  29.757  28.076  1.00  0.00     0.198 A 
ATOM     85  F   UNL A   1      39.046  28.966  27.111  1.00  0.00    -0.203 F 
ATOM     86  F   UNL A   1      35.974  29.845  31.515  1.00  0.00    -0.200 F 
ATOM     87  C   UNL A   1      36.288  30.011  29.186  1.00  0.00     0.200 A 
ATOM     88  F   UNL A   1      36.694  30.215  26.874  1.00  0.00    -0.200 F 
ATOM     89  F   UNL A   1      35.154  30.716  29.065  1.00  0.00    -0.200 F 
ENDBRANCH  55  79
BRANCH  67  90
ATOM     90  C   UNL A   1      44.250  27.744  32.387  1.00  0.00     0.064 A 
ATOM     91  C   UNL A   1      44.155  26.354  32.197  1.00  0.00     0.173 A 
ATOM     92  C   UNL A   1      44.380  28.203  33.703  1.00  0.00     0.173 A 
ATOM     93  F   UNL A   1      44.124  25.825  30.969  1.00  0.00    -0.203 F 
ATOM     94  C   UNL A   1      44.150  25.473  33.278  1.00  0.00     0.198 A 
ATOM     95  C   UNL A   1      44.413  27.321  34.779  1.00  0.00     0.198 A 
ATOM     96  F   UNL A   1      44.530  29.516  33.943  1.00  0.00    -0.203 F 
ATOM     97  F   UNL A   1      44.050  24.152  33.069  1.00  0.00    -0.200 F 
ATOM     98  C   UNL A   1      44.288  25.957  34.568  1.00  0.00     0.200 A 
ATOM     99  F   UNL A   1      44.597  27.792  36.020  1.00  0.00    -0.200 F 
ATOM    100  F   UNL A   1      44.328  25.110  35.605  1.00  0.00    -0.200 F 
ENDBRANCH  67  90
ENDBRANCH  41  42
ENDBRANCH  33  36
ENDBRANCH  31  32
ENDBRANCH  30  31
ENDBRANCH  29  30
ENDBRANCH   3  29
TORSDOF 16
ENDMDL
MODEL 2
REMARK VINA RESULT:     -12.5      2.531      3.416
REMARK SMILES CCc1c(C)nn(CC(=O)N2CCC[C@@H](Cn3cc(C(=O)NCCCNC(=O)c4ccc(-c5c6nc(c(-c7c(F)c(F)c(F)c(F)c7F)c7ccc([nH]7)c(-c7c(F)c(F)c(F)c(F)c7F)c7nc(c(-c8c(F)c(F)c(F)c(F)c8F)c8ccc5[nH]8)C=C7)C=C6)cc4)nn3)C2)c1C
REMARK SMILES IDX 20 1 21 2 22 3 19 5 17 6 18 7 93 8 92 9 16 10 15 11 11 12
REMARK SMILES IDX 12 13 94 14 13 15 14 16 9 17 10 18 8 19 7 20 3 21 4 22 95 23
REMARK SMILES IDX 5 24 6 25 96 26 2 27 1 28 23 29 24 30 25 31 26 32 27 33
REMARK SMILES IDX 28 35 29 36 30 37 91 38 31 39 90 40 32 41 33 42 34 43 84 44
REMARK SMILES IDX 35 45 89 46 83 47 85 48 36 49 88 50 82 51 81 52 37 54 69 55
REMARK SMILES IDX 49 56 68 57 50 58 53 59 67 60 86 61 51 62 52 63 66 65 87 66
REMARK SMILES IDX 54 67 38 68 39 69 47 70 40 71 41 72 45 73 48 74 42 75 43 76
REMARK SMILES IDX 46 77 44 78 70 79 71 80 79 81 72 82 73 83 77 84 80 85 74 86
REMARK SMILES IDX 75 87 78 88 76 89 55 90 56 91 64 92 57 93 58 94 62 95 65 96
REMARK SMILES IDX 59 97 60 98 63 99 61 100
REMARK H PARENT 22 4 26 34 85 53 53 64
REMARK Flexibility Score: inf
ROOT
ATOM      1  C   UNL A   1      36.521  22.684  23.822  1.00  0.00     0.273 C 
ATOM      2  O   UNL A   1      36.577  22.967  22.626  1.00  0.00    -0.267 OA
ATOM      3  N   UNL A   1      37.695  22.766  24.542  1.00  0.00    -0.351 N 
ATOM      4  H   UNL A   1      38.497  22.973  24.010  1.00  0.00     0.163 HD
ENDROOT
BRANCH   1   5
ATOM      5  C   UNL A   1      35.270  22.334  24.488  1.00  0.00     0.170 A 
ATOM      6  N   UNL A   1      33.253  22.264  25.270  1.00  0.00    -0.251 N 
ATOM      7  C   UNL A   1      34.270  23.135  25.008  1.00  0.00     0.145 A 
ATOM      8  N   UNL A   1      33.662  20.994  25.156  1.00  0.00    -0.067 NA
ATOM      9  N   UNL A   1      34.896  21.021  24.673  1.00  0.00    -0.125 NA
BRANCH   6  10
ATOM     10  C   UNL A   1      31.856  22.575  25.486  1.00  0.00     0.151 C 
BRANCH  10  11
ATOM     11  C   UNL A   1      31.458  24.025  25.130  1.00  0.00     0.030 C 
ATOM     12  N   UNL A   1      30.589  25.534  23.369  1.00  0.00    -0.341 N 
ATOM     13  C   UNL A   1      29.622  26.143  24.285  1.00  0.00     0.119 C 
ATOM     14  C   UNL A   1      30.914  24.150  23.694  1.00  0.00     0.125 C 
ATOM     15  C   UNL A   1      30.098  26.069  25.732  1.00  0.00     0.022 C 
ATOM     16  C   UNL A   1      30.454  24.634  26.126  1.00  0.00     0.009 C 
BRANCH  12  17
ATOM     17  C   UNL A   1      31.231  26.344  22.438  1.00  0.00     0.244 C 
ATOM     18  O   UNL A   1      31.930  25.821  21.556  1.00  0.00    -0.273 OA
BRANCH  17  19
ATOM     19  C   UNL A   1      31.370  27.845  22.634  1.00  0.00     0.244 C 
BRANCH  19  20
ATOM     20  N   UNL A   1      31.866  28.351  23.898  1.00  0.00    -0.260 N 
ATOM     21  C   UNL A   1      32.941  28.583  25.818  1.00  0.00    -0.004 A 
ATOM     22  C   UNL A   1      31.991  29.622  25.592  1.00  0.00     0.063 A 
ATOM     23  C   UNL A   1      32.941  27.884  24.617  1.00  0.00     0.039 A 
ATOM     24  C   UNL A   1      31.682  30.823  26.404  1.00  0.00     0.069 C 
ATOM     25  N   UNL A   1      31.316  29.444  24.449  1.00  0.00    -0.177 NA
ATOM     26  C   UNL A   1      33.835  26.829  24.088  1.00  0.00     0.066 C 
BRANCH  21  27
ATOM     27  C   UNL A   1      33.828  28.337  27.004  1.00  0.00     0.036 C 
ATOM     28  C   UNL A   1      34.984  29.320  27.154  1.00  0.00     0.009 C 
ENDBRANCH  21  27
ENDBRANCH  19  20
ENDBRANCH  17  19
ENDBRANCH  12  17
ENDBRANCH  10  11
ENDBRANCH   6  10
ENDBRANCH   1   5
BRANCH   3  29
ATOM     29  C   UNL A   1      37.929  22.596  25.960  1.00  0.00     0.118 C 
BRANCH  29  30
ATOM     30  C   UNL A   1      38.776  23.734  26.527  1.00  0.00     0.042 C 
BRANCH  30  31
ATOM     31  C   UNL A   1      39.900  23.224  27.411  1.00  0.00     0.118 C 
BRANCH  31  32
ATOM     32  N   UNL A   1      41.126  22.847  26.682  1.00  0.00    -0.352 N 
ATOM     33  C   UNL A   1      42.030  23.668  26.015  1.00  0.00     0.251 C 
ATOM     34  H   UNL A   1      41.332  21.884  26.665  1.00  0.00     0.163 HD
ATOM     35  O   UNL A   1      42.767  23.233  25.156  1.00  0.00    -0.269 OA
BRANCH  33  36
ATOM     36  C   UNL A   1      42.081  25.080  26.427  1.00  0.00     0.039 A 
ATOM     37  C   UNL A   1      41.404  26.110  25.771  1.00  0.00     0.014 A 
ATOM     38  C   UNL A   1      42.783  25.321  27.594  1.00  0.00     0.014 A 
ATOM     39  C   UNL A   1      41.360  27.361  26.384  1.00  0.00     0.010 A 
ATOM     40  C   UNL A   1      42.467  26.420  28.325  1.00  0.00     0.010 A 
ATOM     41  C   UNL A   1      41.875  27.493  27.683  1.00  0.00    -0.014 A 
BRANCH  41  42
ATOM     42  C   UNL A   1      41.744  28.703  28.481  1.00  0.00     0.031 A 
ATOM     43  C   UNL A   1      42.779  29.729  28.196  1.00  0.00     0.074 A 
ATOM     44  C   UNL A   1      40.608  28.968  29.168  1.00  0.00     0.049 A 
ATOM     45  N   UNL A   1      43.697  30.164  28.993  1.00  0.00    -0.248 NA
ATOM     46  C   UNL A   1      42.915  30.218  26.813  1.00  0.00     0.031 C 
ATOM     47  C   UNL A   1      39.372  28.171  29.235  1.00  0.00     0.029 A 
ATOM     48  N   UNL A   1      40.262  30.085  29.861  1.00  0.00    -0.354 N 
ATOM     49  C   UNL A   1      44.380  31.149  28.284  1.00  0.00     0.074 A 
ATOM     50  C   UNL A   1      44.012  30.971  26.906  1.00  0.00     0.031 C 
ATOM     51  C   UNL A   1      38.357  28.929  29.704  1.00  0.00     0.029 A 
ATOM     52  C   UNL A   1      38.903  30.194  30.149  1.00  0.00     0.049 A 
ATOM     53  H   UNL A   1      40.919  30.764  30.138  1.00  0.00     0.167 HD
ATOM     54  C   UNL A   1      44.950  32.199  28.941  1.00  0.00     0.037 A 
ATOM     55  C   UNL A   1      38.277  31.265  30.694  1.00  0.00     0.037 A 
ATOM     56  C   UNL A   1      45.072  31.900  30.351  1.00  0.00     0.049 A 
ATOM     57  C   UNL A   1      39.326  32.096  31.336  1.00  0.00     0.074 A 
ATOM     58  C   UNL A   1      45.706  30.920  31.090  1.00  0.00     0.029 A 
ATOM     59  N   UNL A   1      44.147  32.458  31.200  1.00  0.00    -0.354 N 
ATOM     60  N   UNL A   1      40.015  31.713  32.375  1.00  0.00    -0.248 NA
ATOM     61  C   UNL A   1      39.938  33.138  30.527  1.00  0.00     0.031 C 
ATOM     62  C   UNL A   1      44.806  30.619  32.157  1.00  0.00     0.029 A 
ATOM     63  C   UNL A   1      43.716  31.484  32.059  1.00  0.00     0.049 A 
ATOM     64  H   UNL A   1      43.846  33.396  31.192  1.00  0.00     0.167 HD
ATOM     65  C   UNL A   1      41.311  32.130  32.110  1.00  0.00     0.074 A 
ATOM     66  C   UNL A   1      41.186  33.072  30.998  1.00  0.00     0.031 C 
ATOM     67  C   UNL A   1      42.381  31.444  32.610  1.00  0.00     0.037 A 
BRANCH  54  68
ATOM     68  C   UNL A   1      44.974  33.630  28.429  1.00  0.00     0.064 A 
ATOM     69  C   UNL A   1      46.222  34.289  28.360  1.00  0.00     0.173 A 
ATOM     70  C   UNL A   1      43.849  34.475  28.321  1.00  0.00     0.173 A 
ATOM     71  F   UNL A   1      47.368  33.593  28.420  1.00  0.00    -0.203 F 
ATOM     72  C   UNL A   1      46.329  35.682  28.344  1.00  0.00     0.198 A 
ATOM     73  C   UNL A   1      43.960  35.865  28.256  1.00  0.00     0.198 A 
ATOM     74  F   UNL A   1      42.593  34.024  28.372  1.00  0.00    -0.203 F 
ATOM     75  F   UNL A   1      47.534  36.256  28.443  1.00  0.00    -0.200 F 
ATOM     76  C   UNL A   1      45.195  36.469  28.314  1.00  0.00     0.200 A 
ATOM     77  F   UNL A   1      42.846  36.610  28.227  1.00  0.00    -0.200 F 
ATOM     78  F   UNL A   1      45.289  37.803  28.382  1.00  0.00    -0.200 F 
ENDBRANCH  54  68
BRANCH  55  79
ATOM     79  C   UNL A   1      36.908  31.775  30.434  1.00  0.00     0.064 A 
ATOM     80  C   UNL A   1      36.002  31.989  31.486  1.00  0.00     0.173 A 
ATOM     81  C   UNL A   1      36.561  32.335  29.188  1.00  0.00     0.173 A 
ATOM     82  F   UNL A   1      36.278  31.528  32.715  1.00  0.00    -0.203 F 
ATOM     83  C   UNL A   1      34.837  32.744  31.312  1.00  0.00     0.198 A 
ATOM     84  C   UNL A   1      35.395  33.084  29.015  1.00  0.00     0.198 A 
ATOM     85  F   UNL A   1      37.396  32.250  28.143  1.00  0.00    -0.203 F 
ATOM     86  F   UNL A   1      34.032  32.981  32.357  1.00  0.00    -0.200 F 
ATOM     87  C   UNL A   1      34.541  33.301  30.079  1.00  0.00     0.200 A 
ATOM     88  F   UNL A   1      35.141  33.652  27.827  1.00  0.00    -0.200 F 
ATOM     89  F   UNL A   1      33.460  34.080  29.928  1.00  0.00    -0.200 F 
ENDBRANCH  55  79
BRANCH  67  90
ATOM     90  C   UNL A   1      42.119  30.408  33.668  1.00  0.00     0.064 A 
ATOM     91  C   UNL A   1      41.811  29.061  33.403  1.00  0.00     0.173 A 
ATOM     92  C   UNL A   1      42.334  30.765  35.005  1.00  0.00     0.173 A 
ATOM     93  F   UNL A   1      41.685  28.615  32.149  1.00  0.00    -0.203 F 
ATOM     94  C   UNL A   1      41.687  28.129  34.433  1.00  0.00     0.198 A 
ATOM     95  C   UNL A   1      42.246  29.826  36.029  1.00  0.00     0.198 A 
ATOM     96  F   UNL A   1      42.684  32.024  35.314  1.00  0.00    -0.203 F 
ATOM     97  F   UNL A   1      41.385  26.853  34.153  1.00  0.00    -0.200 F 
ATOM     98  C   UNL A   1      41.913  28.511  35.744  1.00  0.00     0.200 A 
ATOM     99  F   UNL A   1      42.514  30.191  37.290  1.00  0.00    -0.200 F 
ATOM    100  F   UNL A   1      41.837  27.608  36.732  1.00  0.00    -0.200 F 
ENDBRANCH  67  90
ENDBRANCH  41  42
ENDBRANCH  33  36
ENDBRANCH  31  32
ENDBRANCH  30  31
ENDBRANCH  29  30
ENDBRANCH   3  29
TORSDOF 16
ENDMDL
MODEL 3
REMARK VINA RESULT:     -12.4      3.887      7.559
REMARK SMILES CCc1c(C)nn(CC(=O)N2CCC[C@@H](Cn3cc(C(=O)NCCCNC(=O)c4ccc(-c5c6nc(c(-c7c(F)c(F)c(F)c(F)c7F)c7ccc([nH]7)c(-c7c(F)c(F)c(F)c(F)c7F)c7nc(c(-c8c(F)c(F)c(F)c(F)c8F)c8ccc5[nH]8)C=C7)C=C6)cc4)nn3)C2)c1C
REMARK SMILES IDX 20 1 21 2 22 3 19 5 17 6 18 7 93 8 92 9 16 10 15 11 11 12
REMARK SMILES IDX 12 13 94 14 13 15 14 16 9 17 10 18 8 19 7 20 3 21 4 22 95 23
REMARK SMILES IDX 5 24 6 25 96 26 2 27 1 28 23 29 24 30 25 31 26 32 27 33
REMARK SMILES IDX 28 35 29 36 30 37 91 38 31 39 90 40 32 41 33 42 34 43 84 44
REMARK SMILES IDX 35 45 89 46 83 47 85 48 36 49 88 50 82 51 81 52 37 54 69 55
REMARK SMILES IDX 49 56 68 57 50 58 53 59 67 60 86 61 51 62 52 63 66 65 87 66
REMARK SMILES IDX 54 67 38 68 39 69 47 70 40 71 41 72 45 73 48 74 42 75 43 76
REMARK SMILES IDX 46 77 44 78 70 79 71 80 79 81 72 82 73 83 77 84 80 85 74 86
REMARK SMILES IDX 75 87 78 88 76 89 55 90 56 91 64 92 57 93 58 94 62 95 65 96
REMARK SMILES IDX 59 97 60 98 63 99 61 100
REMARK H PARENT 22 4 26 34 85 53 53 64
REMARK Flexibility Score: inf
ROOT
ATOM      1  C   UNL A   1      42.651  18.455  26.049  1.00  0.00     0.273 C 
ATOM      2  O   UNL A   1      42.310  17.310  25.754  1.00  0.00    -0.267 OA
ATOM      3  N   UNL A   1      41.909  19.100  27.018  1.00  0.00    -0.351 N 
ATOM      4  H   UNL A   1      41.117  18.607  27.334  1.00  0.00     0.163 HD
ENDROOT
BRANCH   1   5
ATOM      5  C   UNL A   1      43.819  19.102  25.462  1.00  0.00     0.170 A 
ATOM      6  N   UNL A   1      45.332  20.492  24.780  1.00  0.00    -0.251 N 
ATOM      7  C   UNL A   1      43.983  20.376  24.951  1.00  0.00     0.145 A 
ATOM      8  N   UNL A   1      45.943  19.312  24.938  1.00  0.00    -0.067 NA
ATOM      9  N   UNL A   1      45.029  18.449  25.360  1.00  0.00    -0.125 NA
BRANCH   6  10
ATOM     10  C   UNL A   1      46.101  21.707  24.615  1.00  0.00     0.151 C 
BRANCH  10  11
ATOM     11  C   UNL A   1      45.468  22.960  25.261  1.00  0.00     0.030 C 
ATOM     12  N   UNL A   1      45.841  25.299  25.983  1.00  0.00    -0.341 N 
ATOM     13  C   UNL A   1      44.607  25.758  25.342  1.00  0.00     0.119 C 
ATOM     14  C   UNL A   1      46.449  24.146  25.330  1.00  0.00     0.125 C 
ATOM     15  C   UNL A   1      43.576  24.638  25.246  1.00  0.00     0.022 C 
ATOM     16  C   UNL A   1      44.165  23.399  24.568  1.00  0.00     0.009 C 
BRANCH  12  17
ATOM     17  C   UNL A   1      46.201  25.848  27.210  1.00  0.00     0.244 C 
ATOM     18  O   UNL A   1      46.294  27.080  27.322  1.00  0.00    -0.273 OA
BRANCH  17  19
ATOM     19  C   UNL A   1      46.784  25.004  28.332  1.00  0.00     0.244 C 
BRANCH  19  20
ATOM     20  N   UNL A   1      46.397  25.280  29.701  1.00  0.00    -0.260 N 
ATOM     21  C   UNL A   1      45.232  25.588  31.557  1.00  0.00    -0.004 A 
ATOM     22  C   UNL A   1      46.612  25.910  31.714  1.00  0.00     0.063 A 
ATOM     23  C   UNL A   1      45.180  25.025  30.288  1.00  0.00     0.039 A 
ATOM     24  C   UNL A   1      47.357  26.345  32.920  1.00  0.00     0.069 C 
ATOM     25  N   UNL A   1      47.295  25.763  30.572  1.00  0.00    -0.177 NA
ATOM     26  C   UNL A   1      44.110  24.286  29.579  1.00  0.00     0.066 C 
BRANCH  21  27
ATOM     27  C   UNL A   1      44.103  25.706  32.539  1.00  0.00     0.036 C 
ATOM     28  C   UNL A   1      44.127  24.681  33.668  1.00  0.00     0.009 C 
ENDBRANCH  21  27
ENDBRANCH  19  20
ENDBRANCH  17  19
ENDBRANCH  12  17
ENDBRANCH  10  11
ENDBRANCH   6  10
ENDBRANCH   1   5
BRANCH   3  29
ATOM     29  C   UNL A   1      42.116  20.390  27.641  1.00  0.00     0.118 C 
BRANCH  29  30
ATOM     30  C   UNL A   1      40.872  21.268  27.535  1.00  0.00     0.042 C 
BRANCH  30  31
ATOM     31  C   UNL A   1      40.753  21.928  26.173  1.00  0.00     0.118 C 
BRANCH  31  32
ATOM     32  N   UNL A   1      39.388  22.367  25.824  1.00  0.00    -0.352 N 
ATOM     33  C   UNL A   1      38.683  23.472  26.290  1.00  0.00     0.251 C 
ATOM     34  H   UNL A   1      38.912  21.800  25.174  1.00  0.00     0.163 HD
ATOM     35  O   UNL A   1      37.472  23.522  26.232  1.00  0.00    -0.269 OA
BRANCH  33  36
ATOM     36  C   UNL A   1      39.472  24.595  26.819  1.00  0.00     0.039 A 
ATOM     37  C   UNL A   1      40.178  25.498  26.021  1.00  0.00     0.014 A 
ATOM     38  C   UNL A   1      39.394  24.768  28.189  1.00  0.00     0.014 A 
ATOM     39  C   UNL A   1      40.705  26.638  26.629  1.00  0.00     0.010 A 
ATOM     40  C   UNL A   1      39.617  26.005  28.701  1.00  0.00     0.010 A 
ATOM     41  C   UNL A   1      40.388  26.892  27.972  1.00  0.00    -0.014 A 
BRANCH  41  42
ATOM     42  C   UNL A   1      40.747  28.121  28.664  1.00  0.00     0.031 A 
ATOM     43  C   UNL A   1      41.968  28.778  28.134  1.00  0.00     0.074 A 
ATOM     44  C   UNL A   1      39.869  28.743  29.486  1.00  0.00     0.049 A 
ATOM     45  N   UNL A   1      43.093  28.956  28.741  1.00  0.00    -0.248 NA
ATOM     46  C   UNL A   1      42.001  29.142  26.707  1.00  0.00     0.031 C 
ATOM     47  C   UNL A   1      38.486  28.354  29.811  1.00  0.00     0.029 A 
ATOM     48  N   UNL A   1      39.980  29.942  30.116  1.00  0.00    -0.354 N 
ATOM     49  C   UNL A   1      43.899  29.660  27.849  1.00  0.00     0.074 A 
ATOM     50  C   UNL A   1      43.266  29.538  26.564  1.00  0.00     0.031 C 
ATOM     51  C   UNL A   1      37.826  29.400  30.353  1.00  0.00     0.029 A 
ATOM     52  C   UNL A   1      38.778  30.463  30.591  1.00  0.00     0.049 A 
ATOM     53  H   UNL A   1      40.841  30.406  30.226  1.00  0.00     0.167 HD
ATOM     54  C   UNL A   1      44.848  30.522  28.313  1.00  0.00     0.037 A 
ATOM     55  C   UNL A   1      38.587  31.696  31.122  1.00  0.00     0.037 A 
ATOM     56  C   UNL A   1      45.118  30.264  29.710  1.00  0.00     0.049 A 
ATOM     57  C   UNL A   1      39.923  32.205  31.520  1.00  0.00     0.074 A 
ATOM     58  C   UNL A   1      45.561  29.174  30.434  1.00  0.00     0.029 A 
ATOM     59  N   UNL A   1      44.550  31.110  30.632  1.00  0.00    -0.354 N 
ATOM     60  N   UNL A   1      40.640  31.681  32.476  1.00  0.00    -0.248 NA
ATOM     61  C   UNL A   1      40.661  32.980  30.535  1.00  0.00     0.031 C 
ATOM     62  C   UNL A   1      44.808  29.203  31.648  1.00  0.00     0.029 A 
ATOM     63  C   UNL A   1      44.011  30.348  31.633  1.00  0.00     0.049 A 
ATOM     64  H   UNL A   1      44.533  32.093  30.581  1.00  0.00     0.167 HD
ATOM     65  C   UNL A   1      41.937  31.682  31.982  1.00  0.00     0.074 A 
ATOM     66  C   UNL A   1      41.900  32.567  30.818  1.00  0.00     0.031 C 
ATOM     67  C   UNL A   1      42.834  30.732  32.378  1.00  0.00     0.037 A 
BRANCH  54  68
ATOM     68  C   UNL A   1      45.194  31.856  27.671  1.00  0.00     0.064 A 
ATOM     69  C   UNL A   1      46.523  32.060  27.241  1.00  0.00     0.173 A 
ATOM     70  C   UNL A   1      44.409  33.026  27.754  1.00  0.00     0.173 A 
ATOM     71  F   UNL A   1      47.363  31.023  27.092  1.00  0.00    -0.203 F 
ATOM     72  C   UNL A   1      47.060  33.338  27.064  1.00  0.00     0.198 A 
ATOM     73  C   UNL A   1      44.936  34.298  27.529  1.00  0.00     0.198 A 
ATOM     74  F   UNL A   1      43.133  33.020  28.149  1.00  0.00    -0.203 F 
ATOM     75  F   UNL A   1      48.368  33.480  26.813  1.00  0.00    -0.200 F 
ATOM     76  C   UNL A   1      46.270  34.458  27.228  1.00  0.00     0.200 A 
ATOM     77  F   UNL A   1      44.150  35.372  27.694  1.00  0.00    -0.200 F 
ATOM     78  F   UNL A   1      46.797  35.685  27.141  1.00  0.00    -0.200 F 
ENDBRANCH  54  68
BRANCH  55  79
ATOM     79  C   UNL A   1      37.398  32.578  31.023  1.00  0.00     0.064 A 
ATOM     80  C   UNL A   1      37.106  33.270  29.837  1.00  0.00     0.173 A 
ATOM     81  C   UNL A   1      36.372  32.531  31.988  1.00  0.00     0.173 A 
ATOM     82  F   UNL A   1      38.012  33.324  28.849  1.00  0.00    -0.203 F 
ATOM     83  C   UNL A   1      35.853  33.853  29.614  1.00  0.00     0.198 A 
ATOM     84  C   UNL A   1      35.123  33.117  31.766  1.00  0.00     0.198 A 
ATOM     85  F   UNL A   1      36.526  31.830  33.120  1.00  0.00    -0.203 F 
ATOM     86  F   UNL A   1      35.592  34.447  28.441  1.00  0.00    -0.200 F 
ATOM     87  C   UNL A   1      34.859  33.765  30.574  1.00  0.00     0.200 A 
ATOM     88  F   UNL A   1      34.157  32.990  32.686  1.00  0.00    -0.200 F 
ATOM     89  F   UNL A   1      33.638  34.264  30.334  1.00  0.00    -0.200 F 
ENDBRANCH  55  79
BRANCH  67  90
ATOM     90  C   UNL A   1      42.471  29.869  33.556  1.00  0.00     0.064 A 
ATOM     91  C   UNL A   1      41.886  28.594  33.456  1.00  0.00     0.173 A 
ATOM     92  C   UNL A   1      42.867  30.295  34.830  1.00  0.00     0.173 A 
ATOM     93  F   UNL A   1      41.567  28.071  32.268  1.00  0.00    -0.203 F 
ATOM     94  C   UNL A   1      41.675  27.803  34.585  1.00  0.00     0.198 A 
ATOM     95  C   UNL A   1      42.689  29.489  35.950  1.00  0.00     0.198 A 
ATOM     96  F   UNL A   1      43.479  31.481  34.979  1.00  0.00    -0.203 F 
ATOM     97  F   UNL A   1      41.109  26.593  34.463  1.00  0.00    -0.200 F 
ATOM     98  C   UNL A   1      42.085  28.249  35.830  1.00  0.00     0.200 A 
ATOM     99  F   UNL A   1      43.133  29.905  37.145  1.00  0.00    -0.200 F 
ATOM    100  F   UNL A   1      41.923  27.472  36.911  1.00  0.00    -0.200 F 
ENDBRANCH  67  90
ENDBRANCH  41  42
ENDBRANCH  33  36
ENDBRANCH  31  32
ENDBRANCH  30  31
ENDBRANCH  29  30
ENDBRANCH   3  29
TORSDOF 16
ENDMDL
