MODEL 1
REMARK VINA RESULT:     -12.9      0.000      0.000
REMARK SMILES O=C(NCCCNC(=O)c1cccn1CC(=O)N1CCc2ccccc2C1)c1ccc(-c2c3nc(c(-c4c(F)c(F)c(F)c(F)c4F)c4ccc([nH]4)c(-c4c(F)c(F)c(F)c(F)c4F)c4nc(c(-c5c(F)c(F)c(F)c(F)c5F)c5ccc2[nH]5)C=C4)C=C3)cc1
REMARK SMILES IDX 5 1 4 2 3 3 1 4 2 5 28 7 29 8 90 9 30 10 89 11 31 12 32 13
REMARK SMILES IDX 33 14 83 15 34 16 88 17 82 18 84 19 35 20 87 21 81 22 80 23
REMARK SMILES IDX 36 25 68 26 48 27 67 28 49 29 52 30 66 31 85 32 50 33 51 34
REMARK SMILES IDX 65 36 86 37 53 38 37 39 38 40 46 41 39 42 40 43 44 44 47 45
REMARK SMILES IDX 41 46 42 47 45 48 43 49 69 50 70 51 78 52 71 53 72 54 76 55
REMARK SMILES IDX 79 56 73 57 74 58 77 59 75 60 54 61 55 62 63 63 56 64 57 65
REMARK SMILES IDX 61 66 64 67 58 68 59 69 62 70 60 71 6 72 7 73 8 74 9 76
REMARK SMILES IDX 10 77 11 78 14 79 12 80 13 81 15 82 16 83 17 84 18 85 19 86
REMARK SMILES IDX 27 87 20 88 26 89 21 90 25 91 22 92 24 93 23 94
REMARK H PARENT 3 6 84 24 52 35 7 75
REMARK Flexibility Score: inf
ROOT
ATOM      1  C   UNL A   1      32.876  28.626  26.986  1.00  0.00     0.042 C 
ENDROOT
BRANCH   1   2
ATOM      2  C   UNL A   1      34.354  28.940  27.192  1.00  0.00     0.118 C 
BRANCH   2   3
ATOM      3  N   UNL A   1      34.640  30.130  27.969  1.00  0.00    -0.352 N 
ATOM      4  O   UNL A   1      35.723  31.758  29.036  1.00  0.00    -0.269 OA
ATOM      5  C   UNL A   1      35.780  30.632  28.538  1.00  0.00     0.251 C 
ATOM      6  H   UNL A   1      33.848  30.695  28.121  1.00  0.00     0.163 HD
BRANCH   5   7
ATOM      7  C   UNL A   1      37.054  29.877  28.645  1.00  0.00     0.039 A 
ATOM      8  C   UNL A   1      38.091  29.948  27.713  1.00  0.00     0.014 A 
ATOM      9  C   UNL A   1      37.228  29.098  29.804  1.00  0.00     0.014 A 
ATOM     10  C   UNL A   1      39.259  29.210  27.907  1.00  0.00     0.010 A 
ATOM     11  C   UNL A   1      38.401  28.373  30.013  1.00  0.00     0.010 A 
ATOM     12  C   UNL A   1      39.422  28.436  29.062  1.00  0.00    -0.014 A 
BRANCH  12  13
ATOM     13  C   UNL A   1      40.763  27.859  29.326  1.00  0.00     0.031 A 
ATOM     14  C   UNL A   1      40.927  26.454  28.716  1.00  0.00     0.074 A 
ATOM     15  C   UNL A   1      41.610  28.603  30.099  1.00  0.00     0.049 A 
ATOM     16  N   UNL A   1      41.726  25.482  29.043  1.00  0.00    -0.248 NA
ATOM     17  C   UNL A   1      40.024  26.052  27.602  1.00  0.00     0.031 C 
ATOM     18  C   UNL A   1      41.319  29.969  30.576  1.00  0.00     0.029 A 
ATOM     19  N   UNL A   1      42.858  28.378  30.650  1.00  0.00    -0.354 N 
ATOM     20  C   UNL A   1      41.552  24.450  28.093  1.00  0.00     0.074 A 
ATOM     21  C   UNL A   1      40.424  24.818  27.292  1.00  0.00     0.031 C 
ATOM     22  C   UNL A   1      42.296  30.410  31.394  1.00  0.00     0.029 A 
ATOM     23  C   UNL A   1      43.323  29.394  31.528  1.00  0.00     0.049 A 
ATOM     24  H   UNL A   1      43.387  27.572  30.448  1.00  0.00     0.167 HD
ATOM     25  C   UNL A   1      42.408  23.396  27.949  1.00  0.00     0.037 A 
ATOM     26  C   UNL A   1      44.428  29.401  32.340  1.00  0.00     0.037 A 
ATOM     27  C   UNL A   1      43.430  23.443  28.936  1.00  0.00     0.049 A 
ATOM     28  C   UNL A   1      45.159  28.170  32.004  1.00  0.00     0.074 A 
ATOM     29  C   UNL A   1      43.452  23.106  30.261  1.00  0.00     0.029 A 
ATOM     30  N   UNL A   1      44.561  24.159  28.639  1.00  0.00    -0.354 N 
ATOM     31  N   UNL A   1      45.847  27.995  30.916  1.00  0.00    -0.248 NA
ATOM     32  C   UNL A   1      45.065  27.020  32.914  1.00  0.00     0.031 C 
ATOM     33  C   UNL A   1      44.406  23.977  30.824  1.00  0.00     0.029 A 
ATOM     34  C   UNL A   1      45.007  24.726  29.807  1.00  0.00     0.049 A 
ATOM     35  H   UNL A   1      44.977  24.249  27.752  1.00  0.00     0.167 HD
ATOM     36  C   UNL A   1      45.990  26.628  30.874  1.00  0.00     0.074 A 
ATOM     37  C   UNL A   1      45.791  26.148  32.221  1.00  0.00     0.031 C 
ATOM     38  C   UNL A   1      45.743  25.966  29.716  1.00  0.00     0.037 A 
BRANCH  25  39
ATOM     39  C   UNL A   1      42.547  22.355  26.872  1.00  0.00     0.064 A 
ATOM     40  C   UNL A   1      41.892  21.109  27.041  1.00  0.00     0.173 A 
ATOM     41  C   UNL A   1      43.534  22.401  25.880  1.00  0.00     0.173 A 
ATOM     42  F   UNL A   1      40.900  20.970  27.935  1.00  0.00    -0.203 F 
ATOM     43  C   UNL A   1      42.283  19.963  26.350  1.00  0.00     0.198 A 
ATOM     44  C   UNL A   1      43.894  21.258  25.155  1.00  0.00     0.198 A 
ATOM     45  F   UNL A   1      44.235  23.521  25.657  1.00  0.00    -0.203 F 
ATOM     46  F   UNL A   1      41.716  18.783  26.637  1.00  0.00    -0.200 F 
ATOM     47  C   UNL A   1      43.297  20.035  25.417  1.00  0.00     0.200 A 
ATOM     48  F   UNL A   1      44.875  21.332  24.245  1.00  0.00    -0.200 F 
ATOM     49  F   UNL A   1      43.720  18.927  24.795  1.00  0.00    -0.200 F 
ENDBRANCH  25  39
BRANCH  26  50
ATOM     50  C   UNL A   1      45.007  30.238  33.466  1.00  0.00     0.064 A 
ATOM     51  C   UNL A   1      44.473  30.381  34.754  1.00  0.00     0.173 A 
ATOM     52  C   UNL A   1      46.252  30.912  33.289  1.00  0.00     0.173 A 
ATOM     53  F   UNL A   1      43.252  29.929  35.052  1.00  0.00    -0.203 F 
ATOM     54  C   UNL A   1      45.175  31.021  35.794  1.00  0.00     0.198 A 
ATOM     55  C   UNL A   1      46.970  31.509  34.326  1.00  0.00     0.198 A 
ATOM     56  F   UNL A   1      46.832  31.020  32.085  1.00  0.00    -0.203 F 
ATOM     57  F   UNL A   1      44.619  31.112  37.010  1.00  0.00    -0.200 F 
ATOM     58  C   UNL A   1      46.438  31.546  35.591  1.00  0.00     0.200 A 
ATOM     59  F   UNL A   1      48.186  32.022  34.086  1.00  0.00    -0.200 F 
ATOM     60  F   UNL A   1      47.129  32.095  36.599  1.00  0.00    -0.200 F 
ENDBRANCH  26  50
BRANCH  38  61
ATOM     61  C   UNL A   1      45.888  26.839  28.486  1.00  0.00     0.064 A 
ATOM     62  C   UNL A   1      47.163  27.231  28.053  1.00  0.00     0.173 A 
ATOM     63  C   UNL A   1      44.801  27.416  27.807  1.00  0.00     0.173 A 
ATOM     64  F   UNL A   1      48.254  26.724  28.647  1.00  0.00    -0.203 F 
ATOM     65  C   UNL A   1      47.334  28.152  27.016  1.00  0.00     0.198 A 
ATOM     66  C   UNL A   1      44.966  28.326  26.763  1.00  0.00     0.198 A 
ATOM     67  F   UNL A   1      43.550  27.108  28.144  1.00  0.00    -0.203 F 
ATOM     68  F   UNL A   1      48.569  28.509  26.638  1.00  0.00    -0.200 F 
ATOM     69  C   UNL A   1      46.236  28.700  26.371  1.00  0.00     0.200 A 
ATOM     70  F   UNL A   1      43.893  28.835  26.139  1.00  0.00    -0.200 F 
ATOM     71  F   UNL A   1      46.402  29.574  25.370  1.00  0.00    -0.200 F 
ENDBRANCH  38  61
ENDBRANCH  12  13
ENDBRANCH   5   7
ENDBRANCH   2   3
ENDBRANCH   1   2
BRANCH   1  72
ATOM     72  C   UNL A   1      32.083  29.655  26.184  1.00  0.00     0.118 C 
BRANCH  72  73
ATOM     73  N   UNL A   1      32.497  29.690  24.790  1.00  0.00    -0.351 N 
ATOM     74  C   UNL A   1      32.174  28.894  23.717  1.00  0.00     0.267 C 
ATOM     75  H   UNL A   1      33.124  30.419  24.575  1.00  0.00     0.163 HD
ATOM     76  O   UNL A   1      32.856  29.034  22.705  1.00  0.00    -0.268 OA
BRANCH  74  77
ATOM     77  C   UNL A   1      31.096  27.927  23.808  1.00  0.00     0.107 A 
ATOM     78  C   UNL A   1      29.770  28.064  23.418  1.00  0.00     0.033 A 
ATOM     79  N   UNL A   1      31.233  26.610  24.245  1.00  0.00    -0.334 N 
ATOM     80  C   UNL A   1      29.103  26.837  23.635  1.00  0.00     0.020 A 
ATOM     81  C   UNL A   1      30.030  25.954  24.133  1.00  0.00     0.087 A 
BRANCH  79  82
ATOM     82  C   UNL A   1      32.469  25.971  24.691  1.00  0.00     0.222 C 
BRANCH  82  83
ATOM     83  C   UNL A   1      33.318  25.201  23.684  1.00  0.00     0.242 C 
ATOM     84  O   UNL A   1      33.472  25.703  22.561  1.00  0.00    -0.273 OA
BRANCH  83  85
ATOM     85  N   UNL A   1      34.059  24.079  24.049  1.00  0.00    -0.336 N 
ATOM     86  C   UNL A   1      33.883  22.755  23.466  1.00  0.00     0.124 C 
ATOM     87  C   UNL A   1      35.245  24.312  24.891  1.00  0.00     0.155 C 
ATOM     88  C   UNL A   1      34.403  21.611  24.318  1.00  0.00     0.057 C 
ATOM     89  C   UNL A   1      36.205  23.152  25.045  1.00  0.00    -0.025 A 
ATOM     90  C   UNL A   1      35.814  21.844  24.737  1.00  0.00    -0.041 A 
ATOM     91  C   UNL A   1      37.489  23.358  25.567  1.00  0.00     0.006 A 
ATOM     92  C   UNL A   1      36.692  20.769  24.905  1.00  0.00     0.004 A 
ATOM     93  C   UNL A   1      38.365  22.283  25.743  1.00  0.00     0.000 A 
ATOM     94  C   UNL A   1      37.971  20.990  25.403  1.00  0.00     0.000 A 
ENDBRANCH  83  85
ENDBRANCH  82  83
ENDBRANCH  79  82
ENDBRANCH  74  77
ENDBRANCH  72  73
ENDBRANCH   1  72
TORSDOF 13
ENDMDL
MODEL 2
REMARK VINA RESULT:     -12.8      0.789      1.615
REMARK SMILES O=C(NCCCNC(=O)c1cccn1CC(=O)N1CCc2ccccc2C1)c1ccc(-c2c3nc(c(-c4c(F)c(F)c(F)c(F)c4F)c4ccc([nH]4)c(-c4c(F)c(F)c(F)c(F)c4F)c4nc(c(-c5c(F)c(F)c(F)c(F)c5F)c5ccc2[nH]5)C=C4)C=C3)cc1
REMARK SMILES IDX 5 1 4 2 3 3 1 4 2 5 28 7 29 8 90 9 30 10 89 11 31 12 32 13
REMARK SMILES IDX 33 14 83 15 34 16 88 17 82 18 84 19 35 20 87 21 81 22 80 23
REMARK SMILES IDX 36 25 68 26 48 27 67 28 49 29 52 30 66 31 85 32 50 33 51 34
REMARK SMILES IDX 65 36 86 37 53 38 37 39 38 40 46 41 39 42 40 43 44 44 47 45
REMARK SMILES IDX 41 46 42 47 45 48 43 49 69 50 70 51 78 52 71 53 72 54 76 55
REMARK SMILES IDX 79 56 73 57 74 58 77 59 75 60 54 61 55 62 63 63 56 64 57 65
REMARK SMILES IDX 61 66 64 67 58 68 59 69 62 70 60 71 6 72 7 73 8 74 9 76
REMARK SMILES IDX 10 77 11 78 14 79 12 80 13 81 15 82 16 83 17 84 18 85 19 86
REMARK SMILES IDX 27 87 20 88 26 89 21 90 25 91 22 92 24 93 23 94
REMARK H PARENT 3 6 84 24 52 35 7 75
REMARK Flexibility Score: inf
ROOT
ATOM      1  C   UNL A   1      32.905  28.514  26.879  1.00  0.00     0.042 C 
ENDROOT
BRANCH   1   2
ATOM      2  C   UNL A   1      34.407  28.767  26.968  1.00  0.00     0.118 C 
BRANCH   2   3
ATOM      3  N   UNL A   1      34.794  30.073  27.462  1.00  0.00    -0.352 N 
ATOM      4  O   UNL A   1      36.014  31.822  28.108  1.00  0.00    -0.269 OA
ATOM      5  C   UNL A   1      35.989  30.617  27.854  1.00  0.00     0.251 C 
ATOM      6  H   UNL A   1      34.039  30.702  27.533  1.00  0.00     0.163 HD
BRANCH   5   7
ATOM      7  C   UNL A   1      37.232  29.828  28.052  1.00  0.00     0.039 A 
ATOM      8  C   UNL A   1      38.303  29.812  27.157  1.00  0.00     0.014 A 
ATOM      9  C   UNL A   1      37.337  29.112  29.259  1.00  0.00     0.014 A 
ATOM     10  C   UNL A   1      39.437  29.050  27.437  1.00  0.00     0.010 A 
ATOM     11  C   UNL A   1      38.475  28.363  29.553  1.00  0.00     0.010 A 
ATOM     12  C   UNL A   1      39.532  28.338  28.639  1.00  0.00    -0.014 A 
BRANCH  12  13
ATOM     13  C   UNL A   1      40.841  27.735  28.986  1.00  0.00     0.031 A 
ATOM     14  C   UNL A   1      40.999  26.310  28.420  1.00  0.00     0.074 A 
ATOM     15  C   UNL A   1      41.668  28.476  29.783  1.00  0.00     0.049 A 
ATOM     16  N   UNL A   1      41.754  25.327  28.811  1.00  0.00    -0.248 NA
ATOM     17  C   UNL A   1      40.143  25.903  27.271  1.00  0.00     0.031 C 
ATOM     18  C   UNL A   1      41.390  29.861  30.211  1.00  0.00     0.029 A 
ATOM     19  N   UNL A   1      42.880  28.234  30.403  1.00  0.00    -0.354 N 
ATOM     20  C   UNL A   1      41.601  24.276  27.879  1.00  0.00     0.074 A 
ATOM     21  C   UNL A   1      40.526  24.651  27.012  1.00  0.00     0.031 C 
ATOM     22  C   UNL A   1      42.335  30.298  31.068  1.00  0.00     0.029 A 
ATOM     23  C   UNL A   1      43.326  29.260  31.279  1.00  0.00     0.049 A 
ATOM     24  H   UNL A   1      43.396  27.410  30.249  1.00  0.00     0.167 HD
ATOM     25  C   UNL A   1      42.435  23.197  27.805  1.00  0.00     0.037 A 
ATOM     26  C   UNL A   1      44.388  29.260  32.147  1.00  0.00     0.037 A 
ATOM     27  C   UNL A   1      43.406  23.244  28.842  1.00  0.00     0.049 A 
ATOM     28  C   UNL A   1      45.103  28.002  31.879  1.00  0.00     0.074 A 
ATOM     29  C   UNL A   1      43.352  22.940  30.174  1.00  0.00     0.029 A 
ATOM     30  N   UNL A   1      44.570  23.922  28.587  1.00  0.00    -0.354 N 
ATOM     31  N   UNL A   1      45.840  27.782  30.832  1.00  0.00    -0.248 NA
ATOM     32  C   UNL A   1      44.932  26.880  32.810  1.00  0.00     0.031 C 
ATOM     33  C   UNL A   1      44.299  23.801  30.764  1.00  0.00     0.029 A 
ATOM     34  C   UNL A   1      44.971  24.508  29.762  1.00  0.00     0.049 A 
ATOM     35  H   UNL A   1      45.033  23.979  27.720  1.00  0.00     0.167 HD
ATOM     36  C   UNL A   1      45.948  26.411  30.831  1.00  0.00     0.074 A 
ATOM     37  C   UNL A   1      45.668  25.971  32.178  1.00  0.00     0.031 C 
ATOM     38  C   UNL A   1      45.744  25.727  29.679  1.00  0.00     0.037 A 
BRANCH  25  39
ATOM     39  C   UNL A   1      42.601  22.126  26.763  1.00  0.00     0.064 A 
ATOM     40  C   UNL A   1      42.012  20.856  26.990  1.00  0.00     0.173 A 
ATOM     41  C   UNL A   1      43.562  22.183  25.746  1.00  0.00     0.173 A 
ATOM     42  F   UNL A   1      41.048  20.702  27.913  1.00  0.00    -0.203 F 
ATOM     43  C   UNL A   1      42.443  19.706  26.332  1.00  0.00     0.198 A 
ATOM     44  C   UNL A   1      43.962  21.033  25.053  1.00  0.00     0.198 A 
ATOM     45  F   UNL A   1      44.202  23.327  25.467  1.00  0.00    -0.203 F 
ATOM     46  F   UNL A   1      41.941  18.511  26.673  1.00  0.00    -0.200 F 
ATOM     47  C   UNL A   1      43.431  19.793  25.373  1.00  0.00     0.200 A 
ATOM     48  F   UNL A   1      44.917  21.121  24.118  1.00  0.00    -0.200 F 
ATOM     49  F   UNL A   1      43.894  18.684  24.780  1.00  0.00    -0.200 F 
ENDBRANCH  25  39
BRANCH  26  50
ATOM     50  C   UNL A   1      44.931  30.111  33.280  1.00  0.00     0.064 A 
ATOM     51  C   UNL A   1      46.045  30.959  33.222  1.00  0.00     0.173 A 
ATOM     52  C   UNL A   1      44.246  30.157  34.531  1.00  0.00     0.173 A 
ATOM     53  F   UNL A   1      46.877  30.940  32.176  1.00  0.00    -0.203 F 
ATOM     54  C   UNL A   1      46.364  31.857  34.259  1.00  0.00     0.198 A 
ATOM     55  C   UNL A   1      44.532  31.075  35.542  1.00  0.00     0.198 A 
ATOM     56  F   UNL A   1      43.257  29.303  34.826  1.00  0.00    -0.203 F 
ATOM     57  F   UNL A   1      47.434  32.655  34.139  1.00  0.00    -0.200 F 
ATOM     58  C   UNL A   1      45.584  31.944  35.398  1.00  0.00     0.200 A 
ATOM     59  F   UNL A   1      43.762  31.118  36.640  1.00  0.00    -0.200 F 
ATOM     60  F   UNL A   1      45.853  32.846  36.352  1.00  0.00    -0.200 F 
ENDBRANCH  26  50
BRANCH  38  61
ATOM     61  C   UNL A   1      45.973  26.564  28.437  1.00  0.00     0.064 A 
ATOM     62  C   UNL A   1      47.278  26.931  28.073  1.00  0.00     0.173 A 
ATOM     63  C   UNL A   1      44.937  27.132  27.676  1.00  0.00     0.173 A 
ATOM     64  F   UNL A   1      48.324  26.430  28.747  1.00  0.00    -0.203 F 
ATOM     65  C   UNL A   1      47.523  27.821  27.024  1.00  0.00     0.198 A 
ATOM     66  C   UNL A   1      45.177  28.011  26.620  1.00  0.00     0.198 A 
ATOM     67  F   UNL A   1      43.664  26.845  27.943  1.00  0.00    -0.203 F 
ATOM     68  F   UNL A   1      48.783  28.155  26.714  1.00  0.00    -0.200 F 
ATOM     69  C   UNL A   1      46.473  28.361  26.298  1.00  0.00     0.200 A 
ATOM     70  F   UNL A   1      44.150  28.513  25.918  1.00  0.00    -0.200 F 
ATOM     71  F   UNL A   1      46.711  29.206  25.286  1.00  0.00    -0.200 F 
ENDBRANCH  38  61
ENDBRANCH  12  13
ENDBRANCH   5   7
ENDBRANCH   2   3
ENDBRANCH   1   2
BRANCH   1  72
ATOM     72  C   UNL A   1      32.140  29.391  25.891  1.00  0.00     0.118 C 
BRANCH  72  73
ATOM     73  N   UNL A   1      32.711  29.324  24.554  1.00  0.00    -0.351 N 
ATOM     74  C   UNL A   1      32.162  28.996  23.338  1.00  0.00     0.267 C 
ATOM     75  H   UNL A   1      33.667  29.559  24.514  1.00  0.00     0.163 HD
ATOM     76  O   UNL A   1      32.948  28.814  22.412  1.00  0.00    -0.268 OA
BRANCH  74  77
ATOM     77  C   UNL A   1      30.725  28.852  23.187  1.00  0.00     0.107 A 
ATOM     78  C   UNL A   1      29.822  29.726  22.596  1.00  0.00     0.033 A 
ATOM     79  N   UNL A   1      29.989  27.726  23.550  1.00  0.00    -0.334 N 
ATOM     80  C   UNL A   1      28.538  29.136  22.618  1.00  0.00     0.020 A 
ATOM     81  C   UNL A   1      28.670  27.898  23.199  1.00  0.00     0.087 A 
BRANCH  79  82
ATOM     82  C   UNL A   1      30.518  26.502  24.146  1.00  0.00     0.222 C 
BRANCH  82  83
ATOM     83  C   UNL A   1      31.562  25.690  23.385  1.00  0.00     0.242 C 
ATOM     84  O   UNL A   1      31.392  25.535  22.168  1.00  0.00    -0.273 OA
BRANCH  83  85
ATOM     85  N   UNL A   1      32.764  25.299  23.972  1.00  0.00    -0.336 N 
ATOM     86  C   UNL A   1      33.001  25.265  25.411  1.00  0.00     0.124 C 
ATOM     87  C   UNL A   1      33.755  24.655  23.093  1.00  0.00     0.155 C 
ATOM     88  C   UNL A   1      34.464  25.304  25.815  1.00  0.00     0.057 C 
ATOM     89  C   UNL A   1      34.923  23.974  23.773  1.00  0.00    -0.025 A 
ATOM     90  C   UNL A   1      35.251  24.260  25.103  1.00  0.00    -0.041 A 
ATOM     91  C   UNL A   1      35.743  23.091  23.059  1.00  0.00     0.006 A 
ATOM     92  C   UNL A   1      36.347  23.651  25.722  1.00  0.00     0.004 A 
ATOM     93  C   UNL A   1      36.844  22.489  23.675  1.00  0.00     0.000 A 
ATOM     94  C   UNL A   1      37.140  22.760  25.009  1.00  0.00     0.000 A 
ENDBRANCH  83  85
ENDBRANCH  82  83
ENDBRANCH  79  82
ENDBRANCH  74  77
ENDBRANCH  72  73
ENDBRANCH   1  72
TORSDOF 13
ENDMDL
MODEL 3
REMARK VINA RESULT:     -12.7      4.336      9.327
REMARK SMILES O=C(NCCCNC(=O)c1cccn1CC(=O)N1CCc2ccccc2C1)c1ccc(-c2c3nc(c(-c4c(F)c(F)c(F)c(F)c4F)c4ccc([nH]4)c(-c4c(F)c(F)c(F)c(F)c4F)c4nc(c(-c5c(F)c(F)c(F)c(F)c5F)c5ccc2[nH]5)C=C4)C=C3)cc1
REMARK SMILES IDX 5 1 4 2 3 3 1 4 2 5 28 7 29 8 90 9 30 10 89 11 31 12 32 13
REMARK SMILES IDX 33 14 83 15 34 16 88 17 82 18 84 19 35 20 87 21 81 22 80 23
REMARK SMILES IDX 36 25 68 26 48 27 67 28 49 29 52 30 66 31 85 32 50 33 51 34
REMARK SMILES IDX 65 36 86 37 53 38 37 39 38 40 46 41 39 42 40 43 44 44 47 45
REMARK SMILES IDX 41 46 42 47 45 48 43 49 69 50 70 51 78 52 71 53 72 54 76 55
REMARK SMILES IDX 79 56 73 57 74 58 77 59 75 60 54 61 55 62 63 63 56 64 57 65
REMARK SMILES IDX 61 66 64 67 58 68 59 69 62 70 60 71 6 72 7 73 8 74 9 76
REMARK SMILES IDX 10 77 11 78 14 79 12 80 13 81 15 82 16 83 17 84 18 85 19 86
REMARK SMILES IDX 27 87 20 88 26 89 21 90 25 91 22 92 24 93 23 94
REMARK H PARENT 3 6 84 24 52 35 7 75
REMARK Flexibility Score: inf
ROOT
ATOM      1  C   UNL A   1      36.411  23.103  25.131  1.00  0.00     0.042 C 
ENDROOT
BRANCH   1   2
ATOM      2  C   UNL A   1      37.293  24.076  25.908  1.00  0.00     0.118 C 
BRANCH   2   3
ATOM      3  N   UNL A   1      38.645  23.624  26.169  1.00  0.00    -0.352 N 
ATOM      4  O   UNL A   1      40.670  23.398  27.070  1.00  0.00    -0.269 OA
ATOM      5  C   UNL A   1      39.658  24.094  26.962  1.00  0.00     0.251 C 
ATOM      6  H   UNL A   1      38.886  22.809  25.672  1.00  0.00     0.163 HD
BRANCH   5   7
ATOM      7  C   UNL A   1      39.634  25.414  27.641  1.00  0.00     0.039 A 
ATOM      8  C   UNL A   1      39.245  25.609  28.967  1.00  0.00     0.014 A 
ATOM      9  C   UNL A   1      40.102  26.513  26.896  1.00  0.00     0.014 A 
ATOM     10  C   UNL A   1      39.269  26.887  29.524  1.00  0.00     0.010 A 
ATOM     11  C   UNL A   1      40.146  27.791  27.452  1.00  0.00     0.010 A 
ATOM     12  C   UNL A   1      39.733  27.976  28.774  1.00  0.00    -0.014 A 
BRANCH  12  13
ATOM     13  C   UNL A   1      39.952  29.261  29.481  1.00  0.00     0.031 A 
ATOM     14  C   UNL A   1      38.741  30.207  29.365  1.00  0.00     0.074 A 
ATOM     15  C   UNL A   1      41.176  29.443  30.061  1.00  0.00     0.049 A 
ATOM     16  N   UNL A   1      38.672  31.502  29.463  1.00  0.00    -0.248 NA
ATOM     17  C   UNL A   1      37.411  29.624  29.036  1.00  0.00     0.031 C 
ATOM     18  C   UNL A   1      42.228  28.409  30.127  1.00  0.00     0.029 A 
ATOM     19  N   UNL A   1      41.794  30.506  30.692  1.00  0.00    -0.354 N 
ATOM     20  C   UNL A   1      37.307  31.861  29.388  1.00  0.00     0.074 A 
ATOM     21  C   UNL A   1      36.591  30.676  29.027  1.00  0.00     0.031 C 
ATOM     22  C   UNL A   1      43.357  28.907  30.671  1.00  0.00     0.029 A 
ATOM     23  C   UNL A   1      43.160  30.300  31.025  1.00  0.00     0.049 A 
ATOM     24  H   UNL A   1      41.322  31.346  30.896  1.00  0.00     0.167 HD
ATOM     25  C   UNL A   1      36.825  33.094  29.726  1.00  0.00     0.037 A 
ATOM     26  C   UNL A   1      44.081  31.196  31.506  1.00  0.00     0.037 A 
ATOM     27  C   UNL A   1      37.890  33.969  30.073  1.00  0.00     0.049 A 
ATOM     28  C   UNL A   1      43.320  32.425  31.771  1.00  0.00     0.074 A 
ATOM     29  C   UNL A   1      38.788  34.676  29.322  1.00  0.00     0.029 A 
ATOM     30  N   UNL A   1      38.299  33.978  31.382  1.00  0.00    -0.354 N 
ATOM     31  N   UNL A   1      42.505  32.587  32.770  1.00  0.00    -0.248 NA
ATOM     32  C   UNL A   1      43.418  33.537  30.817  1.00  0.00     0.031 C 
ATOM     33  C   UNL A   1      39.936  34.753  30.137  1.00  0.00     0.029 A 
ATOM     34  C   UNL A   1      39.655  34.194  31.388  1.00  0.00     0.049 A 
ATOM     35  H   UNL A   1      37.726  33.852  32.172  1.00  0.00     0.167 HD
ATOM     36  C   UNL A   1      41.771  33.681  32.377  1.00  0.00     0.074 A 
ATOM     37  C   UNL A   1      42.558  34.377  31.387  1.00  0.00     0.031 C 
ATOM     38  C   UNL A   1      40.420  33.652  32.488  1.00  0.00     0.037 A 
BRANCH  25  39
ATOM     39  C   UNL A   1      35.427  33.597  29.955  1.00  0.00     0.064 A 
ATOM     40  C   UNL A   1      34.774  34.295  28.908  1.00  0.00     0.173 A 
ATOM     41  C   UNL A   1      34.849  33.715  31.226  1.00  0.00     0.173 A 
ATOM     42  F   UNL A   1      35.220  34.213  27.645  1.00  0.00    -0.203 F 
ATOM     43  C   UNL A   1      33.694  35.146  29.140  1.00  0.00     0.198 A 
ATOM     44  C   UNL A   1      33.737  34.535  31.449  1.00  0.00     0.198 A 
ATOM     45  F   UNL A   1      35.401  33.119  32.292  1.00  0.00    -0.203 F 
ATOM     46  F   UNL A   1      33.193  35.880  28.137  1.00  0.00    -0.200 F 
ATOM     47  C   UNL A   1      33.186  35.278  30.416  1.00  0.00     0.200 A 
ATOM     48  F   UNL A   1      33.240  34.657  32.687  1.00  0.00    -0.200 F 
ATOM     49  F   UNL A   1      32.189  36.141  30.658  1.00  0.00    -0.200 F 
ENDBRANCH  25  39
BRANCH  26  50
ATOM     50  C   UNL A   1      45.580  31.271  31.740  1.00  0.00     0.064 A 
ATOM     51  C   UNL A   1      46.545  31.678  30.811  1.00  0.00     0.173 A 
ATOM     52  C   UNL A   1      46.116  30.985  33.031  1.00  0.00     0.173 A 
ATOM     53  F   UNL A   1      46.238  31.855  29.523  1.00  0.00    -0.203 F 
ATOM     54  C   UNL A   1      47.889  31.902  31.170  1.00  0.00     0.198 A 
ATOM     55  C   UNL A   1      47.436  31.248  33.401  1.00  0.00     0.198 A 
ATOM     56  F   UNL A   1      45.372  30.434  34.000  1.00  0.00    -0.203 F 
ATOM     57  F   UNL A   1      48.765  32.307  30.240  1.00  0.00    -0.200 F 
ATOM     58  C   UNL A   1      48.323  31.728  32.471  1.00  0.00     0.200 A 
ATOM     59  F   UNL A   1      47.823  31.051  34.670  1.00  0.00    -0.200 F 
ATOM     60  F   UNL A   1      49.586  32.006  32.822  1.00  0.00    -0.200 F 
ENDBRANCH  26  50
BRANCH  38  61
ATOM     61  C   UNL A   1      39.925  32.669  33.530  1.00  0.00     0.064 A 
ATOM     62  C   UNL A   1      39.290  31.485  33.127  1.00  0.00     0.173 A 
ATOM     63  C   UNL A   1      39.930  32.928  34.911  1.00  0.00     0.173 A 
ATOM     64  F   UNL A   1      39.244  31.162  31.826  1.00  0.00    -0.203 F 
ATOM     65  C   UNL A   1      38.690  30.625  34.050  1.00  0.00     0.198 A 
ATOM     66  C   UNL A   1      39.343  32.067  35.838  1.00  0.00     0.198 A 
ATOM     67  F   UNL A   1      40.507  34.027  35.393  1.00  0.00    -0.203 F 
ATOM     68  F   UNL A   1      38.085  29.507  33.625  1.00  0.00    -0.200 F 
ATOM     69  C   UNL A   1      38.716  30.915  35.405  1.00  0.00     0.200 A 
ATOM     70  F   UNL A   1      39.391  32.356  37.147  1.00  0.00    -0.200 F 
ATOM     71  F   UNL A   1      38.148  30.085  36.290  1.00  0.00    -0.200 F 
ENDBRANCH  38  61
ENDBRANCH  12  13
ENDBRANCH   5   7
ENDBRANCH   2   3
ENDBRANCH   1   2
BRANCH   1  72
ATOM     72  C   UNL A   1      36.253  21.713  25.745  1.00  0.00     0.118 C 
BRANCH  72  73
ATOM     73  N   UNL A   1      35.233  21.693  26.782  1.00  0.00    -0.351 N 
ATOM     74  C   UNL A   1      33.875  21.487  26.729  1.00  0.00     0.267 C 
ATOM     75  H   UNL A   1      35.579  21.856  27.689  1.00  0.00     0.163 HD
ATOM     76  O   UNL A   1      33.240  21.749  27.747  1.00  0.00    -0.268 OA
BRANCH  74  77
ATOM     77  C   UNL A   1      33.244  21.008  25.513  1.00  0.00     0.107 A 
ATOM     78  C   UNL A   1      32.928  19.704  25.153  1.00  0.00     0.033 A 
ATOM     79  N   UNL A   1      32.751  21.818  24.491  1.00  0.00    -0.334 N 
ATOM     80  C   UNL A   1      32.260  19.725  23.907  1.00  0.00     0.020 A 
ATOM     81  C   UNL A   1      32.152  21.041  23.528  1.00  0.00     0.087 A 
BRANCH  79  82
ATOM     82  C   UNL A   1      32.783  23.278  24.454  1.00  0.00     0.222 C 
BRANCH  82  83
ATOM     83  C   UNL A   1      31.674  24.068  25.144  1.00  0.00     0.242 C 
ATOM     84  O   UNL A   1      30.850  23.432  25.817  1.00  0.00    -0.273 OA
BRANCH  83  85
ATOM     85  N   UNL A   1      31.681  25.460  25.193  1.00  0.00    -0.336 N 
ATOM     86  C   UNL A   1      30.503  26.294  24.985  1.00  0.00     0.124 C 
ATOM     87  C   UNL A   1      32.896  26.101  25.726  1.00  0.00     0.155 C 
ATOM     88  C   UNL A   1      30.801  27.728  24.586  1.00  0.00     0.057 C 
ATOM     89  C   UNL A   1      32.797  27.576  26.050  1.00  0.00    -0.025 A 
ATOM     90  C   UNL A   1      31.765  28.363  25.528  1.00  0.00    -0.041 A 
ATOM     91  C   UNL A   1      33.782  28.198  26.828  1.00  0.00     0.006 A 
ATOM     92  C   UNL A   1      31.690  29.732  25.806  1.00  0.00     0.004 A 
ATOM     93  C   UNL A   1      33.713  29.568  27.099  1.00  0.00     0.000 A 
ATOM     94  C   UNL A   1      32.661  30.333  26.597  1.00  0.00     0.000 A 
ENDBRANCH  83  85
ENDBRANCH  82  83
ENDBRANCH  79  82
ENDBRANCH  74  77
ENDBRANCH  72  73
ENDBRANCH   1  72
TORSDOF 13
ENDMDL
