MODEL 1
REMARK VINA RESULT:     -12.9      0.000      0.000
REMARK SMILES C[C@@H](Nc1cccc(C(=O)NCCCNC(=O)c2ccc(-c3c4nc(c(-c5c(F)c(F)c(F)c(F)c5F)c5ccc([nH]5)c(-c5c(F)c(F)c(F)c(F)c5F)c5nc(c(-c6c(F)c(F)c(F)c(F)c6F)c6ccc3[nH]6)C=C5)C=C4)cc2)c1)C1CC[NH+](C)CC1
REMARK SMILES IDX 12 1 11 2 9 3 10 4 8 6 4 7 5 8 81 9 6 10 7 11 3 12 2 14 1 15
REMARK SMILES IDX 82 16 83 17 88 18 84 19 87 20 85 21 86 22 13 24 14 25 15 26
REMARK SMILES IDX 16 27 17 29 18 30 19 31 80 32 20 33 79 34 21 35 22 36 23 37
REMARK SMILES IDX 73 38 24 39 78 40 72 41 74 42 25 43 77 44 71 45 70 46 26 48
REMARK SMILES IDX 58 49 38 50 57 51 39 52 42 53 56 54 75 55 40 56 41 57 55 59
REMARK SMILES IDX 76 60 43 61 27 62 28 63 36 64 29 65 30 66 34 67 37 68 31 69
REMARK SMILES IDX 32 70 35 71 33 72 59 73 60 74 68 75 61 76 62 77 66 78 69 79
REMARK SMILES IDX 63 80 64 81 67 82 65 83 44 84 45 85 53 86 46 87 47 88 51 89
REMARK SMILES IDX 54 90 48 91 49 92 52 93 50 94
REMARK H PARENT 11 5 3 13 85 23 15 28 74 47 42 58
REMARK Flexibility Score: inf
ROOT
ATOM      1  C   UNL A   1      31.775  30.700  26.344  1.00  0.00     0.118 C 
ENDROOT
BRANCH   1   2
ATOM      2  N   UNL A   1      33.047  30.198  26.836  1.00  0.00    -0.352 N 
ATOM      3  C   UNL A   1      33.874  29.166  26.469  1.00  0.00     0.251 C 
ATOM      4  O   UNL A   1      34.959  29.064  27.044  1.00  0.00    -0.269 OA
ATOM      5  H   UNL A   1      33.391  30.710  27.603  1.00  0.00     0.163 HD
BRANCH   3   6
ATOM      6  C   UNL A   1      33.618  28.224  25.364  1.00  0.00     0.041 A 
ATOM      7  C   UNL A   1      33.131  25.390  24.041  1.00  0.00     0.035 A 
ATOM      8  C   UNL A   1      33.421  26.110  22.387  1.00  0.00     0.026 A 
ATOM      9  C   UNL A   1      33.385  26.405  25.541  1.00  0.00     0.039 A 
ATOM     10  C   UNL A   1      33.778  27.893  22.226  1.00  0.00     0.003 A 
ATOM     11  C   UNL A   1      33.807  28.945  23.711  1.00  0.00     0.014 A 
BRANCH   7  12
ATOM     12  N   UNL A   1      32.307  24.259  24.080  1.00  0.00    -0.382 N 
ATOM     13  H   UNL A   1      31.333  24.379  23.993  1.00  0.00     0.160 HD
BRANCH  12  14
ATOM     14  C   UNL A   1      32.851  22.878  24.250  1.00  0.00     0.079 C 
ATOM     15  C   UNL A   1      32.345  22.033  23.065  1.00  0.00     0.031 C 
BRANCH  14  16
ATOM     16  C   UNL A   1      32.690  21.996  25.538  1.00  0.00     0.022 C 
ATOM     17  C   UNL A   1      32.825  22.623  26.915  1.00  0.00     0.067 C 
ATOM     18  C   UNL A   1      33.522  20.753  25.631  1.00  0.00     0.067 C 
ATOM     19  C   UNL A   1      34.267  22.683  27.462  1.00  0.00     0.262 C 
ATOM     20  C   UNL A   1      34.985  21.114  25.800  1.00  0.00     0.262 C 
ATOM     21  N   UNL A   1      35.445  22.530  26.407  1.00  0.00    -0.337 N 
ATOM     22  C   UNL A   1      36.967  23.831  25.821  1.00  0.00     0.332 C 
ATOM     23  H   UNL A   1      36.342  23.015  26.393  1.00  0.00     0.347 HD
ENDBRANCH  14  16
ENDBRANCH  12  14
ENDBRANCH   7  12
ENDBRANCH   3   6
ENDBRANCH   1   2
BRANCH   1  24
ATOM     24  C   UNL A   1      31.474  32.108  26.844  1.00  0.00     0.042 C 
BRANCH  24  25
ATOM     25  C   UNL A   1      32.726  32.862  27.236  1.00  0.00     0.118 C 
BRANCH  25  26
ATOM     26  N   UNL A   1      32.437  34.240  27.608  1.00  0.00    -0.352 N 
ATOM     27  C   UNL A   1      33.002  34.980  28.620  1.00  0.00     0.251 C 
ATOM     28  H   UNL A   1      31.754  34.699  27.069  1.00  0.00     0.163 HD
ATOM     29  O   UNL A   1      32.532  36.072  28.924  1.00  0.00    -0.269 OA
BRANCH  27  30
ATOM     30  C   UNL A   1      34.156  34.432  29.369  1.00  0.00     0.039 A 
ATOM     31  C   UNL A   1      33.925  33.746  30.564  1.00  0.00     0.014 A 
ATOM     32  C   UNL A   1      35.460  34.580  28.889  1.00  0.00     0.014 A 
ATOM     33  C   UNL A   1      34.995  33.165  31.245  1.00  0.00     0.010 A 
ATOM     34  C   UNL A   1      36.509  33.916  29.509  1.00  0.00     0.010 A 
ATOM     35  C   UNL A   1      36.290  33.218  30.704  1.00  0.00    -0.014 A 
BRANCH  35  36
ATOM     36  C   UNL A   1      37.440  32.576  31.386  1.00  0.00     0.031 A 
ATOM     37  C   UNL A   1      38.153  31.429  30.728  1.00  0.00     0.074 A 
ATOM     38  C   UNL A   1      37.795  32.988  32.618  1.00  0.00     0.049 A 
ATOM     39  N   UNL A   1      39.138  30.695  31.180  1.00  0.00    -0.248 NA
ATOM     40  C   UNL A   1      37.673  31.027  29.394  1.00  0.00     0.031 C 
ATOM     41  C   UNL A   1      37.136  34.053  33.375  1.00  0.00     0.029 A 
ATOM     42  N   UNL A   1      38.792  32.556  33.453  1.00  0.00    -0.354 N 
ATOM     43  C   UNL A   1      39.381  29.743  30.198  1.00  0.00     0.074 A 
ATOM     44  C   UNL A   1      38.401  29.947  29.156  1.00  0.00     0.031 C 
ATOM     45  C   UNL A   1      37.765  34.213  34.550  1.00  0.00     0.029 A 
ATOM     46  C   UNL A   1      38.845  33.235  34.646  1.00  0.00     0.049 A 
ATOM     47  H   UNL A   1      39.413  31.827  33.220  1.00  0.00     0.167 HD
ATOM     48  C   UNL A   1      40.356  28.804  30.157  1.00  0.00     0.037 A 
ATOM     49  C   UNL A   1      39.671  33.080  35.697  1.00  0.00     0.037 A 
ATOM     50  C   UNL A   1      41.341  28.628  31.190  1.00  0.00     0.049 A 
ATOM     51  C   UNL A   1      40.744  32.028  35.627  1.00  0.00     0.074 A 
ATOM     52  C   UNL A   1      42.408  27.750  31.224  1.00  0.00     0.029 A 
ATOM     53  N   UNL A   1      41.376  29.349  32.375  1.00  0.00    -0.354 N 
ATOM     54  N   UNL A   1      41.015  31.184  34.661  1.00  0.00    -0.248 NA
ATOM     55  C   UNL A   1      41.633  31.912  36.790  1.00  0.00     0.031 C 
ATOM     56  C   UNL A   1      43.058  27.902  32.454  1.00  0.00     0.029 A 
ATOM     57  C   UNL A   1      42.433  28.918  33.160  1.00  0.00     0.049 A 
ATOM     58  H   UNL A   1      40.743  30.062  32.622  1.00  0.00     0.167 HD
ATOM     59  C   UNL A   1      42.119  30.457  35.084  1.00  0.00     0.074 A 
ATOM     60  C   UNL A   1      42.479  30.974  36.389  1.00  0.00     0.031 C 
ATOM     61  C   UNL A   1      42.775  29.452  34.453  1.00  0.00     0.037 A 
BRANCH  48  62
ATOM     62  C   UNL A   1      40.402  27.901  28.957  1.00  0.00     0.064 A 
ATOM     63  C   UNL A   1      41.135  28.237  27.807  1.00  0.00     0.173 A 
ATOM     64  C   UNL A   1      39.728  26.670  28.964  1.00  0.00     0.173 A 
ATOM     65  F   UNL A   1      41.788  29.408  27.741  1.00  0.00    -0.203 F 
ATOM     66  C   UNL A   1      41.163  27.393  26.700  1.00  0.00     0.198 A 
ATOM     67  C   UNL A   1      39.786  25.812  27.868  1.00  0.00     0.198 A 
ATOM     68  F   UNL A   1      39.016  26.294  30.036  1.00  0.00    -0.203 F 
ATOM     69  F   UNL A   1      41.822  27.765  25.593  1.00  0.00    -0.200 F 
ATOM     70  C   UNL A   1      40.496  26.180  26.734  1.00  0.00     0.200 A 
ATOM     71  F   UNL A   1      39.153  24.633  27.907  1.00  0.00    -0.200 F 
ATOM     72  F   UNL A   1      40.530  25.364  25.670  1.00  0.00    -0.200 F 
ENDBRANCH  48  62
BRANCH  49  73
ATOM     73  C   UNL A   1      39.533  33.959  36.889  1.00  0.00     0.064 A 
ATOM     74  C   UNL A   1      38.775  33.555  37.998  1.00  0.00     0.173 A 
ATOM     75  C   UNL A   1      40.154  35.215  36.948  1.00  0.00     0.173 A 
ATOM     76  F   UNL A   1      38.148  32.369  37.984  1.00  0.00    -0.203 F 
ATOM     77  C   UNL A   1      38.624  34.384  39.108  1.00  0.00     0.198 A 
ATOM     78  C   UNL A   1      40.028  36.029  38.072  1.00  0.00     0.198 A 
ATOM     79  F   UNL A   1      40.897  35.647  35.919  1.00  0.00    -0.203 F 
ATOM     80  F   UNL A   1      37.854  33.992  40.132  1.00  0.00    -0.200 F 
ATOM     81  C   UNL A   1      39.255  35.617  39.146  1.00  0.00     0.200 A 
ATOM     82  F   UNL A   1      40.654  37.214  38.113  1.00  0.00    -0.200 F 
ATOM     83  F   UNL A   1      39.114  36.412  40.217  1.00  0.00    -0.200 F 
ENDBRANCH  49  73
BRANCH  61  84
ATOM     84  C   UNL A   1      43.971  28.871  35.151  1.00  0.00     0.064 A 
ATOM     85  C   UNL A   1      43.859  27.769  36.011  1.00  0.00     0.173 A 
ATOM     86  C   UNL A   1      45.251  29.399  34.920  1.00  0.00     0.173 A 
ATOM     87  F   UNL A   1      42.656  27.237  36.275  1.00  0.00    -0.203 F 
ATOM     88  C   UNL A   1      44.981  27.237  36.639  1.00  0.00     0.198 A 
ATOM     89  C   UNL A   1      46.374  28.841  35.522  1.00  0.00     0.198 A 
ATOM     90  F   UNL A   1      45.412  30.448  34.099  1.00  0.00    -0.203 F 
ATOM     91  F   UNL A   1      44.845  26.218  37.499  1.00  0.00    -0.200 F 
ATOM     92  C   UNL A   1      46.238  27.767  36.388  1.00  0.00     0.200 A 
ATOM     93  F   UNL A   1      47.590  29.345  35.265  1.00  0.00    -0.200 F 
ATOM     94  F   UNL A   1      47.319  27.247  36.986  1.00  0.00    -0.200 F 
ENDBRANCH  61  84
ENDBRANCH  35  36
ENDBRANCH  27  30
ENDBRANCH  25  26
ENDBRANCH  24  25
ENDBRANCH   1  24
TORSDOF 13
ENDMDL
MODEL 2
REMARK VINA RESULT:     -12.8      0.140      1.607
REMARK SMILES C[C@@H](Nc1cccc(C(=O)NCCCNC(=O)c2ccc(-c3c4nc(c(-c5c(F)c(F)c(F)c(F)c5F)c5ccc([nH]5)c(-c5c(F)c(F)c(F)c(F)c5F)c5nc(c(-c6c(F)c(F)c(F)c(F)c6F)c6ccc3[nH]6)C=C5)C=C4)cc2)c1)C1CC[NH+](C)CC1
REMARK SMILES IDX 12 1 11 2 9 3 10 4 8 6 4 7 5 8 81 9 6 10 7 11 3 12 2 14 1 15
REMARK SMILES IDX 82 16 83 17 88 18 84 19 87 20 85 21 86 22 13 24 14 25 15 26
REMARK SMILES IDX 16 27 17 29 18 30 19 31 80 32 20 33 79 34 21 35 22 36 23 37
REMARK SMILES IDX 73 38 24 39 78 40 72 41 74 42 25 43 77 44 71 45 70 46 26 48
REMARK SMILES IDX 58 49 38 50 57 51 39 52 42 53 56 54 75 55 40 56 41 57 55 59
REMARK SMILES IDX 76 60 43 61 27 62 28 63 36 64 29 65 30 66 34 67 37 68 31 69
REMARK SMILES IDX 32 70 35 71 33 72 59 73 60 74 68 75 61 76 62 77 66 78 69 79
REMARK SMILES IDX 63 80 64 81 67 82 65 83 44 84 45 85 53 86 46 87 47 88 51 89
REMARK SMILES IDX 54 90 48 91 49 92 52 93 50 94
REMARK H PARENT 11 5 3 13 85 23 15 28 74 47 42 58
REMARK Flexibility Score: inf
ROOT
ATOM      1  C   UNL A   1      31.657  30.678  26.344  1.00  0.00     0.118 C 
ENDROOT
BRANCH   1   2
ATOM      2  N   UNL A   1      32.951  30.210  26.810  1.00  0.00    -0.352 N 
ATOM      3  C   UNL A   1      33.792  29.192  26.436  1.00  0.00     0.251 C 
ATOM      4  O   UNL A   1      34.893  29.121  26.986  1.00  0.00    -0.269 OA
ATOM      5  H   UNL A   1      33.301  30.739  27.563  1.00  0.00     0.163 HD
BRANCH   3   6
ATOM      6  C   UNL A   1      33.531  28.231  25.348  1.00  0.00     0.041 A 
ATOM      7  C   UNL A   1      33.058  25.374  24.073  1.00  0.00     0.035 A 
ATOM      8  C   UNL A   1      33.316  26.072  22.405  1.00  0.00     0.026 A 
ATOM      9  C   UNL A   1      33.321  26.413  25.555  1.00  0.00     0.039 A 
ATOM     10  C   UNL A   1      33.652  27.857  22.213  1.00  0.00     0.003 A 
ATOM     11  C   UNL A   1      33.689  28.931  23.683  1.00  0.00     0.014 A 
BRANCH   7  12
ATOM     12  N   UNL A   1      32.246  24.235  24.140  1.00  0.00    -0.382 N 
ATOM     13  H   UNL A   1      31.270  24.344  24.082  1.00  0.00     0.160 HD
BRANCH  12  14
ATOM     14  C   UNL A   1      32.809  22.859  24.297  1.00  0.00     0.079 C 
ATOM     15  C   UNL A   1      32.300  22.014  23.114  1.00  0.00     0.031 C 
BRANCH  14  16
ATOM     16  C   UNL A   1      32.675  21.969  25.582  1.00  0.00     0.022 C 
ATOM     17  C   UNL A   1      32.876  22.581  26.958  1.00  0.00     0.067 C 
ATOM     18  C   UNL A   1      33.481  20.707  25.634  1.00  0.00     0.067 C 
ATOM     19  C   UNL A   1      34.337  22.602  27.452  1.00  0.00     0.262 C 
ATOM     20  C   UNL A   1      34.958  21.032  25.752  1.00  0.00     0.262 C 
ATOM     21  N   UNL A   1      35.472  22.432  26.354  1.00  0.00    -0.337 N 
ATOM     22  C   UNL A   1      37.002  23.702  25.723  1.00  0.00     0.332 C 
ATOM     23  H   UNL A   1      36.379  22.896  26.311  1.00  0.00     0.347 HD
ENDBRANCH  14  16
ENDBRANCH  12  14
ENDBRANCH   7  12
ENDBRANCH   3   6
ENDBRANCH   1   2
BRANCH   1  24
ATOM     24  C   UNL A   1      31.404  32.138  26.699  1.00  0.00     0.042 C 
BRANCH  24  25
ATOM     25  C   UNL A   1      32.622  32.805  27.303  1.00  0.00     0.118 C 
BRANCH  25  26
ATOM     26  N   UNL A   1      32.373  34.203  27.626  1.00  0.00    -0.352 N 
ATOM     27  C   UNL A   1      32.967  34.964  28.605  1.00  0.00     0.251 C 
ATOM     28  H   UNL A   1      31.697  34.660  27.076  1.00  0.00     0.163 HD
ATOM     29  O   UNL A   1      32.528  36.079  28.871  1.00  0.00    -0.269 OA
BRANCH  27  30
ATOM     30  C   UNL A   1      34.113  34.414  29.364  1.00  0.00     0.039 A 
ATOM     31  C   UNL A   1      33.873  33.755  30.571  1.00  0.00     0.014 A 
ATOM     32  C   UNL A   1      35.418  34.533  28.880  1.00  0.00     0.014 A 
ATOM     33  C   UNL A   1      34.935  33.172  31.263  1.00  0.00     0.010 A 
ATOM     34  C   UNL A   1      36.458  33.865  29.512  1.00  0.00     0.010 A 
ATOM     35  C   UNL A   1      36.230  33.195  30.721  1.00  0.00    -0.014 A 
BRANCH  35  36
ATOM     36  C   UNL A   1      37.370  32.550  31.415  1.00  0.00     0.031 A 
ATOM     37  C   UNL A   1      38.082  31.395  30.767  1.00  0.00     0.074 A 
ATOM     38  C   UNL A   1      37.719  32.965  32.647  1.00  0.00     0.049 A 
ATOM     39  N   UNL A   1      39.059  30.658  31.230  1.00  0.00    -0.248 NA
ATOM     40  C   UNL A   1      37.609  30.990  29.432  1.00  0.00     0.031 C 
ATOM     41  C   UNL A   1      37.060  34.038  33.394  1.00  0.00     0.029 A 
ATOM     42  N   UNL A   1      38.707  32.531  33.492  1.00  0.00    -0.354 N 
ATOM     43  C   UNL A   1      39.304  29.699  30.255  1.00  0.00     0.074 A 
ATOM     44  C   UNL A   1      38.333  29.904  29.204  1.00  0.00     0.031 C 
ATOM     45  C   UNL A   1      37.682  34.199  34.573  1.00  0.00     0.029 A 
ATOM     46  C   UNL A   1      38.755  33.216  34.682  1.00  0.00     0.049 A 
ATOM     47  H   UNL A   1      39.325  31.797  33.267  1.00  0.00     0.167 HD
ATOM     48  C   UNL A   1      40.273  28.754  30.225  1.00  0.00     0.037 A 
ATOM     49  C   UNL A   1      39.571  33.061  35.740  1.00  0.00     0.037 A 
ATOM     50  C   UNL A   1      41.250  28.578  31.267  1.00  0.00     0.049 A 
ATOM     51  C   UNL A   1      40.639  32.001  35.683  1.00  0.00     0.074 A 
ATOM     52  C   UNL A   1      42.311  27.693  31.313  1.00  0.00     0.029 A 
ATOM     53  N   UNL A   1      41.280  29.304  32.449  1.00  0.00    -0.354 N 
ATOM     54  N   UNL A   1      40.912  31.152  34.723  1.00  0.00    -0.248 NA
ATOM     55  C   UNL A   1      41.518  31.886  36.854  1.00  0.00     0.031 C 
ATOM     56  C   UNL A   1      42.953  27.847  32.547  1.00  0.00     0.029 A 
ATOM     57  C   UNL A   1      42.328  28.870  33.244  1.00  0.00     0.049 A 
ATOM     58  H   UNL A   1      40.649  30.021  32.688  1.00  0.00     0.167 HD
ATOM     59  C   UNL A   1      42.008  30.420  35.159  1.00  0.00     0.074 A 
ATOM     60  C   UNL A   1      42.362  30.941  36.463  1.00  0.00     0.031 C 
ATOM     61  C   UNL A   1      42.664  29.408  34.537  1.00  0.00     0.037 A 
BRANCH  48  62
ATOM     62  C   UNL A   1      40.323  27.846  29.030  1.00  0.00     0.064 A 
ATOM     63  C   UNL A   1      41.074  28.168  27.888  1.00  0.00     0.173 A 
ATOM     64  C   UNL A   1      39.635  26.623  29.035  1.00  0.00     0.173 A 
ATOM     65  F   UNL A   1      41.741  29.330  27.825  1.00  0.00    -0.203 F 
ATOM     66  C   UNL A   1      41.105  27.319  26.785  1.00  0.00     0.198 A 
ATOM     67  C   UNL A   1      39.697  25.759  27.943  1.00  0.00     0.198 A 
ATOM     68  F   UNL A   1      38.905  26.260  30.100  1.00  0.00    -0.203 F 
ATOM     69  F   UNL A   1      41.782  27.677  25.685  1.00  0.00    -0.200 F 
ATOM     70  C   UNL A   1      40.424  26.113  26.816  1.00  0.00     0.200 A 
ATOM     71  F   UNL A   1      39.049  24.587  27.980  1.00  0.00    -0.200 F 
ATOM     72  F   UNL A   1      40.461  25.292  25.756  1.00  0.00    -0.200 F 
ENDBRANCH  48  62
BRANCH  49  73
ATOM     73  C   UNL A   1      39.429  33.946  36.927  1.00  0.00     0.064 A 
ATOM     74  C   UNL A   1      40.049  35.204  36.965  1.00  0.00     0.173 A 
ATOM     75  C   UNL A   1      38.673  33.558  38.043  1.00  0.00     0.173 A 
ATOM     76  F   UNL A   1      40.796  35.614  35.929  1.00  0.00    -0.203 F 
ATOM     77  C   UNL A   1      39.937  36.028  38.083  1.00  0.00     0.198 A 
ATOM     78  C   UNL A   1      38.537  34.397  39.148  1.00  0.00     0.198 A 
ATOM     79  F   UNL A   1      38.054  32.369  38.055  1.00  0.00    -0.203 F 
ATOM     80  F   UNL A   1      40.580  37.203  38.111  1.00  0.00    -0.200 F 
ATOM     81  C   UNL A   1      39.178  35.626  39.171  1.00  0.00     0.200 A 
ATOM     82  F   UNL A   1      37.787  34.013  40.190  1.00  0.00    -0.200 F 
ATOM     83  F   UNL A   1      39.066  36.422  40.244  1.00  0.00    -0.200 F 
ENDBRANCH  49  73
BRANCH  61  84
ATOM     84  C   UNL A   1      43.850  28.824  35.247  1.00  0.00     0.064 A 
ATOM     85  C   UNL A   1      45.145  29.326  35.054  1.00  0.00     0.173 A 
ATOM     86  C   UNL A   1      43.681  27.774  36.164  1.00  0.00     0.173 A 
ATOM     87  F   UNL A   1      45.362  30.318  34.178  1.00  0.00    -0.203 F 
ATOM     88  C   UNL A   1      46.232  28.778  35.731  1.00  0.00     0.198 A 
ATOM     89  C   UNL A   1      44.764  27.254  36.864  1.00  0.00     0.198 A 
ATOM     90  F   UNL A   1      42.460  27.264  36.390  1.00  0.00    -0.203 F 
ATOM     91  F   UNL A   1      47.468  29.237  35.491  1.00  0.00    -0.200 F 
ATOM     92  C   UNL A   1      46.039  27.749  36.641  1.00  0.00     0.200 A 
ATOM     93  F   UNL A   1      44.574  26.271  37.756  1.00  0.00    -0.200 F 
ATOM     94  F   UNL A   1      47.085  27.230  37.299  1.00  0.00    -0.200 F 
ENDBRANCH  61  84
ENDBRANCH  35  36
ENDBRANCH  27  30
ENDBRANCH  25  26
ENDBRANCH  24  25
ENDBRANCH   1  24
TORSDOF 13
ENDMDL
MODEL 3
REMARK VINA RESULT:     -12.8      0.240      1.620
REMARK SMILES C[C@@H](Nc1cccc(C(=O)NCCCNC(=O)c2ccc(-c3c4nc(c(-c5c(F)c(F)c(F)c(F)c5F)c5ccc([nH]5)c(-c5c(F)c(F)c(F)c(F)c5F)c5nc(c(-c6c(F)c(F)c(F)c(F)c6F)c6ccc3[nH]6)C=C5)C=C4)cc2)c1)C1CC[NH+](C)CC1
REMARK SMILES IDX 12 1 11 2 9 3 10 4 8 6 4 7 5 8 81 9 6 10 7 11 3 12 2 14 1 15
REMARK SMILES IDX 82 16 83 17 88 18 84 19 87 20 85 21 86 22 13 24 14 25 15 26
REMARK SMILES IDX 16 27 17 29 18 30 19 31 80 32 20 33 79 34 21 35 22 36 23 37
REMARK SMILES IDX 73 38 24 39 78 40 72 41 74 42 25 43 77 44 71 45 70 46 26 48
REMARK SMILES IDX 58 49 38 50 57 51 39 52 42 53 56 54 75 55 40 56 41 57 55 59
REMARK SMILES IDX 76 60 43 61 27 62 28 63 36 64 29 65 30 66 34 67 37 68 31 69
REMARK SMILES IDX 32 70 35 71 33 72 59 73 60 74 68 75 61 76 62 77 66 78 69 79
REMARK SMILES IDX 63 80 64 81 67 82 65 83 44 84 45 85 53 86 46 87 47 88 51 89
REMARK SMILES IDX 54 90 48 91 49 92 52 93 50 94
REMARK H PARENT 11 5 3 13 85 23 15 28 74 47 42 58
REMARK Flexibility Score: inf
ROOT
ATOM      1  C   UNL A   1      31.780  30.656  26.379  1.00  0.00     0.118 C 
ENDROOT
BRANCH   1   2
ATOM      2  N   UNL A   1      33.071  30.205  26.869  1.00  0.00    -0.352 N 
ATOM      3  C   UNL A   1      33.911  29.170  26.541  1.00  0.00     0.251 C 
ATOM      4  O   UNL A   1      35.010  29.120  27.095  1.00  0.00    -0.269 OA
ATOM      5  H   UNL A   1      33.421  30.766  27.598  1.00  0.00     0.163 HD
BRANCH   3   6
ATOM      6  C   UNL A   1      33.649  28.163  25.496  1.00  0.00     0.041 A 
ATOM      7  C   UNL A   1      33.230  25.249  24.336  1.00  0.00     0.035 A 
ATOM      8  C   UNL A   1      33.419  25.894  22.638  1.00  0.00     0.026 A 
ATOM      9  C   UNL A   1      33.503  26.347  25.772  1.00  0.00     0.039 A 
ATOM     10  C   UNL A   1      33.692  27.680  22.374  1.00  0.00     0.003 A 
ATOM     11  C   UNL A   1      33.738  28.807  23.803  1.00  0.00     0.014 A 
BRANCH   7  12
ATOM     12  N   UNL A   1      32.458  24.088  24.467  1.00  0.00    -0.382 N 
ATOM     13  H   UNL A   1      31.518  24.173  24.750  1.00  0.00     0.160 HD
BRANCH  12  14
ATOM     14  C   UNL A   1      33.007  22.726  24.193  1.00  0.00     0.079 C 
ATOM     15  C   UNL A   1      32.336  22.207  22.907  1.00  0.00     0.031 C 
BRANCH  14  16
ATOM     16  C   UNL A   1      33.016  21.533  25.213  1.00  0.00     0.022 C 
ATOM     17  C   UNL A   1      33.184  21.801  26.699  1.00  0.00     0.067 C 
ATOM     18  C   UNL A   1      33.965  20.405  24.947  1.00  0.00     0.067 C 
ATOM     19  C   UNL A   1      34.647  21.875  27.184  1.00  0.00     0.262 C 
ATOM     20  C   UNL A   1      35.396  20.866  25.144  1.00  0.00     0.262 C 
ATOM     21  N   UNL A   1      35.760  22.123  26.079  1.00  0.00    -0.337 N 
ATOM     22  C   UNL A   1      37.112  23.686  25.789  1.00  0.00     0.332 C 
ATOM     23  H   UNL A   1      36.605  22.689  26.155  1.00  0.00     0.347 HD
ENDBRANCH  14  16
ENDBRANCH  12  14
ENDBRANCH   7  12
ENDBRANCH   3   6
ENDBRANCH   1   2
BRANCH   1  24
ATOM     24  C   UNL A   1      31.493  32.107  26.747  1.00  0.00     0.042 C 
BRANCH  24  25
ATOM     25  C   UNL A   1      32.724  32.831  27.246  1.00  0.00     0.118 C 
BRANCH  25  26
ATOM     26  N   UNL A   1      32.434  34.210  27.612  1.00  0.00    -0.352 N 
ATOM     27  C   UNL A   1      32.998  34.955  28.620  1.00  0.00     0.251 C 
ATOM     28  H   UNL A   1      31.750  34.666  27.071  1.00  0.00     0.163 HD
ATOM     29  O   UNL A   1      32.526  36.048  28.919  1.00  0.00    -0.269 OA
BRANCH  27  30
ATOM     30  C   UNL A   1      34.153  34.413  29.371  1.00  0.00     0.039 A 
ATOM     31  C   UNL A   1      33.921  33.704  30.552  1.00  0.00     0.014 A 
ATOM     32  C   UNL A   1      35.459  34.588  28.906  1.00  0.00     0.014 A 
ATOM     33  C   UNL A   1      34.994  33.128  31.234  1.00  0.00     0.010 A 
ATOM     34  C   UNL A   1      36.512  33.929  29.525  1.00  0.00     0.010 A 
ATOM     35  C   UNL A   1      36.293  33.209  30.707  1.00  0.00    -0.014 A 
BRANCH  35  36
ATOM     36  C   UNL A   1      37.445  32.573  31.389  1.00  0.00     0.031 A 
ATOM     37  C   UNL A   1      38.165  31.429  30.732  1.00  0.00     0.074 A 
ATOM     38  C   UNL A   1      37.798  32.987  32.621  1.00  0.00     0.049 A 
ATOM     39  N   UNL A   1      39.153  30.701  31.184  1.00  0.00    -0.248 NA
ATOM     40  C   UNL A   1      37.686  31.024  29.398  1.00  0.00     0.031 C 
ATOM     41  C   UNL A   1      37.134  34.050  33.377  1.00  0.00     0.029 A 
ATOM     42  N   UNL A   1      38.798  32.561  33.456  1.00  0.00    -0.354 N 
ATOM     43  C   UNL A   1      39.401  29.749  30.203  1.00  0.00     0.074 A 
ATOM     44  C   UNL A   1      38.421  29.947  29.161  1.00  0.00     0.031 C 
ATOM     45  C   UNL A   1      37.763  34.213  34.552  1.00  0.00     0.029 A 
ATOM     46  C   UNL A   1      38.847  33.241  34.649  1.00  0.00     0.049 A 
ATOM     47  H   UNL A   1      39.422  31.835  33.224  1.00  0.00     0.167 HD
ATOM     48  C   UNL A   1      40.380  28.815  30.162  1.00  0.00     0.037 A 
ATOM     49  C   UNL A   1      39.673  33.091  35.700  1.00  0.00     0.037 A 
ATOM     50  C   UNL A   1      41.367  28.645  31.196  1.00  0.00     0.049 A 
ATOM     51  C   UNL A   1      40.752  32.043  35.630  1.00  0.00     0.074 A 
ATOM     52  C   UNL A   1      42.438  27.772  31.231  1.00  0.00     0.029 A 
ATOM     53  N   UNL A   1      41.398  29.366  32.381  1.00  0.00    -0.354 N 
ATOM     54  N   UNL A   1      41.027  31.201  34.665  1.00  0.00    -0.248 NA
ATOM     55  C   UNL A   1      41.641  31.933  36.794  1.00  0.00     0.031 C 
ATOM     56  C   UNL A   1      43.087  27.928  32.460  1.00  0.00     0.029 A 
ATOM     57  C   UNL A   1      42.457  28.941  33.166  1.00  0.00     0.049 A 
ATOM     58  H   UNL A   1      40.761  30.076  32.627  1.00  0.00     0.167 HD
ATOM     59  C   UNL A   1      42.134  30.480  35.089  1.00  0.00     0.074 A 
ATOM     60  C   UNL A   1      42.492  30.999  36.394  1.00  0.00     0.031 C 
ATOM     61  C   UNL A   1      42.796  29.477  34.459  1.00  0.00     0.037 A 
BRANCH  48  62
ATOM     62  C   UNL A   1      40.431  27.912  28.963  1.00  0.00     0.064 A 
ATOM     63  C   UNL A   1      39.738  26.691  28.927  1.00  0.00     0.173 A 
ATOM     64  C   UNL A   1      41.160  28.282  27.822  1.00  0.00     0.173 A 
ATOM     65  F   UNL A   1      39.037  26.282  29.996  1.00  0.00    -0.203 F 
ATOM     66  C   UNL A   1      39.800  25.861  27.811  1.00  0.00     0.198 A 
ATOM     67  C   UNL A   1      41.191  27.465  26.693  1.00  0.00     0.198 A 
ATOM     68  F   UNL A   1      41.837  29.439  27.797  1.00  0.00    -0.203 F 
ATOM     69  F   UNL A   1      39.177  24.674  27.825  1.00  0.00    -0.200 F 
ATOM     70  C   UNL A   1      40.520  26.252  26.693  1.00  0.00     0.200 A 
ATOM     71  F   UNL A   1      41.876  27.851  25.608  1.00  0.00    -0.200 F 
ATOM     72  F   UNL A   1      40.573  25.456  25.615  1.00  0.00    -0.200 F 
ENDBRANCH  48  62
BRANCH  49  73
ATOM     73  C   UNL A   1      39.531  33.970  36.891  1.00  0.00     0.064 A 
ATOM     74  C   UNL A   1      38.781  33.559  38.004  1.00  0.00     0.173 A 
ATOM     75  C   UNL A   1      40.140  35.231  36.947  1.00  0.00     0.173 A 
ATOM     76  F   UNL A   1      38.166  32.367  37.993  1.00  0.00    -0.203 F 
ATOM     77  C   UNL A   1      38.625  34.387  39.113  1.00  0.00     0.198 A 
ATOM     78  C   UNL A   1      40.009  36.046  38.070  1.00  0.00     0.198 A 
ATOM     79  F   UNL A   1      40.874  35.670  35.915  1.00  0.00    -0.203 F 
ATOM     80  F   UNL A   1      37.863  33.989  40.141  1.00  0.00    -0.200 F 
ATOM     81  C   UNL A   1      39.244  35.628  39.148  1.00  0.00     0.200 A 
ATOM     82  F   UNL A   1      40.623  37.236  38.107  1.00  0.00    -0.200 F 
ATOM     83  F   UNL A   1      39.099  36.421  40.218  1.00  0.00    -0.200 F 
ENDBRANCH  49  73
BRANCH  61  84
ATOM     84  C   UNL A   1      43.995  28.903  35.157  1.00  0.00     0.064 A 
ATOM     85  C   UNL A   1      45.279  29.435  34.975  1.00  0.00     0.173 A 
ATOM     86  C   UNL A   1      43.846  27.832  36.052  1.00  0.00     0.173 A 
ATOM     87  F   UNL A   1      45.476  30.450  34.120  1.00  0.00    -0.203 F 
ATOM     88  C   UNL A   1      46.376  28.896  35.641  1.00  0.00     0.198 A 
ATOM     89  C   UNL A   1      44.940  27.319  36.743  1.00  0.00     0.198 A 
ATOM     90  F   UNL A   1      42.637  27.292  36.267  1.00  0.00    -0.203 F 
ATOM     91  F   UNL A   1      47.603  29.386  35.412  1.00  0.00    -0.200 F 
ATOM     92  C   UNL A   1      46.205  27.846  36.530  1.00  0.00     0.200 A 
ATOM     93  F   UNL A   1      44.770  26.315  37.613  1.00  0.00    -0.200 F 
ATOM     94  F   UNL A   1      47.261  27.335  37.178  1.00  0.00    -0.200 F 
ENDBRANCH  61  84
ENDBRANCH  35  36
ENDBRANCH  27  30
ENDBRANCH  25  26
ENDBRANCH  24  25
ENDBRANCH   1  24
TORSDOF 13
ENDMDL
