MODEL 1
REMARK VINA RESULT:     -13.1      0.000      0.000
REMARK SMILES C[NH2+][C@@]1(C(=O)NCCCNC(=O)c2ccc(-c3c4nc(c(-c5c(F)c(F)c(F)c(F)c5F)c5ccc([nH]5)c(-c5c(F)c(F)c(F)c(F)c5F)c5nc(c(-c6c(F)c(F)c(F)c(F)c6F)c6ccc3[nH]6)C=C5)C=C4)cc2)CCC[C@@H](Oc2cc(F)cc(F)c2)C1
REMARK SMILES IDX 8 1 7 2 6 3 4 4 5 5 3 7 76 8 89 9 77 10 79 11 78 12 2 13
REMARK SMILES IDX 1 14 80 17 81 18 82 19 88 20 83 21 86 22 84 23 85 24 87 25
REMARK SMILES IDX 9 26 10 27 11 28 12 30 13 31 14 32 75 33 15 34 74 35 16 36
REMARK SMILES IDX 17 37 18 38 68 39 19 40 73 41 67 42 69 43 20 44 72 45 66 46
REMARK SMILES IDX 65 47 21 49 53 50 33 51 52 52 34 53 37 54 51 55 70 56 35 57
REMARK SMILES IDX 36 58 50 60 71 61 38 62 22 63 23 64 31 65 24 66 25 67 29 68
REMARK SMILES IDX 32 69 26 70 27 71 30 72 28 73 54 74 55 75 63 76 56 77 57 78
REMARK SMILES IDX 61 79 64 80 58 81 59 82 62 83 60 84 39 85 40 86 48 87 41 88
REMARK SMILES IDX 42 89 46 90 49 91 43 92 44 93 47 94 45 95
REMARK H PARENT 6 6 2 15 2 16 10 29 69 48 37 59
REMARK Flexibility Score: inf
ROOT
ATOM      1  C   UNL A   1      31.376  32.356  26.800  1.00  0.00     0.042 C 
ENDROOT
BRANCH   1   2
ATOM      2  C   UNL A   1      31.569  31.018  26.104  1.00  0.00     0.118 C 
BRANCH   2   3
ATOM      3  N   UNL A   1      32.184  30.024  26.949  1.00  0.00    -0.351 N 
ATOM      4  C   UNL A   1      32.776  28.832  26.699  1.00  0.00     0.281 C 
ATOM      5  O   UNL A   1      33.639  28.545  27.546  1.00  0.00    -0.268 OA
ATOM      6  H   UNL A   1      32.173  30.262  27.905  1.00  0.00     0.163 HD
BRANCH   4   7
ATOM      7  C   UNL A   1      32.479  27.844  25.484  1.00  0.00     0.178 C 
ATOM      8  C   UNL A   1      33.532  27.950  24.350  1.00  0.00     0.079 C 
ATOM      9  C   UNL A   1      31.050  27.867  24.911  1.00  0.00     0.124 C 
ATOM     10  C   UNL A   1      33.263  28.920  23.199  1.00  0.00     0.011 C 
ATOM     11  C   UNL A   1      30.783  28.955  23.882  1.00  0.00     0.180 C 
ATOM     12  C   UNL A   1      31.806  29.010  22.744  1.00  0.00     0.046 C 
BRANCH   7  13
ATOM     13  N   UNL A   1      32.717  26.443  26.021  1.00  0.00    -0.336 N 
ATOM     14  C   UNL A   1      33.778  25.664  25.381  1.00  0.00     0.331 C 
ATOM     15  H   UNL A   1      32.949  26.527  27.011  1.00  0.00     0.346 HD
ATOM     16  H   UNL A   1      31.856  25.932  25.827  1.00  0.00     0.346 HD
ENDBRANCH   7  13
BRANCH  11  17
ATOM     17  O   UNL A   1      29.396  29.033  23.501  1.00  0.00    -0.490 OA
BRANCH  17  18
ATOM     18  C   UNL A   1      28.969  30.193  22.931  1.00  0.00     0.125 A 
ATOM     19  C   UNL A   1      28.453  30.125  21.639  1.00  0.00     0.085 A 
ATOM     20  C   UNL A   1      29.153  31.423  23.551  1.00  0.00     0.085 A 
ATOM     21  C   UNL A   1      28.063  31.298  21.001  1.00  0.00     0.129 A 
ATOM     22  C   UNL A   1      28.748  32.581  22.895  1.00  0.00     0.129 A 
ATOM     23  F   UNL A   1      27.558  31.235  19.762  1.00  0.00    -0.207 F 
ATOM     24  C   UNL A   1      28.194  32.531  21.624  1.00  0.00     0.078 A 
ATOM     25  F   UNL A   1      28.909  33.765  23.500  1.00  0.00    -0.207 F 
ENDBRANCH  17  18
ENDBRANCH  11  17
ENDBRANCH   4   7
ENDBRANCH   2   3
ENDBRANCH   1   2
BRANCH   1  26
ATOM     26  C   UNL A   1      32.679  32.977  27.256  1.00  0.00     0.118 C 
BRANCH  26  27
ATOM     27  N   UNL A   1      32.504  34.362  27.682  1.00  0.00    -0.352 N 
ATOM     28  C   UNL A   1      33.050  35.038  28.743  1.00  0.00     0.251 C 
ATOM     29  H   UNL A   1      31.897  34.895  27.119  1.00  0.00     0.163 HD
ATOM     30  O   UNL A   1      32.580  36.126  29.078  1.00  0.00    -0.269 OA
BRANCH  28  31
ATOM     31  C   UNL A   1      34.187  34.464  29.488  1.00  0.00     0.039 A 
ATOM     32  C   UNL A   1      33.955  33.805  30.698  1.00  0.00     0.014 A 
ATOM     33  C   UNL A   1      35.488  34.585  28.999  1.00  0.00     0.014 A 
ATOM     34  C   UNL A   1      35.022  33.218  31.379  1.00  0.00     0.010 A 
ATOM     35  C   UNL A   1      36.522  33.886  29.602  1.00  0.00     0.010 A 
ATOM     36  C   UNL A   1      36.308  33.220  30.815  1.00  0.00    -0.014 A 
BRANCH  36  37
ATOM     37  C   UNL A   1      37.460  32.577  31.492  1.00  0.00     0.031 A 
ATOM     38  C   UNL A   1      38.168  31.429  30.824  1.00  0.00     0.074 A 
ATOM     39  C   UNL A   1      37.817  32.977  32.727  1.00  0.00     0.049 A 
ATOM     40  N   UNL A   1      39.133  30.672  31.280  1.00  0.00    -0.248 NA
ATOM     41  C   UNL A   1      37.703  31.052  29.478  1.00  0.00     0.031 C 
ATOM     42  C   UNL A   1      37.164  34.038  33.497  1.00  0.00     0.029 A 
ATOM     43  N   UNL A   1      38.812  32.530  33.559  1.00  0.00    -0.354 N 
ATOM     44  C   UNL A   1      39.367  29.724  30.291  1.00  0.00     0.074 A 
ATOM     45  C   UNL A   1      38.399  29.952  29.243  1.00  0.00     0.031 C 
ATOM     46  C   UNL A   1      37.798  34.184  34.671  1.00  0.00     0.029 A 
ATOM     47  C   UNL A   1      38.869  33.198  34.757  1.00  0.00     0.049 A 
ATOM     48  H   UNL A   1      39.427  31.799  33.318  1.00  0.00     0.167 HD
ATOM     49  C   UNL A   1      40.327  28.772  30.245  1.00  0.00     0.037 A 
ATOM     50  C   UNL A   1      39.692  33.025  35.809  1.00  0.00     0.037 A 
ATOM     51  C   UNL A   1      41.312  28.580  31.276  1.00  0.00     0.049 A 
ATOM     52  C   UNL A   1      40.755  31.962  35.730  1.00  0.00     0.074 A 
ATOM     53  C   UNL A   1      42.370  27.691  31.303  1.00  0.00     0.029 A 
ATOM     54  N   UNL A   1      41.355  29.296  32.465  1.00  0.00    -0.354 N 
ATOM     55  N   UNL A   1      41.015  31.121  34.758  1.00  0.00    -0.248 NA
ATOM     56  C   UNL A   1      41.642  31.828  36.892  1.00  0.00     0.031 C 
ATOM     57  C   UNL A   1      43.022  27.829  32.532  1.00  0.00     0.029 A 
ATOM     58  C   UNL A   1      42.410  28.850  33.243  1.00  0.00     0.049 A 
ATOM     59  H   UNL A   1      40.730  30.013  32.716  1.00  0.00     0.167 HD
ATOM     60  C   UNL A   1      42.115  30.384  35.175  1.00  0.00     0.074 A 
ATOM     61  C   UNL A   1      42.482  30.888  36.482  1.00  0.00     0.031 C 
ATOM     62  C   UNL A   1      42.764  29.379  34.537  1.00  0.00     0.037 A 
BRANCH  49  63
ATOM     63  C   UNL A   1      40.367  27.876  29.040  1.00  0.00     0.064 A 
ATOM     64  C   UNL A   1      41.135  28.192  27.908  1.00  0.00     0.173 A 
ATOM     65  C   UNL A   1      39.653  26.668  29.028  1.00  0.00     0.173 A 
ATOM     66  F   UNL A   1      41.825  29.341  27.860  1.00  0.00    -0.203 F 
ATOM     67  C   UNL A   1      41.161  27.349  26.800  1.00  0.00     0.198 A 
ATOM     68  C   UNL A   1      39.711  25.810  27.932  1.00  0.00     0.198 A 
ATOM     69  F   UNL A   1      38.904  26.314  30.083  1.00  0.00    -0.203 F 
ATOM     70  F   UNL A   1      41.858  27.702  25.710  1.00  0.00    -0.200 F 
ATOM     71  C   UNL A   1      40.457  26.155  26.817  1.00  0.00     0.200 A 
ATOM     72  F   UNL A   1      39.040  24.649  27.955  1.00  0.00    -0.200 F 
ATOM     73  F   UNL A   1      40.493  25.340  25.753  1.00  0.00    -0.200 F 
ENDBRANCH  49  63
BRANCH  50  74
ATOM     74  C   UNL A   1      39.564  33.894  37.009  1.00  0.00     0.064 A 
ATOM     75  C   UNL A   1      38.800  33.490  38.113  1.00  0.00     0.173 A 
ATOM     76  C   UNL A   1      40.191  35.148  37.076  1.00  0.00     0.173 A 
ATOM     77  F   UNL A   1      38.167  32.308  38.093  1.00  0.00    -0.203 F 
ATOM     78  C   UNL A   1      38.642  34.317  39.224  1.00  0.00     0.198 A 
ATOM     79  C   UNL A   1      40.061  35.959  38.200  1.00  0.00     0.198 A 
ATOM     80  F   UNL A   1      40.941  35.579  36.052  1.00  0.00    -0.203 F 
ATOM     81  F   UNL A   1      37.861  33.929  40.240  1.00  0.00    -0.200 F 
ATOM     82  C   UNL A   1      39.277  35.549  39.269  1.00  0.00     0.200 A 
ATOM     83  F   UNL A   1      40.689  37.141  38.247  1.00  0.00    -0.200 F 
ATOM     84  F   UNL A   1      39.127  36.344  40.337  1.00  0.00    -0.200 F 
ENDBRANCH  50  74
BRANCH  62  85
ATOM     85  C   UNL A   1      43.964  28.791  35.219  1.00  0.00     0.064 A 
ATOM     86  C   UNL A   1      43.855  27.713  36.108  1.00  0.00     0.173 A 
ATOM     87  C   UNL A   1      45.247  29.287  34.941  1.00  0.00     0.173 A 
ATOM     88  F   UNL A   1      42.650  27.211  36.417  1.00  0.00    -0.203 F 
ATOM     89  C   UNL A   1      44.984  27.171  36.717  1.00  0.00     0.198 A 
ATOM     90  C   UNL A   1      46.377  28.719  35.522  1.00  0.00     0.198 A 
ATOM     91  F   UNL A   1      45.408  30.311  34.089  1.00  0.00    -0.203 F 
ATOM     92  F   UNL A   1      44.851  26.175  37.604  1.00  0.00    -0.200 F 
ATOM     93  C   UNL A   1      46.244  27.668  36.417  1.00  0.00     0.200 A 
ATOM     94  F   UNL A   1      47.594  29.189  35.217  1.00  0.00    -0.200 F 
ATOM     95  F   UNL A   1      47.330  27.138  36.995  1.00  0.00    -0.200 F 
ENDBRANCH  62  85
ENDBRANCH  36  37
ENDBRANCH  28  31
ENDBRANCH  26  27
ENDBRANCH   1  26
TORSDOF 13
ENDMDL
MODEL 2
REMARK VINA RESULT:     -13.0      0.125      2.139
REMARK SMILES C[NH2+][C@@]1(C(=O)NCCCNC(=O)c2ccc(-c3c4nc(c(-c5c(F)c(F)c(F)c(F)c5F)c5ccc([nH]5)c(-c5c(F)c(F)c(F)c(F)c5F)c5nc(c(-c6c(F)c(F)c(F)c(F)c6F)c6ccc3[nH]6)C=C5)C=C4)cc2)CCC[C@@H](Oc2cc(F)cc(F)c2)C1
REMARK SMILES IDX 8 1 7 2 6 3 4 4 5 5 3 7 76 8 89 9 77 10 79 11 78 12 2 13
REMARK SMILES IDX 1 14 80 17 81 18 82 19 88 20 83 21 86 22 84 23 85 24 87 25
REMARK SMILES IDX 9 26 10 27 11 28 12 30 13 31 14 32 75 33 15 34 74 35 16 36
REMARK SMILES IDX 17 37 18 38 68 39 19 40 73 41 67 42 69 43 20 44 72 45 66 46
REMARK SMILES IDX 65 47 21 49 53 50 33 51 52 52 34 53 37 54 51 55 70 56 35 57
REMARK SMILES IDX 36 58 50 60 71 61 38 62 22 63 23 64 31 65 24 66 25 67 29 68
REMARK SMILES IDX 32 69 26 70 27 71 30 72 28 73 54 74 55 75 63 76 56 77 57 78
REMARK SMILES IDX 61 79 64 80 58 81 59 82 62 83 60 84 39 85 40 86 48 87 41 88
REMARK SMILES IDX 42 89 46 90 49 91 43 92 44 93 47 94 45 95
REMARK H PARENT 6 6 2 15 2 16 10 29 69 48 37 59
REMARK Flexibility Score: inf
ROOT
ATOM      1  C   UNL A   1      31.393  32.329  26.818  1.00  0.00     0.042 C 
ENDROOT
BRANCH   1   2
ATOM      2  C   UNL A   1      31.596  31.002  26.106  1.00  0.00     0.118 C 
BRANCH   2   3
ATOM      3  N   UNL A   1      32.233  30.007  26.934  1.00  0.00    -0.351 N 
ATOM      4  C   UNL A   1      32.813  28.812  26.668  1.00  0.00     0.281 C 
ATOM      5  O   UNL A   1      33.699  28.524  27.491  1.00  0.00    -0.268 OA
ATOM      6  H   UNL A   1      32.249  30.246  27.889  1.00  0.00     0.163 HD
BRANCH   4   7
ATOM      7  C   UNL A   1      32.479  27.824  25.463  1.00  0.00     0.178 C 
ATOM      8  C   UNL A   1      33.526  27.891  24.322  1.00  0.00     0.079 C 
ATOM      9  C   UNL A   1      31.047  27.884  24.900  1.00  0.00     0.124 C 
ATOM     10  C   UNL A   1      33.278  28.859  23.165  1.00  0.00     0.011 C 
ATOM     11  C   UNL A   1      30.805  28.972  23.864  1.00  0.00     0.180 C 
ATOM     12  C   UNL A   1      31.821  28.988  22.719  1.00  0.00     0.046 C 
BRANCH   7  13
ATOM     13  N   UNL A   1      32.680  26.421  26.009  1.00  0.00    -0.336 N 
ATOM     14  C   UNL A   1      33.797  25.653  25.458  1.00  0.00     0.331 C 
ATOM     15  H   UNL A   1      32.826  26.499  27.016  1.00  0.00     0.346 HD
ATOM     16  H   UNL A   1      31.842  25.906  25.740  1.00  0.00     0.346 HD
ENDBRANCH   7  13
BRANCH  11  17
ATOM     17  O   UNL A   1      29.419  29.087  23.492  1.00  0.00    -0.490 OA
BRANCH  17  18
ATOM     18  C   UNL A   1      29.044  30.207  22.817  1.00  0.00     0.125 A 
ATOM     19  C   UNL A   1      29.165  31.430  23.476  1.00  0.00     0.085 A 
ATOM     20  C   UNL A   1      28.442  30.140  21.566  1.00  0.00     0.085 A 
ATOM     21  C   UNL A   1      28.736  32.589  22.839  1.00  0.00     0.129 A 
ATOM     22  C   UNL A   1      28.028  31.315  20.948  1.00  0.00     0.129 A 
ATOM     23  F   UNL A   1      28.859  33.767  23.467  1.00  0.00    -0.207 F 
ATOM     24  C   UNL A   1      28.177  32.547  21.570  1.00  0.00     0.078 A 
ATOM     25  F   UNL A   1      27.464  31.252  19.735  1.00  0.00    -0.207 F 
ENDBRANCH  17  18
ENDBRANCH  11  17
ENDBRANCH   4   7
ENDBRANCH   2   3
ENDBRANCH   1   2
BRANCH   1  26
ATOM     26  C   UNL A   1      32.694  32.986  27.225  1.00  0.00     0.118 C 
BRANCH  26  27
ATOM     27  N   UNL A   1      32.498  34.367  27.655  1.00  0.00    -0.352 N 
ATOM     28  C   UNL A   1      33.029  35.047  28.720  1.00  0.00     0.251 C 
ATOM     29  H   UNL A   1      31.886  34.893  27.091  1.00  0.00     0.163 HD
ATOM     30  O   UNL A   1      32.543  36.127  29.057  1.00  0.00    -0.269 OA
BRANCH  28  31
ATOM     31  C   UNL A   1      34.171  34.486  29.469  1.00  0.00     0.039 A 
ATOM     32  C   UNL A   1      33.945  33.843  30.689  1.00  0.00     0.014 A 
ATOM     33  C   UNL A   1      35.470  34.606  28.974  1.00  0.00     0.014 A 
ATOM     34  C   UNL A   1      35.016  33.269  31.373  1.00  0.00     0.010 A 
ATOM     35  C   UNL A   1      36.508  33.918  29.583  1.00  0.00     0.010 A 
ATOM     36  C   UNL A   1      36.300  33.268  30.805  1.00  0.00    -0.014 A 
BRANCH  36  37
ATOM     37  C   UNL A   1      37.456  32.637  31.486  1.00  0.00     0.031 A 
ATOM     38  C   UNL A   1      38.181  31.498  30.821  1.00  0.00     0.074 A 
ATOM     39  C   UNL A   1      37.803  33.039  32.724  1.00  0.00     0.049 A 
ATOM     40  N   UNL A   1      39.153  30.751  31.281  1.00  0.00    -0.248 NA
ATOM     41  C   UNL A   1      37.726  31.117  29.472  1.00  0.00     0.031 C 
ATOM     42  C   UNL A   1      37.134  34.092  33.492  1.00  0.00     0.029 A 
ATOM     43  N   UNL A   1      38.800  32.604  33.560  1.00  0.00    -0.354 N 
ATOM     44  C   UNL A   1      39.402  29.808  30.291  1.00  0.00     0.074 A 
ATOM     45  C   UNL A   1      38.436  30.025  29.240  1.00  0.00     0.031 C 
ATOM     46  C   UNL A   1      37.762  34.245  34.669  1.00  0.00     0.029 A 
ATOM     47  C   UNL A   1      38.844  33.271  34.759  1.00  0.00     0.049 A 
ATOM     48  H   UNL A   1      39.424  31.880  33.321  1.00  0.00     0.167 HD
ATOM     49  C   UNL A   1      40.374  28.867  30.249  1.00  0.00     0.037 A 
ATOM     50  C   UNL A   1      39.664  33.107  35.814  1.00  0.00     0.037 A 
ATOM     51  C   UNL A   1      41.356  28.686  31.284  1.00  0.00     0.049 A 
ATOM     52  C   UNL A   1      40.739  32.055  35.739  1.00  0.00     0.074 A 
ATOM     53  C   UNL A   1      42.424  27.809  31.315  1.00  0.00     0.029 A 
ATOM     54  N   UNL A   1      41.386  29.400  32.474  1.00  0.00    -0.354 N 
ATOM     55  N   UNL A   1      41.014  31.219  34.767  1.00  0.00    -0.248 NA
ATOM     56  C   UNL A   1      41.623  31.931  36.905  1.00  0.00     0.031 C 
ATOM     57  C   UNL A   1      43.069  27.953  32.547  1.00  0.00     0.029 A 
ATOM     58  C   UNL A   1      42.442  28.966  33.256  1.00  0.00     0.049 A 
ATOM     59  H   UNL A   1      40.751  30.110  32.722  1.00  0.00     0.167 HD
ATOM     60  C   UNL A   1      42.120  30.494  35.189  1.00  0.00     0.074 A 
ATOM     61  C   UNL A   1      42.476  31.001  36.498  1.00  0.00     0.031 C 
ATOM     62  C   UNL A   1      42.784  29.498  34.552  1.00  0.00     0.037 A 
BRANCH  49  63
ATOM     63  C   UNL A   1      40.429  27.973  29.043  1.00  0.00     0.064 A 
ATOM     64  C   UNL A   1      39.702  26.774  28.976  1.00  0.00     0.173 A 
ATOM     65  C   UNL A   1      41.195  28.335  27.924  1.00  0.00     0.173 A 
ATOM     66  F   UNL A   1      38.966  26.373  30.023  1.00  0.00    -0.203 F 
ATOM     67  C   UNL A   1      39.764  25.958  27.850  1.00  0.00     0.198 A 
ATOM     68  C   UNL A   1      41.225  27.534  26.785  1.00  0.00     0.198 A 
ATOM     69  F   UNL A   1      41.908  29.471  27.930  1.00  0.00    -0.203 F 
ATOM     70  F   UNL A   1      39.105  24.791  27.835  1.00  0.00    -0.200 F 
ATOM     71  C   UNL A   1      40.517  26.343  26.753  1.00  0.00     0.200 A 
ATOM     72  F   UNL A   1      41.943  27.914  25.718  1.00  0.00    -0.200 F 
ATOM     73  F   UNL A   1      40.566  25.561  25.665  1.00  0.00    -0.200 F 
ENDBRANCH  49  63
BRANCH  50  74
ATOM     74  C   UNL A   1      39.520  33.972  37.015  1.00  0.00     0.064 A 
ATOM     75  C   UNL A   1      40.113  35.242  37.063  1.00  0.00     0.173 A 
ATOM     76  C   UNL A   1      38.799  33.548  38.141  1.00  0.00     0.173 A 
ATOM     77  F   UNL A   1      40.828  35.687  36.019  1.00  0.00    -0.203 F 
ATOM     78  C   UNL A   1      40.017  36.041  38.201  1.00  0.00     0.198 A 
ATOM     79  C   UNL A   1      38.674  34.362  39.265  1.00  0.00     0.198 A 
ATOM     80  F   UNL A   1      38.203  32.347  38.144  1.00  0.00    -0.203 F 
ATOM     81  F   UNL A   1      40.641  37.226  38.240  1.00  0.00    -0.200 F 
ATOM     82  C   UNL A   1      39.293  35.603  39.299  1.00  0.00     0.200 A 
ATOM     83  F   UNL A   1      37.959  33.942  40.317  1.00  0.00    -0.200 F 
ATOM     84  F   UNL A   1      39.199  36.372  40.392  1.00  0.00    -0.200 F 
ENDBRANCH  50  74
BRANCH  62  85
ATOM     85  C   UNL A   1      43.988  28.923  35.239  1.00  0.00     0.064 A 
ATOM     86  C   UNL A   1      45.275  29.437  35.029  1.00  0.00     0.173 A 
ATOM     87  C   UNL A   1      43.842  27.871  36.157  1.00  0.00     0.173 A 
ATOM     88  F   UNL A   1      45.469  30.434  34.151  1.00  0.00    -0.203 F 
ATOM     89  C   UNL A   1      46.377  28.901  35.690  1.00  0.00     0.198 A 
ATOM     90  C   UNL A   1      44.940  27.362  36.844  1.00  0.00     0.198 A 
ATOM     91  F   UNL A   1      42.631  27.350  36.402  1.00  0.00    -0.203 F 
ATOM     92  F   UNL A   1      47.604  29.373  35.434  1.00  0.00    -0.200 F 
ATOM     93  C   UNL A   1      46.207  27.870  36.603  1.00  0.00     0.200 A 
ATOM     94  F   UNL A   1      44.771  26.380  37.739  1.00  0.00    -0.200 F 
ATOM     95  F   UNL A   1      47.266  27.363  37.247  1.00  0.00    -0.200 F 
ENDBRANCH  62  85
ENDBRANCH  36  37
ENDBRANCH  28  31
ENDBRANCH  26  27
ENDBRANCH   1  26
TORSDOF 13
ENDMDL
MODEL 3
REMARK VINA RESULT:     -13.0      6.519     12.001
REMARK SMILES C[NH2+][C@@]1(C(=O)NCCCNC(=O)c2ccc(-c3c4nc(c(-c5c(F)c(F)c(F)c(F)c5F)c5ccc([nH]5)c(-c5c(F)c(F)c(F)c(F)c5F)c5nc(c(-c6c(F)c(F)c(F)c(F)c6F)c6ccc3[nH]6)C=C5)C=C4)cc2)CCC[C@@H](Oc2cc(F)cc(F)c2)C1
REMARK SMILES IDX 8 1 7 2 6 3 4 4 5 5 3 7 76 8 89 9 77 10 79 11 78 12 2 13
REMARK SMILES IDX 1 14 80 17 81 18 82 19 88 20 83 21 86 22 84 23 85 24 87 25
REMARK SMILES IDX 9 26 10 27 11 28 12 30 13 31 14 32 75 33 15 34 74 35 16 36
REMARK SMILES IDX 17 37 18 38 68 39 19 40 73 41 67 42 69 43 20 44 72 45 66 46
REMARK SMILES IDX 65 47 21 49 53 50 33 51 52 52 34 53 37 54 51 55 70 56 35 57
REMARK SMILES IDX 36 58 50 60 71 61 38 62 22 63 23 64 31 65 24 66 25 67 29 68
REMARK SMILES IDX 32 69 26 70 27 71 30 72 28 73 54 74 55 75 63 76 56 77 57 78
REMARK SMILES IDX 61 79 64 80 58 81 59 82 62 83 60 84 39 85 40 86 48 87 41 88
REMARK SMILES IDX 42 89 46 90 49 91 43 92 44 93 47 94 45 95
REMARK H PARENT 6 6 2 15 2 16 10 29 69 48 37 59
REMARK Flexibility Score: inf
ROOT
ATOM      1  C   UNL A   1      37.945  19.619  25.031  1.00  0.00     0.042 C 
ENDROOT
BRANCH   1   2
ATOM      2  C   UNL A   1      36.728  20.528  25.092  1.00  0.00     0.118 C 
BRANCH   2   3
ATOM      3  N   UNL A   1      36.671  21.469  24.000  1.00  0.00    -0.351 N 
ATOM      4  C   UNL A   1      36.004  22.634  23.814  1.00  0.00     0.281 C 
ATOM      5  O   UNL A   1      36.603  23.402  23.042  1.00  0.00    -0.268 OA
ATOM      6  H   UNL A   1      37.231  21.212  23.232  1.00  0.00     0.163 HD
BRANCH   4   7
ATOM      7  C   UNL A   1      34.619  23.069  24.471  1.00  0.00     0.178 C 
ATOM      8  C   UNL A   1      34.767  23.522  25.947  1.00  0.00     0.079 C 
ATOM      9  C   UNL A   1      33.444  22.086  24.313  1.00  0.00     0.124 C 
ATOM     10  C   UNL A   1      34.586  22.478  27.048  1.00  0.00     0.011 C 
ATOM     11  C   UNL A   1      33.396  20.965  25.341  1.00  0.00     0.180 C 
ATOM     12  C   UNL A   1      33.493  21.438  26.793  1.00  0.00     0.046 C 
BRANCH   7  13
ATOM     13  N   UNL A   1      34.215  24.356  23.773  1.00  0.00    -0.336 N 
ATOM     14  C   UNL A   1      33.090  24.273  22.840  1.00  0.00     0.331 C 
ATOM     15  H   UNL A   1      33.969  25.034  24.494  1.00  0.00     0.346 HD
ATOM     16  H   UNL A   1      35.018  24.614  23.201  1.00  0.00     0.346 HD
ENDBRANCH   7  13
BRANCH  11  17
ATOM     17  O   UNL A   1      32.378  19.989  25.052  1.00  0.00    -0.490 OA
BRANCH  17  18
ATOM     18  C   UNL A   1      32.778  18.699  24.888  1.00  0.00     0.125 A 
ATOM     19  C   UNL A   1      33.476  18.381  23.725  1.00  0.00     0.085 A 
ATOM     20  C   UNL A   1      32.402  17.698  25.776  1.00  0.00     0.085 A 
ATOM     21  C   UNL A   1      33.848  17.062  23.494  1.00  0.00     0.129 A 
ATOM     22  C   UNL A   1      32.793  16.387  25.527  1.00  0.00     0.129 A 
ATOM     23  F   UNL A   1      34.528  16.755  22.381  1.00  0.00    -0.207 F 
ATOM     24  C   UNL A   1      33.524  16.057  24.394  1.00  0.00     0.078 A 
ATOM     25  F   UNL A   1      32.446  15.425  26.392  1.00  0.00    -0.207 F 
ENDBRANCH  17  18
ENDBRANCH  11  17
ENDBRANCH   4   7
ENDBRANCH   2   3
ENDBRANCH   1   2
BRANCH   1  26
ATOM     26  C   UNL A   1      39.133  20.171  25.790  1.00  0.00     0.118 C 
BRANCH  26  27
ATOM     27  N   UNL A   1      40.189  19.176  25.950  1.00  0.00    -0.352 N 
ATOM     28  C   UNL A   1      41.544  19.336  26.085  1.00  0.00     0.251 C 
ATOM     29  H   UNL A   1      39.879  18.241  25.961  1.00  0.00     0.163 HD
ATOM     30  O   UNL A   1      42.289  18.364  25.952  1.00  0.00    -0.269 OA
BRANCH  28  31
ATOM     31  C   UNL A   1      42.112  20.667  26.378  1.00  0.00     0.039 A 
ATOM     32  C   UNL A   1      42.466  21.511  25.323  1.00  0.00     0.014 A 
ATOM     33  C   UNL A   1      42.309  21.078  27.696  1.00  0.00     0.014 A 
ATOM     34  C   UNL A   1      42.956  22.788  25.597  1.00  0.00     0.010 A 
ATOM     35  C   UNL A   1      42.663  22.390  27.966  1.00  0.00     0.010 A 
ATOM     36  C   UNL A   1      43.021  23.252  26.922  1.00  0.00    -0.014 A 
BRANCH  36  37
ATOM     37  C   UNL A   1      43.504  24.614  27.251  1.00  0.00     0.031 A 
ATOM     38  C   UNL A   1      42.546  25.624  27.825  1.00  0.00     0.074 A 
ATOM     39  C   UNL A   1      44.774  24.960  26.966  1.00  0.00     0.049 A 
ATOM     40  N   UNL A   1      42.740  26.890  28.097  1.00  0.00    -0.248 NA
ATOM     41  C   UNL A   1      41.174  25.161  28.094  1.00  0.00     0.031 C 
ATOM     42  C   UNL A   1      45.773  24.084  26.351  1.00  0.00     0.029 A 
ATOM     43  N   UNL A   1      45.440  26.145  27.146  1.00  0.00    -0.354 N 
ATOM     44  C   UNL A   1      41.514  27.370  28.541  1.00  0.00     0.074 A 
ATOM     45  C   UNL A   1      40.565  26.286  28.435  1.00  0.00     0.031 C 
ATOM     46  C   UNL A   1      46.934  24.750  26.239  1.00  0.00     0.029 A 
ATOM     47  C   UNL A   1      46.748  26.111  26.729  1.00  0.00     0.049 A 
ATOM     48  H   UNL A   1      45.019  26.945  27.538  1.00  0.00     0.167 HD
ATOM     49  C   UNL A   1      41.215  28.597  29.028  1.00  0.00     0.037 A 
ATOM     50  C   UNL A   1      47.687  27.076  26.736  1.00  0.00     0.037 A 
ATOM     51  C   UNL A   1      42.177  29.657  29.166  1.00  0.00     0.049 A 
ATOM     52  C   UNL A   1      47.329  28.431  27.287  1.00  0.00     0.074 A 
ATOM     53  C   UNL A   1      41.999  30.917  29.707  1.00  0.00     0.029 A 
ATOM     54  N   UNL A   1      43.501  29.576  28.758  1.00  0.00    -0.354 N 
ATOM     55  N   UNL A   1      46.187  28.852  27.774  1.00  0.00    -0.248 NA
ATOM     56  C   UNL A   1      48.394  29.442  27.295  1.00  0.00     0.031 C 
ATOM     57  C   UNL A   1      43.202  31.619  29.577  1.00  0.00     0.029 A 
ATOM     58  C   UNL A   1      44.146  30.774  29.014  1.00  0.00     0.049 A 
ATOM     59  H   UNL A   1      43.919  28.784  28.348  1.00  0.00     0.167 HD
ATOM     60  C   UNL A   1      46.404  30.162  28.178  1.00  0.00     0.074 A 
ATOM     61  C   UNL A   1      47.792  30.461  27.893  1.00  0.00     0.031 C 
ATOM     62  C   UNL A   1      45.535  31.042  28.734  1.00  0.00     0.037 A 
BRANCH  49  63
ATOM     63  C   UNL A   1      39.798  28.854  29.455  1.00  0.00     0.064 A 
ATOM     64  C   UNL A   1      39.364  28.604  30.767  1.00  0.00     0.173 A 
ATOM     65  C   UNL A   1      38.867  29.388  28.550  1.00  0.00     0.173 A 
ATOM     66  F   UNL A   1      40.207  28.080  31.668  1.00  0.00    -0.203 F 
ATOM     67  C   UNL A   1      38.047  28.849  31.146  1.00  0.00     0.198 A 
ATOM     68  C   UNL A   1      37.561  29.666  28.944  1.00  0.00     0.198 A 
ATOM     69  F   UNL A   1      39.227  29.648  27.285  1.00  0.00    -0.203 F 
ATOM     70  F   UNL A   1      37.644  28.548  32.389  1.00  0.00    -0.200 F 
ATOM     71  C   UNL A   1      37.150  29.388  30.238  1.00  0.00     0.200 A 
ATOM     72  F   UNL A   1      36.697  30.200  28.068  1.00  0.00    -0.200 F 
ATOM     73  F   UNL A   1      35.885  29.634  30.610  1.00  0.00    -0.200 F 
ENDBRANCH  49  63
BRANCH  50  74
ATOM     74  C   UNL A   1      49.057  26.789  26.234  1.00  0.00     0.064 A 
ATOM     75  C   UNL A   1      49.404  27.047  24.901  1.00  0.00     0.173 A 
ATOM     76  C   UNL A   1      50.043  26.244  27.070  1.00  0.00     0.173 A 
ATOM     77  F   UNL A   1      48.493  27.553  24.057  1.00  0.00    -0.203 F 
ATOM     78  C   UNL A   1      50.675  26.742  24.413  1.00  0.00     0.198 A 
ATOM     79  C   UNL A   1      51.323  25.971  26.591  1.00  0.00     0.198 A 
ATOM     80  F   UNL A   1      49.768  25.987  28.356  1.00  0.00    -0.203 F 
ATOM     81  F   UNL A   1      50.961  26.947  23.121  1.00  0.00    -0.200 F 
ATOM     82  C   UNL A   1      51.635  26.209  25.260  1.00  0.00     0.200 A 
ATOM     83  F   UNL A   1      52.253  25.473  27.416  1.00  0.00    -0.200 F 
ATOM     84  F   UNL A   1      52.856  25.918  24.792  1.00  0.00    -0.200 F 
ENDBRANCH  50  74
BRANCH  62  85
ATOM     85  C   UNL A   1      46.069  32.391  29.114  1.00  0.00     0.064 A 
ATOM     86  C   UNL A   1      46.650  32.630  30.367  1.00  0.00     0.173 A 
ATOM     87  C   UNL A   1      46.038  33.448  28.191  1.00  0.00     0.173 A 
ATOM     88  F   UNL A   1      46.691  31.657  31.289  1.00  0.00    -0.203 F 
ATOM     89  C   UNL A   1      47.156  33.886  30.693  1.00  0.00     0.198 A 
ATOM     90  C   UNL A   1      46.578  34.692  28.506  1.00  0.00     0.198 A 
ATOM     91  F   UNL A   1      45.502  33.269  26.974  1.00  0.00    -0.203 F 
ATOM     92  F   UNL A   1      47.660  34.106  31.915  1.00  0.00    -0.200 F 
ATOM     93  C   UNL A   1      47.128  34.913  29.760  1.00  0.00     0.200 A 
ATOM     94  F   UNL A   1      46.566  35.675  27.598  1.00  0.00    -0.200 F 
ATOM     95  F   UNL A   1      47.624  36.117  30.071  1.00  0.00    -0.200 F 
ENDBRANCH  62  85
ENDBRANCH  36  37
ENDBRANCH  28  31
ENDBRANCH  26  27
ENDBRANCH   1  26
TORSDOF 13
ENDMDL
