MODEL 1
REMARK VINA RESULT:     -14.4      0.000      0.000
REMARK SMILES Cc1ccc(Oc2cc(C(=O)NCCCNC(=O)c3ccc(-c4c5nc(c(-c6c(F)c(F)c(F)c(F)c6F)c6ccc([nH]6)c(-c6c(F)c(F)c(F)c(F)c6F)c6nc(c(-c7c(F)c(F)c(F)c(F)c7F)c7ccc4[nH]7)C=C6)C=C5)cc3)nc3ccccc23)cc1
REMARK SMILES IDX 14 1 13 2 12 3 10 4 11 5 9 7 7 8 8 9 88 10 83 11 87 12 82 13
REMARK SMILES IDX 84 14 86 15 85 16 6 17 5 18 1 19 2 20 3 21 90 22 4 23 89 24
REMARK SMILES IDX 15 25 16 26 17 27 18 29 19 30 20 31 81 32 21 33 80 34 22 35
REMARK SMILES IDX 23 36 24 37 74 38 25 39 79 40 73 41 75 42 26 43 78 44 72 45
REMARK SMILES IDX 71 46 27 48 59 49 39 50 58 51 40 52 43 53 57 54 76 55 41 56
REMARK SMILES IDX 42 57 56 59 77 60 44 61 28 62 29 63 37 64 30 65 31 66 35 67
REMARK SMILES IDX 38 68 32 69 33 70 36 71 34 72 60 73 61 74 69 75 62 76 63 77
REMARK SMILES IDX 67 78 70 79 64 80 65 81 68 82 66 83 45 84 46 85 54 86 47 87
REMARK SMILES IDX 48 88 52 89 55 90 49 91 50 92 53 93 51 94
REMARK H PARENT 12 6 16 28 75 47 43 58
REMARK Flexibility Score: inf
ROOT
ATOM      1  C   UNL A   1      32.403  30.550  26.918  1.00  0.00     0.042 C 
ENDROOT
BRANCH   1   2
ATOM      2  C   UNL A   1      31.996  29.626  25.770  1.00  0.00     0.118 C 
BRANCH   2   3
ATOM      3  N   UNL A   1      32.924  29.689  24.648  1.00  0.00    -0.351 N 
ATOM      4  C   UNL A   1      33.442  28.662  23.881  1.00  0.00     0.270 C 
ATOM      5  O   UNL A   1      34.139  28.962  22.910  1.00  0.00    -0.268 OA
ATOM      6  H   UNL A   1      33.226  30.592  24.401  1.00  0.00     0.163 HD
BRANCH   4   7
ATOM      7  C   UNL A   1      33.174  27.216  24.187  1.00  0.00     0.132 A 
ATOM      8  C   UNL A   1      33.736  24.921  23.971  1.00  0.00     0.139 A 
ATOM      9  C   UNL A   1      34.026  26.251  23.684  1.00  0.00     0.082 A 
ATOM     10  C   UNL A   1      32.654  24.574  24.813  1.00  0.00     0.043 A 
ATOM     11  C   UNL A   1      31.851  25.637  25.263  1.00  0.00     0.075 A 
ATOM     12  C   UNL A   1      32.322  23.255  25.208  1.00  0.00     0.014 A 
ATOM     13  N   UNL A   1      32.101  26.916  24.958  1.00  0.00    -0.242 NA
ATOM     14  C   UNL A   1      30.738  25.359  26.044  1.00  0.00     0.029 A 
ATOM     15  C   UNL A   1      31.192  22.998  25.982  1.00  0.00     0.001 A 
ATOM     16  C   UNL A   1      30.393  24.054  26.397  1.00  0.00     0.002 A 
BRANCH   8  17
ATOM     17  O   UNL A   1      34.586  23.986  23.421  1.00  0.00    -0.457 OA
BRANCH  17  18
ATOM     18  C   UNL A   1      35.629  23.510  24.192  1.00  0.00     0.127 A 
ATOM     19  C   UNL A   1      39.086  21.874  26.179  1.00  0.00     0.044 C 
ATOM     20  C   UNL A   1      37.868  22.435  25.506  1.00  0.00    -0.051 A 
ATOM     21  C   UNL A   1      37.316  21.783  24.398  1.00  0.00     0.007 A 
ATOM     22  C   UNL A   1      37.258  23.601  25.983  1.00  0.00     0.007 A 
ATOM     23  C   UNL A   1      36.205  22.321  23.743  1.00  0.00     0.047 A 
ATOM     24  C   UNL A   1      36.137  24.129  25.338  1.00  0.00     0.047 A 
ENDBRANCH  17  18
ENDBRANCH   8  17
ENDBRANCH   4   7
ENDBRANCH   2   3
ENDBRANCH   1   2
BRANCH   1  25
ATOM     25  C   UNL A   1      33.782  30.227  27.475  1.00  0.00     0.118 C 
BRANCH  25  26
ATOM     26  N   UNL A   1      34.352  31.282  28.308  1.00  0.00    -0.352 N 
ATOM     27  C   UNL A   1      35.525  31.286  29.050  1.00  0.00     0.251 C 
ATOM     28  H   UNL A   1      33.826  32.114  28.350  1.00  0.00     0.163 HD
ATOM     29  O   UNL A   1      35.830  32.244  29.722  1.00  0.00    -0.269 OA
BRANCH  27  30
ATOM     30  C   UNL A   1      36.461  30.141  28.907  1.00  0.00     0.039 A 
ATOM     31  C   UNL A   1      36.677  29.323  30.023  1.00  0.00     0.014 A 
ATOM     32  C   UNL A   1      37.246  30.000  27.768  1.00  0.00     0.014 A 
ATOM     33  C   UNL A   1      37.832  28.544  30.083  1.00  0.00     0.010 A 
ATOM     34  C   UNL A   1      38.439  29.317  27.867  1.00  0.00     0.010 A 
ATOM     35  C   UNL A   1      38.762  28.645  29.052  1.00  0.00    -0.014 A 
BRANCH  35  36
ATOM     36  C   UNL A   1      40.142  28.185  29.158  1.00  0.00     0.031 A 
ATOM     37  C   UNL A   1      40.527  26.845  28.673  1.00  0.00     0.074 A 
ATOM     38  C   UNL A   1      41.086  29.066  29.558  1.00  0.00     0.049 A 
ATOM     39  N   UNL A   1      41.626  26.242  28.977  1.00  0.00    -0.248 NA
ATOM     40  C   UNL A   1      39.654  26.045  27.825  1.00  0.00     0.031 C 
ATOM     41  C   UNL A   1      42.533  28.951  29.393  1.00  0.00     0.029 A 
ATOM     42  N   UNL A   1      40.917  30.192  30.382  1.00  0.00    -0.354 N 
ATOM     43  C   UNL A   1      41.741  25.132  28.167  1.00  0.00     0.074 A 
ATOM     44  C   UNL A   1      40.450  25.014  27.530  1.00  0.00     0.031 C 
ATOM     45  C   UNL A   1      43.134  29.744  30.293  1.00  0.00     0.029 A 
ATOM     46  C   UNL A   1      42.094  30.260  31.166  1.00  0.00     0.049 A 
ATOM     47  H   UNL A   1      40.146  30.804  30.409  1.00  0.00     0.167 HD
ATOM     48  C   UNL A   1      42.963  24.535  28.036  1.00  0.00     0.037 A 
ATOM     49  C   UNL A   1      42.061  30.087  32.519  1.00  0.00     0.037 A 
ATOM     50  C   UNL A   1      43.931  25.125  28.963  1.00  0.00     0.049 A 
ATOM     51  C   UNL A   1      42.913  28.943  33.013  1.00  0.00     0.074 A 
ATOM     52  C   UNL A   1      44.923  26.079  28.803  1.00  0.00     0.029 A 
ATOM     53  N   UNL A   1      43.751  24.971  30.334  1.00  0.00    -0.354 N 
ATOM     54  N   UNL A   1      43.312  27.958  32.259  1.00  0.00    -0.248 NA
ATOM     55  C   UNL A   1      43.348  28.798  34.401  1.00  0.00     0.031 C 
ATOM     56  C   UNL A   1      45.298  26.544  30.089  1.00  0.00     0.029 A 
ATOM     57  C   UNL A   1      44.551  25.858  31.030  1.00  0.00     0.049 A 
ATOM     58  H   UNL A   1      43.140  24.322  30.751  1.00  0.00     0.167 HD
ATOM     59  C   UNL A   1      44.017  27.062  33.016  1.00  0.00     0.074 A 
ATOM     60  C   UNL A   1      44.025  27.637  34.347  1.00  0.00     0.031 C 
ATOM     61  C   UNL A   1      44.523  25.912  32.483  1.00  0.00     0.037 A 
BRANCH  48  62
ATOM     62  C   UNL A   1      43.372  23.635  26.879  1.00  0.00     0.064 A 
ATOM     63  C   UNL A   1      42.962  22.280  26.841  1.00  0.00     0.173 A 
ATOM     64  C   UNL A   1      44.223  24.004  25.821  1.00  0.00     0.173 A 
ATOM     65  F   UNL A   1      42.054  21.799  27.698  1.00  0.00    -0.203 F 
ATOM     66  C   UNL A   1      43.466  21.361  25.914  1.00  0.00     0.198 A 
ATOM     67  C   UNL A   1      44.766  23.077  24.923  1.00  0.00     0.198 A 
ATOM     68  F   UNL A   1      44.510  25.283  25.563  1.00  0.00    -0.203 F 
ATOM     69  F   UNL A   1      43.047  20.088  25.945  1.00  0.00    -0.200 F 
ATOM     70  C   UNL A   1      44.399  21.751  24.978  1.00  0.00     0.200 A 
ATOM     71  F   UNL A   1      45.642  23.488  23.995  1.00  0.00    -0.200 F 
ATOM     72  F   UNL A   1      44.914  20.864  24.117  1.00  0.00    -0.200 F 
ENDBRANCH  48  62
BRANCH  49  73
ATOM     73  C   UNL A   1      40.774  30.513  33.130  1.00  0.00     0.064 A 
ATOM     74  C   UNL A   1      40.522  31.894  33.258  1.00  0.00     0.173 A 
ATOM     75  C   UNL A   1      39.680  29.644  33.212  1.00  0.00     0.173 A 
ATOM     76  F   UNL A   1      41.538  32.769  33.185  1.00  0.00    -0.203 F 
ATOM     77  C   UNL A   1      39.223  32.388  33.335  1.00  0.00     0.198 A 
ATOM     78  C   UNL A   1      38.379  30.145  33.305  1.00  0.00     0.198 A 
ATOM     79  F   UNL A   1      39.853  28.322  33.082  1.00  0.00    -0.203 F 
ATOM     80  F   UNL A   1      39.009  33.712  33.333  1.00  0.00    -0.200 F 
ATOM     81  C   UNL A   1      38.150  31.513  33.329  1.00  0.00     0.200 A 
ATOM     82  F   UNL A   1      37.338  29.301  33.272  1.00  0.00    -0.200 F 
ATOM     83  F   UNL A   1      36.897  31.987  33.301  1.00  0.00    -0.200 F 
ENDBRANCH  49  73
BRANCH  61  84
ATOM     84  C   UNL A   1      45.116  24.770  33.266  1.00  0.00     0.064 A 
ATOM     85  C   UNL A   1      44.427  23.581  33.549  1.00  0.00     0.173 A 
ATOM     86  C   UNL A   1      46.484  24.789  33.627  1.00  0.00     0.173 A 
ATOM     87  F   UNL A   1      43.158  23.403  33.156  1.00  0.00    -0.203 F 
ATOM     88  C   UNL A   1      45.043  22.508  34.198  1.00  0.00     0.198 A 
ATOM     89  C   UNL A   1      47.110  23.697  34.226  1.00  0.00     0.198 A 
ATOM     90  F   UNL A   1      47.257  25.858  33.387  1.00  0.00    -0.203 F 
ATOM     91  F   UNL A   1      44.333  21.406  34.480  1.00  0.00    -0.200 F 
ATOM     92  C   UNL A   1      46.387  22.561  34.525  1.00  0.00     0.200 A 
ATOM     93  F   UNL A   1      48.423  23.745  34.493  1.00  0.00    -0.200 F 
ATOM     94  F   UNL A   1      46.984  21.514  35.107  1.00  0.00    -0.200 F 
ENDBRANCH  61  84
ENDBRANCH  35  36
ENDBRANCH  27  30
ENDBRANCH  25  26
ENDBRANCH   1  25
TORSDOF 12
ENDMDL
MODEL 2
REMARK VINA RESULT:     -14.2      3.736      9.963
REMARK SMILES Cc1ccc(Oc2cc(C(=O)NCCCNC(=O)c3ccc(-c4c5nc(c(-c6c(F)c(F)c(F)c(F)c6F)c6ccc([nH]6)c(-c6c(F)c(F)c(F)c(F)c6F)c6nc(c(-c7c(F)c(F)c(F)c(F)c7F)c7ccc4[nH]7)C=C6)C=C5)cc3)nc3ccccc23)cc1
REMARK SMILES IDX 14 1 13 2 12 3 10 4 11 5 9 7 7 8 8 9 88 10 83 11 87 12 82 13
REMARK SMILES IDX 84 14 86 15 85 16 6 17 5 18 1 19 2 20 3 21 90 22 4 23 89 24
REMARK SMILES IDX 15 25 16 26 17 27 18 29 19 30 20 31 81 32 21 33 80 34 22 35
REMARK SMILES IDX 23 36 24 37 74 38 25 39 79 40 73 41 75 42 26 43 78 44 72 45
REMARK SMILES IDX 71 46 27 48 59 49 39 50 58 51 40 52 43 53 57 54 76 55 41 56
REMARK SMILES IDX 42 57 56 59 77 60 44 61 28 62 29 63 37 64 30 65 31 66 35 67
REMARK SMILES IDX 38 68 32 69 33 70 36 71 34 72 60 73 61 74 69 75 62 76 63 77
REMARK SMILES IDX 67 78 70 79 64 80 65 81 68 82 66 83 45 84 46 85 54 86 47 87
REMARK SMILES IDX 48 88 52 89 55 90 49 91 50 92 53 93 51 94
REMARK H PARENT 12 6 16 28 75 47 43 58
REMARK Flexibility Score: inf
ROOT
ATOM      1  C   UNL A   1      37.914  21.454  25.317  1.00  0.00     0.042 C 
ENDROOT
BRANCH   1   2
ATOM      2  C   UNL A   1      36.414  21.554  25.044  1.00  0.00     0.118 C 
BRANCH   2   3
ATOM      3  N   UNL A   1      35.612  21.319  26.239  1.00  0.00    -0.351 N 
ATOM      4  C   UNL A   1      34.406  21.882  26.610  1.00  0.00     0.270 C 
ATOM      5  O   UNL A   1      33.857  21.454  27.627  1.00  0.00    -0.268 OA
ATOM      6  H   UNL A   1      35.984  20.665  26.873  1.00  0.00     0.163 HD
BRANCH   4   7
ATOM      7  C   UNL A   1      33.751  22.976  25.815  1.00  0.00     0.132 A 
ATOM      8  C   UNL A   1      32.444  24.953  25.710  1.00  0.00     0.139 A 
ATOM      9  C   UNL A   1      33.054  23.968  26.478  1.00  0.00     0.082 A 
ATOM     10  C   UNL A   1      32.600  24.984  24.304  1.00  0.00     0.043 A 
ATOM     11  C   UNL A   1      33.324  23.923  23.736  1.00  0.00     0.075 A 
ATOM     12  C   UNL A   1      32.067  25.980  23.450  1.00  0.00     0.014 A 
ATOM     13  N   UNL A   1      33.881  22.948  24.467  1.00  0.00    -0.242 NA
ATOM     14  C   UNL A   1      33.462  23.861  22.356  1.00  0.00     0.029 A 
ATOM     15  C   UNL A   1      32.207  25.892  22.066  1.00  0.00     0.001 A 
ATOM     16  C   UNL A   1      32.902  24.824  21.516  1.00  0.00     0.002 A 
BRANCH   8  17
ATOM     17  O   UNL A   1      31.726  25.903  26.405  1.00  0.00    -0.457 OA
BRANCH  17  18
ATOM     18  C   UNL A   1      32.293  27.148  26.595  1.00  0.00     0.127 A 
ATOM     19  C   UNL A   1      33.737  31.095  27.548  1.00  0.00     0.044 C 
ATOM     20  C   UNL A   1      33.238  29.727  27.192  1.00  0.00    -0.051 A 
ATOM     21  C   UNL A   1      31.868  29.442  27.251  1.00  0.00     0.007 A 
ATOM     22  C   UNL A   1      34.124  28.725  26.781  1.00  0.00     0.007 A 
ATOM     23  C   UNL A   1      31.401  28.158  26.957  1.00  0.00     0.047 A 
ATOM     24  C   UNL A   1      33.654  27.446  26.471  1.00  0.00     0.047 A 
ENDBRANCH  17  18
ENDBRANCH   8  17
ENDBRANCH   4   7
ENDBRANCH   2   3
ENDBRANCH   1   2
BRANCH   1  25
ATOM     25  C   UNL A   1      38.517  22.769  25.790  1.00  0.00     0.118 C 
BRANCH  25  26
ATOM     26  N   UNL A   1      39.869  22.648  26.325  1.00  0.00    -0.352 N 
ATOM     27  C   UNL A   1      40.686  23.617  26.894  1.00  0.00     0.251 C 
ATOM     28  H   UNL A   1      40.262  21.746  26.275  1.00  0.00     0.163 HD
ATOM     29  O   UNL A   1      41.809  23.348  27.253  1.00  0.00    -0.269 OA
BRANCH  27  30
ATOM     30  C   UNL A   1      40.113  24.961  27.164  1.00  0.00     0.039 A 
ATOM     31  C   UNL A   1      40.562  26.037  26.389  1.00  0.00     0.014 A 
ATOM     32  C   UNL A   1      39.306  25.181  28.275  1.00  0.00     0.014 A 
ATOM     33  C   UNL A   1      40.408  27.335  26.873  1.00  0.00     0.010 A 
ATOM     34  C   UNL A   1      39.248  26.451  28.808  1.00  0.00     0.010 A 
ATOM     35  C   UNL A   1      39.858  27.518  28.139  1.00  0.00    -0.014 A 
BRANCH  35  36
ATOM     36  C   UNL A   1      39.974  28.755  28.902  1.00  0.00     0.031 A 
ATOM     37  C   UNL A   1      38.954  29.815  28.774  1.00  0.00     0.074 A 
ATOM     38  C   UNL A   1      40.940  28.844  29.843  1.00  0.00     0.049 A 
ATOM     39  N   UNL A   1      39.109  31.034  29.168  1.00  0.00    -0.248 NA
ATOM     40  C   UNL A   1      37.668  29.583  28.131  1.00  0.00     0.031 C 
ATOM     41  C   UNL A   1      41.018  29.798  30.946  1.00  0.00     0.029 A 
ATOM     42  N   UNL A   1      42.175  28.174  29.874  1.00  0.00    -0.354 N 
ATOM     43  C   UNL A   1      37.884  31.663  29.097  1.00  0.00     0.074 A 
ATOM     44  C   UNL A   1      37.045  30.739  28.370  1.00  0.00     0.031 C 
ATOM     45  C   UNL A   1      42.293  29.879  31.358  1.00  0.00     0.029 A 
ATOM     46  C   UNL A   1      43.090  29.103  30.424  1.00  0.00     0.049 A 
ATOM     47  H   UNL A   1      42.364  27.254  29.577  1.00  0.00     0.167 HD
ATOM     48  C   UNL A   1      37.701  32.829  29.786  1.00  0.00     0.037 A 
ATOM     49  C   UNL A   1      44.128  29.600  29.691  1.00  0.00     0.037 A 
ATOM     50  C   UNL A   1      38.964  33.294  30.363  1.00  0.00     0.049 A 
ATOM     51  C   UNL A   1      44.118  31.104  29.554  1.00  0.00     0.074 A 
ATOM     52  C   UNL A   1      39.507  33.198  31.635  1.00  0.00     0.029 A 
ATOM     53  N   UNL A   1      39.999  33.690  29.523  1.00  0.00    -0.354 N 
ATOM     54  N   UNL A   1      43.058  31.841  29.731  1.00  0.00    -0.248 NA
ATOM     55  C   UNL A   1      45.288  31.890  29.169  1.00  0.00     0.031 C 
ATOM     56  C   UNL A   1      40.893  33.480  31.543  1.00  0.00     0.029 A 
ATOM     57  C   UNL A   1      41.188  33.769  30.222  1.00  0.00     0.049 A 
ATOM     58  H   UNL A   1      39.898  33.886  28.563  1.00  0.00     0.167 HD
ATOM     59  C   UNL A   1      43.366  33.150  29.480  1.00  0.00     0.074 A 
ATOM     60  C   UNL A   1      44.778  33.134  29.146  1.00  0.00     0.031 C 
ATOM     61  C   UNL A   1      42.427  34.138  29.556  1.00  0.00     0.037 A 
BRANCH  48  62
ATOM     62  C   UNL A   1      36.348  33.394  30.197  1.00  0.00     0.064 A 
ATOM     63  C   UNL A   1      35.477  33.949  29.230  1.00  0.00     0.173 A 
ATOM     64  C   UNL A   1      35.876  33.496  31.519  1.00  0.00     0.173 A 
ATOM     65  F   UNL A   1      35.713  33.822  27.918  1.00  0.00    -0.203 F 
ATOM     66  C   UNL A   1      34.317  34.655  29.570  1.00  0.00     0.198 A 
ATOM     67  C   UNL A   1      34.743  34.243  31.865  1.00  0.00     0.198 A 
ATOM     68  F   UNL A   1      36.443  32.823  32.522  1.00  0.00    -0.203 F 
ATOM     69  F   UNL A   1      33.545  35.170  28.603  1.00  0.00    -0.200 F 
ATOM     70  C   UNL A   1      33.971  34.837  30.891  1.00  0.00     0.200 A 
ATOM     71  F   UNL A   1      34.404  34.373  33.156  1.00  0.00    -0.200 F 
ATOM     72  F   UNL A   1      32.885  35.547  31.221  1.00  0.00    -0.200 F 
ENDBRANCH  48  62
BRANCH  49  73
ATOM     73  C   UNL A   1      44.613  28.656  28.651  1.00  0.00     0.064 A 
ATOM     74  C   UNL A   1      45.389  27.554  29.061  1.00  0.00     0.173 A 
ATOM     75  C   UNL A   1      44.021  28.596  27.384  1.00  0.00     0.173 A 
ATOM     76  F   UNL A   1      45.978  27.562  30.268  1.00  0.00    -0.203 F 
ATOM     77  C   UNL A   1      45.463  26.395  28.293  1.00  0.00     0.198 A 
ATOM     78  C   UNL A   1      44.111  27.437  26.610  1.00  0.00     0.198 A 
ATOM     79  F   UNL A   1      43.258  29.606  26.943  1.00  0.00    -0.203 F 
ATOM     80  F   UNL A   1      46.109  25.319  28.767  1.00  0.00    -0.200 F 
ATOM     81  C   UNL A   1      44.798  26.327  27.081  1.00  0.00     0.200 A 
ATOM     82  F   UNL A   1      43.446  27.359  25.449  1.00  0.00    -0.200 F 
ATOM     83  F   UNL A   1      44.783  25.180  26.387  1.00  0.00    -0.200 F 
ENDBRANCH  49  73
BRANCH  61  84
ATOM     84  C   UNL A   1      42.610  35.559  29.093  1.00  0.00     0.064 A 
ATOM     85  C   UNL A   1      41.981  36.094  27.959  1.00  0.00     0.173 A 
ATOM     86  C   UNL A   1      43.327  36.482  29.892  1.00  0.00     0.173 A 
ATOM     87  F   UNL A   1      41.185  35.342  27.186  1.00  0.00    -0.203 F 
ATOM     88  C   UNL A   1      42.103  37.443  27.615  1.00  0.00     0.198 A 
ATOM     89  C   UNL A   1      43.403  37.837  29.575  1.00  0.00     0.198 A 
ATOM     90  F   UNL A   1      43.951  36.098  31.014  1.00  0.00    -0.203 F 
ATOM     91  F   UNL A   1      41.513  37.900  26.501  1.00  0.00    -0.200 F 
ATOM     92  C   UNL A   1      42.803  38.316  28.429  1.00  0.00     0.200 A 
ATOM     93  F   UNL A   1      44.042  38.679  30.399  1.00  0.00    -0.200 F 
ATOM     94  F   UNL A   1      42.881  39.616  28.119  1.00  0.00    -0.200 F 
ENDBRANCH  61  84
ENDBRANCH  35  36
ENDBRANCH  27  30
ENDBRANCH  25  26
ENDBRANCH   1  25
TORSDOF 12
ENDMDL
MODEL 3
REMARK VINA RESULT:     -14.2      1.455      2.623
REMARK SMILES Cc1ccc(Oc2cc(C(=O)NCCCNC(=O)c3ccc(-c4c5nc(c(-c6c(F)c(F)c(F)c(F)c6F)c6ccc([nH]6)c(-c6c(F)c(F)c(F)c(F)c6F)c6nc(c(-c7c(F)c(F)c(F)c(F)c7F)c7ccc4[nH]7)C=C6)C=C5)cc3)nc3ccccc23)cc1
REMARK SMILES IDX 14 1 13 2 12 3 10 4 11 5 9 7 7 8 8 9 88 10 83 11 87 12 82 13
REMARK SMILES IDX 84 14 86 15 85 16 6 17 5 18 1 19 2 20 3 21 90 22 4 23 89 24
REMARK SMILES IDX 15 25 16 26 17 27 18 29 19 30 20 31 81 32 21 33 80 34 22 35
REMARK SMILES IDX 23 36 24 37 74 38 25 39 79 40 73 41 75 42 26 43 78 44 72 45
REMARK SMILES IDX 71 46 27 48 59 49 39 50 58 51 40 52 43 53 57 54 76 55 41 56
REMARK SMILES IDX 42 57 56 59 77 60 44 61 28 62 29 63 37 64 30 65 31 66 35 67
REMARK SMILES IDX 38 68 32 69 33 70 36 71 34 72 60 73 61 74 69 75 62 76 63 77
REMARK SMILES IDX 67 78 70 79 64 80 65 81 68 82 66 83 45 84 46 85 54 86 47 87
REMARK SMILES IDX 48 88 52 89 55 90 49 91 50 92 53 93 51 94
REMARK H PARENT 12 6 16 28 75 47 43 58
REMARK Flexibility Score: inf
ROOT
ATOM      1  C   UNL A   1      33.638  29.893  26.158  1.00  0.00     0.042 C 
ENDROOT
BRANCH   1   2
ATOM      2  C   UNL A   1      34.028  28.518  25.617  1.00  0.00     0.118 C 
BRANCH   2   3
ATOM      3  N   UNL A   1      34.392  28.557  24.205  1.00  0.00    -0.351 N 
ATOM      4  C   UNL A   1      33.584  28.444  23.089  1.00  0.00     0.270 C 
ATOM      5  O   UNL A   1      34.102  28.609  21.983  1.00  0.00    -0.268 OA
ATOM      6  H   UNL A   1      35.350  28.681  24.021  1.00  0.00     0.163 HD
BRANCH   4   7
ATOM      7  C   UNL A   1      32.116  28.141  23.186  1.00  0.00     0.132 A 
ATOM      8  C   UNL A   1      30.342  26.599  23.510  1.00  0.00     0.139 A 
ATOM      9  C   UNL A   1      31.709  26.846  23.446  1.00  0.00     0.082 A 
ATOM     10  C   UNL A   1      29.403  27.650  23.392  1.00  0.00     0.043 A 
ATOM     11  C   UNL A   1      29.929  28.926  23.123  1.00  0.00     0.075 A 
ATOM     12  C   UNL A   1      27.999  27.502  23.503  1.00  0.00     0.014 A 
ATOM     13  N   UNL A   1      31.243  29.164  23.021  1.00  0.00    -0.242 NA
ATOM     14  C   UNL A   1      29.059  29.990  22.937  1.00  0.00     0.029 A 
ATOM     15  C   UNL A   1      27.142  28.582  23.299  1.00  0.00     0.001 A 
ATOM     16  C   UNL A   1      27.674  29.830  23.009  1.00  0.00     0.002 A 
BRANCH   8  17
ATOM     17  O   UNL A   1      29.976  25.289  23.732  1.00  0.00    -0.457 OA
BRANCH  17  18
ATOM     18  C   UNL A   1      30.664  24.566  24.687  1.00  0.00     0.127 A 
ATOM     19  C   UNL A   1      33.126  22.193  27.310  1.00  0.00     0.044 C 
ATOM     20  C   UNL A   1      32.248  23.010  26.409  1.00  0.00    -0.051 A 
ATOM     21  C   UNL A   1      32.033  22.607  25.086  1.00  0.00     0.007 A 
ATOM     22  C   UNL A   1      31.622  24.170  26.877  1.00  0.00     0.007 A 
ATOM     23  C   UNL A   1      31.248  23.383  24.230  1.00  0.00     0.047 A 
ATOM     24  C   UNL A   1      30.823  24.937  26.026  1.00  0.00     0.047 A 
ENDBRANCH  17  18
ENDBRANCH   8  17
ENDBRANCH   4   7
ENDBRANCH   2   3
ENDBRANCH   1   2
BRANCH   1  25
ATOM     25  C   UNL A   1      33.578  29.934  27.678  1.00  0.00     0.118 C 
BRANCH  25  26
ATOM     26  N   UNL A   1      34.224  31.102  28.270  1.00  0.00    -0.352 N 
ATOM     27  C   UNL A   1      35.480  31.219  28.851  1.00  0.00     0.251 C 
ATOM     28  H   UNL A   1      33.689  31.929  28.256  1.00  0.00     0.163 HD
ATOM     29  O   UNL A   1      35.844  32.267  29.333  1.00  0.00    -0.269 OA
BRANCH  27  30
ATOM     30  C   UNL A   1      36.415  30.068  28.760  1.00  0.00     0.039 A 
ATOM     31  C   UNL A   1      36.664  29.329  29.924  1.00  0.00     0.014 A 
ATOM     32  C   UNL A   1      37.169  29.851  27.613  1.00  0.00     0.014 A 
ATOM     33  C   UNL A   1      37.822  28.557  30.004  1.00  0.00     0.010 A 
ATOM     34  C   UNL A   1      38.367  29.179  27.726  1.00  0.00     0.010 A 
ATOM     35  C   UNL A   1      38.724  28.589  28.944  1.00  0.00    -0.014 A 
BRANCH  35  36
ATOM     36  C   UNL A   1      40.107  28.139  29.044  1.00  0.00     0.031 A 
ATOM     37  C   UNL A   1      40.501  26.804  28.551  1.00  0.00     0.074 A 
ATOM     38  C   UNL A   1      41.046  29.025  29.444  1.00  0.00     0.049 A 
ATOM     39  N   UNL A   1      41.606  26.208  28.848  1.00  0.00    -0.248 NA
ATOM     40  C   UNL A   1      39.631  26.001  27.703  1.00  0.00     0.031 C 
ATOM     41  C   UNL A   1      42.493  28.923  29.274  1.00  0.00     0.029 A 
ATOM     42  N   UNL A   1      40.871  30.146  30.274  1.00  0.00    -0.354 N 
ATOM     43  C   UNL A   1      41.727  25.103  28.034  1.00  0.00     0.074 A 
ATOM     44  C   UNL A   1      40.434  24.978  27.401  1.00  0.00     0.031 C 
ATOM     45  C   UNL A   1      43.092  29.716  30.176  1.00  0.00     0.029 A 
ATOM     46  C   UNL A   1      42.050  30.220  31.054  1.00  0.00     0.049 A 
ATOM     47  H   UNL A   1      40.096  30.752  30.306  1.00  0.00     0.167 HD
ATOM     48  C   UNL A   1      42.953  24.516  27.896  1.00  0.00     0.037 A 
ATOM     49  C   UNL A   1      42.022  30.041  32.407  1.00  0.00     0.037 A 
ATOM     50  C   UNL A   1      43.919  25.110  28.823  1.00  0.00     0.049 A 
ATOM     51  C   UNL A   1      42.885  28.902  32.893  1.00  0.00     0.074 A 
ATOM     52  C   UNL A   1      44.904  26.072  28.663  1.00  0.00     0.029 A 
ATOM     53  N   UNL A   1      43.745  24.948  30.193  1.00  0.00    -0.354 N 
ATOM     54  N   UNL A   1      43.289  27.923  32.133  1.00  0.00    -0.248 NA
ATOM     55  C   UNL A   1      43.326  28.753  34.278  1.00  0.00     0.031 C 
ATOM     56  C   UNL A   1      45.279  26.534  29.950  1.00  0.00     0.029 A 
ATOM     57  C   UNL A   1      44.540  25.838  30.890  1.00  0.00     0.049 A 
ATOM     58  H   UNL A   1      43.140  24.292  30.609  1.00  0.00     0.167 HD
ATOM     59  C   UNL A   1      44.004  27.029  32.883  1.00  0.00     0.074 A 
ATOM     60  C   UNL A   1      44.012  27.598  34.217  1.00  0.00     0.031 C 
ATOM     61  C   UNL A   1      44.517  25.885  32.344  1.00  0.00     0.037 A 
BRANCH  48  62
ATOM     62  C   UNL A   1      43.365  23.624  26.733  1.00  0.00     0.064 A 
ATOM     63  C   UNL A   1      42.938  22.276  26.674  1.00  0.00     0.173 A 
ATOM     64  C   UNL A   1      44.234  23.995  25.691  1.00  0.00     0.173 A 
ATOM     65  F   UNL A   1      42.012  21.796  27.514  1.00  0.00    -0.203 F 
ATOM     66  C   UNL A   1      43.442  21.361  25.743  1.00  0.00     0.198 A 
ATOM     67  C   UNL A   1      44.776  23.071  24.789  1.00  0.00     0.198 A 
ATOM     68  F   UNL A   1      44.541  25.272  25.452  1.00  0.00    -0.203 F 
ATOM     69  F   UNL A   1      43.006  20.093  25.753  1.00  0.00    -0.200 F 
ATOM     70  C   UNL A   1      44.392  21.749  24.824  1.00  0.00     0.200 A 
ATOM     71  F   UNL A   1      45.670  23.482  23.877  1.00  0.00    -0.200 F 
ATOM     72  F   UNL A   1      44.906  20.866  23.958  1.00  0.00    -0.200 F 
ENDBRANCH  48  62
BRANCH  49  73
ATOM     73  C   UNL A   1      40.735  30.454  33.024  1.00  0.00     0.064 A 
ATOM     74  C   UNL A   1      40.452  31.832  33.115  1.00  0.00     0.173 A 
ATOM     75  C   UNL A   1      39.663  29.563  33.147  1.00  0.00     0.173 A 
ATOM     76  F   UNL A   1      41.445  32.728  33.002  1.00  0.00    -0.203 F 
ATOM     77  C   UNL A   1      39.142  32.297  33.196  1.00  0.00     0.198 A 
ATOM     78  C   UNL A   1      38.352  30.035  33.245  1.00  0.00     0.198 A 
ATOM     79  F   UNL A   1      39.866  28.241  33.053  1.00  0.00    -0.203 F 
ATOM     80  F   UNL A   1      38.897  33.615  33.159  1.00  0.00    -0.200 F 
ATOM     81  C   UNL A   1      38.090  31.397  33.232  1.00  0.00     0.200 A 
ATOM     82  F   UNL A   1      37.331  29.166  33.251  1.00  0.00    -0.200 F 
ATOM     83  F   UNL A   1      36.826  31.841  33.208  1.00  0.00    -0.200 F 
ENDBRANCH  49  73
BRANCH  61  84
ATOM     84  C   UNL A   1      45.122  24.744  33.119  1.00  0.00     0.064 A 
ATOM     85  C   UNL A   1      46.442  24.743  33.596  1.00  0.00     0.173 A 
ATOM     86  C   UNL A   1      44.315  23.662  33.542  1.00  0.00     0.173 A 
ATOM     87  F   UNL A   1      47.269  25.770  33.354  1.00  0.00    -0.203 F 
ATOM     88  C   UNL A   1      46.938  23.707  34.390  1.00  0.00     0.198 A 
ATOM     89  C   UNL A   1      44.797  22.657  34.379  1.00  0.00     0.198 A 
ATOM     90  F   UNL A   1      43.029  23.563  33.174  1.00  0.00    -0.203 F 
ATOM     91  F   UNL A   1      48.217  23.732  34.791  1.00  0.00    -0.200 F 
ATOM     92  C   UNL A   1      46.113  22.671  34.792  1.00  0.00     0.200 A 
ATOM     93  F   UNL A   1      43.973  21.687  34.799  1.00  0.00    -0.200 F 
ATOM     94  F   UNL A   1      46.581  21.703  35.590  1.00  0.00    -0.200 F 
ENDBRANCH  61  84
ENDBRANCH  35  36
ENDBRANCH  27  30
ENDBRANCH  25  26
ENDBRANCH   1  25
TORSDOF 12
ENDMDL
