MODEL 1
REMARK VINA RESULT:     -13.6      0.000      0.000
REMARK SMILES COc1ccc(Cl)c2c1N[C@@H](c1ccc(C(=O)NCCCNC(=O)c3ccc(-c4c5nc(c(-c6c(F)c(F)c(F)c(F)c6F)c6ccc([nH]6)c(-c6c(F)c(F)c(F)c(F)c6F)c6nc(c(-c7c(F)c(F)c(F)c(F)c7F)c7ccc4[nH]7)C=C6)C=C5)cc3)cc1)[C@@H]1CC=C[C@H]21
REMARK SMILES IDX 20 1 19 2 18 3 16 4 17 5 15 7 12 8 13 9 89 10 14 11 88 12
REMARK SMILES IDX 11 13 3 14 4 15 9 16 5 17 8 18 10 19 6 20 94 21 7 23 90 24
REMARK SMILES IDX 93 25 91 26 92 27 2 28 1 29 21 30 22 31 23 32 24 34 25 35
REMARK SMILES IDX 26 36 87 37 27 38 86 39 28 40 29 41 30 42 80 43 31 44 85 45
REMARK SMILES IDX 79 46 81 47 32 48 84 49 78 50 77 51 33 53 65 54 45 55 64 56
REMARK SMILES IDX 46 57 49 58 63 59 82 60 47 61 48 62 62 64 83 65 50 66 34 67
REMARK SMILES IDX 35 68 43 69 36 70 37 71 41 72 44 73 38 74 39 75 42 76 40 77
REMARK SMILES IDX 66 78 67 79 75 80 68 81 69 82 73 83 76 84 70 85 71 86 74 87
REMARK SMILES IDX 72 88 51 89 52 90 60 91 53 92 54 93 58 94 61 95 55 96 56 97
REMARK SMILES IDX 59 98 57 99
REMARK H PARENT 18 6 10 22 22 33 81 52 49 63
REMARK Flexibility Score: inf
ROOT
ATOM      1  C   UNL A   1      31.546  31.840  26.507  1.00  0.00     0.042 C 
ENDROOT
BRANCH   1   2
ATOM      2  C   UNL A   1      31.766  30.404  26.036  1.00  0.00     0.118 C 
BRANCH   2   3
ATOM      3  N   UNL A   1      31.177  30.199  24.727  1.00  0.00    -0.352 N 
ATOM      4  C   UNL A   1      31.145  29.108  23.897  1.00  0.00     0.251 C 
ATOM      5  O   UNL A   1      30.542  29.222  22.830  1.00  0.00    -0.269 OA
ATOM      6  H   UNL A   1      30.712  30.990  24.368  1.00  0.00     0.163 HD
BRANCH   4   7
ATOM      7  C   UNL A   1      31.746  27.796  24.257  1.00  0.00     0.039 A 
ATOM      8  C   UNL A   1      32.967  25.279  24.732  1.00  0.00    -0.025 A 
ATOM      9  C   UNL A   1      33.477  26.159  23.764  1.00  0.00     0.006 A 
ATOM     10  C   UNL A   1      31.873  25.712  25.495  1.00  0.00     0.006 A 
ATOM     11  C   UNL A   1      32.889  27.408  23.548  1.00  0.00     0.014 A 
ATOM     12  C   UNL A   1      31.269  26.951  25.259  1.00  0.00     0.014 A 
BRANCH   8  13
ATOM     13  C   UNL A   1      33.554  23.896  24.995  1.00  0.00     0.114 C 
ATOM     14  C   UNL A   1      37.122  22.862  25.297  1.00  0.00     0.142 A 
ATOM     15  C   UNL A   1      37.908  21.714  25.381  1.00  0.00     0.050 A 
ATOM     16  C   UNL A   1      35.748  22.783  24.990  1.00  0.00     0.083 A 
ATOM     17  C   UNL A   1      37.323  20.466  25.193  1.00  0.00     0.025 A 
ATOM     18  C   UNL A   1      35.152  21.520  24.801  1.00  0.00     0.005 A 
ATOM     19  N   UNL A   1      34.997  23.938  24.856  1.00  0.00    -0.375 N 
ATOM     20  C   UNL A   1      35.959  20.368  24.902  1.00  0.00     0.047 A 
ATOM     21  C   UNL A   1      33.697  21.438  24.399  1.00  0.00     0.051 C 
ATOM     22  H   UNL A   1      35.445  24.794  24.664  1.00  0.00     0.161 HD
ATOM     23  Cl  UNL A   1      35.332  18.777  24.626  1.00  0.00    -0.084 Cl
ATOM     24  C   UNL A   1      33.007  22.789  24.065  1.00  0.00     0.031 C 
ATOM     25  C   UNL A   1      32.768  20.892  25.458  1.00  0.00    -0.023 C 
ATOM     26  C   UNL A   1      31.516  22.468  24.279  1.00  0.00     0.034 C 
ATOM     27  C   UNL A   1      31.557  21.456  25.379  1.00  0.00    -0.030 C 
BRANCH  14  28
ATOM     28  O   UNL A   1      37.778  24.063  25.431  1.00  0.00    -0.495 OA
ATOM     29  C   UNL A   1      38.448  24.186  26.686  1.00  0.00     0.278 C 
ENDBRANCH  14  28
ENDBRANCH   8  13
ENDBRANCH   4   7
ENDBRANCH   2   3
ENDBRANCH   1   2
BRANCH   1  30
ATOM     30  C   UNL A   1      32.501  32.251  27.622  1.00  0.00     0.118 C 
BRANCH  30  31
ATOM     31  N   UNL A   1      32.974  33.615  27.443  1.00  0.00    -0.352 N 
ATOM     32  C   UNL A   1      34.068  34.231  27.994  1.00  0.00     0.251 C 
ATOM     33  H   UNL A   1      32.432  34.175  26.841  1.00  0.00     0.163 HD
ATOM     34  O   UNL A   1      34.172  35.452  27.964  1.00  0.00    -0.269 OA
BRANCH  32  35
ATOM     35  C   UNL A   1      35.127  33.414  28.618  1.00  0.00     0.039 A 
ATOM     36  C   UNL A   1      34.774  32.257  29.317  1.00  0.00     0.014 A 
ATOM     37  C   UNL A   1      36.463  33.825  28.552  1.00  0.00     0.014 A 
ATOM     38  C   UNL A   1      35.767  31.489  29.926  1.00  0.00     0.010 A 
ATOM     39  C   UNL A   1      37.457  33.027  29.105  1.00  0.00     0.010 A 
ATOM     40  C   UNL A   1      37.114  31.867  29.814  1.00  0.00    -0.014 A 
BRANCH  40  41
ATOM     41  C   UNL A   1      38.186  31.106  30.492  1.00  0.00     0.031 A 
ATOM     42  C   UNL A   1      38.477  31.380  31.940  1.00  0.00     0.074 A 
ATOM     43  C   UNL A   1      38.926  30.222  29.798  1.00  0.00     0.049 A 
ATOM     44  N   UNL A   1      39.424  30.897  32.701  1.00  0.00    -0.248 NA
ATOM     45  C   UNL A   1      37.593  32.344  32.617  1.00  0.00     0.031 C 
ATOM     46  C   UNL A   1      38.737  29.889  28.387  1.00  0.00     0.029 A 
ATOM     47  N   UNL A   1      39.991  29.451  30.186  1.00  0.00    -0.354 N 
ATOM     48  C   UNL A   1      39.250  31.495  33.941  1.00  0.00     0.074 A 
ATOM     49  C   UNL A   1      38.147  32.422  33.817  1.00  0.00     0.031 C 
ATOM     50  C   UNL A   1      39.649  28.971  28.029  1.00  0.00     0.029 A 
ATOM     51  C   UNL A   1      40.506  28.678  29.175  1.00  0.00     0.049 A 
ATOM     52  H   UNL A   1      40.352  29.452  31.102  1.00  0.00     0.167 HD
ATOM     53  C   UNL A   1      39.934  31.269  35.087  1.00  0.00     0.037 A 
ATOM     54  C   UNL A   1      41.557  27.837  29.177  1.00  0.00     0.037 A 
ATOM     55  C   UNL A   1      41.026  30.340  35.201  1.00  0.00     0.049 A 
ATOM     56  C   UNL A   1      42.334  27.642  30.453  1.00  0.00     0.074 A 
ATOM     57  C   UNL A   1      41.773  30.020  36.320  1.00  0.00     0.029 A 
ATOM     58  N   UNL A   1      41.528  29.581  34.152  1.00  0.00    -0.354 N 
ATOM     59  N   UNL A   1      42.141  28.183  31.632  1.00  0.00    -0.248 NA
ATOM     60  C   UNL A   1      43.473  26.715  30.398  1.00  0.00     0.031 C 
ATOM     61  C   UNL A   1      42.757  29.102  35.940  1.00  0.00     0.029 A 
ATOM     62  C   UNL A   1      42.588  28.807  34.596  1.00  0.00     0.049 A 
ATOM     63  H   UNL A   1      41.183  29.591  33.231  1.00  0.00     0.167 HD
ATOM     64  C   UNL A   1      43.109  27.642  32.465  1.00  0.00     0.074 A 
ATOM     65  C   UNL A   1      43.881  26.718  31.660  1.00  0.00     0.031 C 
ATOM     66  C   UNL A   1      43.339  27.887  33.779  1.00  0.00     0.037 A 
BRANCH  53  67
ATOM     67  C   UNL A   1      39.513  32.028  36.311  1.00  0.00     0.064 A 
ATOM     68  C   UNL A   1      40.151  33.220  36.688  1.00  0.00     0.173 A 
ATOM     69  C   UNL A   1      38.427  31.594  37.085  1.00  0.00     0.173 A 
ATOM     70  F   UNL A   1      41.206  33.670  35.990  1.00  0.00    -0.203 F 
ATOM     71  C   UNL A   1      39.730  33.937  37.803  1.00  0.00     0.198 A 
ATOM     72  C   UNL A   1      37.989  32.331  38.182  1.00  0.00     0.198 A 
ATOM     73  F   UNL A   1      37.779  30.461  36.769  1.00  0.00    -0.203 F 
ATOM     74  F   UNL A   1      40.382  35.051  38.167  1.00  0.00    -0.200 F 
ATOM     75  C   UNL A   1      38.643  33.499  38.544  1.00  0.00     0.200 A 
ATOM     76  F   UNL A   1      36.929  31.912  38.888  1.00  0.00    -0.200 F 
ATOM     77  F   UNL A   1      38.228  34.199  39.607  1.00  0.00    -0.200 F 
ENDBRANCH  53  67
BRANCH  54  78
ATOM     78  C   UNL A   1      41.908  27.089  27.943  1.00  0.00     0.064 A 
ATOM     79  C   UNL A   1      42.595  27.718  26.895  1.00  0.00     0.173 A 
ATOM     80  C   UNL A   1      41.583  25.734  27.787  1.00  0.00     0.173 A 
ATOM     81  F   UNL A   1      42.911  29.018  26.989  1.00  0.00    -0.203 F 
ATOM     82  C   UNL A   1      42.932  27.025  25.735  1.00  0.00     0.198 A 
ATOM     83  C   UNL A   1      41.946  25.033  26.639  1.00  0.00     0.198 A 
ATOM     84  F   UNL A   1      40.930  25.082  28.762  1.00  0.00    -0.203 F 
ATOM     85  F   UNL A   1      43.557  27.662  24.735  1.00  0.00    -0.200 F 
ATOM     86  C   UNL A   1      42.614  25.681  25.611  1.00  0.00     0.200 A 
ATOM     87  F   UNL A   1      41.651  23.731  26.529  1.00  0.00    -0.200 F 
ATOM     88  F   UNL A   1      42.949  25.012  24.499  1.00  0.00    -0.200 F 
ENDBRANCH  54  78
BRANCH  66  89
ATOM     89  C   UNL A   1      44.453  27.127  34.441  1.00  0.00     0.064 A 
ATOM     90  C   UNL A   1      45.742  27.665  34.562  1.00  0.00     0.173 A 
ATOM     91  C   UNL A   1      44.209  25.870  35.016  1.00  0.00     0.173 A 
ATOM     92  F   UNL A   1      46.029  28.859  34.018  1.00  0.00    -0.203 F 
ATOM     93  C   UNL A   1      46.752  26.963  35.214  1.00  0.00     0.198 A 
ATOM     94  C   UNL A   1      45.212  25.186  35.697  1.00  0.00     0.198 A 
ATOM     95  F   UNL A   1      42.990  25.314  34.938  1.00  0.00    -0.203 F 
ATOM     96  F   UNL A   1      47.988  27.478  35.277  1.00  0.00    -0.200 F 
ATOM     97  C   UNL A   1      46.484  25.730  35.789  1.00  0.00     0.200 A 
ATOM     98  F   UNL A   1      44.947  24.004  36.268  1.00  0.00    -0.200 F 
ATOM     99  F   UNL A   1      47.454  25.062  36.428  1.00  0.00    -0.200 F 
ENDBRANCH  66  89
ENDBRANCH  40  41
ENDBRANCH  32  35
ENDBRANCH  30  31
ENDBRANCH   1  30
TORSDOF 12
ENDMDL
MODEL 2
REMARK VINA RESULT:     -13.6      4.574     10.506
REMARK SMILES COc1ccc(Cl)c2c1N[C@@H](c1ccc(C(=O)NCCCNC(=O)c3ccc(-c4c5nc(c(-c6c(F)c(F)c(F)c(F)c6F)c6ccc([nH]6)c(-c6c(F)c(F)c(F)c(F)c6F)c6nc(c(-c7c(F)c(F)c(F)c(F)c7F)c7ccc4[nH]7)C=C6)C=C5)cc3)cc1)[C@@H]1CC=C[C@H]21
REMARK SMILES IDX 20 1 19 2 18 3 16 4 17 5 15 7 12 8 13 9 89 10 14 11 88 12
REMARK SMILES IDX 11 13 3 14 4 15 9 16 5 17 8 18 10 19 6 20 94 21 7 23 90 24
REMARK SMILES IDX 93 25 91 26 92 27 2 28 1 29 21 30 22 31 23 32 24 34 25 35
REMARK SMILES IDX 26 36 87 37 27 38 86 39 28 40 29 41 30 42 80 43 31 44 85 45
REMARK SMILES IDX 79 46 81 47 32 48 84 49 78 50 77 51 33 53 65 54 45 55 64 56
REMARK SMILES IDX 46 57 49 58 63 59 82 60 47 61 48 62 62 64 83 65 50 66 34 67
REMARK SMILES IDX 35 68 43 69 36 70 37 71 41 72 44 73 38 74 39 75 42 76 40 77
REMARK SMILES IDX 66 78 67 79 75 80 68 81 69 82 73 83 76 84 70 85 71 86 74 87
REMARK SMILES IDX 72 88 51 89 52 90 60 91 53 92 54 93 58 94 61 95 55 96 56 97
REMARK SMILES IDX 59 98 57 99
REMARK H PARENT 18 6 10 22 22 33 81 52 49 63
REMARK Flexibility Score: inf
ROOT
ATOM      1  C   UNL A   1      37.574  20.553  24.926  1.00  0.00     0.042 C 
ENDROOT
BRANCH   1   2
ATOM      2  C   UNL A   1      36.377  21.191  25.628  1.00  0.00     0.118 C 
BRANCH   2   3
ATOM      3  N   UNL A   1      35.136  20.782  24.999  1.00  0.00    -0.352 N 
ATOM      4  C   UNL A   1      34.018  21.486  24.633  1.00  0.00     0.251 C 
ATOM      5  O   UNL A   1      33.106  20.864  24.089  1.00  0.00    -0.269 OA
ATOM      6  H   UNL A   1      35.088  19.819  24.796  1.00  0.00     0.163 HD
BRANCH   4   7
ATOM      7  C   UNL A   1      33.894  22.958  24.807  1.00  0.00     0.039 A 
ATOM      8  C   UNL A   1      33.476  25.726  25.270  1.00  0.00    -0.025 A 
ATOM      9  C   UNL A   1      33.091  24.768  26.222  1.00  0.00     0.006 A 
ATOM     10  C   UNL A   1      34.127  25.272  24.114  1.00  0.00     0.006 A 
ATOM     11  C   UNL A   1      33.319  23.406  26.002  1.00  0.00     0.014 A 
ATOM     12  C   UNL A   1      34.330  23.908  23.884  1.00  0.00     0.014 A 
BRANCH   8  13
ATOM     13  C   UNL A   1      33.232  27.222  25.446  1.00  0.00     0.114 C 
ATOM     14  C   UNL A   1      35.091  29.690  27.531  1.00  0.00     0.142 A 
ATOM     15  C   UNL A   1      35.004  31.009  27.972  1.00  0.00     0.050 A 
ATOM     16  C   UNL A   1      34.010  29.071  26.870  1.00  0.00     0.083 A 
ATOM     17  C   UNL A   1      33.846  31.740  27.730  1.00  0.00     0.025 A 
ATOM     18  C   UNL A   1      32.835  29.809  26.621  1.00  0.00     0.005 A 
ATOM     19  N   UNL A   1      34.094  27.743  26.489  1.00  0.00    -0.375 N 
ATOM     20  C   UNL A   1      32.770  31.147  27.063  1.00  0.00     0.047 A 
ATOM     21  C   UNL A   1      31.649  29.126  25.980  1.00  0.00     0.051 C 
ATOM     22  H   UNL A   1      34.742  27.147  26.930  1.00  0.00     0.161 HD
ATOM     23  Cl  UNL A   1      31.349  32.116  26.858  1.00  0.00    -0.084 Cl
ATOM     24  C   UNL A   1      31.771  27.589  25.792  1.00  0.00     0.031 C 
ATOM     25  C   UNL A   1      31.339  29.568  24.569  1.00  0.00    -0.023 C 
ATOM     26  C   UNL A   1      30.767  27.308  24.658  1.00  0.00     0.034 C 
ATOM     27  C   UNL A   1      30.837  28.560  23.844  1.00  0.00    -0.030 C 
BRANCH  14  28
ATOM     28  O   UNL A   1      36.238  29.008  27.861  1.00  0.00    -0.495 OA
ATOM     29  C   UNL A   1      37.411  29.610  27.311  1.00  0.00     0.278 C 
ENDBRANCH  14  28
ENDBRANCH   8  13
ENDBRANCH   4   7
ENDBRANCH   2   3
ENDBRANCH   1   2
BRANCH   1  30
ATOM     30  C   UNL A   1      38.908  21.127  25.388  1.00  0.00     0.118 C 
BRANCH  30  31
ATOM     31  N   UNL A   1      39.497  20.320  26.446  1.00  0.00    -0.352 N 
ATOM     32  C   UNL A   1      40.506  20.640  27.317  1.00  0.00     0.251 C 
ATOM     33  H   UNL A   1      39.118  19.418  26.552  1.00  0.00     0.163 HD
ATOM     34  O   UNL A   1      41.071  19.763  27.960  1.00  0.00    -0.269 OA
BRANCH  32  35
ATOM     35  C   UNL A   1      40.904  22.051  27.486  1.00  0.00     0.039 A 
ATOM     36  C   UNL A   1      40.348  23.022  26.648  1.00  0.00     0.014 A 
ATOM     37  C   UNL A   1      41.865  22.403  28.439  1.00  0.00     0.014 A 
ATOM     38  C   UNL A   1      40.733  24.356  26.789  1.00  0.00     0.010 A 
ATOM     39  C   UNL A   1      42.202  23.738  28.620  1.00  0.00     0.010 A 
ATOM     40  C   UNL A   1      41.655  24.720  27.781  1.00  0.00    -0.014 A 
BRANCH  40  41
ATOM     41  C   UNL A   1      42.124  26.116  27.922  1.00  0.00     0.031 A 
ATOM     42  C   UNL A   1      43.457  26.502  27.348  1.00  0.00     0.074 A 
ATOM     43  C   UNL A   1      41.386  27.009  28.607  1.00  0.00     0.049 A 
ATOM     44  N   UNL A   1      44.099  27.639  27.433  1.00  0.00    -0.248 NA
ATOM     45  C   UNL A   1      44.174  25.462  26.593  1.00  0.00     0.031 C 
ATOM     46  C   UNL A   1      40.085  26.737  29.215  1.00  0.00     0.029 A 
ATOM     47  N   UNL A   1      41.633  28.322  28.914  1.00  0.00    -0.354 N 
ATOM     48  C   UNL A   1      45.289  27.450  26.745  1.00  0.00     0.074 A 
ATOM     49  C   UNL A   1      45.312  26.074  26.300  1.00  0.00     0.031 C 
ATOM     50  C   UNL A   1      39.640  27.853  29.814  1.00  0.00     0.029 A 
ATOM     51  C   UNL A   1      40.640  28.907  29.660  1.00  0.00     0.049 A 
ATOM     52  H   UNL A   1      42.445  28.799  28.627  1.00  0.00     0.167 HD
ATOM     53  C   UNL A   1      46.262  28.354  26.485  1.00  0.00     0.037 A 
ATOM     54  C   UNL A   1      40.557  30.151  30.167  1.00  0.00     0.037 A 
ATOM     55  C   UNL A   1      46.227  29.722  26.928  1.00  0.00     0.049 A 
ATOM     56  C   UNL A   1      41.678  31.122  29.907  1.00  0.00     0.074 A 
ATOM     57  C   UNL A   1      47.151  30.725  26.701  1.00  0.00     0.029 A 
ATOM     58  N   UNL A   1      45.209  30.277  27.691  1.00  0.00    -0.354 N 
ATOM     59  N   UNL A   1      42.783  30.949  29.223  1.00  0.00    -0.248 NA
ATOM     60  C   UNL A   1      41.537  32.466  30.486  1.00  0.00     0.031 C 
ATOM     61  C   UNL A   1      46.717  31.876  27.366  1.00  0.00     0.029 A 
ATOM     62  C   UNL A   1      45.494  31.606  27.960  1.00  0.00     0.049 A 
ATOM     63  H   UNL A   1      44.406  29.799  27.996  1.00  0.00     0.167 HD
ATOM     64  C   UNL A   1      43.454  32.163  29.263  1.00  0.00     0.074 A 
ATOM     65  C   UNL A   1      42.623  33.071  30.025  1.00  0.00     0.031 C 
ATOM     66  C   UNL A   1      44.649  32.496  28.716  1.00  0.00     0.037 A 
BRANCH  53  67
ATOM     67  C   UNL A   1      47.439  27.896  25.675  1.00  0.00     0.064 A 
ATOM     68  C   UNL A   1      47.382  27.828  24.274  1.00  0.00     0.173 A 
ATOM     69  C   UNL A   1      48.655  27.574  26.297  1.00  0.00     0.173 A 
ATOM     70  F   UNL A   1      46.237  28.111  23.632  1.00  0.00    -0.203 F 
ATOM     71  C   UNL A   1      48.491  27.438  23.529  1.00  0.00     0.198 A 
ATOM     72  C   UNL A   1      49.771  27.214  25.545  1.00  0.00     0.198 A 
ATOM     73  F   UNL A   1      48.766  27.623  27.633  1.00  0.00    -0.203 F 
ATOM     74  F   UNL A   1      48.398  27.342  22.195  1.00  0.00    -0.200 F 
ATOM     75  C   UNL A   1      49.687  27.142  24.163  1.00  0.00     0.200 A 
ATOM     76  F   UNL A   1      50.930  26.941  26.160  1.00  0.00    -0.200 F 
ATOM     77  F   UNL A   1      50.758  26.783  23.444  1.00  0.00    -0.200 F 
ENDBRANCH  53  67
BRANCH  54  78
ATOM     78  C   UNL A   1      39.352  30.558  30.934  1.00  0.00     0.064 A 
ATOM     79  C   UNL A   1      39.177  30.146  32.263  1.00  0.00     0.173 A 
ATOM     80  C   UNL A   1      38.361  31.373  30.370  1.00  0.00     0.173 A 
ATOM     81  F   UNL A   1      40.088  29.349  32.842  1.00  0.00    -0.203 F 
ATOM     82  C   UNL A   1      38.053  30.525  32.994  1.00  0.00     0.198 A 
ATOM     83  C   UNL A   1      37.250  31.775  31.110  1.00  0.00     0.198 A 
ATOM     84  F   UNL A   1      38.481  31.799  29.103  1.00  0.00    -0.203 F 
ATOM     85  F   UNL A   1      37.895  30.087  34.251  1.00  0.00    -0.200 F 
ATOM     86  C   UNL A   1      37.094  31.345  32.419  1.00  0.00     0.200 A 
ATOM     87  F   UNL A   1      36.334  32.581  30.557  1.00  0.00    -0.200 F 
ATOM     88  F   UNL A   1      36.019  31.718  33.126  1.00  0.00    -0.200 F 
ENDBRANCH  54  78
BRANCH  66  89
ATOM     89  C   UNL A   1      45.122  33.911  28.896  1.00  0.00     0.064 A 
ATOM     90  C   UNL A   1      44.773  34.925  27.993  1.00  0.00     0.173 A 
ATOM     91  C   UNL A   1      45.882  34.267  30.022  1.00  0.00     0.173 A 
ATOM     92  F   UNL A   1      44.059  34.634  26.894  1.00  0.00    -0.203 F 
ATOM     93  C   UNL A   1      45.187  36.238  28.197  1.00  0.00     0.198 A 
ATOM     94  C   UNL A   1      46.264  35.587  30.241  1.00  0.00     0.198 A 
ATOM     95  F   UNL A   1      46.233  33.337  30.923  1.00  0.00    -0.203 F 
ATOM     96  F   UNL A   1      44.881  37.182  27.295  1.00  0.00    -0.200 F 
ATOM     97  C   UNL A   1      45.923  36.570  29.325  1.00  0.00     0.200 A 
ATOM     98  F   UNL A   1      46.958  35.909  31.341  1.00  0.00    -0.200 F 
ATOM     99  F   UNL A   1      46.308  37.838  29.527  1.00  0.00    -0.200 F 
ENDBRANCH  66  89
ENDBRANCH  40  41
ENDBRANCH  32  35
ENDBRANCH  30  31
ENDBRANCH   1  30
TORSDOF 12
ENDMDL
MODEL 3
REMARK VINA RESULT:     -13.6      5.302     12.729
REMARK SMILES COc1ccc(Cl)c2c1N[C@@H](c1ccc(C(=O)NCCCNC(=O)c3ccc(-c4c5nc(c(-c6c(F)c(F)c(F)c(F)c6F)c6ccc([nH]6)c(-c6c(F)c(F)c(F)c(F)c6F)c6nc(c(-c7c(F)c(F)c(F)c(F)c7F)c7ccc4[nH]7)C=C6)C=C5)cc3)cc1)[C@@H]1CC=C[C@H]21
REMARK SMILES IDX 20 1 19 2 18 3 16 4 17 5 15 7 12 8 13 9 89 10 14 11 88 12
REMARK SMILES IDX 11 13 3 14 4 15 9 16 5 17 8 18 10 19 6 20 94 21 7 23 90 24
REMARK SMILES IDX 93 25 91 26 92 27 2 28 1 29 21 30 22 31 23 32 24 34 25 35
REMARK SMILES IDX 26 36 87 37 27 38 86 39 28 40 29 41 30 42 80 43 31 44 85 45
REMARK SMILES IDX 79 46 81 47 32 48 84 49 78 50 77 51 33 53 65 54 45 55 64 56
REMARK SMILES IDX 46 57 49 58 63 59 82 60 47 61 48 62 62 64 83 65 50 66 34 67
REMARK SMILES IDX 35 68 43 69 36 70 37 71 41 72 44 73 38 74 39 75 42 76 40 77
REMARK SMILES IDX 66 78 67 79 75 80 68 81 69 82 73 83 76 84 70 85 71 86 74 87
REMARK SMILES IDX 72 88 51 89 52 90 60 91 53 92 54 93 58 94 61 95 55 96 56 97
REMARK SMILES IDX 59 98 57 99
REMARK H PARENT 18 6 10 22 22 33 81 52 49 63
REMARK Flexibility Score: inf
ROOT
ATOM      1  C   UNL A   1      46.836  22.980  35.882  1.00  0.00     0.042 C 
ENDROOT
BRANCH   1   2
ATOM      2  C   UNL A   1      45.741  22.048  35.365  1.00  0.00     0.118 C 
BRANCH   2   3
ATOM      3  N   UNL A   1      44.438  22.673  35.485  1.00  0.00    -0.352 N 
ATOM      4  C   UNL A   1      43.659  23.348  34.582  1.00  0.00     0.251 C 
ATOM      5  O   UNL A   1      42.566  23.761  34.969  1.00  0.00    -0.269 OA
ATOM      6  H   UNL A   1      44.039  22.597  36.382  1.00  0.00     0.163 HD
BRANCH   4   7
ATOM      7  C   UNL A   1      44.048  23.542  33.159  1.00  0.00     0.039 A 
ATOM      8  C   UNL A   1      44.868  24.115  30.505  1.00  0.00    -0.025 A 
ATOM      9  C   UNL A   1      45.529  24.686  31.604  1.00  0.00     0.006 A 
ATOM     10  C   UNL A   1      43.831  23.208  30.766  1.00  0.00     0.006 A 
ATOM     11  C   UNL A   1      45.139  24.383  32.912  1.00  0.00     0.014 A 
ATOM     12  C   UNL A   1      43.425  22.928  32.073  1.00  0.00     0.014 A 
BRANCH   8  13
ATOM     13  C   UNL A   1      45.235  24.426  29.057  1.00  0.00     0.114 C 
ATOM     14  C   UNL A   1      44.769  22.340  26.002  1.00  0.00     0.142 A 
ATOM     15  C   UNL A   1      45.123  22.310  24.655  1.00  0.00     0.050 A 
ATOM     16  C   UNL A   1      45.351  23.272  26.887  1.00  0.00     0.083 A 
ATOM     17  C   UNL A   1      46.040  23.233  24.164  1.00  0.00     0.025 A 
ATOM     18  C   UNL A   1      46.280  24.209  26.393  1.00  0.00     0.005 A 
ATOM     19  N   UNL A   1      45.028  23.250  28.233  1.00  0.00    -0.375 N 
ATOM     20  C   UNL A   1      46.617  24.172  25.024  1.00  0.00     0.047 A 
ATOM     21  C   UNL A   1      46.960  25.159  27.353  1.00  0.00     0.051 C 
ATOM     22  H   UNL A   1      44.657  22.431  28.634  1.00  0.00     0.161 HD
ATOM     23  Cl  UNL A   1      47.792  25.242  24.336  1.00  0.00    -0.084 Cl
ATOM     24  C   UNL A   1      46.691  24.907  28.862  1.00  0.00     0.031 C 
ATOM     25  C   UNL A   1      46.551  26.607  27.222  1.00  0.00    -0.023 C 
ATOM     26  C   UNL A   1      46.987  26.282  29.490  1.00  0.00     0.034 C 
ATOM     27  C   UNL A   1      46.580  27.229  28.407  1.00  0.00    -0.030 C 
BRANCH  14  28
ATOM     28  O   UNL A   1      43.905  21.360  26.431  1.00  0.00    -0.495 OA
ATOM     29  C   UNL A   1      43.704  20.340  25.452  1.00  0.00     0.278 C 
ENDBRANCH  14  28
ENDBRANCH   8  13
ENDBRANCH   4   7
ENDBRANCH   2   3
ENDBRANCH   1   2
BRANCH   1  30
ATOM     30  C   UNL A   1      46.313  24.022  36.864  1.00  0.00     0.118 C 
BRANCH  30  31
ATOM     31  N   UNL A   1      47.288  25.077  37.091  1.00  0.00    -0.352 N 
ATOM     32  C   UNL A   1      47.389  26.305  36.489  1.00  0.00     0.251 C 
ATOM     33  H   UNL A   1      47.972  24.882  37.771  1.00  0.00     0.163 HD
ATOM     34  O   UNL A   1      48.419  26.961  36.589  1.00  0.00    -0.269 OA
BRANCH  32  35
ATOM     35  C   UNL A   1      46.244  26.839  35.726  1.00  0.00     0.039 A 
ATOM     36  C   UNL A   1      46.479  27.742  34.686  1.00  0.00     0.014 A 
ATOM     37  C   UNL A   1      44.938  26.484  36.077  1.00  0.00     0.014 A 
ATOM     38  C   UNL A   1      45.401  28.267  33.973  1.00  0.00     0.010 A 
ATOM     39  C   UNL A   1      43.869  26.958  35.327  1.00  0.00     0.010 A 
ATOM     40  C   UNL A   1      44.092  27.870  34.285  1.00  0.00    -0.014 A 
BRANCH  40  41
ATOM     41  C   UNL A   1      42.923  28.447  33.584  1.00  0.00     0.031 A 
ATOM     42  C   UNL A   1      42.717  28.141  32.128  1.00  0.00     0.074 A 
ATOM     43  C   UNL A   1      42.093  29.281  34.235  1.00  0.00     0.049 A 
ATOM     44  N   UNL A   1      41.818  28.609  31.302  1.00  0.00    -0.248 NA
ATOM     45  C   UNL A   1      43.665  27.196  31.514  1.00  0.00     0.031 C 
ATOM     46  C   UNL A   1      42.208  29.655  35.644  1.00  0.00     0.029 A 
ATOM     47  N   UNL A   1      40.994  29.972  33.793  1.00  0.00    -0.354 N 
ATOM     48  C   UNL A   1      42.090  28.017  30.077  1.00  0.00     0.074 A 
ATOM     49  C   UNL A   1      43.274  27.203  30.249  1.00  0.00     0.031 C 
ATOM     50  C   UNL A   1      41.211  30.500  35.955  1.00  0.00     0.029 A 
ATOM     51  C   UNL A   1      40.410  30.751  34.759  1.00  0.00     0.049 A 
ATOM     52  H   UNL A   1      40.658  29.914  32.869  1.00  0.00     0.167 HD
ATOM     53  C   UNL A   1      41.396  28.122  28.920  1.00  0.00     0.037 A 
ATOM     54  C   UNL A   1      39.352  31.580  34.681  1.00  0.00     0.037 A 
ATOM     55  C   UNL A   1      40.217  28.930  28.761  1.00  0.00     0.049 A 
ATOM     56  C   UNL A   1      38.629  31.719  33.368  1.00  0.00     0.074 A 
ATOM     57  C   UNL A   1      39.427  29.090  27.637  1.00  0.00     0.029 A 
ATOM     58  N   UNL A   1      39.659  29.715  29.760  1.00  0.00    -0.354 N 
ATOM     59  N   UNL A   1      38.869  31.127  32.223  1.00  0.00    -0.248 NA
ATOM     60  C   UNL A   1      37.483  32.639  33.338  1.00  0.00     0.031 C 
ATOM     61  C   UNL A   1      38.417  30.009  27.942  1.00  0.00     0.029 A 
ATOM     62  C   UNL A   1      38.544  30.377  29.272  1.00  0.00     0.049 A 
ATOM     63  H   UNL A   1      40.003  29.790  30.678  1.00  0.00     0.167 HD
ATOM     64  C   UNL A   1      37.891  31.577  31.346  1.00  0.00     0.074 A 
ATOM     65  C   UNL A   1      37.044  32.480  32.097  1.00  0.00     0.031 C 
ATOM     66  C   UNL A   1      37.710  31.268  30.038  1.00  0.00     0.037 A 
BRANCH  53  67
ATOM     67  C   UNL A   1      41.887  27.336  27.740  1.00  0.00     0.064 A 
ATOM     68  C   UNL A   1      42.844  27.861  26.858  1.00  0.00     0.173 A 
ATOM     69  C   UNL A   1      41.440  26.025  27.516  1.00  0.00     0.173 A 
ATOM     70  F   UNL A   1      43.293  29.116  27.019  1.00  0.00    -0.203 F 
ATOM     71  C   UNL A   1      43.322  27.111  25.787  1.00  0.00     0.198 A 
ATOM     72  C   UNL A   1      41.943  25.267  26.461  1.00  0.00     0.198 A 
ATOM     73  F   UNL A   1      40.526  25.473  28.329  1.00  0.00    -0.203 F 
ATOM     74  F   UNL A   1      44.206  27.651  24.935  1.00  0.00    -0.200 F 
ATOM     75  C   UNL A   1      42.879  25.812  25.595  1.00  0.00     0.200 A 
ATOM     76  F   UNL A   1      41.524  24.006  26.286  1.00  0.00    -0.200 F 
ATOM     77  F   UNL A   1      43.352  25.085  24.574  1.00  0.00    -0.200 F 
ENDBRANCH  53  67
BRANCH  54  78
ATOM     78  C   UNL A   1      38.893  32.309  35.892  1.00  0.00     0.064 A 
ATOM     79  C   UNL A   1      38.090  31.671  36.849  1.00  0.00     0.173 A 
ATOM     80  C   UNL A   1      39.253  33.643  36.128  1.00  0.00     0.173 A 
ATOM     81  F   UNL A   1      37.703  30.401  36.658  1.00  0.00    -0.203 F 
ATOM     82  C   UNL A   1      37.657  32.344  37.990  1.00  0.00     0.198 A 
ATOM     83  C   UNL A   1      38.843  34.306  37.283  1.00  0.00     0.198 A 
ATOM     84  F   UNL A   1      40.023  34.298  35.247  1.00  0.00    -0.203 F 
ATOM     85  F   UNL A   1      36.861  31.720  38.869  1.00  0.00    -0.200 F 
ATOM     86  C   UNL A   1      38.040  33.658  38.210  1.00  0.00     0.200 A 
ATOM     87  F   UNL A   1      39.228  35.570  37.501  1.00  0.00    -0.200 F 
ATOM     88  F   UNL A   1      37.632  34.300  39.313  1.00  0.00    -0.200 F 
ENDBRANCH  54  78
BRANCH  66  89
ATOM     89  C   UNL A   1      36.535  31.889  29.337  1.00  0.00     0.064 A 
ATOM     90  C   UNL A   1      35.422  31.129  28.950  1.00  0.00     0.173 A 
ATOM     91  C   UNL A   1      36.498  33.274  29.106  1.00  0.00     0.173 A 
ATOM     92  F   UNL A   1      35.415  29.799  29.138  1.00  0.00    -0.203 F 
ATOM     93  C   UNL A   1      34.325  31.727  28.337  1.00  0.00     0.198 A 
ATOM     94  C   UNL A   1      35.385  33.873  28.524  1.00  0.00     0.198 A 
ATOM     95  F   UNL A   1      37.532  34.048  29.467  1.00  0.00    -0.203 F 
ATOM     96  F   UNL A   1      33.293  30.973  27.935  1.00  0.00    -0.200 F 
ATOM     97  C   UNL A   1      34.303  33.099  28.134  1.00  0.00     0.200 A 
ATOM     98  F   UNL A   1      35.356  35.201  28.347  1.00  0.00    -0.200 F 
ATOM     99  F   UNL A   1      33.239  33.675  27.557  1.00  0.00    -0.200 F 
ENDBRANCH  66  89
ENDBRANCH  40  41
ENDBRANCH  32  35
ENDBRANCH  30  31
ENDBRANCH   1  30
TORSDOF 12
ENDMDL
