MODEL 1
REMARK VINA RESULT:     -12.5      0.000      0.000
REMARK SMILES C[C@H](/N=C(\Cc1ccccc1)C(=O)OC(C)(C)C)C(=O)NCCCNC(=O)c1ccc(-c2c3nc(c(-c4c(F)c(F)c(F)c(F)c4F)c4ccc([nH]4)c(-c4c(F)c(F)c(F)c(F)c4F)c4nc(c(-c5c(F)c(F)c(F)c(F)c5F)c5ccc2[nH]5)C=C4)C=C3)cc1
REMARK SMILES IDX 22 1 21 2 19 3 20 4 2 6 1 7 3 8 4 9 5 10 6 11 7 12 11 13
REMARK SMILES IDX 8 14 10 15 9 16 12 17 13 18 14 19 15 20 16 21 17 22 18 23
REMARK SMILES IDX 23 24 24 25 25 26 26 27 27 29 28 30 29 31 90 32 30 33 89 34
REMARK SMILES IDX 31 35 32 36 33 37 83 38 34 39 88 40 82 41 84 42 35 43 87 44
REMARK SMILES IDX 81 45 80 46 36 48 68 49 48 50 67 51 49 52 52 53 66 54 85 55
REMARK SMILES IDX 50 56 51 57 65 59 86 60 53 61 37 62 38 63 46 64 39 65 40 66
REMARK SMILES IDX 44 67 47 68 41 69 42 70 45 71 43 72 69 73 70 74 78 75 71 76
REMARK SMILES IDX 72 77 76 78 79 79 73 80 74 81 77 82 75 83 54 84 55 85 63 86
REMARK SMILES IDX 56 87 57 88 61 89 64 90 58 91 59 92 62 93 60 94
REMARK H PARENT 21 5 25 28 84 47 52 58
REMARK Flexibility Score: inf
ROOT
ATOM      1  C   UNL A   1      32.605  26.376  26.279  1.00  0.00     0.117 C 
ENDROOT
BRANCH   1   2
ATOM      2  N   UNL A   1      31.654  25.409  26.795  1.00  0.00    -0.354 N 
ATOM      3  C   UNL A   1      31.614  24.054  26.873  1.00  0.00     0.244 C 
ATOM      4  O   UNL A   1      30.521  23.603  27.249  1.00  0.00    -0.273 OA
ATOM      5  H   UNL A   1      30.852  25.833  27.177  1.00  0.00     0.163 HD
BRANCH   3   6
ATOM      6  C   UNL A   1      32.762  23.075  26.539  1.00  0.00     0.191 C 
ATOM      7  C   UNL A   1      33.728  22.615  27.614  1.00  0.00     0.044 C 
BRANCH   6   8
ATOM      8  N   UNL A   1      33.361  23.313  25.219  1.00  0.00    -0.269 NA
ATOM      9  C   UNL A   1      33.113  22.780  24.079  1.00  0.00     0.125 C 
BRANCH   9  10
ATOM     10  C   UNL A   1      32.183  21.641  23.794  1.00  0.00     0.099 C 
BRANCH  10  11
ATOM     11  C   UNL A   1      32.684  20.226  23.884  1.00  0.00    -0.042 A 
ATOM     12  C   UNL A   1      33.784  19.920  24.696  1.00  0.00     0.004 A 
ATOM     13  C   UNL A   1      32.180  19.235  23.029  1.00  0.00     0.004 A 
ATOM     14  C   UNL A   1      34.392  18.665  24.624  1.00  0.00     0.000 A 
ATOM     15  C   UNL A   1      32.782  17.978  22.967  1.00  0.00     0.000 A 
ATOM     16  C   UNL A   1      33.896  17.698  23.754  1.00  0.00     0.000 A 
ENDBRANCH  10  11
ENDBRANCH   9  10
BRANCH   9  17
ATOM     17  C   UNL A   1      33.961  23.268  22.901  1.00  0.00     0.353 C 
ATOM     18  O   UNL A   1      35.166  23.119  22.844  1.00  0.00    -0.245 OA
BRANCH  17  19
ATOM     19  O   UNL A   1      33.136  23.791  21.970  1.00  0.00    -0.455 OA
BRANCH  19  20
ATOM     20  C   UNL A   1      32.659  25.157  22.065  1.00  0.00     0.104 C 
ATOM     21  C   UNL A   1      31.290  25.272  22.746  1.00  0.00     0.056 C 
ATOM     22  C   UNL A   1      33.712  26.019  22.766  1.00  0.00     0.056 C 
ATOM     23  C   UNL A   1      32.518  25.619  20.607  1.00  0.00     0.056 C 
ENDBRANCH  19  20
ENDBRANCH  17  19
ENDBRANCH   9  17
ENDBRANCH   6   8
ENDBRANCH   3   6
ENDBRANCH   1   2
BRANCH   1  24
ATOM     24  C   UNL A   1      31.987  27.773  26.210  1.00  0.00     0.042 C 
BRANCH  24  25
ATOM     25  C   UNL A   1      32.851  28.804  25.495  1.00  0.00     0.118 C 
BRANCH  25  26
ATOM     26  N   UNL A   1      32.502  30.156  25.911  1.00  0.00    -0.352 N 
ATOM     27  C   UNL A   1      33.044  30.978  26.870  1.00  0.00     0.251 C 
ATOM     28  H   UNL A   1      31.745  30.550  25.420  1.00  0.00     0.163 HD
ATOM     29  O   UNL A   1      32.393  31.952  27.241  1.00  0.00    -0.269 OA
BRANCH  27  30
ATOM     30  C   UNL A   1      34.387  30.744  27.464  1.00  0.00     0.039 A 
ATOM     31  C   UNL A   1      34.708  29.451  27.906  1.00  0.00     0.014 A 
ATOM     32  C   UNL A   1      35.278  31.786  27.726  1.00  0.00     0.014 A 
ATOM     33  C   UNL A   1      35.908  29.204  28.587  1.00  0.00     0.010 A 
ATOM     34  C   UNL A   1      36.507  31.529  28.338  1.00  0.00     0.010 A 
ATOM     35  C   UNL A   1      36.823  30.244  28.805  1.00  0.00    -0.014 A 
BRANCH  35  36
ATOM     36  C   UNL A   1      38.065  30.055  29.605  1.00  0.00     0.031 A 
ATOM     37  C   UNL A   1      39.166  29.183  29.058  1.00  0.00     0.074 A 
ATOM     38  C   UNL A   1      38.193  30.589  30.833  1.00  0.00     0.049 A 
ATOM     39  N   UNL A   1      40.208  28.678  29.669  1.00  0.00    -0.248 NA
ATOM     40  C   UNL A   1      39.059  28.803  27.641  1.00  0.00     0.031 C 
ATOM     41  C   UNL A   1      37.219  31.459  31.489  1.00  0.00     0.029 A 
ATOM     42  N   UNL A   1      39.201  30.457  31.757  1.00  0.00    -0.354 N 
ATOM     43  C   UNL A   1      40.835  27.864  28.735  1.00  0.00     0.074 A 
ATOM     44  C   UNL A   1      40.066  27.951  27.511  1.00  0.00     0.031 C 
ATOM     45  C   UNL A   1      37.680  31.790  32.708  1.00  0.00     0.029 A 
ATOM     46  C   UNL A   1      38.958  31.120  32.934  1.00  0.00     0.049 A 
ATOM     47  H   UNL A   1      40.020  29.936  31.591  1.00  0.00     0.167 HD
ATOM     48  C   UNL A   1      41.947  27.105  28.883  1.00  0.00     0.037 A 
ATOM     49  C   UNL A   1      39.674  31.163  34.075  1.00  0.00     0.037 A 
ATOM     50  C   UNL A   1      42.764  27.077  30.067  1.00  0.00     0.049 A 
ATOM     51  C   UNL A   1      40.955  30.382  34.187  1.00  0.00     0.074 A 
ATOM     52  C   UNL A   1      43.923  26.357  30.301  1.00  0.00     0.029 A 
ATOM     53  N   UNL A   1      42.520  27.828  31.204  1.00  0.00    -0.354 N 
ATOM     54  N   UNL A   1      41.512  29.579  33.314  1.00  0.00    -0.248 NA
ATOM     55  C   UNL A   1      41.702  30.508  35.447  1.00  0.00     0.031 C 
ATOM     56  C   UNL A   1      44.383  26.675  31.584  1.00  0.00     0.029 A 
ATOM     57  C   UNL A   1      43.517  27.604  32.138  1.00  0.00     0.049 A 
ATOM     58  H   UNL A   1      41.753  28.433  31.330  1.00  0.00     0.167 HD
ATOM     59  C   UNL A   1      42.675  29.115  33.911  1.00  0.00     0.074 A 
ATOM     60  C   UNL A   1      42.754  29.734  35.218  1.00  0.00     0.031 C 
ATOM     61  C   UNL A   1      43.593  28.247  33.423  1.00  0.00     0.037 A 
BRANCH  48  62
ATOM     62  C   UNL A   1      42.334  26.220  27.740  1.00  0.00     0.064 A 
ATOM     63  C   UNL A   1      41.731  24.971  27.537  1.00  0.00     0.173 A 
ATOM     64  C   UNL A   1      43.305  26.643  26.820  1.00  0.00     0.173 A 
ATOM     65  F   UNL A   1      40.811  24.518  28.400  1.00  0.00    -0.203 F 
ATOM     66  C   UNL A   1      42.102  24.167  26.462  1.00  0.00     0.198 A 
ATOM     67  C   UNL A   1      43.659  25.846  25.735  1.00  0.00     0.198 A 
ATOM     68  F   UNL A   1      43.909  27.831  26.973  1.00  0.00    -0.203 F 
ATOM     69  F   UNL A   1      41.541  22.960  26.305  1.00  0.00    -0.200 F 
ATOM     70  C   UNL A   1      43.061  24.607  25.560  1.00  0.00     0.200 A 
ATOM     71  F   UNL A   1      44.582  26.273  24.863  1.00  0.00    -0.200 F 
ATOM     72  F   UNL A   1      43.416  23.832  24.526  1.00  0.00    -0.200 F 
ENDBRANCH  48  62
BRANCH  49  73
ATOM     73  C   UNL A   1      39.195  31.987  35.210  1.00  0.00     0.064 A 
ATOM     74  C   UNL A   1      39.475  33.358  35.265  1.00  0.00     0.173 A 
ATOM     75  C   UNL A   1      38.449  31.425  36.254  1.00  0.00     0.173 A 
ATOM     76  F   UNL A   1      40.206  33.930  34.296  1.00  0.00    -0.203 F 
ATOM     77  C   UNL A   1      39.033  34.139  36.330  1.00  0.00     0.198 A 
ATOM     78  C   UNL A   1      37.992  32.210  37.310  1.00  0.00     0.198 A 
ATOM     79  F   UNL A   1      38.154  30.117  36.242  1.00  0.00    -0.203 F 
ATOM     80  F   UNL A   1      39.339  35.443  36.374  1.00  0.00    -0.200 F 
ATOM     81  C   UNL A   1      38.289  33.565  37.349  1.00  0.00     0.200 A 
ATOM     82  F   UNL A   1      37.264  31.656  38.290  1.00  0.00    -0.200 F 
ATOM     83  F   UNL A   1      37.860  34.317  38.373  1.00  0.00    -0.200 F 
ENDBRANCH  49  73
BRANCH  61  84
ATOM     84  C   UNL A   1      44.777  27.941  34.283  1.00  0.00     0.064 A 
ATOM     85  C   UNL A   1      45.938  28.724  34.230  1.00  0.00     0.173 A 
ATOM     86  C   UNL A   1      44.730  26.885  35.204  1.00  0.00     0.173 A 
ATOM     87  F   UNL A   1      46.030  29.736  33.355  1.00  0.00    -0.203 F 
ATOM     88  C   UNL A   1      47.018  28.454  35.066  1.00  0.00     0.198 A 
ATOM     89  C   UNL A   1      45.807  26.625  36.047  1.00  0.00     0.198 A 
ATOM     90  F   UNL A   1      43.638  26.110  35.290  1.00  0.00    -0.203 F 
ATOM     91  F   UNL A   1      48.128  29.200  34.987  1.00  0.00    -0.200 F 
ATOM     92  C   UNL A   1      46.950  27.409  35.977  1.00  0.00     0.200 A 
ATOM     93  F   UNL A   1      45.740  25.616  36.928  1.00  0.00    -0.200 F 
ATOM     94  F   UNL A   1      47.990  27.152  36.782  1.00  0.00    -0.200 F 
ENDBRANCH  61  84
ENDBRANCH  35  36
ENDBRANCH  27  30
ENDBRANCH  25  26
ENDBRANCH  24  25
ENDBRANCH   1  24
TORSDOF 16
ENDMDL
MODEL 2
REMARK VINA RESULT:     -12.4      1.254      2.537
REMARK SMILES C[C@H](/N=C(\Cc1ccccc1)C(=O)OC(C)(C)C)C(=O)NCCCNC(=O)c1ccc(-c2c3nc(c(-c4c(F)c(F)c(F)c(F)c4F)c4ccc([nH]4)c(-c4c(F)c(F)c(F)c(F)c4F)c4nc(c(-c5c(F)c(F)c(F)c(F)c5F)c5ccc2[nH]5)C=C4)C=C3)cc1
REMARK SMILES IDX 22 1 21 2 19 3 20 4 2 6 1 7 3 8 4 9 5 10 6 11 7 12 11 13
REMARK SMILES IDX 8 14 10 15 9 16 12 17 13 18 14 19 15 20 16 21 17 22 18 23
REMARK SMILES IDX 23 24 24 25 25 26 26 27 27 29 28 30 29 31 90 32 30 33 89 34
REMARK SMILES IDX 31 35 32 36 33 37 83 38 34 39 88 40 82 41 84 42 35 43 87 44
REMARK SMILES IDX 81 45 80 46 36 48 68 49 48 50 67 51 49 52 52 53 66 54 85 55
REMARK SMILES IDX 50 56 51 57 65 59 86 60 53 61 37 62 38 63 46 64 39 65 40 66
REMARK SMILES IDX 44 67 47 68 41 69 42 70 45 71 43 72 69 73 70 74 78 75 71 76
REMARK SMILES IDX 72 77 76 78 79 79 73 80 74 81 77 82 75 83 54 84 55 85 63 86
REMARK SMILES IDX 56 87 57 88 61 89 64 90 58 91 59 92 62 93 60 94
REMARK H PARENT 21 5 25 28 84 47 52 58
REMARK Flexibility Score: inf
ROOT
ATOM      1  C   UNL A   1      32.553  26.332  26.360  1.00  0.00     0.117 C 
ENDROOT
BRANCH   1   2
ATOM      2  N   UNL A   1      31.595  25.366  26.865  1.00  0.00    -0.354 N 
ATOM      3  C   UNL A   1      31.463  24.017  26.785  1.00  0.00     0.244 C 
ATOM      4  O   UNL A   1      30.387  23.588  27.229  1.00  0.00    -0.273 OA
ATOM      5  H   UNL A   1      30.873  25.785  27.385  1.00  0.00     0.163 HD
BRANCH   3   6
ATOM      6  C   UNL A   1      32.492  23.022  26.204  1.00  0.00     0.191 C 
ATOM      7  C   UNL A   1      33.711  22.609  27.007  1.00  0.00     0.044 C 
BRANCH   6   8
ATOM      8  N   UNL A   1      32.721  23.198  24.764  1.00  0.00    -0.269 NA
ATOM      9  C   UNL A   1      33.731  23.670  24.129  1.00  0.00     0.125 C 
BRANCH   9  10
ATOM     10  C   UNL A   1      34.957  24.299  24.714  1.00  0.00     0.099 C 
BRANCH  10  11
ATOM     11  C   UNL A   1      36.205  23.478  24.897  1.00  0.00    -0.042 A 
ATOM     12  C   UNL A   1      36.323  22.231  24.270  1.00  0.00     0.004 A 
ATOM     13  C   UNL A   1      37.180  23.860  25.829  1.00  0.00     0.004 A 
ATOM     14  C   UNL A   1      37.370  21.368  24.599  1.00  0.00     0.000 A 
ATOM     15  C   UNL A   1      38.232  23.002  26.148  1.00  0.00     0.000 A 
ATOM     16  C   UNL A   1      38.319  21.750  25.544  1.00  0.00     0.000 A 
ENDBRANCH  10  11
ENDBRANCH   9  10
BRANCH   9  17
ATOM     17  C   UNL A   1      33.611  23.721  22.603  1.00  0.00     0.353 C 
ATOM     18  O   UNL A   1      33.220  22.784  21.936  1.00  0.00    -0.245 OA
BRANCH  17  19
ATOM     19  O   UNL A   1      33.935  24.965  22.192  1.00  0.00    -0.455 OA
BRANCH  19  20
ATOM     20  C   UNL A   1      32.915  25.943  21.864  1.00  0.00     0.104 C 
ATOM     21  C   UNL A   1      31.612  25.741  22.648  1.00  0.00     0.056 C 
ATOM     22  C   UNL A   1      33.477  27.353  22.057  1.00  0.00     0.056 C 
ATOM     23  C   UNL A   1      32.626  25.714  20.373  1.00  0.00     0.056 C 
ENDBRANCH  19  20
ENDBRANCH  17  19
ENDBRANCH   9  17
ENDBRANCH   6   8
ENDBRANCH   3   6
ENDBRANCH   1   2
BRANCH   1  24
ATOM     24  C   UNL A   1      31.938  27.730  26.287  1.00  0.00     0.042 C 
BRANCH  24  25
ATOM     25  C   UNL A   1      32.774  28.740  25.511  1.00  0.00     0.118 C 
BRANCH  25  26
ATOM     26  N   UNL A   1      32.430  30.104  25.891  1.00  0.00    -0.352 N 
ATOM     27  C   UNL A   1      32.984  30.953  26.820  1.00  0.00     0.251 C 
ATOM     28  H   UNL A   1      31.668  30.484  25.398  1.00  0.00     0.163 HD
ATOM     29  O   UNL A   1      32.337  31.938  27.170  1.00  0.00    -0.269 OA
BRANCH  27  30
ATOM     30  C   UNL A   1      34.333  30.736  27.406  1.00  0.00     0.039 A 
ATOM     31  C   UNL A   1      34.675  29.446  27.839  1.00  0.00     0.014 A 
ATOM     32  C   UNL A   1      35.210  31.789  27.667  1.00  0.00     0.014 A 
ATOM     33  C   UNL A   1      35.883  29.213  28.512  1.00  0.00     0.010 A 
ATOM     34  C   UNL A   1      36.447  31.547  28.271  1.00  0.00     0.010 A 
ATOM     35  C   UNL A   1      36.784  30.264  28.730  1.00  0.00    -0.014 A 
BRANCH  35  36
ATOM     36  C   UNL A   1      38.033  30.089  29.521  1.00  0.00     0.031 A 
ATOM     37  C   UNL A   1      39.132  29.214  28.977  1.00  0.00     0.074 A 
ATOM     38  C   UNL A   1      38.170  30.640  30.742  1.00  0.00     0.049 A 
ATOM     39  N   UNL A   1      40.181  28.720  29.585  1.00  0.00    -0.248 NA
ATOM     40  C   UNL A   1      39.015  28.817  27.565  1.00  0.00     0.031 C 
ATOM     41  C   UNL A   1      37.198  31.515  31.395  1.00  0.00     0.029 A 
ATOM     42  N   UNL A   1      39.185  30.522  31.659  1.00  0.00    -0.354 N 
ATOM     43  C   UNL A   1      40.803  27.896  28.656  1.00  0.00     0.074 A 
ATOM     44  C   UNL A   1      40.024  27.966  27.438  1.00  0.00     0.031 C 
ATOM     45  C   UNL A   1      37.668  31.862  32.605  1.00  0.00     0.029 A 
ATOM     46  C   UNL A   1      38.950  31.199  32.830  1.00  0.00     0.049 A 
ATOM     47  H   UNL A   1      40.005  30.002  31.493  1.00  0.00     0.167 HD
ATOM     48  C   UNL A   1      41.918  27.143  28.805  1.00  0.00     0.037 A 
ATOM     49  C   UNL A   1      39.676  31.259  33.963  1.00  0.00     0.037 A 
ATOM     50  C   UNL A   1      42.745  27.132  29.982  1.00  0.00     0.049 A 
ATOM     51  C   UNL A   1      40.960  30.484  34.075  1.00  0.00     0.074 A 
ATOM     52  C   UNL A   1      43.909  26.420  30.216  1.00  0.00     0.029 A 
ATOM     53  N   UNL A   1      42.509  27.898  31.111  1.00  0.00    -0.354 N 
ATOM     54  N   UNL A   1      41.512  29.671  33.208  1.00  0.00    -0.248 NA
ATOM     55  C   UNL A   1      41.717  30.628  35.327  1.00  0.00     0.031 C 
ATOM     56  C   UNL A   1      44.379  26.755  31.491  1.00  0.00     0.029 A 
ATOM     57  C   UNL A   1      43.514  27.688  32.040  1.00  0.00     0.049 A 
ATOM     58  H   UNL A   1      41.741  28.501  31.236  1.00  0.00     0.167 HD
ATOM     59  C   UNL A   1      42.682  29.219  33.801  1.00  0.00     0.074 A 
ATOM     60  C   UNL A   1      42.770  29.854  35.099  1.00  0.00     0.031 C 
ATOM     61  C   UNL A   1      43.598  28.347  33.316  1.00  0.00     0.037 A 
BRANCH  48  62
ATOM     62  C   UNL A   1      42.299  26.245  27.669  1.00  0.00     0.064 A 
ATOM     63  C   UNL A   1      43.275  26.614  26.734  1.00  0.00     0.173 A 
ATOM     64  C   UNL A   1      41.696  24.987  27.534  1.00  0.00     0.173 A 
ATOM     65  F   UNL A   1      43.866  27.815  26.812  1.00  0.00    -0.203 F 
ATOM     66  C   UNL A   1      43.620  25.760  25.689  1.00  0.00     0.198 A 
ATOM     67  C   UNL A   1      42.056  24.126  26.500  1.00  0.00     0.198 A 
ATOM     68  F   UNL A   1      40.757  24.589  28.407  1.00  0.00    -0.203 F 
ATOM     69  F   UNL A   1      44.528  26.146  24.782  1.00  0.00    -0.200 F 
ATOM     70  C   UNL A   1      43.014  24.516  25.576  1.00  0.00     0.200 A 
ATOM     71  F   UNL A   1      41.474  22.924  26.396  1.00  0.00    -0.200 F 
ATOM     72  F   UNL A   1      43.347  23.696  24.571  1.00  0.00    -0.200 F 
ENDBRANCH  48  62
BRANCH  49  73
ATOM     73  C   UNL A   1      39.203  32.096  35.093  1.00  0.00     0.064 A 
ATOM     74  C   UNL A   1      38.467  31.529  36.141  1.00  0.00     0.173 A 
ATOM     75  C   UNL A   1      39.478  33.468  35.148  1.00  0.00     0.173 A 
ATOM     76  F   UNL A   1      38.163  30.223  36.115  1.00  0.00    -0.203 F 
ATOM     77  C   UNL A   1      38.015  32.309  37.203  1.00  0.00     0.198 A 
ATOM     78  C   UNL A   1      39.041  34.243  36.219  1.00  0.00     0.198 A 
ATOM     79  F   UNL A   1      40.183  34.052  34.168  1.00  0.00    -0.203 F 
ATOM     80  F   UNL A   1      37.289  31.749  38.180  1.00  0.00    -0.200 F 
ATOM     81  C   UNL A   1      38.306  33.663  37.243  1.00  0.00     0.200 A 
ATOM     82  F   UNL A   1      39.332  35.551  36.261  1.00  0.00    -0.200 F 
ATOM     83  F   UNL A   1      37.874  34.413  38.267  1.00  0.00    -0.200 F 
ENDBRANCH  49  73
BRANCH  61  84
ATOM     84  C   UNL A   1      44.791  28.056  34.170  1.00  0.00     0.064 A 
ATOM     85  C   UNL A   1      44.790  26.994  35.084  1.00  0.00     0.173 A 
ATOM     86  C   UNL A   1      45.961  28.817  34.037  1.00  0.00     0.173 A 
ATOM     87  F   UNL A   1      43.688  26.249  35.252  1.00  0.00    -0.203 F 
ATOM     88  C   UNL A   1      45.921  26.708  35.844  1.00  0.00     0.198 A 
ATOM     89  C   UNL A   1      47.094  28.521  34.789  1.00  0.00     0.198 A 
ATOM     90  F   UNL A   1      46.006  29.842  33.173  1.00  0.00    -0.203 F 
ATOM     91  F   UNL A   1      45.896  25.702  36.728  1.00  0.00    -0.200 F 
ATOM     92  C   UNL A   1      47.073  27.468  35.692  1.00  0.00     0.200 A 
ATOM     93  F   UNL A   1      48.207  29.254  34.641  1.00  0.00    -0.200 F 
ATOM     94  F   UNL A   1      48.161  27.188  36.422  1.00  0.00    -0.200 F 
ENDBRANCH  61  84
ENDBRANCH  35  36
ENDBRANCH  27  30
ENDBRANCH  25  26
ENDBRANCH  24  25
ENDBRANCH   1  24
TORSDOF 16
ENDMDL
MODEL 3
REMARK VINA RESULT:     -12.3      1.322      3.065
REMARK SMILES C[C@H](/N=C(\Cc1ccccc1)C(=O)OC(C)(C)C)C(=O)NCCCNC(=O)c1ccc(-c2c3nc(c(-c4c(F)c(F)c(F)c(F)c4F)c4ccc([nH]4)c(-c4c(F)c(F)c(F)c(F)c4F)c4nc(c(-c5c(F)c(F)c(F)c(F)c5F)c5ccc2[nH]5)C=C4)C=C3)cc1
REMARK SMILES IDX 22 1 21 2 19 3 20 4 2 6 1 7 3 8 4 9 5 10 6 11 7 12 11 13
REMARK SMILES IDX 8 14 10 15 9 16 12 17 13 18 14 19 15 20 16 21 17 22 18 23
REMARK SMILES IDX 23 24 24 25 25 26 26 27 27 29 28 30 29 31 90 32 30 33 89 34
REMARK SMILES IDX 31 35 32 36 33 37 83 38 34 39 88 40 82 41 84 42 35 43 87 44
REMARK SMILES IDX 81 45 80 46 36 48 68 49 48 50 67 51 49 52 52 53 66 54 85 55
REMARK SMILES IDX 50 56 51 57 65 59 86 60 53 61 37 62 38 63 46 64 39 65 40 66
REMARK SMILES IDX 44 67 47 68 41 69 42 70 45 71 43 72 69 73 70 74 78 75 71 76
REMARK SMILES IDX 72 77 76 78 79 79 73 80 74 81 77 82 75 83 54 84 55 85 63 86
REMARK SMILES IDX 56 87 57 88 61 89 64 90 58 91 59 92 62 93 60 94
REMARK H PARENT 21 5 25 28 84 47 52 58
REMARK Flexibility Score: inf
ROOT
ATOM      1  C   UNL A   1      33.672  28.131  22.714  1.00  0.00     0.117 C 
ENDROOT
BRANCH   1   2
ATOM      2  N   UNL A   1      33.017  27.353  21.680  1.00  0.00    -0.354 N 
ATOM      3  C   UNL A   1      32.805  26.029  21.467  1.00  0.00     0.244 C 
ATOM      4  O   UNL A   1      32.332  25.766  20.351  1.00  0.00    -0.273 OA
ATOM      5  H   UNL A   1      32.638  27.915  20.966  1.00  0.00     0.163 HD
BRANCH   3   6
ATOM      6  C   UNL A   1      33.100  24.876  22.454  1.00  0.00     0.191 C 
ATOM      7  C   UNL A   1      33.280  23.455  21.956  1.00  0.00     0.044 C 
BRANCH   6   8
ATOM      8  N   UNL A   1      32.383  25.007  23.729  1.00  0.00    -0.269 NA
ATOM      9  C   UNL A   1      32.820  25.212  24.918  1.00  0.00     0.125 C 
BRANCH   9  10
ATOM     10  C   UNL A   1      34.248  25.263  25.362  1.00  0.00     0.099 C 
BRANCH  10  11
ATOM     11  C   UNL A   1      35.093  24.020  25.309  1.00  0.00    -0.042 A 
ATOM     12  C   UNL A   1      34.487  22.764  25.172  1.00  0.00     0.004 A 
ATOM     13  C   UNL A   1      36.469  24.080  25.572  1.00  0.00     0.004 A 
ATOM     14  C   UNL A   1      35.233  21.595  25.337  1.00  0.00     0.000 A 
ATOM     15  C   UNL A   1      37.215  22.911  25.726  1.00  0.00     0.000 A 
ATOM     16  C   UNL A   1      36.593  21.669  25.622  1.00  0.00     0.000 A 
ENDBRANCH  10  11
ENDBRANCH   9  10
BRANCH   9  17
ATOM     17  C   UNL A   1      31.766  25.274  26.028  1.00  0.00     0.353 C 
ATOM     18  O   UNL A   1      31.767  26.123  26.898  1.00  0.00    -0.245 OA
BRANCH  17  19
ATOM     19  O   UNL A   1      30.857  24.302  25.806  1.00  0.00    -0.455 OA
BRANCH  19  20
ATOM     20  C   UNL A   1      30.902  23.046  26.530  1.00  0.00     0.104 C 
ATOM     21  C   UNL A   1      32.063  22.965  27.528  1.00  0.00     0.056 C 
ATOM     22  C   UNL A   1      29.553  22.800  27.211  1.00  0.00     0.056 C 
ATOM     23  C   UNL A   1      31.119  21.981  25.443  1.00  0.00     0.056 C 
ENDBRANCH  19  20
ENDBRANCH  17  19
ENDBRANCH   9  17
ENDBRANCH   6   8
ENDBRANCH   3   6
ENDBRANCH   1   2
BRANCH   1  24
ATOM     24  C   UNL A   1      32.649  28.832  23.609  1.00  0.00     0.042 C 
BRANCH  24  25
ATOM     25  C   UNL A   1      33.062  28.929  25.072  1.00  0.00     0.118 C 
BRANCH  25  26
ATOM     26  N   UNL A   1      32.595  30.176  25.663  1.00  0.00    -0.352 N 
ATOM     27  C   UNL A   1      33.046  30.890  26.748  1.00  0.00     0.251 C 
ATOM     28  H   UNL A   1      31.820  30.578  25.207  1.00  0.00     0.163 HD
ATOM     29  O   UNL A   1      32.309  31.748  27.230  1.00  0.00    -0.269 OA
BRANCH  27  30
ATOM     30  C   UNL A   1      34.389  30.676  27.350  1.00  0.00     0.039 A 
ATOM     31  C   UNL A   1      34.752  29.376  27.733  1.00  0.00     0.014 A 
ATOM     32  C   UNL A   1      35.237  31.736  27.675  1.00  0.00     0.014 A 
ATOM     33  C   UNL A   1      35.951  29.140  28.419  1.00  0.00     0.010 A 
ATOM     34  C   UNL A   1      36.467  31.494  28.291  1.00  0.00     0.010 A 
ATOM     35  C   UNL A   1      36.824  30.200  28.700  1.00  0.00    -0.014 A 
BRANCH  35  36
ATOM     36  C   UNL A   1      38.062  30.017  29.508  1.00  0.00     0.031 A 
ATOM     37  C   UNL A   1      39.170  29.149  28.970  1.00  0.00     0.074 A 
ATOM     38  C   UNL A   1      38.180  30.554  30.736  1.00  0.00     0.049 A 
ATOM     39  N   UNL A   1      40.210  28.649  29.588  1.00  0.00    -0.248 NA
ATOM     40  C   UNL A   1      39.073  28.767  27.552  1.00  0.00     0.031 C 
ATOM     41  C   UNL A   1      37.198  31.421  31.385  1.00  0.00     0.029 A 
ATOM     42  N   UNL A   1      39.182  30.427  31.667  1.00  0.00    -0.354 N 
ATOM     43  C   UNL A   1      40.846  27.836  28.659  1.00  0.00     0.074 A 
ATOM     44  C   UNL A   1      40.085  27.919  27.430  1.00  0.00     0.031 C 
ATOM     45  C   UNL A   1      37.650  31.755  32.606  1.00  0.00     0.029 A 
ATOM     46  C   UNL A   1      38.930  31.091  32.842  1.00  0.00     0.049 A 
ATOM     47  H   UNL A   1      40.005  29.909  31.507  1.00  0.00     0.167 HD
ATOM     48  C   UNL A   1      41.960  27.083  28.815  1.00  0.00     0.037 A 
ATOM     49  C   UNL A   1      39.638  31.139  33.986  1.00  0.00     0.037 A 
ATOM     50  C   UNL A   1      42.770  27.059  30.004  1.00  0.00     0.049 A 
ATOM     51  C   UNL A   1      40.922  30.363  34.108  1.00  0.00     0.074 A 
ATOM     52  C   UNL A   1      43.931  26.345  30.247  1.00  0.00     0.029 A 
ATOM     53  N   UNL A   1      42.516  27.812  31.138  1.00  0.00    -0.354 N 
ATOM     54  N   UNL A   1      41.487  29.561  33.240  1.00  0.00    -0.248 NA
ATOM     55  C   UNL A   1      41.660  30.494  35.372  1.00  0.00     0.031 C 
ATOM     56  C   UNL A   1      44.381  26.667  31.532  1.00  0.00     0.029 A 
ATOM     57  C   UNL A   1      43.508  27.593  32.080  1.00  0.00     0.049 A 
ATOM     58  H   UNL A   1      41.746  28.413  31.259  1.00  0.00     0.167 HD
ATOM     59  C   UNL A   1      42.649  29.103  33.845  1.00  0.00     0.074 A 
ATOM     60  C   UNL A   1      42.717  29.724  35.151  1.00  0.00     0.031 C 
ATOM     61  C   UNL A   1      43.573  28.238  33.363  1.00  0.00     0.037 A 
BRANCH  48  62
ATOM     62  C   UNL A   1      42.358  26.198  27.676  1.00  0.00     0.064 A 
ATOM     63  C   UNL A   1      43.342  26.581  26.754  1.00  0.00     0.173 A 
ATOM     64  C   UNL A   1      41.764  24.937  27.522  1.00  0.00     0.173 A 
ATOM     65  F   UNL A   1      43.925  27.784  26.851  1.00  0.00    -0.203 F 
ATOM     66  C   UNL A   1      43.703  25.739  25.705  1.00  0.00     0.198 A 
ATOM     67  C   UNL A   1      42.140  24.089  26.484  1.00  0.00     0.198 A 
ATOM     68  F   UNL A   1      40.818  24.527  28.381  1.00  0.00    -0.203 F 
ATOM     69  F   UNL A   1      44.619  26.138  24.812  1.00  0.00    -0.200 F 
ATOM     70  C   UNL A   1      43.106  24.493  25.574  1.00  0.00     0.200 A 
ATOM     71  F   UNL A   1      41.566  22.885  26.362  1.00  0.00    -0.200 F 
ATOM     72  F   UNL A   1      43.454  23.684  24.565  1.00  0.00    -0.200 F 
ENDBRANCH  48  62
BRANCH  49  73
ATOM     73  C   UNL A   1      39.148  31.963  35.118  1.00  0.00     0.064 A 
ATOM     74  C   UNL A   1      39.404  33.338  35.161  1.00  0.00     0.173 A 
ATOM     75  C   UNL A   1      38.417  31.395  36.169  1.00  0.00     0.173 A 
ATOM     76  F   UNL A   1      40.121  33.916  34.185  1.00  0.00    -0.203 F 
ATOM     77  C   UNL A   1      38.952  34.119  36.222  1.00  0.00     0.198 A 
ATOM     78  C   UNL A   1      37.950  32.180  37.221  1.00  0.00     0.198 A 
ATOM     79  F   UNL A   1      38.146  30.082  36.167  1.00  0.00    -0.203 F 
ATOM     80  F   UNL A   1      39.234  35.429  36.255  1.00  0.00    -0.200 F 
ATOM     81  C   UNL A   1      38.222  33.540  37.249  1.00  0.00     0.200 A 
ATOM     82  F   UNL A   1      37.236  31.620  38.207  1.00  0.00    -0.200 F 
ATOM     83  F   UNL A   1      37.784  34.292  38.268  1.00  0.00    -0.200 F 
ENDBRANCH  49  73
BRANCH  61  84
ATOM     84  C   UNL A   1      44.753  27.938  34.232  1.00  0.00     0.064 A 
ATOM     85  C   UNL A   1      44.750  26.852  35.116  1.00  0.00     0.173 A 
ATOM     86  C   UNL A   1      45.916  28.717  34.141  1.00  0.00     0.173 A 
ATOM     87  F   UNL A   1      43.654  26.089  35.244  1.00  0.00    -0.203 F 
ATOM     88  C   UNL A   1      45.870  26.559  35.889  1.00  0.00     0.198 A 
ATOM     89  C   UNL A   1      47.038  28.415  34.906  1.00  0.00     0.198 A 
ATOM     90  F   UNL A   1      45.963  29.766  33.307  1.00  0.00    -0.203 F 
ATOM     91  F   UNL A   1      45.842  25.528  36.745  1.00  0.00    -0.200 F 
ATOM     92  C   UNL A   1      47.015  27.337  35.780  1.00  0.00     0.200 A 
ATOM     93  F   UNL A   1      48.144  29.165  34.799  1.00  0.00    -0.200 F 
ATOM     94  F   UNL A   1      48.093  27.051  36.522  1.00  0.00    -0.200 F 
ENDBRANCH  61  84
ENDBRANCH  35  36
ENDBRANCH  27  30
ENDBRANCH  25  26
ENDBRANCH  24  25
ENDBRANCH   1  24
TORSDOF 16
ENDMDL
