MODEL 1
REMARK VINA RESULT:     -11.4      0.000      0.000
REMARK SMILES O=C(NCCCNC(=O)[C@]1(CCc2cccnc2)C[C@H]2CC[C@@H]1O2)c1ccc(-c2c3nc(c(-c4c(F)c(F)c(F)c(F)c4F)c4ccc([nH]4)c(-c4c(F)c(F)c(F)c(F)c4F)c4nc(c(-c5c(F)c(F)c(F)c(F)c5F)c5ccc2[nH]5)C=C4)C=C3)cc1
REMARK SMILES IDX 5 1 4 2 3 3 1 4 2 5 25 7 26 8 87 9 27 10 86 11 28 12 29 13
REMARK SMILES IDX 30 14 80 15 31 16 85 17 79 18 81 19 32 20 84 21 78 22 77 23
REMARK SMILES IDX 33 25 65 26 45 27 64 28 46 29 49 30 63 31 82 32 47 33 48 34
REMARK SMILES IDX 62 36 83 37 50 38 34 39 35 40 43 41 36 42 37 43 41 44 44 45
REMARK SMILES IDX 38 46 39 47 42 48 40 49 66 50 67 51 75 52 68 53 69 54 73 55
REMARK SMILES IDX 76 56 70 57 71 58 74 59 72 60 51 61 52 62 60 63 53 64 54 65
REMARK SMILES IDX 58 66 61 67 55 68 56 69 59 70 57 71 6 72 7 73 8 74 9 76
REMARK SMILES IDX 10 77 19 78 23 79 20 80 22 81 24 82 21 83 11 84 12 85 13 86
REMARK SMILES IDX 14 87 18 88 15 89 17 90 16 91
REMARK H PARENT 3 6 81 24 49 35 7 75
REMARK Flexibility Score: inf
ROOT
ATOM      1  C   UNL A   1      33.581  27.480  26.628  1.00  0.00     0.042 C 
ENDROOT
BRANCH   1   2
ATOM      2  C   UNL A   1      34.190  28.636  25.855  1.00  0.00     0.118 C 
BRANCH   2   3
ATOM      3  N   UNL A   1      33.811  29.928  26.416  1.00  0.00    -0.352 N 
ATOM      4  O   UNL A   1      33.762  31.564  27.974  1.00  0.00    -0.269 OA
ATOM      5  C   UNL A   1      34.362  30.620  27.465  1.00  0.00     0.251 C 
ATOM      6  H   UNL A   1      33.048  30.368  25.978  1.00  0.00     0.163 HD
BRANCH   5   7
ATOM      7  C   UNL A   1      35.680  30.216  27.993  1.00  0.00     0.039 A 
ATOM      8  C   UNL A   1      36.833  30.429  27.236  1.00  0.00     0.014 A 
ATOM      9  C   UNL A   1      35.770  29.635  29.260  1.00  0.00     0.014 A 
ATOM     10  C   UNL A   1      38.044  29.905  27.657  1.00  0.00     0.010 A 
ATOM     11  C   UNL A   1      37.014  29.223  29.741  1.00  0.00     0.010 A 
ATOM     12  C   UNL A   1      38.156  29.331  28.931  1.00  0.00    -0.014 A 
BRANCH  12  13
ATOM     13  C   UNL A   1      39.494  28.940  29.431  1.00  0.00     0.031 A 
ATOM     14  C   UNL A   1      40.268  29.832  30.353  1.00  0.00     0.074 A 
ATOM     15  C   UNL A   1      40.009  27.764  29.023  1.00  0.00     0.049 A 
ATOM     16  N   UNL A   1      41.481  29.681  30.822  1.00  0.00    -0.248 NA
ATOM     17  C   UNL A   1      39.600  31.063  30.799  1.00  0.00     0.031 C 
ATOM     18  C   UNL A   1      39.342  26.822  28.121  1.00  0.00     0.029 A 
ATOM     19  N   UNL A   1      41.208  27.162  29.303  1.00  0.00    -0.354 N 
ATOM     20  C   UNL A   1      41.733  30.808  31.591  1.00  0.00     0.074 A 
ATOM     21  C   UNL A   1      40.556  31.646  31.508  1.00  0.00     0.031 C 
ATOM     22  C   UNL A   1      40.128  25.755  27.937  1.00  0.00     0.029 A 
ATOM     23  C   UNL A   1      41.386  25.975  28.638  1.00  0.00     0.049 A 
ATOM     24  H   UNL A   1      41.875  27.544  29.919  1.00  0.00     0.167 HD
ATOM     25  C   UNL A   1      42.848  31.107  32.301  1.00  0.00     0.037 A 
ATOM     26  C   UNL A   1      42.462  25.171  28.558  1.00  0.00     0.037 A 
ATOM     27  C   UNL A   1      44.006  30.252  32.373  1.00  0.00     0.049 A 
ATOM     28  C   UNL A   1      43.699  25.541  29.319  1.00  0.00     0.074 A 
ATOM     29  C   UNL A   1      45.170  30.435  33.101  1.00  0.00     0.029 A 
ATOM     30  N   UNL A   1      44.155  29.058  31.679  1.00  0.00    -0.354 N 
ATOM     31  N   UNL A   1      43.916  26.590  30.076  1.00  0.00    -0.248 NA
ATOM     32  C   UNL A   1      44.839  24.625  29.216  1.00  0.00     0.031 C 
ATOM     33  C   UNL A   1      46.045  29.389  32.794  1.00  0.00     0.029 A 
ATOM     34  C   UNL A   1      45.405  28.513  31.932  1.00  0.00     0.049 A 
ATOM     35  H   UNL A   1      43.473  28.657  31.093  1.00  0.00     0.167 HD
ATOM     36  C   UNL A   1      45.208  26.451  30.558  1.00  0.00     0.074 A 
ATOM     37  C   UNL A   1      45.723  25.210  30.013  1.00  0.00     0.031 C 
ATOM     38  C   UNL A   1      45.901  27.276  31.381  1.00  0.00     0.037 A 
BRANCH  25  39
ATOM     39  C   UNL A   1      42.885  32.429  33.012  1.00  0.00     0.064 A 
ATOM     40  C   UNL A   1      42.465  32.574  34.344  1.00  0.00     0.173 A 
ATOM     41  C   UNL A   1      43.363  33.573  32.353  1.00  0.00     0.173 A 
ATOM     42  F   UNL A   1      41.994  31.516  35.022  1.00  0.00    -0.203 F 
ATOM     43  C   UNL A   1      42.477  33.819  34.971  1.00  0.00     0.198 A 
ATOM     44  C   UNL A   1      43.407  34.809  32.994  1.00  0.00     0.198 A 
ATOM     45  F   UNL A   1      43.789  33.495  31.084  1.00  0.00    -0.203 F 
ATOM     46  F   UNL A   1      42.007  33.942  36.219  1.00  0.00    -0.200 F 
ATOM     47  C   UNL A   1      42.951  34.933  34.296  1.00  0.00     0.200 A 
ATOM     48  F   UNL A   1      43.882  35.882  32.346  1.00  0.00    -0.200 F 
ATOM     49  F   UNL A   1      42.959  36.130  34.900  1.00  0.00    -0.200 F 
ENDBRANCH  25  39
BRANCH  26  50
ATOM     50  C   UNL A   1      42.396  23.964  27.697  1.00  0.00     0.064 A 
ATOM     51  C   UNL A   1      42.730  24.022  26.339  1.00  0.00     0.173 A 
ATOM     52  C   UNL A   1      42.060  22.711  28.236  1.00  0.00     0.173 A 
ATOM     53  F   UNL A   1      43.046  25.197  25.778  1.00  0.00    -0.203 F 
ATOM     54  C   UNL A   1      42.729  22.872  25.551  1.00  0.00     0.198 A 
ATOM     55  C   UNL A   1      42.089  21.559  27.455  1.00  0.00     0.198 A 
ATOM     56  F   UNL A   1      41.745  22.601  29.535  1.00  0.00    -0.203 F 
ATOM     57  F   UNL A   1      43.030  22.957  24.248  1.00  0.00    -0.200 F 
ATOM     58  C   UNL A   1      42.420  21.641  26.111  1.00  0.00     0.200 A 
ATOM     59  F   UNL A   1      41.816  20.370  28.007  1.00  0.00    -0.200 F 
ATOM     60  F   UNL A   1      42.442  20.535  25.356  1.00  0.00    -0.200 F 
ENDBRANCH  26  50
BRANCH  38  61
ATOM     61  C   UNL A   1      47.284  26.849  31.776  1.00  0.00     0.064 A 
ATOM     62  C   UNL A   1      47.507  25.948  32.827  1.00  0.00     0.173 A 
ATOM     63  C   UNL A   1      48.396  27.299  31.046  1.00  0.00     0.173 A 
ATOM     64  F   UNL A   1      46.480  25.504  33.566  1.00  0.00    -0.203 F 
ATOM     65  C   UNL A   1      48.795  25.519  33.138  1.00  0.00     0.198 A 
ATOM     66  C   UNL A   1      49.677  26.845  31.341  1.00  0.00     0.198 A 
ATOM     67  F   UNL A   1      48.235  28.161  30.031  1.00  0.00    -0.203 F 
ATOM     68  F   UNL A   1      48.991  24.684  34.168  1.00  0.00    -0.200 F 
ATOM     69  C   UNL A   1      49.877  25.958  32.387  1.00  0.00     0.200 A 
ATOM     70  F   UNL A   1      50.718  27.258  30.605  1.00  0.00    -0.200 F 
ATOM     71  F   UNL A   1      51.113  25.528  32.676  1.00  0.00    -0.200 F 
ENDBRANCH  38  61
ENDBRANCH  12  13
ENDBRANCH   5   7
ENDBRANCH   2   3
ENDBRANCH   1   2
BRANCH   1  72
ATOM     72  C   UNL A   1      32.219  27.083  26.094  1.00  0.00     0.117 C 
BRANCH  72  73
ATOM     73  N   UNL A   1      31.696  25.928  26.799  1.00  0.00    -0.355 N 
ATOM     74  C   UNL A   1      31.756  24.596  26.594  1.00  0.00     0.228 C 
ATOM     75  H   UNL A   1      31.185  26.170  27.604  1.00  0.00     0.163 HD
ATOM     76  O   UNL A   1      30.939  23.929  27.246  1.00  0.00    -0.274 OA
BRANCH  74  77
ATOM     77  C   UNL A   1      32.709  23.881  25.620  1.00  0.00     0.078 C 
ATOM     78  C   UNL A   1      32.910  24.406  24.188  1.00  0.00     0.051 C 
ATOM     79  C   UNL A   1      31.966  22.556  25.330  1.00  0.00     0.134 C 
ATOM     80  C   UNL A   1      32.019  23.467  23.357  1.00  0.00     0.120 C 
ATOM     81  C   UNL A   1      32.754  21.533  24.507  1.00  0.00     0.036 C 
ATOM     82  O   UNL A   1      31.031  23.023  24.311  1.00  0.00    -0.374 OA
ATOM     83  C   UNL A   1      32.741  22.150  23.106  1.00  0.00     0.035 C 
BRANCH  77  84
ATOM     84  C   UNL A   1      34.085  23.761  26.336  1.00  0.00     0.024 C 
BRANCH  84  85
ATOM     85  C   UNL A   1      35.316  24.093  25.448  1.00  0.00     0.038 C 
BRANCH  85  86
ATOM     86  C   UNL A   1      36.505  23.184  25.622  1.00  0.00    -0.030 A 
ATOM     87  C   UNL A   1      37.715  23.665  26.127  1.00  0.00     0.007 A 
ATOM     88  C   UNL A   1      36.471  21.849  25.224  1.00  0.00     0.114 A 
ATOM     89  C   UNL A   1      38.829  22.833  26.162  1.00  0.00     0.020 A 
ATOM     90  N   UNL A   1      37.539  21.018  25.232  1.00  0.00    -0.264 NA
ATOM     91  C   UNL A   1      38.698  21.536  25.690  1.00  0.00     0.111 A 
ENDBRANCH  85  86
ENDBRANCH  84  85
ENDBRANCH  77  84
ENDBRANCH  74  77
ENDBRANCH  72  73
ENDBRANCH   1  72
TORSDOF 13
ENDMDL
MODEL 2
REMARK VINA RESULT:     -11.4      3.706      9.174
REMARK SMILES O=C(NCCCNC(=O)[C@]1(CCc2cccnc2)C[C@H]2CC[C@@H]1O2)c1ccc(-c2c3nc(c(-c4c(F)c(F)c(F)c(F)c4F)c4ccc([nH]4)c(-c4c(F)c(F)c(F)c(F)c4F)c4nc(c(-c5c(F)c(F)c(F)c(F)c5F)c5ccc2[nH]5)C=C4)C=C3)cc1
REMARK SMILES IDX 5 1 4 2 3 3 1 4 2 5 25 7 26 8 87 9 27 10 86 11 28 12 29 13
REMARK SMILES IDX 30 14 80 15 31 16 85 17 79 18 81 19 32 20 84 21 78 22 77 23
REMARK SMILES IDX 33 25 65 26 45 27 64 28 46 29 49 30 63 31 82 32 47 33 48 34
REMARK SMILES IDX 62 36 83 37 50 38 34 39 35 40 43 41 36 42 37 43 41 44 44 45
REMARK SMILES IDX 38 46 39 47 42 48 40 49 66 50 67 51 75 52 68 53 69 54 73 55
REMARK SMILES IDX 76 56 70 57 71 58 74 59 72 60 51 61 52 62 60 63 53 64 54 65
REMARK SMILES IDX 58 66 61 67 55 68 56 69 59 70 57 71 6 72 7 73 8 74 9 76
REMARK SMILES IDX 10 77 19 78 23 79 20 80 22 81 24 82 21 83 11 84 12 85 13 86
REMARK SMILES IDX 14 87 18 88 15 89 17 90 16 91
REMARK H PARENT 3 6 81 24 49 35 7 75
REMARK Flexibility Score: inf
ROOT
ATOM      1  C   UNL A   1      31.327  31.713  26.493  1.00  0.00     0.042 C 
ENDROOT
BRANCH   1   2
ATOM      2  C   UNL A   1      32.637  32.377  26.876  1.00  0.00     0.118 C 
BRANCH   2   3
ATOM      3  N   UNL A   1      32.440  33.748  27.337  1.00  0.00    -0.352 N 
ATOM      4  O   UNL A   1      32.559  35.469  28.795  1.00  0.00    -0.269 OA
ATOM      5  C   UNL A   1      33.028  34.410  28.385  1.00  0.00     0.251 C 
ATOM      6  H   UNL A   1      31.789  34.275  26.820  1.00  0.00     0.163 HD
BRANCH   5   7
ATOM      7  C   UNL A   1      34.224  33.835  29.031  1.00  0.00     0.039 A 
ATOM      8  C   UNL A   1      34.095  32.765  29.918  1.00  0.00     0.014 A 
ATOM      9  C   UNL A   1      35.487  34.355  28.738  1.00  0.00     0.014 A 
ATOM     10  C   UNL A   1      35.192  32.333  30.646  1.00  0.00     0.010 A 
ATOM     11  C   UNL A   1      36.612  33.831  29.377  1.00  0.00     0.010 A 
ATOM     12  C   UNL A   1      36.468  32.834  30.356  1.00  0.00    -0.014 A 
BRANCH  12  13
ATOM     13  C   UNL A   1      37.648  32.233  31.020  1.00  0.00     0.031 A 
ATOM     14  C   UNL A   1      38.434  31.141  30.361  1.00  0.00     0.074 A 
ATOM     15  C   UNL A   1      37.989  32.680  32.243  1.00  0.00     0.049 A 
ATOM     16  N   UNL A   1      39.442  30.451  30.832  1.00  0.00    -0.248 NA
ATOM     17  C   UNL A   1      38.031  30.763  28.999  1.00  0.00     0.031 C 
ATOM     18  C   UNL A   1      37.287  33.736  32.977  1.00  0.00     0.029 A 
ATOM     19  N   UNL A   1      39.001  32.306  33.087  1.00  0.00    -0.354 N 
ATOM     20  C   UNL A   1      39.773  29.539  29.840  1.00  0.00     0.074 A 
ATOM     21  C   UNL A   1      38.844  29.747  28.749  1.00  0.00     0.031 C 
ATOM     22  C   UNL A   1      37.898  33.939  34.151  1.00  0.00     0.029 A 
ATOM     23  C   UNL A   1      38.980  32.973  34.287  1.00  0.00     0.049 A 
ATOM     24  H   UNL A   1      39.675  31.627  32.857  1.00  0.00     0.167 HD
ATOM     25  C   UNL A   1      40.766  28.616  29.847  1.00  0.00     0.037 A 
ATOM     26  C   UNL A   1      39.718  32.796  35.398  1.00  0.00     0.037 A 
ATOM     27  C   UNL A   1      41.684  28.432  30.942  1.00  0.00     0.049 A 
ATOM     28  C   UNL A   1      40.784  31.742  35.397  1.00  0.00     0.074 A 
ATOM     29  C   UNL A   1      42.756  27.561  31.034  1.00  0.00     0.029 A 
ATOM     30  N   UNL A   1      41.627  29.121  32.147  1.00  0.00    -0.354 N 
ATOM     31  N   UNL A   1      41.117  30.910  34.441  1.00  0.00    -0.248 NA
ATOM     32  C   UNL A   1      41.575  31.599  36.624  1.00  0.00     0.031 C 
ATOM     33  C   UNL A   1      43.303  27.675  32.315  1.00  0.00     0.029 A 
ATOM     34  C   UNL A   1      42.622  28.669  33.001  1.00  0.00     0.049 A 
ATOM     35  H   UNL A   1      40.977  29.828  32.364  1.00  0.00     0.167 HD
ATOM     36  C   UNL A   1      42.168  30.157  34.940  1.00  0.00     0.074 A 
ATOM     37  C   UNL A   1      42.423  30.639  36.283  1.00  0.00     0.031 C 
ATOM     38  C   UNL A   1      42.861  29.160  34.336  1.00  0.00     0.037 A 
BRANCH  25  39
ATOM     39  C   UNL A   1      40.878  27.708  28.655  1.00  0.00     0.064 A 
ATOM     40  C   UNL A   1      40.112  26.538  28.532  1.00  0.00     0.173 A 
ATOM     41  C   UNL A   1      41.761  28.020  27.609  1.00  0.00     0.173 A 
ATOM     42  F   UNL A   1      39.256  26.186  29.503  1.00  0.00    -0.203 F 
ATOM     43  C   UNL A   1      40.260  25.694  27.433  1.00  0.00     0.198 A 
ATOM     44  C   UNL A   1      41.881  27.193  26.495  1.00  0.00     0.198 A 
ATOM     45  F   UNL A   1      42.512  29.131  27.665  1.00  0.00    -0.203 F 
ATOM     46  F   UNL A   1      39.566  24.549  27.372  1.00  0.00    -0.200 F 
ATOM     47  C   UNL A   1      41.141  26.024  26.414  1.00  0.00     0.200 A 
ATOM     48  F   UNL A   1      42.721  27.523  25.504  1.00  0.00    -0.200 F 
ATOM     49  F   UNL A   1      41.284  25.210  25.359  1.00  0.00    -0.200 F 
ENDBRANCH  25  39
BRANCH  26  50
ATOM     50  C   UNL A   1      39.430  33.628  36.593  1.00  0.00     0.064 A 
ATOM     51  C   UNL A   1      38.622  33.152  37.631  1.00  0.00     0.173 A 
ATOM     52  C   UNL A   1      40.018  34.895  36.747  1.00  0.00     0.173 A 
ATOM     53  F   UNL A   1      38.031  31.954  37.523  1.00  0.00    -0.203 F 
ATOM     54  C   UNL A   1      38.409  33.913  38.780  1.00  0.00     0.198 A 
ATOM     55  C   UNL A   1      39.829  35.640  37.908  1.00  0.00     0.198 A 
ATOM     56  F   UNL A   1      40.811  35.389  35.786  1.00  0.00    -0.203 F 
ATOM     57  F   UNL A   1      37.612  33.445  39.750  1.00  0.00    -0.200 F 
ATOM     58  C   UNL A   1      39.021  35.150  38.922  1.00  0.00     0.200 A 
ATOM     59  F   UNL A   1      40.443  36.821  38.051  1.00  0.00    -0.200 F 
ATOM     60  F   UNL A   1      38.833  35.868  40.037  1.00  0.00    -0.200 F 
ENDBRANCH  26  50
BRANCH  38  61
ATOM     61  C   UNL A   1      43.991  28.543  35.107  1.00  0.00     0.064 A 
ATOM     62  C   UNL A   1      43.806  27.405  35.905  1.00  0.00     0.173 A 
ATOM     63  C   UNL A   1      45.290  29.061  34.989  1.00  0.00     0.173 A 
ATOM     64  F   UNL A   1      42.580  26.884  36.065  1.00  0.00    -0.203 F 
ATOM     65  C   UNL A   1      44.880  26.813  36.565  1.00  0.00     0.198 A 
ATOM     66  C   UNL A   1      46.365  28.448  35.624  1.00  0.00     0.198 A 
ATOM     67  F   UNL A   1      45.520  30.147  34.236  1.00  0.00    -0.203 F 
ATOM     68  F   UNL A   1      44.676  25.747  37.351  1.00  0.00    -0.200 F 
ATOM     69  C   UNL A   1      46.160  27.328  36.414  1.00  0.00     0.200 A 
ATOM     70  F   UNL A   1      47.603  28.938  35.465  1.00  0.00    -0.200 F 
ATOM     71  F   UNL A   1      47.195  26.744  37.033  1.00  0.00    -0.200 F 
ENDBRANCH  38  61
ENDBRANCH  12  13
ENDBRANCH   5   7
ENDBRANCH   2   3
ENDBRANCH   1   2
BRANCH   1  72
ATOM     72  C   UNL A   1      31.499  30.242  26.167  1.00  0.00     0.117 C 
BRANCH  72  73
ATOM     73  N   UNL A   1      32.248  30.062  24.939  1.00  0.00    -0.355 N 
ATOM     74  C   UNL A   1      32.378  29.048  24.058  1.00  0.00     0.228 C 
ATOM     75  H   UNL A   1      32.778  30.853  24.694  1.00  0.00     0.163 HD
ATOM     76  O   UNL A   1      33.338  29.150  23.279  1.00  0.00    -0.274 OA
BRANCH  74  77
ATOM     77  C   UNL A   1      31.472  27.805  23.982  1.00  0.00     0.078 C 
ATOM     78  C   UNL A   1      30.653  27.352  25.203  1.00  0.00     0.051 C 
ATOM     79  C   UNL A   1      32.492  26.648  23.882  1.00  0.00     0.134 C 
ATOM     80  C   UNL A   1      31.497  26.193  25.761  1.00  0.00     0.120 C 
ATOM     81  C   UNL A   1      31.886  25.266  23.618  1.00  0.00     0.036 C 
ATOM     82  O   UNL A   1      32.827  26.502  25.296  1.00  0.00    -0.374 OA
ATOM     83  C   UNL A   1      31.235  24.925  24.961  1.00  0.00     0.035 C 
BRANCH  77  84
ATOM     84  C   UNL A   1      30.530  28.005  22.760  1.00  0.00     0.024 C 
BRANCH  84  85
ATOM     85  C   UNL A   1      29.120  28.561  23.104  1.00  0.00     0.038 C 
BRANCH  85  86
ATOM     86  C   UNL A   1      28.851  29.972  22.652  1.00  0.00    -0.030 A 
ATOM     87  C   UNL A   1      28.973  31.049  23.533  1.00  0.00     0.007 A 
ATOM     88  C   UNL A   1      28.404  30.257  21.363  1.00  0.00     0.114 A 
ATOM     89  C   UNL A   1      28.600  32.324  23.121  1.00  0.00     0.020 A 
ATOM     90  N   UNL A   1      28.021  31.482  20.935  1.00  0.00    -0.264 NA
ATOM     91  C   UNL A   1      28.117  32.486  21.833  1.00  0.00     0.111 A 
ENDBRANCH  85  86
ENDBRANCH  84  85
ENDBRANCH  77  84
ENDBRANCH  74  77
ENDBRANCH  72  73
ENDBRANCH   1  72
TORSDOF 13
ENDMDL
MODEL 3
REMARK VINA RESULT:     -11.4      3.624      9.085
REMARK SMILES O=C(NCCCNC(=O)[C@]1(CCc2cccnc2)C[C@H]2CC[C@@H]1O2)c1ccc(-c2c3nc(c(-c4c(F)c(F)c(F)c(F)c4F)c4ccc([nH]4)c(-c4c(F)c(F)c(F)c(F)c4F)c4nc(c(-c5c(F)c(F)c(F)c(F)c5F)c5ccc2[nH]5)C=C4)C=C3)cc1
REMARK SMILES IDX 5 1 4 2 3 3 1 4 2 5 25 7 26 8 87 9 27 10 86 11 28 12 29 13
REMARK SMILES IDX 30 14 80 15 31 16 85 17 79 18 81 19 32 20 84 21 78 22 77 23
REMARK SMILES IDX 33 25 65 26 45 27 64 28 46 29 49 30 63 31 82 32 47 33 48 34
REMARK SMILES IDX 62 36 83 37 50 38 34 39 35 40 43 41 36 42 37 43 41 44 44 45
REMARK SMILES IDX 38 46 39 47 42 48 40 49 66 50 67 51 75 52 68 53 69 54 73 55
REMARK SMILES IDX 76 56 70 57 71 58 74 59 72 60 51 61 52 62 60 63 53 64 54 65
REMARK SMILES IDX 58 66 61 67 55 68 56 69 59 70 57 71 6 72 7 73 8 74 9 76
REMARK SMILES IDX 10 77 19 78 23 79 20 80 22 81 24 82 21 83 11 84 12 85 13 86
REMARK SMILES IDX 14 87 18 88 15 89 17 90 16 91
REMARK H PARENT 3 6 81 24 49 35 7 75
REMARK Flexibility Score: inf
ROOT
ATOM      1  C   UNL A   1      31.361  31.608  26.177  1.00  0.00     0.042 C 
ENDROOT
BRANCH   1   2
ATOM      2  C   UNL A   1      32.550  32.115  26.972  1.00  0.00     0.118 C 
BRANCH   2   3
ATOM      3  N   UNL A   1      32.403  33.519  27.340  1.00  0.00    -0.352 N 
ATOM      4  O   UNL A   1      32.642  35.341  28.654  1.00  0.00    -0.269 OA
ATOM      5  C   UNL A   1      33.068  34.246  28.295  1.00  0.00     0.251 C 
ATOM      6  H   UNL A   1      31.727  34.018  26.828  1.00  0.00     0.163 HD
BRANCH   5   7
ATOM      7  C   UNL A   1      34.296  33.699  28.904  1.00  0.00     0.039 A 
ATOM      8  C   UNL A   1      34.220  32.614  29.779  1.00  0.00     0.014 A 
ATOM      9  C   UNL A   1      35.536  34.260  28.588  1.00  0.00     0.014 A 
ATOM     10  C   UNL A   1      35.346  32.205  30.475  1.00  0.00     0.010 A 
ATOM     11  C   UNL A   1      36.690  33.761  29.193  1.00  0.00     0.010 A 
ATOM     12  C   UNL A   1      36.600  32.748  30.161  1.00  0.00    -0.014 A 
BRANCH  12  13
ATOM     13  C   UNL A   1      37.813  32.173  30.787  1.00  0.00     0.031 A 
ATOM     14  C   UNL A   1      38.607  31.104  30.101  1.00  0.00     0.074 A 
ATOM     15  C   UNL A   1      38.177  32.623  32.003  1.00  0.00     0.049 A 
ATOM     16  N   UNL A   1      39.645  30.437  30.540  1.00  0.00    -0.248 NA
ATOM     17  C   UNL A   1      38.174  30.722  28.749  1.00  0.00     0.031 C 
ATOM     18  C   UNL A   1      37.471  33.658  32.763  1.00  0.00     0.029 A 
ATOM     19  N   UNL A   1      39.222  32.271  32.816  1.00  0.00    -0.354 N 
ATOM     20  C   UNL A   1      39.970  29.539  29.534  1.00  0.00     0.074 A 
ATOM     21  C   UNL A   1      39.005  29.728  28.471  1.00  0.00     0.031 C 
ATOM     22  C   UNL A   1      38.110  33.870  33.919  1.00  0.00     0.029 A 
ATOM     23  C   UNL A   1      39.219  32.931  34.020  1.00  0.00     0.049 A 
ATOM     24  H   UNL A   1      39.906  31.609  32.563  1.00  0.00     0.167 HD
ATOM     25  C   UNL A   1      40.985  28.641  29.507  1.00  0.00     0.037 A 
ATOM     26  C   UNL A   1      39.992  32.767  35.108  1.00  0.00     0.037 A 
ATOM     27  C   UNL A   1      41.938  28.475  30.576  1.00  0.00     0.049 A 
ATOM     28  C   UNL A   1      41.083  31.741  35.072  1.00  0.00     0.074 A 
ATOM     29  C   UNL A   1      43.033  27.630  30.632  1.00  0.00     0.029 A 
ATOM     30  N   UNL A   1      41.899  29.157  31.785  1.00  0.00    -0.354 N 
ATOM     31  N   UNL A   1      41.410  30.921  34.102  1.00  0.00    -0.248 NA
ATOM     32  C   UNL A   1      41.912  31.612  36.275  1.00  0.00     0.031 C 
ATOM     33  C   UNL A   1      43.614  27.752  31.898  1.00  0.00     0.029 A 
ATOM     34  C   UNL A   1      42.928  28.725  32.608  1.00  0.00     0.049 A 
ATOM     35  H   UNL A   1      41.238  29.846  32.024  1.00  0.00     0.167 HD
ATOM     36  C   UNL A   1      42.493  30.193  34.567  1.00  0.00     0.074 A 
ATOM     37  C   UNL A   1      42.775  30.675  35.905  1.00  0.00     0.031 C 
ATOM     38  C   UNL A   1      43.194  29.217  33.938  1.00  0.00     0.037 A 
BRANCH  25  39
ATOM     39  C   UNL A   1      41.086  27.741  28.308  1.00  0.00     0.064 A 
ATOM     40  C   UNL A   1      40.406  26.515  28.235  1.00  0.00     0.173 A 
ATOM     41  C   UNL A   1      41.868  28.118  27.205  1.00  0.00     0.173 A 
ATOM     42  F   UNL A   1      39.648  26.100  29.261  1.00  0.00    -0.203 F 
ATOM     43  C   UNL A   1      40.544  25.682  27.125  1.00  0.00     0.198 A 
ATOM     44  C   UNL A   1      41.975  27.300  26.083  1.00  0.00     0.198 A 
ATOM     45  F   UNL A   1      42.532  29.284  27.213  1.00  0.00    -0.203 F 
ATOM     46  F   UNL A   1      39.938  24.487  27.108  1.00  0.00    -0.200 F 
ATOM     47  C   UNL A   1      41.325  26.077  26.050  1.00  0.00     0.200 A 
ATOM     48  F   UNL A   1      42.717  27.692  25.038  1.00  0.00    -0.200 F 
ATOM     49  F   UNL A   1      41.458  25.274  24.985  1.00  0.00    -0.200 F 
ENDBRANCH  25  39
BRANCH  26  50
ATOM     50  C   UNL A   1      39.718  33.587  36.315  1.00  0.00     0.064 A 
ATOM     51  C   UNL A   1      40.268  34.865  36.464  1.00  0.00     0.173 A 
ATOM     52  C   UNL A   1      38.841  33.130  37.313  1.00  0.00     0.173 A 
ATOM     53  F   UNL A   1      41.119  35.339  35.543  1.00  0.00    -0.203 F 
ATOM     54  C   UNL A   1      39.955  35.656  37.568  1.00  0.00     0.198 A 
ATOM     55  C   UNL A   1      38.505  33.933  38.400  1.00  0.00     0.198 A 
ATOM     56  F   UNL A   1      38.278  31.918  37.209  1.00  0.00    -0.203 F 
ATOM     57  F   UNL A   1      40.513  36.867  37.701  1.00  0.00    -0.200 F 
ATOM     58  C   UNL A   1      39.066  35.195  38.529  1.00  0.00     0.200 A 
ATOM     59  F   UNL A   1      37.627  33.493  39.310  1.00  0.00    -0.200 F 
ATOM     60  F   UNL A   1      38.749  35.966  39.577  1.00  0.00    -0.200 F 
ENDBRANCH  26  50
BRANCH  38  61
ATOM     61  C   UNL A   1      44.360  28.624  34.674  1.00  0.00     0.064 A 
ATOM     62  C   UNL A   1      45.633  29.209  34.633  1.00  0.00     0.173 A 
ATOM     63  C   UNL A   1      44.179  27.493  35.485  1.00  0.00     0.173 A 
ATOM     64  F   UNL A   1      45.861  30.280  33.857  1.00  0.00    -0.203 F 
ATOM     65  C   UNL A   1      46.687  28.676  35.371  1.00  0.00     0.198 A 
ATOM     66  C   UNL A   1      45.227  26.983  36.245  1.00  0.00     0.198 A 
ATOM     67  F   UNL A   1      42.979  26.898  35.559  1.00  0.00    -0.203 F 
ATOM     68  F   UNL A   1      47.906  29.229  35.290  1.00  0.00    -0.200 F 
ATOM     69  C   UNL A   1      46.480  27.572  36.185  1.00  0.00     0.200 A 
ATOM     70  F   UNL A   1      45.020  25.926  37.042  1.00  0.00    -0.200 F 
ATOM     71  F   UNL A   1      47.491  27.074  36.910  1.00  0.00    -0.200 F 
ENDBRANCH  38  61
ENDBRANCH  12  13
ENDBRANCH   5   7
ENDBRANCH   2   3
ENDBRANCH   1   2
BRANCH   1  72
ATOM     72  C   UNL A   1      31.464  30.128  25.863  1.00  0.00     0.117 C 
BRANCH  72  73
ATOM     73  N   UNL A   1      32.316  29.896  24.713  1.00  0.00    -0.355 N 
ATOM     74  C   UNL A   1      32.449  28.883  23.831  1.00  0.00     0.228 C 
ATOM     75  H   UNL A   1      32.934  30.641  24.537  1.00  0.00     0.163 HD
ATOM     76  O   UNL A   1      33.488  28.910  23.154  1.00  0.00    -0.274 OA
BRANCH  74  77
ATOM     77  C   UNL A   1      31.453  27.725  23.641  1.00  0.00     0.078 C 
ATOM     78  C   UNL A   1      30.706  27.123  24.843  1.00  0.00     0.051 C 
ATOM     79  C   UNL A   1      32.376  26.542  23.265  1.00  0.00     0.134 C 
ATOM     80  C   UNL A   1      31.506  25.842  25.130  1.00  0.00     0.120 C 
ATOM     81  C   UNL A   1      31.653  25.261  22.840  1.00  0.00     0.036 C 
ATOM     82  O   UNL A   1      32.814  26.147  24.600  1.00  0.00    -0.374 OA
ATOM     83  C   UNL A   1      31.091  24.740  24.165  1.00  0.00     0.035 C 
BRANCH  77  84
ATOM     84  C   UNL A   1      30.432  28.177  22.558  1.00  0.00     0.024 C 
BRANCH  84  85
ATOM     85  C   UNL A   1      29.141  28.842  23.112  1.00  0.00     0.038 C 
BRANCH  85  86
ATOM     86  C   UNL A   1      28.850  30.226  22.592  1.00  0.00    -0.030 A 
ATOM     87  C   UNL A   1      28.861  31.334  23.443  1.00  0.00     0.007 A 
ATOM     88  C   UNL A   1      28.491  30.450  21.265  1.00  0.00     0.114 A 
ATOM     89  C   UNL A   1      28.469  32.579  22.960  1.00  0.00     0.020 A 
ATOM     90  N   UNL A   1      28.092  31.643  20.768  1.00  0.00    -0.264 NA
ATOM     91  C   UNL A   1      28.079  32.679  21.634  1.00  0.00     0.111 A 
ENDBRANCH  85  86
ENDBRANCH  84  85
ENDBRANCH  77  84
ENDBRANCH  74  77
ENDBRANCH  72  73
ENDBRANCH   1  72
TORSDOF 13
ENDMDL
