MODEL 1
REMARK VINA RESULT:     -12.9      0.000      0.000
REMARK SMILES Cc1cc(C)c(C(=O)N[C@@H]2C=C[C@@H](C(=O)NCCCNC(=O)c3ccc(-c4c5nc(c(-c6c(F)c(F)c(F)c(F)c6F)c6ccc([nH]6)c(-c6c(F)c(F)c(F)c(F)c6F)c6nc(c(-c7c(F)c(F)c(F)c(F)c7F)c7ccc4[nH]7)C=C6)C=C5)cc3)C2)c(C)c1
REMARK SMILES IDX 18 1 17 2 16 3 14 4 15 5 13 7 10 8 11 9 86 10 12 11 9 12
REMARK SMILES IDX 7 13 8 14 6 16 1 17 2 18 3 19 89 20 4 21 87 22 5 23 88 24
REMARK SMILES IDX 19 25 20 26 21 27 22 29 23 30 24 31 85 32 25 33 84 34 26 35
REMARK SMILES IDX 27 36 28 37 78 38 29 39 83 40 77 41 79 42 30 43 82 44 76 45
REMARK SMILES IDX 75 46 31 48 63 49 43 50 62 51 44 52 47 53 61 54 80 55 45 56
REMARK SMILES IDX 46 57 60 59 81 60 48 61 32 62 33 63 41 64 34 65 35 66 39 67
REMARK SMILES IDX 42 68 36 69 37 70 40 71 38 72 64 73 65 74 73 75 66 76 67 77
REMARK SMILES IDX 71 78 74 79 68 80 69 81 72 82 70 83 49 84 50 85 58 86 51 87
REMARK SMILES IDX 52 88 56 89 59 90 53 91 54 92 57 93 55 94
REMARK H PARENT 16 6 9 15 20 28 79 47 47 58
REMARK Flexibility Score: inf
ROOT
ATOM      1  C   UNL A   1      30.783  32.005  26.460  1.00  0.00     0.042 C 
ENDROOT
BRANCH   1   2
ATOM      2  C   UNL A   1      30.476  31.510  25.046  1.00  0.00     0.117 C 
BRANCH   2   3
ATOM      3  N   UNL A   1      29.784  32.506  24.251  1.00  0.00    -0.356 N 
ATOM      4  C   UNL A   1      28.881  32.439  23.242  1.00  0.00     0.227 C 
ATOM      5  O   UNL A   1      28.403  33.528  22.894  1.00  0.00    -0.274 OA
ATOM      6  H   UNL A   1      30.022  33.429  24.495  1.00  0.00     0.163 HD
BRANCH   4   7
ATOM      7  C   UNL A   1      28.492  31.174  22.453  1.00  0.00     0.103 C 
ATOM      8  C   UNL A   1      29.808  29.138  22.683  1.00  0.00     0.106 C 
ATOM      9  C   UNL A   1      28.394  28.923  23.126  1.00  0.00    -0.006 C 
ATOM     10  C   UNL A   1      29.711  30.436  21.884  1.00  0.00     0.047 C 
ATOM     11  C   UNL A   1      27.705  30.073  23.094  1.00  0.00    -0.016 C 
BRANCH   8  12
ATOM     12  N   UNL A   1      30.353  27.987  22.001  1.00  0.00    -0.346 N 
ATOM     13  C   UNL A   1      31.212  27.028  22.507  1.00  0.00     0.252 C 
ATOM     14  O   UNL A   1      31.403  25.979  21.897  1.00  0.00    -0.269 OA
ATOM     15  H   UNL A   1      30.079  27.871  21.063  1.00  0.00     0.164 HD
BRANCH  13  16
ATOM     16  C   UNL A   1      31.970  27.319  23.754  1.00  0.00     0.045 A 
ATOM     17  C   UNL A   1      33.629  29.164  27.267  1.00  0.00     0.044 C 
ATOM     18  C   UNL A   1      33.085  28.459  26.058  1.00  0.00    -0.051 A 
ATOM     19  C   UNL A   1      33.732  28.586  24.825  1.00  0.00     0.007 A 
ATOM     20  C   UNL A   1      31.980  27.609  26.157  1.00  0.00     0.007 A 
ATOM     21  C   UNL A   1      33.187  28.025  23.660  1.00  0.00    -0.038 A 
ATOM     22  C   UNL A   1      31.445  26.984  25.018  1.00  0.00    -0.038 A 
ATOM     23  C   UNL A   1      33.997  28.097  22.393  1.00  0.00     0.045 C 
ATOM     24  C   UNL A   1      30.355  25.963  25.194  1.00  0.00     0.045 C 
ENDBRANCH  13  16
ENDBRANCH   8  12
ENDBRANCH   4   7
ENDBRANCH   2   3
ENDBRANCH   1   2
BRANCH   1  25
ATOM     25  C   UNL A   1      32.212  32.477  26.723  1.00  0.00     0.118 C 
BRANCH  25  26
ATOM     26  N   UNL A   1      32.295  33.828  27.251  1.00  0.00    -0.352 N 
ATOM     27  C   UNL A   1      33.127  34.381  28.196  1.00  0.00     0.251 C 
ATOM     28  H   UNL A   1      31.642  34.456  26.866  1.00  0.00     0.163 HD
ATOM     29  O   UNL A   1      32.919  35.535  28.565  1.00  0.00    -0.269 OA
BRANCH  27  30
ATOM     30  C   UNL A   1      34.248  33.621  28.805  1.00  0.00     0.039 A 
ATOM     31  C   UNL A   1      35.530  34.185  28.767  1.00  0.00     0.014 A 
ATOM     32  C   UNL A   1      34.082  32.346  29.350  1.00  0.00     0.014 A 
ATOM     33  C   UNL A   1      36.619  33.507  29.326  1.00  0.00     0.010 A 
ATOM     34  C   UNL A   1      35.153  31.705  29.978  1.00  0.00     0.010 A 
ATOM     35  C   UNL A   1      36.436  32.273  29.969  1.00  0.00    -0.014 A 
BRANCH  35  36
ATOM     36  C   UNL A   1      37.571  31.565  30.624  1.00  0.00     0.031 A 
ATOM     37  C   UNL A   1      37.954  31.884  32.043  1.00  0.00     0.074 A 
ATOM     38  C   UNL A   1      38.297  30.671  29.924  1.00  0.00     0.049 A 
ATOM     39  N   UNL A   1      38.951  31.422  32.759  1.00  0.00    -0.248 NA
ATOM     40  C   UNL A   1      37.122  32.872  32.745  1.00  0.00     0.031 C 
ATOM     41  C   UNL A   1      38.055  30.289  28.532  1.00  0.00     0.029 A 
ATOM     42  N   UNL A   1      39.394  29.927  30.285  1.00  0.00    -0.354 N 
ATOM     43  C   UNL A   1      38.880  32.082  33.980  1.00  0.00     0.074 A 
ATOM     44  C   UNL A   1      37.771  33.007  33.893  1.00  0.00     0.031 C 
ATOM     45  C   UNL A   1      38.956  29.364  28.167  1.00  0.00     0.029 A 
ATOM     46  C   UNL A   1      39.866  29.117  29.280  1.00  0.00     0.049 A 
ATOM     47  H   UNL A   1      39.804  29.970  31.178  1.00  0.00     0.167 HD
ATOM     48  C   UNL A   1      39.654  31.918  35.080  1.00  0.00     0.037 A 
ATOM     49  C   UNL A   1      40.917  28.274  29.256  1.00  0.00     0.037 A 
ATOM     50  C   UNL A   1      40.737  30.973  35.179  1.00  0.00     0.049 A 
ATOM     51  C   UNL A   1      41.774  28.123  30.484  1.00  0.00     0.074 A 
ATOM     52  C   UNL A   1      41.529  30.680  36.275  1.00  0.00     0.029 A 
ATOM     53  N   UNL A   1      41.186  30.173  34.137  1.00  0.00    -0.354 N 
ATOM     54  N   UNL A   1      41.653  28.700  31.655  1.00  0.00    -0.248 NA
ATOM     55  C   UNL A   1      42.914  27.201  30.386  1.00  0.00     0.031 C 
ATOM     56  C   UNL A   1      42.493  29.745  35.883  1.00  0.00     0.029 A 
ATOM     57  C   UNL A   1      42.265  29.411  34.557  1.00  0.00     0.049 A 
ATOM     58  H   UNL A   1      40.795  30.150  33.234  1.00  0.00     0.167 HD
ATOM     59  C   UNL A   1      42.675  28.186  32.442  1.00  0.00     0.074 A 
ATOM     60  C   UNL A   1      43.403  27.244  31.617  1.00  0.00     0.031 C 
ATOM     61  C   UNL A   1      42.979  28.468  33.733  1.00  0.00     0.037 A 
BRANCH  48  62
ATOM     62  C   UNL A   1      39.366  32.791  36.269  1.00  0.00     0.064 A 
ATOM     63  C   UNL A   1      39.995  34.032  36.449  1.00  0.00     0.173 A 
ATOM     64  C   UNL A   1      38.424  32.391  37.230  1.00  0.00     0.173 A 
ATOM     65  F   UNL A   1      40.909  34.460  35.564  1.00  0.00    -0.203 F 
ATOM     66  C   UNL A   1      39.724  34.820  37.565  1.00  0.00     0.198 A 
ATOM     67  C   UNL A   1      38.131  33.197  38.328  1.00  0.00     0.198 A 
ATOM     68  F   UNL A   1      37.783  31.219  37.105  1.00  0.00    -0.203 F 
ATOM     69  F   UNL A   1      40.384  35.972  37.745  1.00  0.00    -0.200 F 
ATOM     70  C   UNL A   1      38.788  34.405  38.500  1.00  0.00     0.200 A 
ATOM     71  F   UNL A   1      37.214  32.801  39.222  1.00  0.00    -0.200 F 
ATOM     72  F   UNL A   1      38.528  35.165  39.573  1.00  0.00    -0.200 F 
ENDBRANCH  48  62
BRANCH  49  73
ATOM     73  C   UNL A   1      41.201  27.479  28.033  1.00  0.00     0.064 A 
ATOM     74  C   UNL A   1      40.672  26.188  27.881  1.00  0.00     0.173 A 
ATOM     75  C   UNL A   1      41.995  27.984  26.994  1.00  0.00     0.173 A 
ATOM     76  F   UNL A   1      39.926  25.653  28.857  1.00  0.00    -0.203 F 
ATOM     77  C   UNL A   1      40.940  25.429  26.744  1.00  0.00     0.198 A 
ATOM     78  C   UNL A   1      42.239  27.235  25.844  1.00  0.00     0.198 A 
ATOM     79  F   UNL A   1      42.521  29.214  27.089  1.00  0.00    -0.203 F 
ATOM     80  F   UNL A   1      40.456  24.184  26.643  1.00  0.00    -0.200 F 
ATOM     81  C   UNL A   1      41.717  25.956  25.723  1.00  0.00     0.200 A 
ATOM     82  F   UNL A   1      42.978  27.754  24.855  1.00  0.00    -0.200 F 
ATOM     83  F   UNL A   1      41.967  25.229  24.626  1.00  0.00    -0.200 F 
ENDBRANCH  49  73
BRANCH  61  84
ATOM     84  C   UNL A   1      44.122  27.719  34.355  1.00  0.00     0.064 A 
ATOM     85  C   UNL A   1      45.424  28.242  34.380  1.00  0.00     0.173 A 
ATOM     86  C   UNL A   1      43.902  26.476  34.972  1.00  0.00     0.173 A 
ATOM     87  F   UNL A   1      45.690  29.416  33.791  1.00  0.00    -0.203 F 
ATOM     88  C   UNL A   1      46.466  27.538  34.978  1.00  0.00     0.198 A 
ATOM     89  C   UNL A   1      44.941  25.791  35.596  1.00  0.00     0.198 A 
ATOM     90  F   UNL A   1      42.676  25.933  34.981  1.00  0.00    -0.203 F 
ATOM     91  F   UNL A   1      47.710  28.035  34.949  1.00  0.00    -0.200 F 
ATOM     92  C   UNL A   1      46.223  26.319  35.594  1.00  0.00     0.200 A 
ATOM     93  F   UNL A   1      44.700  24.621  36.203  1.00  0.00    -0.200 F 
ATOM     94  F   UNL A   1      47.226  25.649  36.178  1.00  0.00    -0.200 F 
ENDBRANCH  61  84
ENDBRANCH  35  36
ENDBRANCH  27  30
ENDBRANCH  25  26
ENDBRANCH   1  25
TORSDOF 12
ENDMDL
MODEL 2
REMARK VINA RESULT:     -12.9      0.061      1.593
REMARK SMILES Cc1cc(C)c(C(=O)N[C@@H]2C=C[C@@H](C(=O)NCCCNC(=O)c3ccc(-c4c5nc(c(-c6c(F)c(F)c(F)c(F)c6F)c6ccc([nH]6)c(-c6c(F)c(F)c(F)c(F)c6F)c6nc(c(-c7c(F)c(F)c(F)c(F)c7F)c7ccc4[nH]7)C=C6)C=C5)cc3)C2)c(C)c1
REMARK SMILES IDX 18 1 17 2 16 3 14 4 15 5 13 7 10 8 11 9 86 10 12 11 9 12
REMARK SMILES IDX 7 13 8 14 6 16 1 17 2 18 3 19 89 20 4 21 87 22 5 23 88 24
REMARK SMILES IDX 19 25 20 26 21 27 22 29 23 30 24 31 85 32 25 33 84 34 26 35
REMARK SMILES IDX 27 36 28 37 78 38 29 39 83 40 77 41 79 42 30 43 82 44 76 45
REMARK SMILES IDX 75 46 31 48 63 49 43 50 62 51 44 52 47 53 61 54 80 55 45 56
REMARK SMILES IDX 46 57 60 59 81 60 48 61 32 62 33 63 41 64 34 65 35 66 39 67
REMARK SMILES IDX 42 68 36 69 37 70 40 71 38 72 64 73 65 74 73 75 66 76 67 77
REMARK SMILES IDX 71 78 74 79 68 80 69 81 72 82 70 83 49 84 50 85 58 86 51 87
REMARK SMILES IDX 52 88 56 89 59 90 53 91 54 92 57 93 55 94
REMARK H PARENT 16 6 9 15 20 28 79 47 47 58
REMARK Flexibility Score: inf
ROOT
ATOM      1  C   UNL A   1      30.766  32.017  26.448  1.00  0.00     0.042 C 
ENDROOT
BRANCH   1   2
ATOM      2  C   UNL A   1      30.493  31.535  25.023  1.00  0.00     0.117 C 
BRANCH   2   3
ATOM      3  N   UNL A   1      29.793  32.527  24.229  1.00  0.00    -0.356 N 
ATOM      4  C   UNL A   1      28.884  32.454  23.226  1.00  0.00     0.227 C 
ATOM      5  O   UNL A   1      28.400  33.541  22.878  1.00  0.00    -0.274 OA
ATOM      6  H   UNL A   1      30.029  33.451  24.470  1.00  0.00     0.163 HD
BRANCH   4   7
ATOM      7  C   UNL A   1      28.495  31.186  22.443  1.00  0.00     0.103 C 
ATOM      8  C   UNL A   1      29.810  29.150  22.681  1.00  0.00     0.106 C 
ATOM      9  C   UNL A   1      28.396  28.938  23.125  1.00  0.00    -0.006 C 
ATOM     10  C   UNL A   1      29.714  30.445  21.876  1.00  0.00     0.047 C 
ATOM     11  C   UNL A   1      27.707  30.088  23.088  1.00  0.00    -0.016 C 
BRANCH   8  12
ATOM     12  N   UNL A   1      30.355  27.997  22.004  1.00  0.00    -0.346 N 
ATOM     13  C   UNL A   1      31.204  27.032  22.517  1.00  0.00     0.252 C 
ATOM     14  O   UNL A   1      31.394  25.982  21.909  1.00  0.00    -0.269 OA
ATOM     15  H   UNL A   1      30.088  27.882  21.064  1.00  0.00     0.164 HD
BRANCH  13  16
ATOM     16  C   UNL A   1      31.952  27.319  23.772  1.00  0.00     0.045 A 
ATOM     17  C   UNL A   1      33.586  29.153  27.301  1.00  0.00     0.044 C 
ATOM     18  C   UNL A   1      33.051  28.453  26.087  1.00  0.00    -0.051 A 
ATOM     19  C   UNL A   1      33.709  28.580  24.859  1.00  0.00     0.007 A 
ATOM     20  C   UNL A   1      31.943  27.604  26.175  1.00  0.00     0.007 A 
ATOM     21  C   UNL A   1      33.171  28.022  23.689  1.00  0.00    -0.038 A 
ATOM     22  C   UNL A   1      31.416  26.983  25.030  1.00  0.00    -0.038 A 
ATOM     23  C   UNL A   1      33.992  28.095  22.429  1.00  0.00     0.045 C 
ATOM     24  C   UNL A   1      30.323  25.964  25.195  1.00  0.00     0.045 C 
ENDBRANCH  13  16
ENDBRANCH   8  12
ENDBRANCH   4   7
ENDBRANCH   2   3
ENDBRANCH   1   2
BRANCH   1  25
ATOM     25  C   UNL A   1      32.198  32.447  26.760  1.00  0.00     0.118 C 
BRANCH  25  26
ATOM     26  N   UNL A   1      32.307  33.809  27.253  1.00  0.00    -0.352 N 
ATOM     27  C   UNL A   1      33.157  34.373  28.176  1.00  0.00     0.251 C 
ATOM     28  H   UNL A   1      31.660  34.438  26.860  1.00  0.00     0.163 HD
ATOM     29  O   UNL A   1      32.971  35.539  28.518  1.00  0.00    -0.269 OA
BRANCH  27  30
ATOM     30  C   UNL A   1      34.273  33.611  28.792  1.00  0.00     0.039 A 
ATOM     31  C   UNL A   1      35.557  34.170  28.755  1.00  0.00     0.014 A 
ATOM     32  C   UNL A   1      34.100  32.340  29.343  1.00  0.00     0.014 A 
ATOM     33  C   UNL A   1      36.641  33.490  29.322  1.00  0.00     0.010 A 
ATOM     34  C   UNL A   1      35.165  31.697  29.978  1.00  0.00     0.010 A 
ATOM     35  C   UNL A   1      36.451  32.261  29.971  1.00  0.00    -0.014 A 
BRANCH  35  36
ATOM     36  C   UNL A   1      37.581  31.551  30.633  1.00  0.00     0.031 A 
ATOM     37  C   UNL A   1      37.950  31.863  32.058  1.00  0.00     0.074 A 
ATOM     38  C   UNL A   1      38.315  30.661  29.935  1.00  0.00     0.049 A 
ATOM     39  N   UNL A   1      38.941  31.400  32.780  1.00  0.00    -0.248 NA
ATOM     40  C   UNL A   1      37.110  32.847  32.756  1.00  0.00     0.031 C 
ATOM     41  C   UNL A   1      38.087  30.286  28.540  1.00  0.00     0.029 A 
ATOM     42  N   UNL A   1      39.410  29.917  30.303  1.00  0.00    -0.354 N 
ATOM     43  C   UNL A   1      38.857  32.054  34.004  1.00  0.00     0.074 A 
ATOM     44  C   UNL A   1      37.748  32.978  33.910  1.00  0.00     0.031 C 
ATOM     45  C   UNL A   1      38.992  29.363  28.179  1.00  0.00     0.029 A 
ATOM     46  C   UNL A   1      39.893  29.112  29.300  1.00  0.00     0.049 A 
ATOM     47  H   UNL A   1      39.811  29.956  31.201  1.00  0.00     0.167 HD
ATOM     48  C   UNL A   1      39.621  31.885  35.110  1.00  0.00     0.037 A 
ATOM     49  C   UNL A   1      40.945  28.271  29.281  1.00  0.00     0.037 A 
ATOM     50  C   UNL A   1      40.705  30.942  35.215  1.00  0.00     0.049 A 
ATOM     51  C   UNL A   1      41.790  28.116  30.517  1.00  0.00     0.074 A 
ATOM     52  C   UNL A   1      41.487  30.644  36.317  1.00  0.00     0.029 A 
ATOM     53  N   UNL A   1      41.164  30.148  34.174  1.00  0.00    -0.354 N 
ATOM     54  N   UNL A   1      41.658  28.687  31.689  1.00  0.00    -0.248 NA
ATOM     55  C   UNL A   1      42.933  27.196  30.425  1.00  0.00     0.031 C 
ATOM     56  C   UNL A   1      42.456  29.713  35.930  1.00  0.00     0.029 A 
ATOM     57  C   UNL A   1      42.240  29.385  34.601  1.00  0.00     0.049 A 
ATOM     58  H   UNL A   1      40.782  30.128  33.267  1.00  0.00     0.167 HD
ATOM     59  C   UNL A   1      42.673  28.171  32.483  1.00  0.00     0.074 A 
ATOM     60  C   UNL A   1      43.410  27.234  31.661  1.00  0.00     0.031 C 
ATOM     61  C   UNL A   1      42.964  28.447  33.778  1.00  0.00     0.037 A 
BRANCH  48  62
ATOM     62  C   UNL A   1      39.320  32.753  36.301  1.00  0.00     0.064 A 
ATOM     63  C   UNL A   1      38.424  32.353  37.303  1.00  0.00     0.173 A 
ATOM     64  C   UNL A   1      39.960  33.993  36.453  1.00  0.00     0.173 A 
ATOM     65  F   UNL A   1      37.779  31.180  37.204  1.00  0.00    -0.203 F 
ATOM     66  C   UNL A   1      38.148  33.178  38.391  1.00  0.00     0.198 A 
ATOM     67  C   UNL A   1      39.707  34.801  37.559  1.00  0.00     0.198 A 
ATOM     68  F   UNL A   1      40.835  34.423  35.531  1.00  0.00    -0.203 F 
ATOM     69  F   UNL A   1      37.242  32.800  39.303  1.00  0.00    -0.200 F 
ATOM     70  C   UNL A   1      38.794  34.398  38.521  1.00  0.00     0.200 A 
ATOM     71  F   UNL A   1      40.344  35.973  37.691  1.00  0.00    -0.200 F 
ATOM     72  F   UNL A   1      38.528  35.190  39.569  1.00  0.00    -0.200 F 
ENDBRANCH  48  62
BRANCH  49  73
ATOM     73  C   UNL A   1      41.241  27.482  28.057  1.00  0.00     0.064 A 
ATOM     74  C   UNL A   1      42.070  28.004  27.054  1.00  0.00     0.173 A 
ATOM     75  C   UNL A   1      40.713  26.198  27.864  1.00  0.00     0.173 A 
ATOM     76  F   UNL A   1      42.580  29.237  27.182  1.00  0.00    -0.203 F 
ATOM     77  C   UNL A   1      42.346  27.278  25.897  1.00  0.00     0.198 A 
ATOM     78  C   UNL A   1      41.012  25.461  26.720  1.00  0.00     0.198 A 
ATOM     79  F   UNL A   1      39.917  25.652  28.796  1.00  0.00    -0.203 F 
ATOM     80  F   UNL A   1      43.108  27.818  24.936  1.00  0.00    -0.200 F 
ATOM     81  C   UNL A   1      41.823  26.004  25.734  1.00  0.00     0.200 A 
ATOM     82  F   UNL A   1      40.516  24.225  26.574  1.00  0.00    -0.200 F 
ATOM     83  F   UNL A   1      42.096  25.302  24.626  1.00  0.00    -0.200 F 
ENDBRANCH  49  73
BRANCH  61  84
ATOM     84  C   UNL A   1      44.102  27.696  34.408  1.00  0.00     0.064 A 
ATOM     85  C   UNL A   1      45.412  28.201  34.407  1.00  0.00     0.173 A 
ATOM     86  C   UNL A   1      43.870  26.473  35.058  1.00  0.00     0.173 A 
ATOM     87  F   UNL A   1      45.689  29.356  33.786  1.00  0.00    -0.203 F 
ATOM     88  C   UNL A   1      46.450  27.497  35.012  1.00  0.00     0.198 A 
ATOM     89  C   UNL A   1      44.905  25.789  35.689  1.00  0.00     0.198 A 
ATOM     90  F   UNL A   1      42.636  25.949  35.094  1.00  0.00    -0.203 F 
ATOM     91  F   UNL A   1      47.700  27.974  34.958  1.00  0.00    -0.200 F 
ATOM     92  C   UNL A   1      46.195  26.297  35.660  1.00  0.00     0.200 A 
ATOM     93  F   UNL A   1      44.653  24.638  36.328  1.00  0.00    -0.200 F 
ATOM     94  F   UNL A   1      47.194  25.627  36.251  1.00  0.00    -0.200 F 
ENDBRANCH  61  84
ENDBRANCH  35  36
ENDBRANCH  27  30
ENDBRANCH  25  26
ENDBRANCH   1  25
TORSDOF 12
ENDMDL
MODEL 3
REMARK VINA RESULT:     -12.8      0.804      7.355
REMARK SMILES Cc1cc(C)c(C(=O)N[C@@H]2C=C[C@@H](C(=O)NCCCNC(=O)c3ccc(-c4c5nc(c(-c6c(F)c(F)c(F)c(F)c6F)c6ccc([nH]6)c(-c6c(F)c(F)c(F)c(F)c6F)c6nc(c(-c7c(F)c(F)c(F)c(F)c7F)c7ccc4[nH]7)C=C6)C=C5)cc3)C2)c(C)c1
REMARK SMILES IDX 18 1 17 2 16 3 14 4 15 5 13 7 10 8 11 9 86 10 12 11 9 12
REMARK SMILES IDX 7 13 8 14 6 16 1 17 2 18 3 19 89 20 4 21 87 22 5 23 88 24
REMARK SMILES IDX 19 25 20 26 21 27 22 29 23 30 24 31 85 32 25 33 84 34 26 35
REMARK SMILES IDX 27 36 28 37 78 38 29 39 83 40 77 41 79 42 30 43 82 44 76 45
REMARK SMILES IDX 75 46 31 48 63 49 43 50 62 51 44 52 47 53 61 54 80 55 45 56
REMARK SMILES IDX 46 57 60 59 81 60 48 61 32 62 33 63 41 64 34 65 35 66 39 67
REMARK SMILES IDX 42 68 36 69 37 70 40 71 38 72 64 73 65 74 73 75 66 76 67 77
REMARK SMILES IDX 71 78 74 79 68 80 69 81 72 82 70 83 49 84 50 85 58 86 51 87
REMARK SMILES IDX 52 88 56 89 59 90 53 91 54 92 57 93 55 94
REMARK H PARENT 16 6 9 15 20 28 79 47 47 58
REMARK Flexibility Score: inf
ROOT
ATOM      1  C   UNL A   1      30.994  31.535  26.527  1.00  0.00     0.042 C 
ENDROOT
BRANCH   1   2
ATOM      2  C   UNL A   1      30.713  31.120  25.082  1.00  0.00     0.117 C 
BRANCH   2   3
ATOM      3  N   UNL A   1      29.860  32.068  24.392  1.00  0.00    -0.356 N 
ATOM      4  C   UNL A   1      28.913  31.950  23.429  1.00  0.00     0.227 C 
ATOM      5  O   UNL A   1      28.287  32.990  23.180  1.00  0.00    -0.274 OA
ATOM      6  H   UNL A   1      29.998  32.997  24.686  1.00  0.00     0.163 HD
BRANCH   4   7
ATOM      7  C   UNL A   1      28.635  30.697  22.578  1.00  0.00     0.103 C 
ATOM      8  C   UNL A   1      30.093  28.754  22.748  1.00  0.00     0.106 C 
ATOM      9  C   UNL A   1      28.691  28.417  23.150  1.00  0.00    -0.006 C 
ATOM     10  C   UNL A   1      29.916  30.076  22.004  1.00  0.00     0.047 C 
ATOM     11  C   UNL A   1      27.919  29.513  23.152  1.00  0.00    -0.016 C 
BRANCH   8  12
ATOM     12  N   UNL A   1      30.735  27.679  22.029  1.00  0.00    -0.346 N 
ATOM     13  C   UNL A   1      31.680  26.785  22.502  1.00  0.00     0.252 C 
ATOM     14  O   UNL A   1      31.961  25.777  21.860  1.00  0.00    -0.269 OA
ATOM     15  H   UNL A   1      30.466  27.566  21.089  1.00  0.00     0.164 HD
BRANCH  13  16
ATOM     16  C   UNL A   1      32.416  27.106  23.755  1.00  0.00     0.045 A 
ATOM     17  C   UNL A   1      33.838  28.926  27.383  1.00  0.00     0.044 C 
ATOM     18  C   UNL A   1      33.389  28.237  26.128  1.00  0.00    -0.051 A 
ATOM     19  C   UNL A   1      33.958  28.582  24.898  1.00  0.00     0.007 A 
ATOM     20  C   UNL A   1      32.461  27.192  26.173  1.00  0.00     0.007 A 
ATOM     21  C   UNL A   1      33.481  28.028  23.699  1.00  0.00    -0.038 A 
ATOM     22  C   UNL A   1      32.006  26.577  24.995  1.00  0.00    -0.038 A 
ATOM     23  C   UNL A   1      34.219  28.353  22.428  1.00  0.00     0.045 C 
ATOM     24  C   UNL A   1      31.127  25.362  25.102  1.00  0.00     0.045 C 
ENDBRANCH  13  16
ENDBRANCH   8  12
ENDBRANCH   4   7
ENDBRANCH   2   3
ENDBRANCH   1   2
BRANCH   1  25
ATOM     25  C   UNL A   1      32.310  32.269  26.781  1.00  0.00     0.118 C 
BRANCH  25  26
ATOM     26  N   UNL A   1      32.138  33.646  27.213  1.00  0.00    -0.352 N 
ATOM     27  C   UNL A   1      32.828  34.399  28.133  1.00  0.00     0.251 C 
ATOM     28  H   UNL A   1      31.400  34.122  26.769  1.00  0.00     0.163 HD
ATOM     29  O   UNL A   1      32.410  35.520  28.413  1.00  0.00    -0.269 OA
BRANCH  27  30
ATOM     30  C   UNL A   1      34.043  33.891  28.820  1.00  0.00     0.039 A 
ATOM     31  C   UNL A   1      33.884  32.918  29.816  1.00  0.00     0.014 A 
ATOM     32  C   UNL A   1      35.319  34.391  28.556  1.00  0.00     0.014 A 
ATOM     33  C   UNL A   1      34.998  32.409  30.492  1.00  0.00     0.010 A 
ATOM     34  C   UNL A   1      36.438  33.827  29.174  1.00  0.00     0.010 A 
ATOM     35  C   UNL A   1      36.292  32.833  30.154  1.00  0.00    -0.014 A 
BRANCH  35  36
ATOM     36  C   UNL A   1      37.494  32.259  30.819  1.00  0.00     0.031 A 
ATOM     37  C   UNL A   1      38.305  31.188  30.141  1.00  0.00     0.074 A 
ATOM     38  C   UNL A   1      37.829  32.659  32.062  1.00  0.00     0.049 A 
ATOM     39  N   UNL A   1      39.341  30.521  30.588  1.00  0.00    -0.248 NA
ATOM     40  C   UNL A   1      37.880  30.795  28.789  1.00  0.00     0.031 C 
ATOM     41  C   UNL A   1      37.114  33.666  32.847  1.00  0.00     0.029 A 
ATOM     42  N   UNL A   1      38.853  32.261  32.888  1.00  0.00    -0.354 N 
ATOM     43  C   UNL A   1      39.673  29.617  29.586  1.00  0.00     0.074 A 
ATOM     44  C   UNL A   1      38.701  29.789  28.528  1.00  0.00     0.031 C 
ATOM     45  C   UNL A   1      37.736  33.827  34.026  1.00  0.00     0.029 A 
ATOM     46  C   UNL A   1      38.865  32.905  34.101  1.00  0.00     0.049 A 
ATOM     47  H   UNL A   1      39.514  31.577  32.635  1.00  0.00     0.167 HD
ATOM     48  C   UNL A   1      40.704  28.738  29.543  1.00  0.00     0.037 A 
ATOM     49  C   UNL A   1      39.691  32.768  35.157  1.00  0.00     0.037 A 
ATOM     50  C   UNL A   1      41.690  28.589  30.581  1.00  0.00     0.049 A 
ATOM     51  C   UNL A   1      40.816  31.771  35.092  1.00  0.00     0.074 A 
ATOM     52  C   UNL A   1      42.814  27.781  30.596  1.00  0.00     0.029 A 
ATOM     53  N   UNL A   1      41.666  29.259  31.796  1.00  0.00    -0.354 N 
ATOM     54  N   UNL A   1      41.161  30.973  34.112  1.00  0.00    -0.248 NA
ATOM     55  C   UNL A   1      41.669  31.658  36.284  1.00  0.00     0.031 C 
ATOM     56  C   UNL A   1      43.438  27.919  31.840  1.00  0.00     0.029 A 
ATOM     57  C   UNL A   1      42.737  28.858  32.579  1.00  0.00     0.049 A 
ATOM     58  H   UNL A   1      40.989  29.923  32.062  1.00  0.00     0.167 HD
ATOM     59  C   UNL A   1      42.288  30.291  34.551  1.00  0.00     0.074 A 
ATOM     60  C   UNL A   1      42.574  30.776  35.886  1.00  0.00     0.031 C 
ATOM     61  C   UNL A   1      43.021  29.352  33.904  1.00  0.00     0.037 A 
BRANCH  48  62
ATOM     62  C   UNL A   1      40.812  27.853  28.331  1.00  0.00     0.064 A 
ATOM     63  C   UNL A   1      40.185  26.600  28.270  1.00  0.00     0.173 A 
ATOM     64  C   UNL A   1      41.532  28.281  27.205  1.00  0.00     0.173 A 
ATOM     65  F   UNL A   1      39.490  26.140  29.322  1.00  0.00    -0.203 F 
ATOM     66  C   UNL A   1      40.309  25.790  27.144  1.00  0.00     0.198 A 
ATOM     67  C   UNL A   1      41.626  27.482  26.068  1.00  0.00     0.198 A 
ATOM     68  F   UNL A   1      42.143  29.475  27.203  1.00  0.00    -0.203 F 
ATOM     69  F   UNL A   1      39.753  24.571  27.133  1.00  0.00    -0.200 F 
ATOM     70  C   UNL A   1      41.024  26.233  26.041  1.00  0.00     0.200 A 
ATOM     71  F   UNL A   1      42.304  27.920  24.997  1.00  0.00    -0.200 F 
ATOM     72  F   UNL A   1      41.141  25.453  24.959  1.00  0.00    -0.200 F 
ENDBRANCH  48  62
BRANCH  49  73
ATOM     73  C   UNL A   1      39.503  33.622  36.359  1.00  0.00     0.064 A 
ATOM     74  C   UNL A   1      38.740  33.169  37.445  1.00  0.00     0.173 A 
ATOM     75  C   UNL A   1      40.081  34.896  36.454  1.00  0.00     0.173 A 
ATOM     76  F   UNL A   1      38.148  31.967  37.392  1.00  0.00    -0.203 F 
ATOM     77  C   UNL A   1      38.549  33.965  38.573  1.00  0.00     0.198 A 
ATOM     78  C   UNL A   1      39.912  35.679  37.595  1.00  0.00     0.198 A 
ATOM     79  F   UNL A   1      40.823  35.374  35.444  1.00  0.00    -0.203 F 
ATOM     80  F   UNL A   1      37.780  33.524  39.578  1.00  0.00    -0.200 F 
ATOM     81  C   UNL A   1      39.141  35.216  38.650  1.00  0.00     0.200 A 
ATOM     82  F   UNL A   1      40.498  36.882  37.670  1.00  0.00    -0.200 F 
ATOM     83  F   UNL A   1      38.964  35.977  39.738  1.00  0.00    -0.200 F 
ENDBRANCH  49  73
BRANCH  61  84
ATOM     84  C   UNL A   1      44.232  28.812  34.609  1.00  0.00     0.064 A 
ATOM     85  C   UNL A   1      45.480  29.449  34.528  1.00  0.00     0.173 A 
ATOM     86  C   UNL A   1      44.132  27.662  35.409  1.00  0.00     0.173 A 
ATOM     87  F   UNL A   1      45.633  30.540  33.765  1.00  0.00    -0.203 F 
ATOM     88  C   UNL A   1      46.587  28.941  35.204  1.00  0.00     0.198 A 
ATOM     89  C   UNL A   1      45.234  27.177  36.108  1.00  0.00     0.198 A 
ATOM     90  F   UNL A   1      42.961  27.019  35.525  1.00  0.00    -0.203 F 
ATOM     91  F   UNL A   1      47.779  29.538  35.076  1.00  0.00    -0.200 F 
ATOM     92  C   UNL A   1      46.462  27.812  36.000  1.00  0.00     0.200 A 
ATOM     93  F   UNL A   1      45.106  26.095  36.889  1.00  0.00    -0.200 F 
ATOM     94  F   UNL A   1      47.526  27.332  36.658  1.00  0.00    -0.200 F 
ENDBRANCH  61  84
ENDBRANCH  35  36
ENDBRANCH  27  30
ENDBRANCH  25  26
ENDBRANCH   1  25
TORSDOF 12
ENDMDL
