MODEL 1
REMARK VINA RESULT:     -12.3      0.000      0.000
REMARK SMILES O=C(NCCCNC(=O)c1cccnc1SCC(=O)c1ccccc1Cl)c1ccc(-c2c3nc(c(-c4c(F)c(F)c(F)c(F)c4F)c4ccc([nH]4)c(-c4c(F)c(F)c(F)c(F)c4F)c4nc(c(-c5c(F)c(F)c(F)c(F)c5F)c5ccc2[nH]5)C=C4)C=C3)cc1
REMARK SMILES IDX 6 1 5 2 4 3 3 4 1 5 2 6 27 8 28 9 89 10 29 11 88 12 30 13
REMARK SMILES IDX 31 14 32 15 82 16 33 17 87 18 81 19 83 20 34 21 86 22 80 23
REMARK SMILES IDX 79 24 35 26 67 27 47 28 66 29 48 30 51 31 65 32 84 33 49 34
REMARK SMILES IDX 50 35 64 37 85 38 52 39 36 40 37 41 45 42 38 43 39 44 43 45
REMARK SMILES IDX 46 46 40 47 41 48 44 49 42 50 68 51 69 52 77 53 70 54 71 55
REMARK SMILES IDX 75 56 78 57 72 58 73 59 76 60 74 61 53 62 54 63 62 64 55 65
REMARK SMILES IDX 56 66 60 67 63 68 57 69 58 70 61 71 59 72 7 73 8 74 9 76
REMARK SMILES IDX 10 77 11 78 15 79 12 80 14 81 13 82 16 83 17 84 18 85 19 86
REMARK SMILES IDX 20 87 21 88 25 89 22 90 24 91 26 92 23 93
REMARK H PARENT 3 7 83 25 51 36 7 75
REMARK Flexibility Score: inf
ROOT
ATOM      1  C   UNL A   1      32.474  27.034  26.387  1.00  0.00     0.118 C 
ENDROOT
BRANCH   1   2
ATOM      2  C   UNL A   1      31.877  28.431  26.251  1.00  0.00     0.042 C 
BRANCH   2   3
ATOM      3  C   UNL A   1      32.804  29.472  25.625  1.00  0.00     0.118 C 
BRANCH   3   4
ATOM      4  N   UNL A   1      32.562  30.822  26.114  1.00  0.00    -0.352 N 
ATOM      5  O   UNL A   1      32.618  32.655  27.383  1.00  0.00    -0.269 OA
ATOM      6  C   UNL A   1      33.181  31.613  27.045  1.00  0.00     0.251 C 
ATOM      7  H   UNL A   1      31.790  31.258  25.684  1.00  0.00     0.163 HD
BRANCH   6   8
ATOM      8  C   UNL A   1      34.486  31.278  27.669  1.00  0.00     0.039 A 
ATOM      9  C   UNL A   1      35.467  32.232  27.941  1.00  0.00     0.014 A 
ATOM     10  C   UNL A   1      34.676  29.962  28.122  1.00  0.00     0.014 A 
ATOM     11  C   UNL A   1      36.663  31.856  28.561  1.00  0.00     0.010 A 
ATOM     12  C   UNL A   1      35.846  29.598  28.799  1.00  0.00     0.010 A 
ATOM     13  C   UNL A   1      36.864  30.537  29.002  1.00  0.00    -0.014 A 
BRANCH  13  14
ATOM     14  C   UNL A   1      38.122  30.176  29.708  1.00  0.00     0.031 A 
ATOM     15  C   UNL A   1      38.380  30.637  31.115  1.00  0.00     0.074 A 
ATOM     16  C   UNL A   1      39.033  29.403  29.086  1.00  0.00     0.049 A 
ATOM     17  N   UNL A   1      39.382  30.344  31.908  1.00  0.00    -0.248 NA
ATOM     18  C   UNL A   1      37.395  31.552  31.708  1.00  0.00     0.031 C 
ATOM     19  C   UNL A   1      38.933  28.923  27.708  1.00  0.00     0.029 A 
ATOM     20  N   UNL A   1      40.211  28.866  29.542  1.00  0.00    -0.354 N 
ATOM     21  C   UNL A   1      39.158  31.050  33.080  1.00  0.00     0.074 A 
ATOM     22  C   UNL A   1      37.933  31.800  32.894  1.00  0.00     0.031 C 
ATOM     23  C   UNL A   1      39.975  28.116  27.449  1.00  0.00     0.029 A 
ATOM     24  C   UNL A   1      40.824  28.039  28.634  1.00  0.00     0.049 A 
ATOM     25  H   UNL A   1      40.581  29.056  30.435  1.00  0.00     0.167 HD
ATOM     26  C   UNL A   1      39.897  31.066  34.215  1.00  0.00     0.037 A 
ATOM     27  C   UNL A   1      41.933  27.286  28.748  1.00  0.00     0.037 A 
ATOM     28  C   UNL A   1      41.093  30.298  34.432  1.00  0.00     0.049 A 
ATOM     29  C   UNL A   1      42.709  27.282  30.032  1.00  0.00     0.074 A 
ATOM     30  C   UNL A   1      41.870  30.210  35.574  1.00  0.00     0.029 A 
ATOM     31  N   UNL A   1      41.686  29.481  33.482  1.00  0.00    -0.354 N 
ATOM     32  N   UNL A   1      42.459  27.921  31.148  1.00  0.00    -0.248 NA
ATOM     33  C   UNL A   1      43.925  26.456  30.069  1.00  0.00     0.031 C 
ATOM     34  C   UNL A   1      42.942  29.348  35.312  1.00  0.00     0.029 A 
ATOM     35  C   UNL A   1      42.824  28.892  34.011  1.00  0.00     0.049 A 
ATOM     36  H   UNL A   1      41.348  29.339  32.568  1.00  0.00     0.167 HD
ATOM     37  C   UNL A   1      43.481  27.576  32.019  1.00  0.00     0.074 A 
ATOM     38  C   UNL A   1      44.350  26.659  31.309  1.00  0.00     0.031 C 
ATOM     39  C   UNL A   1      43.681  27.988  33.292  1.00  0.00     0.037 A 
BRANCH  26  40
ATOM     40  C   UNL A   1      39.427  31.950  35.327  1.00  0.00     0.064 A 
ATOM     41  C   UNL A   1      39.828  33.290  35.406  1.00  0.00     0.173 A 
ATOM     42  C   UNL A   1      38.540  31.463  36.296  1.00  0.00     0.173 A 
ATOM     43  F   UNL A   1      40.685  33.793  34.506  1.00  0.00    -0.203 F 
ATOM     44  C   UNL A   1      39.360  34.114  36.428  1.00  0.00     0.198 A 
ATOM     45  C   UNL A   1      38.066  32.291  37.309  1.00  0.00     0.198 A 
ATOM     46  F   UNL A   1      38.131  30.186  36.258  1.00  0.00    -0.203 F 
ATOM     47  F   UNL A   1      39.771  35.387  36.500  1.00  0.00    -0.200 F 
ATOM     48  C   UNL A   1      38.478  33.615  37.375  1.00  0.00     0.200 A 
ATOM     49  F   UNL A   1      37.214  31.810  38.225  1.00  0.00    -0.200 F 
ATOM     50  F   UNL A   1      38.030  34.409  38.358  1.00  0.00    -0.200 F 
ENDBRANCH  26  40
BRANCH  27  51
ATOM     51  C   UNL A   1      42.348  26.427  27.616  1.00  0.00     0.064 A 
ATOM     52  C   UNL A   1      43.340  26.856  26.725  1.00  0.00     0.173 A 
ATOM     53  C   UNL A   1      41.784  25.160  27.419  1.00  0.00     0.173 A 
ATOM     54  F   UNL A   1      43.891  28.070  26.871  1.00  0.00    -0.203 F 
ATOM     55  C   UNL A   1      43.755  26.045  25.673  1.00  0.00     0.198 A 
ATOM     56  C   UNL A   1      42.208  24.346  26.371  1.00  0.00     0.198 A 
ATOM     57  F   UNL A   1      40.830  24.714  28.249  1.00  0.00    -0.203 F 
ATOM     58  F   UNL A   1      44.695  26.482  24.823  1.00  0.00    -0.200 F 
ATOM     59  C   UNL A   1      43.192  24.790  25.498  1.00  0.00     0.200 A 
ATOM     60  F   UNL A   1      41.664  23.133  26.206  1.00  0.00    -0.200 F 
ATOM     61  F   UNL A   1      43.594  24.007  24.487  1.00  0.00    -0.200 F 
ENDBRANCH  27  51
BRANCH  39  62
ATOM     62  C   UNL A   1      44.889  27.460  33.997  1.00  0.00     0.064 A 
ATOM     63  C   UNL A   1      44.852  26.230  34.668  1.00  0.00     0.173 A 
ATOM     64  C   UNL A   1      46.099  28.167  33.974  1.00  0.00     0.173 A 
ATOM     65  F   UNL A   1      43.710  25.528  34.725  1.00  0.00    -0.203 F 
ATOM     66  C   UNL A   1      45.986  25.730  35.302  1.00  0.00     0.198 A 
ATOM     67  C   UNL A   1      47.233  27.659  34.602  1.00  0.00     0.198 A 
ATOM     68  F   UNL A   1      46.178  29.350  33.346  1.00  0.00    -0.203 F 
ATOM     69  F   UNL A   1      45.924  24.562  35.957  1.00  0.00    -0.200 F 
ATOM     70  C   UNL A   1      47.175  26.442  35.265  1.00  0.00     0.200 A 
ATOM     71  F   UNL A   1      48.382  28.349  34.568  1.00  0.00    -0.200 F 
ATOM     72  F   UNL A   1      48.265  25.960  35.878  1.00  0.00    -0.200 F 
ENDBRANCH  39  62
ENDBRANCH  13  14
ENDBRANCH   6   8
ENDBRANCH   3   4
ENDBRANCH   2   3
ENDBRANCH   1   2
BRANCH   1  73
ATOM     73  N   UNL A   1      31.515  26.006  26.760  1.00  0.00    -0.352 N 
ATOM     74  C   UNL A   1      31.640  24.644  26.646  1.00  0.00     0.254 C 
ATOM     75  H   UNL A   1      30.668  26.328  27.145  1.00  0.00     0.163 HD
ATOM     76  O   UNL A   1      30.962  23.871  27.312  1.00  0.00    -0.269 OA
BRANCH  74  77
ATOM     77  C   UNL A   1      32.663  24.085  25.779  1.00  0.00     0.072 A 
ATOM     78  C   UNL A   1      33.772  23.556  26.464  1.00  0.00     0.018 A 
ATOM     79  C   UNL A   1      32.561  23.942  24.398  1.00  0.00     0.109 A 
ATOM     80  C   UNL A   1      34.791  22.939  25.759  1.00  0.00     0.021 A 
ATOM     81  N   UNL A   1      33.599  23.376  23.714  1.00  0.00    -0.249 NA
ATOM     82  C   UNL A   1      34.666  22.887  24.388  1.00  0.00     0.112 A 
BRANCH  79  83
ATOM     83  S   UNL A   1      31.229  24.253  23.251  1.00  0.00    -0.097 SA
BRANCH  83  84
ATOM     84  C   UNL A   1      30.944  26.007  23.056  1.00  0.00     0.157 C 
BRANCH  84  85
ATOM     85  C   UNL A   1      29.701  26.698  23.571  1.00  0.00     0.174 C 
ATOM     86  O   UNL A   1      29.288  26.360  24.693  1.00  0.00    -0.293 OA
BRANCH  85  87
ATOM     87  C   UNL A   1      29.167  27.990  23.036  1.00  0.00     0.037 A 
ATOM     88  C   UNL A   1      30.163  28.841  22.507  1.00  0.00     0.013 A 
ATOM     89  C   UNL A   1      27.860  28.487  23.112  1.00  0.00     0.051 A 
ATOM     90  C   UNL A   1      29.865  30.120  22.034  1.00  0.00     0.001 A 
ATOM     91  C   UNL A   1      27.558  29.757  22.587  1.00  0.00     0.021 A 
ATOM     92  Cl  UNL A   1      26.556  27.744  23.951  1.00  0.00    -0.084 Cl
ATOM     93  C   UNL A   1      28.554  30.572  22.055  1.00  0.00     0.002 A 
ENDBRANCH  85  87
ENDBRANCH  84  85
ENDBRANCH  83  84
ENDBRANCH  79  83
ENDBRANCH  74  77
ENDBRANCH   1  73
TORSDOF 14
ENDMDL
MODEL 2
REMARK VINA RESULT:     -12.3      2.077      4.112
REMARK SMILES O=C(NCCCNC(=O)c1cccnc1SCC(=O)c1ccccc1Cl)c1ccc(-c2c3nc(c(-c4c(F)c(F)c(F)c(F)c4F)c4ccc([nH]4)c(-c4c(F)c(F)c(F)c(F)c4F)c4nc(c(-c5c(F)c(F)c(F)c(F)c5F)c5ccc2[nH]5)C=C4)C=C3)cc1
REMARK SMILES IDX 6 1 5 2 4 3 3 4 1 5 2 6 27 8 28 9 89 10 29 11 88 12 30 13
REMARK SMILES IDX 31 14 32 15 82 16 33 17 87 18 81 19 83 20 34 21 86 22 80 23
REMARK SMILES IDX 79 24 35 26 67 27 47 28 66 29 48 30 51 31 65 32 84 33 49 34
REMARK SMILES IDX 50 35 64 37 85 38 52 39 36 40 37 41 45 42 38 43 39 44 43 45
REMARK SMILES IDX 46 46 40 47 41 48 44 49 42 50 68 51 69 52 77 53 70 54 71 55
REMARK SMILES IDX 75 56 78 57 72 58 73 59 76 60 74 61 53 62 54 63 62 64 55 65
REMARK SMILES IDX 56 66 60 67 63 68 57 69 58 70 61 71 59 72 7 73 8 74 9 76
REMARK SMILES IDX 10 77 11 78 15 79 12 80 14 81 13 82 16 83 17 84 18 85 19 86
REMARK SMILES IDX 20 87 21 88 25 89 22 90 24 91 26 92 23 93
REMARK H PARENT 3 7 83 25 51 36 7 75
REMARK Flexibility Score: inf
ROOT
ATOM      1  C   UNL A   1      33.266  26.710  25.106  1.00  0.00     0.118 C 
ENDROOT
BRANCH   1   2
ATOM      2  C   UNL A   1      32.656  28.028  25.573  1.00  0.00     0.042 C 
BRANCH   2   3
ATOM      3  C   UNL A   1      33.386  29.283  25.098  1.00  0.00     0.118 C 
BRANCH   3   4
ATOM      4  N   UNL A   1      32.908  30.500  25.739  1.00  0.00    -0.352 N 
ATOM      5  O   UNL A   1      32.540  32.082  27.267  1.00  0.00    -0.269 OA
ATOM      6  C   UNL A   1      33.270  31.171  26.877  1.00  0.00     0.251 C 
ATOM      7  H   UNL A   1      32.169  30.932  25.251  1.00  0.00     0.163 HD
BRANCH   6   8
ATOM      8  C   UNL A   1      34.488  30.853  27.665  1.00  0.00     0.039 A 
ATOM      9  C   UNL A   1      34.745  29.586  28.191  1.00  0.00     0.014 A 
ATOM     10  C   UNL A   1      35.480  31.842  27.764  1.00  0.00     0.014 A 
ATOM     11  C   UNL A   1      35.928  29.343  28.897  1.00  0.00     0.010 A 
ATOM     12  C   UNL A   1      36.692  31.580  28.415  1.00  0.00     0.010 A 
ATOM     13  C   UNL A   1      36.916  30.334  29.012  1.00  0.00    -0.014 A 
BRANCH  13  14
ATOM     14  C   UNL A   1      38.189  30.032  29.720  1.00  0.00     0.031 A 
ATOM     15  C   UNL A   1      38.440  30.540  31.112  1.00  0.00     0.074 A 
ATOM     16  C   UNL A   1      39.120  29.271  29.114  1.00  0.00     0.049 A 
ATOM     17  N   UNL A   1      39.454  30.301  31.907  1.00  0.00    -0.248 NA
ATOM     18  C   UNL A   1      37.430  31.441  31.685  1.00  0.00     0.031 C 
ATOM     19  C   UNL A   1      39.028  28.750  27.750  1.00  0.00     0.029 A 
ATOM     20  N   UNL A   1      40.317  28.784  29.578  1.00  0.00    -0.354 N 
ATOM     21  C   UNL A   1      39.215  31.032  33.060  1.00  0.00     0.074 A 
ATOM     22  C   UNL A   1      37.966  31.738  32.861  1.00  0.00     0.031 C 
ATOM     23  C   UNL A   1      40.094  27.969  27.507  1.00  0.00     0.029 A 
ATOM     24  C   UNL A   1      40.951  27.952  28.689  1.00  0.00     0.049 A 
ATOM     25  H   UNL A   1      40.686  29.010  30.462  1.00  0.00     0.167 HD
ATOM     26  C   UNL A   1      39.959  31.103  34.190  1.00  0.00     0.037 A 
ATOM     27  C   UNL A   1      42.083  27.237  28.817  1.00  0.00     0.037 A 
ATOM     28  C   UNL A   1      41.180  30.379  34.420  1.00  0.00     0.049 A 
ATOM     29  C   UNL A   1      42.866  27.294  30.096  1.00  0.00     0.074 A 
ATOM     30  C   UNL A   1      41.965  30.347  35.560  1.00  0.00     0.029 A 
ATOM     31  N   UNL A   1      41.792  29.555  33.490  1.00  0.00    -0.354 N 
ATOM     32  N   UNL A   1      42.602  27.955  31.195  1.00  0.00    -0.248 NA
ATOM     33  C   UNL A   1      44.107  26.507  30.148  1.00  0.00     0.031 C 
ATOM     34  C   UNL A   1      43.062  29.512  35.315  1.00  0.00     0.029 A 
ATOM     35  C   UNL A   1      42.951  29.016  34.027  1.00  0.00     0.049 A 
ATOM     36  H   UNL A   1      41.455  29.377  32.582  1.00  0.00     0.167 HD
ATOM     37  C   UNL A   1      43.639  27.666  32.069  1.00  0.00     0.074 A 
ATOM     38  C   UNL A   1      44.532  26.758  31.380  1.00  0.00     0.031 C 
ATOM     39  C   UNL A   1      43.833  28.120  33.329  1.00  0.00     0.037 A 
BRANCH  26  40
ATOM     40  C   UNL A   1      39.467  32.003  35.279  1.00  0.00     0.064 A 
ATOM     41  C   UNL A   1      39.824  33.357  35.318  1.00  0.00     0.173 A 
ATOM     42  C   UNL A   1      38.603  31.515  36.268  1.00  0.00     0.173 A 
ATOM     43  F   UNL A   1      40.659  33.861  34.397  1.00  0.00    -0.203 F 
ATOM     44  C   UNL A   1      39.337  34.194  36.319  1.00  0.00     0.198 A 
ATOM     45  C   UNL A   1      38.109  32.355  37.261  1.00  0.00     0.198 A 
ATOM     46  F   UNL A   1      38.237  30.224  36.269  1.00  0.00    -0.203 F 
ATOM     47  F   UNL A   1      39.705  35.481  36.352  1.00  0.00    -0.200 F 
ATOM     48  C   UNL A   1      38.478  33.693  37.287  1.00  0.00     0.200 A 
ATOM     49  F   UNL A   1      37.279  31.873  38.197  1.00  0.00    -0.200 F 
ATOM     50  F   UNL A   1      38.010  34.500  38.250  1.00  0.00    -0.200 F 
ENDBRANCH  26  40
BRANCH  27  51
ATOM     51  C   UNL A   1      42.519  26.360  27.707  1.00  0.00     0.064 A 
ATOM     52  C   UNL A   1      41.986  25.072  27.566  1.00  0.00     0.173 A 
ATOM     53  C   UNL A   1      43.452  26.797  26.758  1.00  0.00     0.173 A 
ATOM     54  F   UNL A   1      41.103  24.612  28.466  1.00  0.00    -0.203 F 
ATOM     55  C   UNL A   1      42.371  24.250  26.512  1.00  0.00     0.198 A 
ATOM     56  C   UNL A   1      43.829  25.976  25.697  1.00  0.00     0.198 A 
ATOM     57  F   UNL A   1      43.988  28.022  26.859  1.00  0.00    -0.203 F 
ATOM     58  F   UNL A   1      41.858  23.017  26.405  1.00  0.00    -0.200 F 
ATOM     59  C   UNL A   1      43.289  24.703  25.576  1.00  0.00     0.200 A 
ATOM     60  F   UNL A   1      44.714  26.417  24.794  1.00  0.00    -0.200 F 
ATOM     61  F   UNL A   1      43.657  23.913  24.558  1.00  0.00    -0.200 F 
ENDBRANCH  27  51
BRANCH  39  62
ATOM     62  C   UNL A   1      45.061  27.650  34.040  1.00  0.00     0.064 A 
ATOM     63  C   UNL A   1      46.257  28.377  33.971  1.00  0.00     0.173 A 
ATOM     64  C   UNL A   1      45.035  26.486  34.820  1.00  0.00     0.173 A 
ATOM     65  F   UNL A   1      46.328  29.489  33.224  1.00  0.00    -0.203 F 
ATOM     66  C   UNL A   1      47.392  27.948  34.654  1.00  0.00     0.198 A 
ATOM     67  C   UNL A   1      46.170  26.066  35.509  1.00  0.00     0.198 A 
ATOM     68  F   UNL A   1      43.913  25.758  34.911  1.00  0.00    -0.203 F 
ATOM     69  F   UNL A   1      48.532  28.645  34.558  1.00  0.00    -0.200 F 
ATOM     70  C   UNL A   1      47.346  26.796  35.425  1.00  0.00     0.200 A 
ATOM     71  F   UNL A   1      46.126  24.950  36.252  1.00  0.00    -0.200 F 
ATOM     72  F   UNL A   1      48.440  26.384  36.080  1.00  0.00    -0.200 F 
ENDBRANCH  39  62
ENDBRANCH  13  14
ENDBRANCH   6   8
ENDBRANCH   3   4
ENDBRANCH   2   3
ENDBRANCH   1   2
BRANCH   1  73
ATOM     73  N   UNL A   1      32.793  25.540  25.828  1.00  0.00    -0.352 N 
ATOM     74  C   UNL A   1      33.374  24.300  25.914  1.00  0.00     0.254 C 
ATOM     75  H   UNL A   1      31.946  25.652  26.319  1.00  0.00     0.163 HD
ATOM     76  O   UNL A   1      33.110  23.519  26.819  1.00  0.00    -0.269 OA
BRANCH  74  77
ATOM     77  C   UNL A   1      34.401  23.919  24.959  1.00  0.00     0.072 A 
ATOM     78  C   UNL A   1      35.701  23.878  25.498  1.00  0.00     0.018 A 
ATOM     79  C   UNL A   1      34.173  23.499  23.652  1.00  0.00     0.109 A 
ATOM     80  C   UNL A   1      36.764  23.472  24.710  1.00  0.00     0.021 A 
ATOM     81  N   UNL A   1      35.241  23.150  22.875  1.00  0.00    -0.249 NA
ATOM     82  C   UNL A   1      36.486  23.133  23.405  1.00  0.00     0.112 A 
BRANCH  79  83
ATOM     83  S   UNL A   1      32.676  23.183  22.734  1.00  0.00    -0.097 SA
BRANCH  83  84
ATOM     84  C   UNL A   1      32.182  21.470  22.877  1.00  0.00     0.157 C 
BRANCH  84  85
ATOM     85  C   UNL A   1      32.477  20.632  24.100  1.00  0.00     0.174 C 
ATOM     86  O   UNL A   1      31.788  20.843  25.113  1.00  0.00    -0.293 OA
BRANCH  85  87
ATOM     87  C   UNL A   1      33.236  19.342  24.081  1.00  0.00     0.037 A 
ATOM     88  C   UNL A   1      32.461  18.234  23.673  1.00  0.00     0.013 A 
ATOM     89  C   UNL A   1      34.541  19.096  24.524  1.00  0.00     0.051 A 
ATOM     90  C   UNL A   1      32.976  16.936  23.667  1.00  0.00     0.001 A 
ATOM     91  C   UNL A   1      35.070  17.793  24.467  1.00  0.00     0.021 A 
ATOM     92  Cl  UNL A   1      35.562  20.236  25.308  1.00  0.00    -0.084 Cl
ATOM     93  C   UNL A   1      34.292  16.717  24.046  1.00  0.00     0.002 A 
ENDBRANCH  85  87
ENDBRANCH  84  85
ENDBRANCH  83  84
ENDBRANCH  79  83
ENDBRANCH  74  77
ENDBRANCH   1  73
TORSDOF 14
ENDMDL
MODEL 3
REMARK VINA RESULT:     -12.1      1.059      2.101
REMARK SMILES O=C(NCCCNC(=O)c1cccnc1SCC(=O)c1ccccc1Cl)c1ccc(-c2c3nc(c(-c4c(F)c(F)c(F)c(F)c4F)c4ccc([nH]4)c(-c4c(F)c(F)c(F)c(F)c4F)c4nc(c(-c5c(F)c(F)c(F)c(F)c5F)c5ccc2[nH]5)C=C4)C=C3)cc1
REMARK SMILES IDX 6 1 5 2 4 3 3 4 1 5 2 6 27 8 28 9 89 10 29 11 88 12 30 13
REMARK SMILES IDX 31 14 32 15 82 16 33 17 87 18 81 19 83 20 34 21 86 22 80 23
REMARK SMILES IDX 79 24 35 26 67 27 47 28 66 29 48 30 51 31 65 32 84 33 49 34
REMARK SMILES IDX 50 35 64 37 85 38 52 39 36 40 37 41 45 42 38 43 39 44 43 45
REMARK SMILES IDX 46 46 40 47 41 48 44 49 42 50 68 51 69 52 77 53 70 54 71 55
REMARK SMILES IDX 75 56 78 57 72 58 73 59 76 60 74 61 53 62 54 63 62 64 55 65
REMARK SMILES IDX 56 66 60 67 63 68 57 69 58 70 61 71 59 72 7 73 8 74 9 76
REMARK SMILES IDX 10 77 11 78 15 79 12 80 14 81 13 82 16 83 17 84 18 85 19 86
REMARK SMILES IDX 20 87 21 88 25 89 22 90 24 91 26 92 23 93
REMARK H PARENT 3 7 83 25 51 36 7 75
REMARK Flexibility Score: inf
ROOT
ATOM      1  C   UNL A   1      33.611  26.720  25.643  1.00  0.00     0.118 C 
ENDROOT
BRANCH   1   2
ATOM      2  C   UNL A   1      32.744  27.969  25.775  1.00  0.00     0.042 C 
BRANCH   2   3
ATOM      3  C   UNL A   1      33.301  29.217  25.093  1.00  0.00     0.118 C 
BRANCH   3   4
ATOM      4  N   UNL A   1      32.845  30.457  25.706  1.00  0.00    -0.352 N 
ATOM      5  O   UNL A   1      32.504  32.079  27.198  1.00  0.00    -0.269 OA
ATOM      6  C   UNL A   1      33.217  31.146  26.830  1.00  0.00     0.251 C 
ATOM      7  H   UNL A   1      32.115  30.891  25.207  1.00  0.00     0.163 HD
BRANCH   6   8
ATOM      8  C   UNL A   1      34.428  30.822  27.627  1.00  0.00     0.039 A 
ATOM      9  C   UNL A   1      34.637  29.578  28.222  1.00  0.00     0.014 A 
ATOM     10  C   UNL A   1      35.460  31.774  27.665  1.00  0.00     0.014 A 
ATOM     11  C   UNL A   1      35.815  29.326  28.934  1.00  0.00     0.010 A 
ATOM     12  C   UNL A   1      36.665  31.499  28.323  1.00  0.00     0.010 A 
ATOM     13  C   UNL A   1      36.844  30.280  28.987  1.00  0.00    -0.014 A 
BRANCH  13  14
ATOM     14  C   UNL A   1      38.109  29.966  29.704  1.00  0.00     0.031 A 
ATOM     15  C   UNL A   1      38.361  30.484  31.092  1.00  0.00     0.074 A 
ATOM     16  C   UNL A   1      39.031  29.185  29.109  1.00  0.00     0.049 A 
ATOM     17  N   UNL A   1      39.369  30.237  31.893  1.00  0.00    -0.248 NA
ATOM     18  C   UNL A   1      37.363  31.405  31.652  1.00  0.00     0.031 C 
ATOM     19  C   UNL A   1      38.936  28.651  27.751  1.00  0.00     0.029 A 
ATOM     20  N   UNL A   1      40.218  28.684  29.583  1.00  0.00    -0.354 N 
ATOM     21  C   UNL A   1      39.135  30.984  33.038  1.00  0.00     0.074 A 
ATOM     22  C   UNL A   1      37.898  31.706  32.826  1.00  0.00     0.031 C 
ATOM     23  C   UNL A   1      39.991  27.853  27.520  1.00  0.00     0.029 A 
ATOM     24  C   UNL A   1      40.843  27.834  28.705  1.00  0.00     0.049 A 
ATOM     25  H   UNL A   1      40.587  28.914  30.467  1.00  0.00     0.167 HD
ATOM     26  C   UNL A   1      39.876  31.055  34.170  1.00  0.00     0.037 A 
ATOM     27  C   UNL A   1      41.964  27.103  28.846  1.00  0.00     0.037 A 
ATOM     28  C   UNL A   1      41.085  30.315  34.413  1.00  0.00     0.049 A 
ATOM     29  C   UNL A   1      42.742  27.161  30.127  1.00  0.00     0.074 A 
ATOM     30  C   UNL A   1      41.865  30.282  35.556  1.00  0.00     0.029 A 
ATOM     31  N   UNL A   1      41.689  29.472  33.494  1.00  0.00    -0.354 N 
ATOM     32  N   UNL A   1      42.483  27.837  31.218  1.00  0.00    -0.248 NA
ATOM     33  C   UNL A   1      43.971  26.357  30.192  1.00  0.00     0.031 C 
ATOM     34  C   UNL A   1      42.950  29.428  35.325  1.00  0.00     0.029 A 
ATOM     35  C   UNL A   1      42.837  28.922  34.042  1.00  0.00     0.049 A 
ATOM     36  H   UNL A   1      41.352  29.290  32.586  1.00  0.00     0.167 HD
ATOM     37  C   UNL A   1      43.512  27.542  32.100  1.00  0.00     0.074 A 
ATOM     38  C   UNL A   1      44.394  26.613  31.424  1.00  0.00     0.031 C 
ATOM     39  C   UNL A   1      43.708  28.005  33.356  1.00  0.00     0.037 A 
BRANCH  26  40
ATOM     40  C   UNL A   1      39.393  31.972  35.248  1.00  0.00     0.064 A 
ATOM     41  C   UNL A   1      38.567  31.508  36.280  1.00  0.00     0.173 A 
ATOM     42  C   UNL A   1      39.792  33.316  35.270  1.00  0.00     0.173 A 
ATOM     43  F   UNL A   1      38.153  30.232  36.290  1.00  0.00    -0.203 F 
ATOM     44  C   UNL A   1      38.148  32.363  37.296  1.00  0.00     0.198 A 
ATOM     45  C   UNL A   1      39.380  34.165  36.293  1.00  0.00     0.198 A 
ATOM     46  F   UNL A   1      40.582  33.802  34.302  1.00  0.00    -0.203 F 
ATOM     47  F   UNL A   1      37.340  31.906  38.263  1.00  0.00    -0.200 F 
ATOM     48  C   UNL A   1      38.557  33.688  37.304  1.00  0.00     0.200 A 
ATOM     49  F   UNL A   1      39.775  35.446  36.301  1.00  0.00    -0.200 F 
ATOM     50  F   UNL A   1      38.152  34.510  38.282  1.00  0.00    -0.200 F 
ENDBRANCH  26  40
BRANCH  27  51
ATOM     51  C   UNL A   1      42.391  26.209  27.746  1.00  0.00     0.064 A 
ATOM     52  C   UNL A   1      41.818  24.939  27.600  1.00  0.00     0.173 A 
ATOM     53  C   UNL A   1      43.354  26.612  26.813  1.00  0.00     0.173 A 
ATOM     54  F   UNL A   1      40.905  24.510  28.484  1.00  0.00    -0.203 F 
ATOM     55  C   UNL A   1      42.196  24.101  26.554  1.00  0.00     0.198 A 
ATOM     56  C   UNL A   1      43.724  25.776  25.762  1.00  0.00     0.198 A 
ATOM     57  F   UNL A   1      43.928  27.819  26.920  1.00  0.00    -0.203 F 
ATOM     58  F   UNL A   1      41.645  22.884  26.442  1.00  0.00    -0.200 F 
ATOM     59  C   UNL A   1      43.145  24.521  25.634  1.00  0.00     0.200 A 
ATOM     60  F   UNL A   1      44.639  26.185  24.873  1.00  0.00    -0.200 F 
ATOM     61  F   UNL A   1      43.506  23.715  24.626  1.00  0.00    -0.200 F 
ENDBRANCH  27  51
BRANCH  39  62
ATOM     62  C   UNL A   1      44.926  27.523  34.077  1.00  0.00     0.064 A 
ATOM     63  C   UNL A   1      44.895  26.344  34.834  1.00  0.00     0.173 A 
ATOM     64  C   UNL A   1      46.136  28.223  33.986  1.00  0.00     0.173 A 
ATOM     65  F   UNL A   1      43.753  25.652  34.958  1.00  0.00    -0.203 F 
ATOM     66  C   UNL A   1      46.038  25.886  35.485  1.00  0.00     0.198 A 
ATOM     67  C   UNL A   1      47.278  27.756  34.631  1.00  0.00     0.198 A 
ATOM     68  F   UNL A   1      46.209  29.358  33.275  1.00  0.00    -0.203 F 
ATOM     69  F   UNL A   1      45.983  24.768  36.222  1.00  0.00    -0.200 F 
ATOM     70  C   UNL A   1      47.228  26.590  35.379  1.00  0.00     0.200 A 
ATOM     71  F   UNL A   1      48.429  28.438  34.530  1.00  0.00    -0.200 F 
ATOM     72  F   UNL A   1      48.326  26.148  36.008  1.00  0.00    -0.200 F 
ENDBRANCH  39  62
ENDBRANCH  13  14
ENDBRANCH   6   8
ENDBRANCH   3   4
ENDBRANCH   2   3
ENDBRANCH   1   2
BRANCH   1  73
ATOM     73  N   UNL A   1      32.980  25.500  26.121  1.00  0.00    -0.352 N 
ATOM     74  C   UNL A   1      33.444  24.212  26.034  1.00  0.00     0.254 C 
ATOM     75  H   UNL A   1      32.108  25.612  26.566  1.00  0.00     0.163 HD
ATOM     76  O   UNL A   1      33.040  23.322  26.773  1.00  0.00    -0.269 OA
BRANCH  74  77
ATOM     77  C   UNL A   1      34.512  23.893  25.100  1.00  0.00     0.072 A 
ATOM     78  C   UNL A   1      35.772  23.722  25.704  1.00  0.00     0.018 A 
ATOM     79  C   UNL A   1      34.348  23.642  23.741  1.00  0.00     0.109 A 
ATOM     80  C   UNL A   1      36.863  23.358  24.934  1.00  0.00     0.021 A 
ATOM     81  N   UNL A   1      35.446  23.332  22.990  1.00  0.00    -0.249 NA
ATOM     82  C   UNL A   1      36.653  23.189  23.584  1.00  0.00     0.112 A 
BRANCH  79  83
ATOM     83  S   UNL A   1      32.898  23.514  22.708  1.00  0.00    -0.097 SA
BRANCH  83  84
ATOM     84  C   UNL A   1      32.727  24.952  21.658  1.00  0.00     0.157 C 
BRANCH  84  85
ATOM     85  C   UNL A   1      32.647  26.360  22.203  1.00  0.00     0.174 C 
ATOM     86  O   UNL A   1      33.654  27.077  22.075  1.00  0.00    -0.293 OA
BRANCH  85  87
ATOM     87  C   UNL A   1      31.370  27.072  22.522  1.00  0.00     0.037 A 
ATOM     88  C   UNL A   1      31.356  28.423  22.109  1.00  0.00     0.013 A 
ATOM     89  C   UNL A   1      30.279  26.608  23.266  1.00  0.00     0.051 A 
ATOM     90  C   UNL A   1      30.281  29.270  22.390  1.00  0.00     0.001 A 
ATOM     91  C   UNL A   1      29.177  27.452  23.501  1.00  0.00     0.021 A 
ATOM     92  Cl  UNL A   1      30.200  25.102  24.091  1.00  0.00    -0.084 Cl
ATOM     93  C   UNL A   1      29.178  28.776  23.070  1.00  0.00     0.002 A 
ENDBRANCH  85  87
ENDBRANCH  84  85
ENDBRANCH  83  84
ENDBRANCH  79  83
ENDBRANCH  74  77
ENDBRANCH   1  73
TORSDOF 14
ENDMDL
