MODEL 1
REMARK VINA RESULT:     -10.6      0.000      0.000
REMARK SMILES O=C(NCCCNC(=O)C1(O)CCC(F)(F)CC1)c1ccc(-c2c3nc(c(-c4c(F)c(F)c(F)c(F)c4F)c4ccc([nH]4)c(-c4c(F)c(F)c(F)c(F)c4F)c4nc(c(-c5c(F)c(F)c(F)c(F)c5F)c5ccc2[nH]5)C=C4)C=C3)cc1
REMARK SMILES IDX 4 1 3 2 1 3 2 4 19 6 20 7 81 8 21 9 80 10 22 11 23 12 24 13
REMARK SMILES IDX 74 14 25 15 79 16 73 17 75 18 26 19 78 20 72 21 71 22 27 24
REMARK SMILES IDX 59 25 39 26 58 27 40 28 43 29 57 30 76 31 41 32 42 33 56 35
REMARK SMILES IDX 77 36 44 37 28 38 29 39 37 40 30 41 31 42 35 43 38 44 32 45
REMARK SMILES IDX 33 46 36 47 34 48 60 49 61 50 69 51 62 52 63 53 67 54 70 55
REMARK SMILES IDX 64 56 65 57 68 58 66 59 45 60 46 61 54 62 47 63 48 64 52 65
REMARK SMILES IDX 55 66 49 67 50 68 53 69 51 70 5 71 6 72 7 73 8 74 9 76 10 77
REMARK SMILES IDX 12 78 18 79 13 80 17 81 14 82 15 83 16 84 11 85
REMARK H PARENT 3 5 75 23 43 34 7 75 11 86
REMARK Flexibility Score: inf
ROOT
ATOM      1  C   UNL A   1      34.763  32.645  28.564  1.00  0.00     0.118 C 
ENDROOT
BRANCH   1   2
ATOM      2  N   UNL A   1      34.064  31.416  28.213  1.00  0.00    -0.352 N 
ATOM      3  O   UNL A   1      33.824  29.279  27.536  1.00  0.00    -0.269 OA
ATOM      4  C   UNL A   1      34.553  30.150  28.002  1.00  0.00     0.251 C 
ATOM      5  H   UNL A   1      33.088  31.507  28.112  1.00  0.00     0.163 HD
BRANCH   4   6
ATOM      6  C   UNL A   1      35.964  29.842  28.313  1.00  0.00     0.039 A 
ATOM      7  C   UNL A   1      36.964  30.078  27.370  1.00  0.00     0.014 A 
ATOM      8  C   UNL A   1      36.296  29.328  29.571  1.00  0.00     0.014 A 
ATOM      9  C   UNL A   1      38.258  29.642  27.611  1.00  0.00     0.010 A 
ATOM     10  C   UNL A   1      37.624  29.000  29.858  1.00  0.00     0.010 A 
ATOM     11  C   UNL A   1      38.612  29.132  28.870  1.00  0.00    -0.014 A 
BRANCH  11  12
ATOM     12  C   UNL A   1      40.042  28.850  29.147  1.00  0.00     0.031 A 
ATOM     13  C   UNL A   1      40.896  29.804  29.930  1.00  0.00     0.074 A 
ATOM     14  C   UNL A   1      40.551  27.685  28.698  1.00  0.00     0.049 A 
ATOM     15  N   UNL A   1      42.157  29.690  30.266  1.00  0.00    -0.248 NA
ATOM     16  C   UNL A   1      40.263  31.048  30.394  1.00  0.00     0.031 C 
ATOM     17  C   UNL A   1      39.814  26.693  27.910  1.00  0.00     0.029 A 
ATOM     18  N   UNL A   1      41.792  27.124  28.853  1.00  0.00    -0.354 N 
ATOM     19  C   UNL A   1      42.475  30.852  30.955  1.00  0.00     0.074 A 
ATOM     20  C   UNL A   1      41.279  31.669  30.980  1.00  0.00     0.031 C 
ATOM     21  C   UNL A   1      40.597  25.627  27.697  1.00  0.00     0.029 A 
ATOM     22  C   UNL A   1      41.912  25.889  28.265  1.00  0.00     0.049 A 
ATOM     23  H   UNL A   1      42.527  27.564  29.340  1.00  0.00     0.167 HD
ATOM     24  C   UNL A   1      43.659  31.197  31.514  1.00  0.00     0.037 A 
ATOM     25  C   UNL A   1      42.972  25.067  28.167  1.00  0.00     0.037 A 
ATOM     26  C   UNL A   1      44.834  30.362  31.507  1.00  0.00     0.049 A 
ATOM     27  C   UNL A   1      44.270  25.487  28.790  1.00  0.00     0.074 A 
ATOM     28  C   UNL A   1      46.064  30.600  32.097  1.00  0.00     0.029 A 
ATOM     29  N   UNL A   1      44.926  29.130  30.875  1.00  0.00    -0.354 N 
ATOM     30  N   UNL A   1      44.544  26.571  29.474  1.00  0.00    -0.248 NA
ATOM     31  C   UNL A   1      45.408  24.576  28.621  1.00  0.00     0.031 C 
ATOM     32  C   UNL A   1      46.914  29.535  31.781  1.00  0.00     0.029 A 
ATOM     33  C   UNL A   1      46.201  28.611  31.036  1.00  0.00     0.049 A 
ATOM     34  H   UNL A   1      44.194  28.691  30.386  1.00  0.00     0.167 HD
ATOM     35  C   UNL A   1      45.881  26.470  29.824  1.00  0.00     0.074 A 
ATOM     36  C   UNL A   1      46.354  25.203  29.303  1.00  0.00     0.031 C 
ATOM     37  C   UNL A   1      46.652  27.350  30.506  1.00  0.00     0.037 A 
BRANCH  24  38
ATOM     38  C   UNL A   1      43.766  32.540  32.177  1.00  0.00     0.064 A 
ATOM     39  C   UNL A   1      44.077  33.698  31.452  1.00  0.00     0.173 A 
ATOM     40  C   UNL A   1      43.462  32.680  33.541  1.00  0.00     0.173 A 
ATOM     41  F   UNL A   1      44.383  33.617  30.149  1.00  0.00    -0.203 F 
ATOM     42  C   UNL A   1      44.084  34.948  32.069  1.00  0.00     0.198 A 
ATOM     43  C   UNL A   1      43.449  33.932  34.148  1.00  0.00     0.198 A 
ATOM     44  F   UNL A   1      43.152  31.602  34.278  1.00  0.00    -0.203 F 
ATOM     45  F   UNL A   1      44.405  36.041  31.361  1.00  0.00    -0.200 F 
ATOM     46  C   UNL A   1      43.761  35.065  33.413  1.00  0.00     0.200 A 
ATOM     47  F   UNL A   1      43.123  34.045  35.444  1.00  0.00    -0.200 F 
ATOM     48  F   UNL A   1      43.750  36.269  33.999  1.00  0.00    -0.200 F 
ENDBRANCH  24  38
BRANCH  25  49
ATOM     49  C   UNL A   1      42.849  23.784  27.427  1.00  0.00     0.064 A 
ATOM     50  C   UNL A   1      42.371  22.628  28.055  1.00  0.00     0.173 A 
ATOM     51  C   UNL A   1      43.209  23.692  26.074  1.00  0.00     0.173 A 
ATOM     52  F   UNL A   1      42.031  22.662  29.353  1.00  0.00    -0.203 F 
ATOM     53  C   UNL A   1      42.277  21.422  27.364  1.00  0.00     0.198 A 
ATOM     54  C   UNL A   1      43.082  22.495  25.375  1.00  0.00     0.198 A 
ATOM     55  F   UNL A   1      43.666  24.773  25.424  1.00  0.00    -0.203 F 
ATOM     56  F   UNL A   1      41.863  20.318  28.001  1.00  0.00    -0.200 F 
ATOM     57  C   UNL A   1      42.627  21.358  26.023  1.00  0.00     0.200 A 
ATOM     58  F   UNL A   1      43.403  22.444  24.075  1.00  0.00    -0.200 F 
ATOM     59  F   UNL A   1      42.531  20.199  25.358  1.00  0.00    -0.200 F 
ENDBRANCH  25  49
BRANCH  37  60
ATOM     60  C   UNL A   1      48.081  26.961  30.736  1.00  0.00     0.064 A 
ATOM     61  C   UNL A   1      49.102  27.386  29.874  1.00  0.00     0.173 A 
ATOM     62  C   UNL A   1      48.434  26.166  31.836  1.00  0.00     0.173 A 
ATOM     63  F   UNL A   1      48.810  28.131  28.798  1.00  0.00    -0.203 F 
ATOM     64  C   UNL A   1      50.424  27.007  30.091  1.00  0.00     0.198 A 
ATOM     65  C   UNL A   1      49.761  25.813  32.066  1.00  0.00     0.198 A 
ATOM     66  F   UNL A   1      47.493  25.737  32.691  1.00  0.00    -0.203 F 
ATOM     67  F   UNL A   1      51.377  27.381  29.226  1.00  0.00    -0.200 F 
ATOM     68  C   UNL A   1      50.752  26.227  31.190  1.00  0.00     0.200 A 
ATOM     69  F   UNL A   1      50.078  25.068  33.134  1.00  0.00    -0.200 F 
ATOM     70  F   UNL A   1      52.025  25.865  31.398  1.00  0.00    -0.200 F 
ENDBRANCH  37  60
ENDBRANCH  11  12
ENDBRANCH   4   6
ENDBRANCH   1   2
BRANCH   1  71
ATOM     71  C   UNL A   1      33.835  33.843  28.694  1.00  0.00     0.042 C 
BRANCH  71  72
ATOM     72  C   UNL A   1      34.089  34.686  29.932  1.00  0.00     0.117 C 
BRANCH  72  73
ATOM     73  N   UNL A   1      33.653  34.019  31.144  1.00  0.00    -0.354 N 
ATOM     74  C   UNL A   1      34.317  33.778  32.307  1.00  0.00     0.251 C 
ATOM     75  H   UNL A   1      32.726  33.687  31.122  1.00  0.00     0.163 HD
ATOM     76  O   UNL A   1      33.732  33.078  33.138  1.00  0.00    -0.272 OA
BRANCH  74  77
ATOM     77  C   UNL A   1      35.712  34.412  32.585  1.00  0.00     0.143 C 
ATOM     78  C   UNL A   1      36.316  33.918  33.912  1.00  0.00     0.051 C 
ATOM     79  C   UNL A   1      36.684  34.073  31.427  1.00  0.00     0.051 C 
ATOM     80  C   UNL A   1      36.652  32.433  33.881  1.00  0.00     0.080 C 
ATOM     81  C   UNL A   1      37.112  32.600  31.397  1.00  0.00     0.080 C 
ATOM     82  C   UNL A   1      37.613  32.126  32.749  1.00  0.00     0.248 C 
ATOM     83  F   UNL A   1      37.857  30.795  32.711  1.00  0.00    -0.207 F 
ATOM     84  F   UNL A   1      38.802  32.732  33.013  1.00  0.00    -0.207 F 
BRANCH  77  85
ATOM     85  O   UNL A   1      35.561  35.834  32.664  1.00  0.00    -0.380 OA
ATOM     86  H   UNL A   1      35.769  36.131  33.563  1.00  0.00     0.212 HD
ENDBRANCH  77  85
ENDBRANCH  74  77
ENDBRANCH  72  73
ENDBRANCH  71  72
ENDBRANCH   1  71
TORSDOF 11
ENDMDL
MODEL 2
REMARK VINA RESULT:     -10.6      0.085      1.184
REMARK SMILES O=C(NCCCNC(=O)C1(O)CCC(F)(F)CC1)c1ccc(-c2c3nc(c(-c4c(F)c(F)c(F)c(F)c4F)c4ccc([nH]4)c(-c4c(F)c(F)c(F)c(F)c4F)c4nc(c(-c5c(F)c(F)c(F)c(F)c5F)c5ccc2[nH]5)C=C4)C=C3)cc1
REMARK SMILES IDX 4 1 3 2 1 3 2 4 19 6 20 7 81 8 21 9 80 10 22 11 23 12 24 13
REMARK SMILES IDX 74 14 25 15 79 16 73 17 75 18 26 19 78 20 72 21 71 22 27 24
REMARK SMILES IDX 59 25 39 26 58 27 40 28 43 29 57 30 76 31 41 32 42 33 56 35
REMARK SMILES IDX 77 36 44 37 28 38 29 39 37 40 30 41 31 42 35 43 38 44 32 45
REMARK SMILES IDX 33 46 36 47 34 48 60 49 61 50 69 51 62 52 63 53 67 54 70 55
REMARK SMILES IDX 64 56 65 57 68 58 66 59 45 60 46 61 54 62 47 63 48 64 52 65
REMARK SMILES IDX 55 66 49 67 50 68 53 69 51 70 5 71 6 72 7 73 8 74 9 76 10 77
REMARK SMILES IDX 12 78 18 79 13 80 17 81 14 82 15 83 16 84 11 85
REMARK H PARENT 3 5 75 23 43 34 7 75 11 86
REMARK Flexibility Score: inf
ROOT
ATOM      1  C   UNL A   1      34.781  32.723  28.567  1.00  0.00     0.118 C 
ENDROOT
BRANCH   1   2
ATOM      2  N   UNL A   1      34.076  31.499  28.210  1.00  0.00    -0.352 N 
ATOM      3  O   UNL A   1      33.826  29.364  27.528  1.00  0.00    -0.269 OA
ATOM      4  C   UNL A   1      34.558  30.230  28.000  1.00  0.00     0.251 C 
ATOM      5  H   UNL A   1      33.101  31.597  28.103  1.00  0.00     0.163 HD
BRANCH   4   6
ATOM      6  C   UNL A   1      35.965  29.912  28.319  1.00  0.00     0.039 A 
ATOM      7  C   UNL A   1      36.970  30.123  27.375  1.00  0.00     0.014 A 
ATOM      8  C   UNL A   1      36.289  29.416  29.586  1.00  0.00     0.014 A 
ATOM      9  C   UNL A   1      38.258  29.677  27.626  1.00  0.00     0.010 A 
ATOM     10  C   UNL A   1      37.613  29.078  29.882  1.00  0.00     0.010 A 
ATOM     11  C   UNL A   1      38.604  29.183  28.894  1.00  0.00    -0.014 A 
BRANCH  11  12
ATOM     12  C   UNL A   1      40.030  28.891  29.178  1.00  0.00     0.031 A 
ATOM     13  C   UNL A   1      40.885  29.835  29.972  1.00  0.00     0.074 A 
ATOM     14  C   UNL A   1      40.536  27.725  28.727  1.00  0.00     0.049 A 
ATOM     15  N   UNL A   1      42.144  29.712  30.316  1.00  0.00    -0.248 NA
ATOM     16  C   UNL A   1      40.257  31.081  30.439  1.00  0.00     0.031 C 
ATOM     17  C   UNL A   1      39.797  26.742  27.928  1.00  0.00     0.029 A 
ATOM     18  N   UNL A   1      41.772  27.156  28.887  1.00  0.00    -0.354 N 
ATOM     19  C   UNL A   1      42.464  30.868  31.013  1.00  0.00     0.074 A 
ATOM     20  C   UNL A   1      41.273  31.692  31.035  1.00  0.00     0.031 C 
ATOM     21  C   UNL A   1      40.574  25.672  27.715  1.00  0.00     0.029 A 
ATOM     22  C   UNL A   1      41.887  25.923  28.293  1.00  0.00     0.049 A 
ATOM     23  H   UNL A   1      42.506  27.589  29.381  1.00  0.00     0.167 HD
ATOM     24  C   UNL A   1      43.646  31.203  31.582  1.00  0.00     0.037 A 
ATOM     25  C   UNL A   1      42.943  25.096  28.197  1.00  0.00     0.037 A 
ATOM     26  C   UNL A   1      44.817  30.360  31.578  1.00  0.00     0.049 A 
ATOM     27  C   UNL A   1      44.239  25.504  28.831  1.00  0.00     0.074 A 
ATOM     28  C   UNL A   1      46.044  30.588  32.177  1.00  0.00     0.029 A 
ATOM     29  N   UNL A   1      44.905  29.132  30.940  1.00  0.00    -0.354 N 
ATOM     30  N   UNL A   1      44.516  26.582  29.523  1.00  0.00    -0.248 NA
ATOM     31  C   UNL A   1      45.373  24.586  28.664  1.00  0.00     0.031 C 
ATOM     32  C   UNL A   1      46.889  29.519  31.861  1.00  0.00     0.029 A 
ATOM     33  C   UNL A   1      46.176  28.604  31.107  1.00  0.00     0.049 A 
ATOM     34  H   UNL A   1      44.173  28.699  30.443  1.00  0.00     0.167 HD
ATOM     35  C   UNL A   1      45.850  26.471  29.880  1.00  0.00     0.074 A 
ATOM     36  C   UNL A   1      46.319  25.204  29.356  1.00  0.00     0.031 C 
ATOM     37  C   UNL A   1      46.622  27.342  30.572  1.00  0.00     0.037 A 
BRANCH  24  38
ATOM     38  C   UNL A   1      43.757  32.541  32.253  1.00  0.00     0.064 A 
ATOM     39  C   UNL A   1      44.115  33.696  31.542  1.00  0.00     0.173 A 
ATOM     40  C   UNL A   1      43.411  32.684  33.606  1.00  0.00     0.173 A 
ATOM     41  F   UNL A   1      44.463  33.612  30.250  1.00  0.00    -0.203 F 
ATOM     42  C   UNL A   1      44.126  34.943  32.164  1.00  0.00     0.198 A 
ATOM     43  C   UNL A   1      43.403  33.934  34.217  1.00  0.00     0.198 A 
ATOM     44  F   UNL A   1      43.056  31.610  34.329  1.00  0.00    -0.203 F 
ATOM     45  F   UNL A   1      44.491  36.032  31.471  1.00  0.00    -0.200 F 
ATOM     46  C   UNL A   1      43.761  35.063  33.496  1.00  0.00     0.200 A 
ATOM     47  F   UNL A   1      43.036  34.049  35.501  1.00  0.00    -0.200 F 
ATOM     48  F   UNL A   1      43.754  36.265  34.086  1.00  0.00    -0.200 F 
ENDBRANCH  24  38
BRANCH  25  49
ATOM     49  C   UNL A   1      42.817  23.817  27.450  1.00  0.00     0.064 A 
ATOM     50  C   UNL A   1      42.335  22.659  28.071  1.00  0.00     0.173 A 
ATOM     51  C   UNL A   1      43.178  23.732  26.096  1.00  0.00     0.173 A 
ATOM     52  F   UNL A   1      41.994  22.686  29.368  1.00  0.00    -0.203 F 
ATOM     53  C   UNL A   1      42.238  21.458  27.373  1.00  0.00     0.198 A 
ATOM     54  C   UNL A   1      43.048  22.539  25.391  1.00  0.00     0.198 A 
ATOM     55  F   UNL A   1      43.639  24.815  25.453  1.00  0.00    -0.203 F 
ATOM     56  F   UNL A   1      41.820  20.351  28.003  1.00  0.00    -0.200 F 
ATOM     57  C   UNL A   1      42.589  21.399  26.032  1.00  0.00     0.200 A 
ATOM     58  F   UNL A   1      43.371  22.495  24.090  1.00  0.00    -0.200 F 
ATOM     59  F   UNL A   1      42.490  20.245  25.360  1.00  0.00    -0.200 F 
ENDBRANCH  25  49
BRANCH  37  60
ATOM     60  C   UNL A   1      48.047  26.943  30.809  1.00  0.00     0.064 A 
ATOM     61  C   UNL A   1      48.403  26.106  31.876  1.00  0.00     0.173 A 
ATOM     62  C   UNL A   1      49.064  27.391  29.953  1.00  0.00     0.173 A 
ATOM     63  F   UNL A   1      47.468  25.669  32.732  1.00  0.00    -0.203 F 
ATOM     64  C   UNL A   1      49.732  25.753  32.094  1.00  0.00     0.198 A 
ATOM     65  C   UNL A   1      50.388  27.012  30.157  1.00  0.00     0.198 A 
ATOM     66  F   UNL A   1      48.772  28.191  28.916  1.00  0.00    -0.203 F 
ATOM     67  F   UNL A   1      50.058  24.995  33.150  1.00  0.00    -0.200 F 
ATOM     68  C   UNL A   1      50.721  26.201  31.230  1.00  0.00     0.200 A 
ATOM     69  F   UNL A   1      51.341  27.437  29.316  1.00  0.00    -0.200 F 
ATOM     70  F   UNL A   1      51.999  25.858  31.441  1.00  0.00    -0.200 F 
ENDBRANCH  37  60
ENDBRANCH  11  12
ENDBRANCH   4   6
ENDBRANCH   1   2
BRANCH   1  71
ATOM     71  C   UNL A   1      33.869  33.938  28.636  1.00  0.00     0.042 C 
BRANCH  71  72
ATOM     72  C   UNL A   1      34.057  34.776  29.889  1.00  0.00     0.117 C 
BRANCH  72  73
ATOM     73  N   UNL A   1      33.651  34.066  31.087  1.00  0.00    -0.354 N 
ATOM     74  C   UNL A   1      34.330  33.818  32.239  1.00  0.00     0.251 C 
ATOM     75  H   UNL A   1      32.734  33.705  31.062  1.00  0.00     0.163 HD
ATOM     76  O   UNL A   1      33.774  33.079  33.056  1.00  0.00    -0.272 OA
BRANCH  74  77
ATOM     77  C   UNL A   1      35.707  34.488  32.524  1.00  0.00     0.143 C 
ATOM     78  C   UNL A   1      36.288  34.057  33.883  1.00  0.00     0.051 C 
ATOM     79  C   UNL A   1      36.711  34.124  31.402  1.00  0.00     0.051 C 
ATOM     80  C   UNL A   1      36.652  32.578  33.917  1.00  0.00     0.080 C 
ATOM     81  C   UNL A   1      37.167  32.660  31.439  1.00  0.00     0.080 C 
ATOM     82  C   UNL A   1      37.645  32.247  32.819  1.00  0.00     0.248 C 
ATOM     83  F   UNL A   1      37.914  30.921  32.837  1.00  0.00    -0.207 F 
ATOM     84  F   UNL A   1      38.816  32.885  33.087  1.00  0.00    -0.207 F 
BRANCH  77  85
ATOM     85  O   UNL A   1      35.528  35.909  32.545  1.00  0.00    -0.380 OA
ATOM     86  H   UNL A   1      34.687  36.123  32.978  1.00  0.00     0.212 HD
ENDBRANCH  77  85
ENDBRANCH  74  77
ENDBRANCH  72  73
ENDBRANCH  71  72
ENDBRANCH   1  71
TORSDOF 11
ENDMDL
MODEL 3
REMARK VINA RESULT:     -10.6      3.909      6.567
REMARK SMILES O=C(NCCCNC(=O)C1(O)CCC(F)(F)CC1)c1ccc(-c2c3nc(c(-c4c(F)c(F)c(F)c(F)c4F)c4ccc([nH]4)c(-c4c(F)c(F)c(F)c(F)c4F)c4nc(c(-c5c(F)c(F)c(F)c(F)c5F)c5ccc2[nH]5)C=C4)C=C3)cc1
REMARK SMILES IDX 4 1 3 2 1 3 2 4 19 6 20 7 81 8 21 9 80 10 22 11 23 12 24 13
REMARK SMILES IDX 74 14 25 15 79 16 73 17 75 18 26 19 78 20 72 21 71 22 27 24
REMARK SMILES IDX 59 25 39 26 58 27 40 28 43 29 57 30 76 31 41 32 42 33 56 35
REMARK SMILES IDX 77 36 44 37 28 38 29 39 37 40 30 41 31 42 35 43 38 44 32 45
REMARK SMILES IDX 33 46 36 47 34 48 60 49 61 50 69 51 62 52 63 53 67 54 70 55
REMARK SMILES IDX 64 56 65 57 68 58 66 59 45 60 46 61 54 62 47 63 48 64 52 65
REMARK SMILES IDX 55 66 49 67 50 68 53 69 51 70 5 71 6 72 7 73 8 74 9 76 10 77
REMARK SMILES IDX 12 78 18 79 13 80 17 81 14 82 15 83 16 84 11 85
REMARK H PARENT 3 5 75 23 43 34 7 75 11 86
REMARK Flexibility Score: inf
ROOT
ATOM      1  C   UNL A   1      32.657  32.908  27.020  1.00  0.00     0.118 C 
ENDROOT
BRANCH   1   2
ATOM      2  N   UNL A   1      32.474  34.220  27.626  1.00  0.00    -0.352 N 
ATOM      3  O   UNL A   1      32.682  35.843  29.178  1.00  0.00    -0.269 OA
ATOM      4  C   UNL A   1      33.103  34.791  28.706  1.00  0.00     0.251 C 
ATOM      5  H   UNL A   1      31.792  34.786  27.196  1.00  0.00     0.163 HD
BRANCH   4   6
ATOM      6  C   UNL A   1      34.274  34.127  29.315  1.00  0.00     0.039 A 
ATOM      7  C   UNL A   1      34.104  33.172  30.317  1.00  0.00     0.014 A 
ATOM      8  C   UNL A   1      35.559  34.448  28.864  1.00  0.00     0.014 A 
ATOM      9  C   UNL A   1      35.209  32.672  30.988  1.00  0.00     0.010 A 
ATOM     10  C   UNL A   1      36.673  33.850  29.462  1.00  0.00     0.010 A 
ATOM     11  C   UNL A   1      36.506  32.975  30.546  1.00  0.00    -0.014 A 
BRANCH  11  12
ATOM     12  C   UNL A   1      37.654  32.275  31.174  1.00  0.00     0.031 A 
ATOM     13  C   UNL A   1      38.102  32.592  32.571  1.00  0.00     0.074 A 
ATOM     14  C   UNL A   1      38.269  31.311  30.460  1.00  0.00     0.049 A 
ATOM     15  N   UNL A   1      39.078  32.056  33.261  1.00  0.00    -0.248 NA
ATOM     16  C   UNL A   1      37.372  33.649  33.288  1.00  0.00     0.031 C 
ATOM     17  C   UNL A   1      37.926  30.934  29.085  1.00  0.00     0.029 A 
ATOM     18  N   UNL A   1      39.292  30.459  30.788  1.00  0.00    -0.354 N 
ATOM     19  C   UNL A   1      39.096  32.723  34.478  1.00  0.00     0.074 A 
ATOM     20  C   UNL A   1      38.042  33.715  34.432  1.00  0.00     0.031 C 
ATOM     21  C   UNL A   1      38.684  29.897  28.708  1.00  0.00     0.029 A 
ATOM     22  C   UNL A   1      39.618  29.583  29.781  1.00  0.00     0.049 A 
ATOM     23  H   UNL A   1      39.748  30.474  31.661  1.00  0.00     0.167 HD
ATOM     24  C   UNL A   1      39.919  32.517  35.534  1.00  0.00     0.037 A 
ATOM     25  C   UNL A   1      40.582  28.649  29.716  1.00  0.00     0.037 A 
ATOM     26  C   UNL A   1      40.945  31.505  35.578  1.00  0.00     0.049 A 
ATOM     27  C   UNL A   1      41.481  28.456  30.901  1.00  0.00     0.074 A 
ATOM     28  C   UNL A   1      41.792  31.183  36.625  1.00  0.00     0.029 A 
ATOM     29  N   UNL A   1      41.266  30.657  34.529  1.00  0.00    -0.354 N 
ATOM     30  N   UNL A   1      41.460  29.066  32.061  1.00  0.00    -0.248 NA
ATOM     31  C   UNL A   1      42.544  27.452  30.767  1.00  0.00     0.031 C 
ATOM     32  C   UNL A   1      42.656  30.172  36.193  1.00  0.00     0.029 A 
ATOM     33  C   UNL A   1      42.318  29.832  34.894  1.00  0.00     0.049 A 
ATOM     34  H   UNL A   1      40.813  30.644  33.654  1.00  0.00     0.167 HD
ATOM     35  C   UNL A   1      42.497  28.517  32.797  1.00  0.00     0.074 A 
ATOM     36  C   UNL A   1      43.109  27.502  31.963  1.00  0.00     0.031 C 
ATOM     37  C   UNL A   1      42.915  28.831  34.046  1.00  0.00     0.037 A 
BRANCH  24  38
ATOM     38  C   UNL A   1      39.765  33.403  36.736  1.00  0.00     0.064 A 
ATOM     39  C   UNL A   1      40.452  34.620  36.848  1.00  0.00     0.173 A 
ATOM     40  C   UNL A   1      38.848  33.072  37.745  1.00  0.00     0.173 A 
ATOM     41  F   UNL A   1      41.346  34.980  35.914  1.00  0.00    -0.203 F 
ATOM     42  C   UNL A   1      40.229  35.471  37.929  1.00  0.00     0.198 A 
ATOM     43  C   UNL A   1      38.612  33.933  38.812  1.00  0.00     0.198 A 
ATOM     44  F   UNL A   1      38.161  31.920  37.682  1.00  0.00    -0.203 F 
ATOM     45  F   UNL A   1      40.912  36.621  38.027  1.00  0.00    -0.200 F 
ATOM     46  C   UNL A   1      39.303  35.132  38.904  1.00  0.00     0.200 A 
ATOM     47  F   UNL A   1      37.707  33.610  39.747  1.00  0.00    -0.200 F 
ATOM     48  F   UNL A   1      39.077  35.960  39.933  1.00  0.00    -0.200 F 
ENDBRANCH  24  38
BRANCH  25  49
ATOM     49  C   UNL A   1      40.757  27.850  28.475  1.00  0.00     0.064 A 
ATOM     50  C   UNL A   1      41.563  28.308  27.426  1.00  0.00     0.173 A 
ATOM     51  C   UNL A   1      40.121  26.609  28.318  1.00  0.00     0.173 A 
ATOM     52  F   UNL A   1      42.178  29.496  27.522  1.00  0.00    -0.203 F 
ATOM     53  C   UNL A   1      41.708  27.566  26.256  1.00  0.00     0.198 A 
ATOM     54  C   UNL A   1      40.294  25.853  27.162  1.00  0.00     0.198 A 
ATOM     55  F   UNL A   1      39.344  26.122  29.297  1.00  0.00    -0.203 F 
ATOM     56  F   UNL A   1      42.445  28.049  25.246  1.00  0.00    -0.200 F 
ATOM     57  C   UNL A   1      41.079  26.336  26.127  1.00  0.00     0.200 A 
ATOM     58  F   UNL A   1      39.699  24.657  27.052  1.00  0.00    -0.200 F 
ATOM     59  F   UNL A   1      41.223  25.621  25.004  1.00  0.00    -0.200 F 
ENDBRANCH  25  49
BRANCH  37  60
ATOM     60  C   UNL A   1      44.078  28.055  34.586  1.00  0.00     0.064 A 
ATOM     61  C   UNL A   1      43.896  26.835  35.253  1.00  0.00     0.173 A 
ATOM     62  C   UNL A   1      45.387  28.530  34.422  1.00  0.00     0.173 A 
ATOM     63  F   UNL A   1      42.661  26.351  35.450  1.00  0.00    -0.203 F 
ATOM     64  C   UNL A   1      44.984  26.130  35.761  1.00  0.00     0.198 A 
ATOM     65  C   UNL A   1      46.475  27.808  34.907  1.00  0.00     0.198 A 
ATOM     66  F   UNL A   1      45.612  29.691  33.789  1.00  0.00    -0.203 F 
ATOM     67  F   UNL A   1      44.785  24.993  36.441  1.00  0.00    -0.200 F 
ATOM     68  C   UNL A   1      46.272  26.614  35.582  1.00  0.00     0.200 A 
ATOM     69  F   UNL A   1      47.719  28.272  34.724  1.00  0.00    -0.200 F 
ATOM     70  F   UNL A   1      47.317  25.934  36.071  1.00  0.00    -0.200 F 
ENDBRANCH  37  60
ENDBRANCH  11  12
ENDBRANCH   4   6
ENDBRANCH   1   2
BRANCH   1  71
ATOM     71  C   UNL A   1      31.363  32.310  26.491  1.00  0.00     0.042 C 
BRANCH  71  72
ATOM     72  C   UNL A   1      31.339  30.791  26.501  1.00  0.00     0.117 C 
BRANCH  72  73
ATOM     73  N   UNL A   1      32.062  30.226  25.378  1.00  0.00    -0.354 N 
ATOM     74  C   UNL A   1      32.922  29.174  25.321  1.00  0.00     0.251 C 
ATOM     75  H   UNL A   1      31.904  30.677  24.517  1.00  0.00     0.163 HD
ATOM     76  O   UNL A   1      33.489  28.986  24.242  1.00  0.00    -0.272 OA
BRANCH  74  77
ATOM     77  C   UNL A   1      33.123  28.229  26.543  1.00  0.00     0.143 C 
ATOM     78  C   UNL A   1      31.782  27.741  27.121  1.00  0.00     0.051 C 
ATOM     79  C   UNL A   1      33.975  27.004  26.126  1.00  0.00     0.051 C 
ATOM     80  C   UNL A   1      31.027  26.837  26.154  1.00  0.00     0.080 C 
ATOM     81  C   UNL A   1      33.231  26.025  25.210  1.00  0.00     0.080 C 
ATOM     82  C   UNL A   1      31.874  25.639  25.770  1.00  0.00     0.248 C 
ATOM     83  F   UNL A   1      31.203  24.880  24.873  1.00  0.00    -0.207 F 
ATOM     84  F   UNL A   1      32.058  24.867  26.874  1.00  0.00    -0.207 F 
BRANCH  77  85
ATOM     85  O   UNL A   1      33.816  28.950  27.570  1.00  0.00    -0.380 OA
ATOM     86  H   UNL A   1      33.948  29.867  27.287  1.00  0.00     0.212 HD
ENDBRANCH  77  85
ENDBRANCH  74  77
ENDBRANCH  72  73
ENDBRANCH  71  72
ENDBRANCH   1  71
TORSDOF 11
ENDMDL
