MODEL 1
REMARK VINA RESULT:     -11.7      0.000      0.000
REMARK SMILES CN(c1ccc(C(=O)NCCCNC(=O)c2ccc(-c3c4nc(c(-c5c(F)c(F)c(F)c(F)c5F)c5ccc([nH]5)c(-c5c(F)c(F)c(F)c(F)c5F)c5nc(c(-c6c(F)c(F)c(F)c(F)c6F)c6ccc3[nH]6)C=C5)C=C4)cc2)cc1[N+](=O)[O-])C1CC1
REMARK SMILES IDX 11 1 10 2 9 3 7 4 8 5 6 7 3 8 4 9 80 10 5 11 79 12 2 13 1 14
REMARK SMILES IDX 84 15 85 16 86 17 81 18 82 19 83 20 12 21 13 22 14 23 15 25
REMARK SMILES IDX 16 26 17 27 78 28 18 29 77 30 19 31 20 32 21 33 71 34 22 35
REMARK SMILES IDX 76 36 70 37 72 38 23 39 75 40 69 41 68 42 24 44 56 45 36 46
REMARK SMILES IDX 55 47 37 48 40 49 54 50 73 51 38 52 39 53 53 55 74 56 41 57
REMARK SMILES IDX 25 58 26 59 34 60 27 61 28 62 32 63 35 64 29 65 30 66 33 67
REMARK SMILES IDX 31 68 57 69 58 70 66 71 59 72 60 73 64 74 67 75 61 76 62 77
REMARK SMILES IDX 65 78 63 79 42 80 43 81 51 82 44 83 45 84 49 85 52 86 46 87
REMARK SMILES IDX 47 88 50 89 48 90
REMARK H PARENT 9 6 13 24 72 43 40 54
REMARK Flexibility Score: inf
ROOT
ATOM      1  C   UNL A   1      38.346  19.558  24.992  1.00  0.00     0.042 C 
ENDROOT
BRANCH   1   2
ATOM      2  C   UNL A   1      37.479  20.771  24.657  1.00  0.00     0.118 C 
BRANCH   2   3
ATOM      3  N   UNL A   1      38.011  21.978  25.266  1.00  0.00    -0.352 N 
ATOM      4  C   UNL A   1      37.430  23.181  25.567  1.00  0.00     0.251 C 
ATOM      5  O   UNL A   1      38.102  24.020  26.164  1.00  0.00    -0.269 OA
ATOM      6  H   UNL A   1      38.964  21.921  25.506  1.00  0.00     0.163 HD
BRANCH   4   7
ATOM      7  C   UNL A   1      36.017  23.495  25.237  1.00  0.00     0.046 A 
ATOM      8  C   UNL A   1      33.272  24.144  24.787  1.00  0.00     0.116 A 
ATOM      9  C   UNL A   1      33.754  23.824  26.067  1.00  0.00     0.034 A 
ATOM     10  C   UNL A   1      34.213  24.116  23.746  1.00  0.00     0.293 A 
ATOM     11  C   UNL A   1      35.099  23.508  26.293  1.00  0.00     0.016 A 
ATOM     12  C   UNL A   1      35.573  23.828  23.961  1.00  0.00     0.101 A 
BRANCH   8  13
ATOM     13  N   UNL A   1      31.916  24.475  24.664  1.00  0.00    -0.366 N 
ATOM     14  C   UNL A   1      31.002  23.476  24.117  1.00  0.00     0.144 C 
BRANCH  13  15
ATOM     15  C   UNL A   1      31.456  25.882  24.644  1.00  0.00     0.082 C 
ATOM     16  C   UNL A   1      30.037  26.326  24.870  1.00  0.00     0.027 C 
ATOM     17  C   UNL A   1      31.086  26.624  25.900  1.00  0.00     0.027 C 
ENDBRANCH  13  15
ENDBRANCH   8  13
BRANCH  10  18
ATOM     18  N   UNL A   1      33.830  24.379  22.374  1.00  0.00     0.065 N 
ATOM     19  O   UNL A   1      33.811  25.570  22.029  1.00  0.00    -0.258 OA
ATOM     20  O   UNL A   1      33.497  23.422  21.664  1.00  0.00    -0.258 OA
ENDBRANCH  10  18
ENDBRANCH   4   7
ENDBRANCH   2   3
ENDBRANCH   1   2
BRANCH   1  21
ATOM     21  C   UNL A   1      39.334  19.813  26.126  1.00  0.00     0.118 C 
BRANCH  21  22
ATOM     22  N   UNL A   1      40.488  18.931  26.053  1.00  0.00    -0.352 N 
ATOM     23  C   UNL A   1      41.827  19.233  26.033  1.00  0.00     0.251 C 
ATOM     24  H   UNL A   1      40.277  17.971  26.010  1.00  0.00     0.163 HD
ATOM     25  O   UNL A   1      42.641  18.362  25.751  1.00  0.00    -0.269 OA
BRANCH  23  26
ATOM     26  C   UNL A   1      42.296  20.602  26.343  1.00  0.00     0.039 A 
ATOM     27  C   UNL A   1      42.572  21.472  25.283  1.00  0.00     0.014 A 
ATOM     28  C   UNL A   1      42.520  21.013  27.660  1.00  0.00     0.014 A 
ATOM     29  C   UNL A   1      43.029  22.764  25.544  1.00  0.00     0.010 A 
ATOM     30  C   UNL A   1      42.912  22.324  27.923  1.00  0.00     0.010 A 
ATOM     31  C   UNL A   1      43.181  23.209  26.866  1.00  0.00    -0.014 A 
BRANCH  31  32
ATOM     32  C   UNL A   1      43.627  24.591  27.166  1.00  0.00     0.031 A 
ATOM     33  C   UNL A   1      42.648  25.609  27.676  1.00  0.00     0.074 A 
ATOM     34  C   UNL A   1      44.898  24.948  26.904  1.00  0.00     0.049 A 
ATOM     35  N   UNL A   1      42.827  26.883  27.921  1.00  0.00    -0.248 NA
ATOM     36  C   UNL A   1      41.274  25.141  27.911  1.00  0.00     0.031 C 
ATOM     37  C   UNL A   1      45.924  24.065  26.350  1.00  0.00     0.029 A 
ATOM     38  N   UNL A   1      45.536  26.155  27.047  1.00  0.00    -0.354 N 
ATOM     39  C   UNL A   1      41.588  27.371  28.312  1.00  0.00     0.074 A 
ATOM     40  C   UNL A   1      40.655  26.267  28.231  1.00  0.00     0.031 C 
ATOM     41  C   UNL A   1      47.066  24.757  26.205  1.00  0.00     0.029 A 
ATOM     42  C   UNL A   1      46.843  26.138  26.627  1.00  0.00     0.049 A 
ATOM     43  H   UNL A   1      45.098  26.956  27.415  1.00  0.00     0.167 HD
ATOM     44  C   UNL A   1      41.263  28.623  28.717  1.00  0.00     0.037 A 
ATOM     45  C   UNL A   1      47.755  27.125  26.577  1.00  0.00     0.037 A 
ATOM     46  C   UNL A   1      42.204  29.707  28.829  1.00  0.00     0.049 A 
ATOM     47  C   UNL A   1      47.383  28.496  27.066  1.00  0.00     0.074 A 
ATOM     48  C   UNL A   1      41.996  30.982  29.322  1.00  0.00     0.029 A 
ATOM     49  N   UNL A   1      43.533  29.640  28.436  1.00  0.00    -0.354 N 
ATOM     50  N   UNL A   1      46.230  28.927  27.517  1.00  0.00    -0.248 NA
ATOM     51  C   UNL A   1      48.441  29.517  27.049  1.00  0.00     0.031 C 
ATOM     52  C   UNL A   1      43.188  31.702  29.184  1.00  0.00     0.029 A 
ATOM     53  C   UNL A   1      44.151  30.862  28.649  1.00  0.00     0.049 A 
ATOM     54  H   UNL A   1      43.972  28.843  28.060  1.00  0.00     0.167 HD
ATOM     55  C   UNL A   1      46.424  30.259  27.854  1.00  0.00     0.074 A 
ATOM     56  C   UNL A   1      47.812  30.563  27.569  1.00  0.00     0.031 C 
ATOM     57  C   UNL A   1      45.532  31.150  28.353  1.00  0.00     0.037 A 
BRANCH  44  58
ATOM     58  C   UNL A   1      39.825  28.887  29.060  1.00  0.00     0.064 A 
ATOM     59  C   UNL A   1      39.333  28.720  30.364  1.00  0.00     0.173 A 
ATOM     60  C   UNL A   1      38.930  29.327  28.074  1.00  0.00     0.173 A 
ATOM     61  F   UNL A   1      40.145  28.291  31.342  1.00  0.00    -0.203 F 
ATOM     62  C   UNL A   1      37.991  28.947  30.658  1.00  0.00     0.198 A 
ATOM     63  C   UNL A   1      37.595  29.583  28.379  1.00  0.00     0.198 A 
ATOM     64  F   UNL A   1      39.348  29.510  26.813  1.00  0.00    -0.203 F 
ATOM     65  F   UNL A   1      37.532  28.726  31.898  1.00  0.00    -0.200 F 
ATOM     66  C   UNL A   1      37.124  29.383  29.667  1.00  0.00     0.200 A 
ATOM     67  F   UNL A   1      36.761  30.016  27.422  1.00  0.00    -0.200 F 
ATOM     68  F   UNL A   1      35.833  29.601  29.952  1.00  0.00    -0.200 F 
ENDBRANCH  44  58
BRANCH  45  69
ATOM     69  C   UNL A   1      49.117  26.833  26.063  1.00  0.00     0.064 A 
ATOM     70  C   UNL A   1      50.106  26.308  26.905  1.00  0.00     0.173 A 
ATOM     71  C   UNL A   1      49.443  27.033  24.714  1.00  0.00     0.173 A 
ATOM     72  F   UNL A   1      49.845  26.117  28.206  1.00  0.00    -0.203 F 
ATOM     73  C   UNL A   1      51.375  26.001  26.418  1.00  0.00     0.198 A 
ATOM     74  C   UNL A   1      50.704  26.703  24.223  1.00  0.00     0.198 A 
ATOM     75  F   UNL A   1      48.527  27.525  23.868  1.00  0.00    -0.203 F 
ATOM     76  F   UNL A   1      52.313  25.525  27.249  1.00  0.00    -0.200 F 
ATOM     77  C   UNL A   1      51.671  26.191  25.076  1.00  0.00     0.200 A 
ATOM     78  F   UNL A   1      50.980  26.873  22.923  1.00  0.00    -0.200 F 
ATOM     79  F   UNL A   1      52.886  25.881  24.605  1.00  0.00    -0.200 F 
ENDBRANCH  45  69
BRANCH  57  80
ATOM     80  C   UNL A   1      46.033  32.535  28.637  1.00  0.00     0.064 A 
ATOM     81  C   UNL A   1      46.616  32.867  29.868  1.00  0.00     0.173 A 
ATOM     82  C   UNL A   1      45.968  33.530  27.650  1.00  0.00     0.173 A 
ATOM     83  F   UNL A   1      46.686  31.953  30.849  1.00  0.00    -0.203 F 
ATOM     84  C   UNL A   1      47.098  34.150  30.109  1.00  0.00     0.198 A 
ATOM     85  C   UNL A   1      46.476  34.806  27.885  1.00  0.00     0.198 A 
ATOM     86  F   UNL A   1      45.424  33.262  26.453  1.00  0.00    -0.203 F 
ATOM     87  F   UNL A   1      47.613  34.457  31.308  1.00  0.00    -0.200 F 
ATOM     88  C   UNL A   1      47.034  35.116  29.115  1.00  0.00     0.200 A 
ATOM     89  F   UNL A   1      46.423  35.733  26.920  1.00  0.00    -0.200 F 
ATOM     90  F   UNL A   1      47.505  36.350  29.346  1.00  0.00    -0.200 F 
ENDBRANCH  57  80
ENDBRANCH  31  32
ENDBRANCH  23  26
ENDBRANCH  21  22
ENDBRANCH   1  21
TORSDOF 13
ENDMDL
MODEL 2
REMARK VINA RESULT:     -11.7      5.863     11.245
REMARK SMILES CN(c1ccc(C(=O)NCCCNC(=O)c2ccc(-c3c4nc(c(-c5c(F)c(F)c(F)c(F)c5F)c5ccc([nH]5)c(-c5c(F)c(F)c(F)c(F)c5F)c5nc(c(-c6c(F)c(F)c(F)c(F)c6F)c6ccc3[nH]6)C=C5)C=C4)cc2)cc1[N+](=O)[O-])C1CC1
REMARK SMILES IDX 11 1 10 2 9 3 7 4 8 5 6 7 3 8 4 9 80 10 5 11 79 12 2 13 1 14
REMARK SMILES IDX 84 15 85 16 86 17 81 18 82 19 83 20 12 21 13 22 14 23 15 25
REMARK SMILES IDX 16 26 17 27 78 28 18 29 77 30 19 31 20 32 21 33 71 34 22 35
REMARK SMILES IDX 76 36 70 37 72 38 23 39 75 40 69 41 68 42 24 44 56 45 36 46
REMARK SMILES IDX 55 47 37 48 40 49 54 50 73 51 38 52 39 53 53 55 74 56 41 57
REMARK SMILES IDX 25 58 26 59 34 60 27 61 28 62 32 63 35 64 29 65 30 66 33 67
REMARK SMILES IDX 31 68 57 69 58 70 66 71 59 72 60 73 64 74 67 75 61 76 62 77
REMARK SMILES IDX 65 78 63 79 42 80 43 81 51 82 44 83 45 84 49 85 52 86 46 87
REMARK SMILES IDX 47 88 50 89 48 90
REMARK H PARENT 9 6 13 24 72 43 40 54
REMARK Flexibility Score: inf
ROOT
ATOM      1  C   UNL A   1      31.429  32.241  26.801  1.00  0.00     0.042 C 
ENDROOT
BRANCH   1   2
ATOM      2  C   UNL A   1      31.639  30.733  26.669  1.00  0.00     0.118 C 
BRANCH   2   3
ATOM      3  N   UNL A   1      32.927  30.335  27.209  1.00  0.00    -0.352 N 
ATOM      4  C   UNL A   1      33.654  29.182  27.081  1.00  0.00     0.251 C 
ATOM      5  O   UNL A   1      34.773  29.138  27.590  1.00  0.00    -0.269 OA
ATOM      6  H   UNL A   1      33.356  31.020  27.771  1.00  0.00     0.163 HD
BRANCH   4   7
ATOM      7  C   UNL A   1      33.163  28.003  26.323  1.00  0.00     0.046 A 
ATOM      8  C   UNL A   1      32.372  25.753  24.752  1.00  0.00     0.116 A 
ATOM      9  C   UNL A   1      33.260  26.722  24.257  1.00  0.00     0.034 A 
ATOM     10  C   UNL A   1      31.891  25.960  26.054  1.00  0.00     0.293 A 
ATOM     11  C   UNL A   1      33.653  27.825  25.025  1.00  0.00     0.016 A 
ATOM     12  C   UNL A   1      32.298  27.048  26.848  1.00  0.00     0.101 A 
BRANCH   8  13
ATOM     13  N   UNL A   1      32.060  24.670  23.920  1.00  0.00    -0.366 N 
ATOM     14  C   UNL A   1      30.783  24.681  23.210  1.00  0.00     0.144 C 
BRANCH  13  15
ATOM     15  C   UNL A   1      32.731  23.358  24.065  1.00  0.00     0.082 C 
ATOM     16  C   UNL A   1      32.829  22.318  22.982  1.00  0.00     0.027 C 
ATOM     17  C   UNL A   1      34.059  23.059  23.420  1.00  0.00     0.027 C 
ENDBRANCH  13  15
ENDBRANCH   8  13
BRANCH  10  18
ATOM     18  N   UNL A   1      30.932  25.058  26.657  1.00  0.00     0.065 N 
ATOM     19  O   UNL A   1      31.403  24.075  27.251  1.00  0.00    -0.258 OA
ATOM     20  O   UNL A   1      29.728  25.289  26.497  1.00  0.00    -0.258 OA
ENDBRANCH  10  18
ENDBRANCH   4   7
ENDBRANCH   2   3
ENDBRANCH   1   2
BRANCH   1  21
ATOM     21  C   UNL A   1      32.722  33.014  27.037  1.00  0.00     0.118 C 
BRANCH  21  22
ATOM     22  N   UNL A   1      32.476  34.322  27.626  1.00  0.00    -0.352 N 
ATOM     23  C   UNL A   1      33.023  34.901  28.743  1.00  0.00     0.251 C 
ATOM     24  H   UNL A   1      31.815  34.875  27.151  1.00  0.00     0.163 HD
ATOM     25  O   UNL A   1      32.528  35.925  29.200  1.00  0.00    -0.269 OA
BRANCH  23  26
ATOM     26  C   UNL A   1      34.201  34.298  29.406  1.00  0.00     0.039 A 
ATOM     27  C   UNL A   1      33.999  33.502  30.538  1.00  0.00     0.014 A 
ATOM     28  C   UNL A   1      35.500  34.556  28.957  1.00  0.00     0.014 A 
ATOM     29  C   UNL A   1      35.091  32.931  31.192  1.00  0.00     0.010 A 
ATOM     30  C   UNL A   1      36.584  33.932  29.569  1.00  0.00     0.010 A 
ATOM     31  C   UNL A   1      36.391  33.122  30.699  1.00  0.00    -0.014 A 
BRANCH  31  32
ATOM     32  C   UNL A   1      37.562  32.492  31.356  1.00  0.00     0.031 A 
ATOM     33  C   UNL A   1      38.269  31.340  30.700  1.00  0.00     0.074 A 
ATOM     34  C   UNL A   1      37.939  32.908  32.579  1.00  0.00     0.049 A 
ATOM     35  N   UNL A   1      39.259  30.609  31.150  1.00  0.00    -0.248 NA
ATOM     36  C   UNL A   1      37.776  30.934  29.375  1.00  0.00     0.031 C 
ATOM     37  C   UNL A   1      37.293  33.975  33.342  1.00  0.00     0.029 A 
ATOM     38  N   UNL A   1      38.944  32.467  33.404  1.00  0.00    -0.354 N 
ATOM     39  C   UNL A   1      39.487  29.645  30.178  1.00  0.00     0.074 A 
ATOM     40  C   UNL A   1      38.507  29.855  29.134  1.00  0.00     0.031 C 
ATOM     41  C   UNL A   1      37.920  34.111  34.522  1.00  0.00     0.029 A 
ATOM     42  C   UNL A   1      38.990  33.122  34.610  1.00  0.00     0.049 A 
ATOM     43  H   UNL A   1      39.570  31.749  33.155  1.00  0.00     0.167 HD
ATOM     44  C   UNL A   1      40.440  28.681  30.153  1.00  0.00     0.037 A 
ATOM     45  C   UNL A   1      39.798  32.938  35.670  1.00  0.00     0.037 A 
ATOM     46  C   UNL A   1      41.435  28.501  31.178  1.00  0.00     0.049 A 
ATOM     47  C   UNL A   1      40.871  31.888  35.605  1.00  0.00     0.074 A 
ATOM     48  C   UNL A   1      42.502  27.620  31.200  1.00  0.00     0.029 A 
ATOM     49  N   UNL A   1      41.479  29.214  32.368  1.00  0.00    -0.354 N 
ATOM     50  N   UNL A   1      41.136  31.038  34.643  1.00  0.00    -0.248 NA
ATOM     51  C   UNL A   1      41.764  31.780  36.767  1.00  0.00     0.031 C 
ATOM     52  C   UNL A   1      43.165  27.768  32.423  1.00  0.00     0.029 A 
ATOM     53  C   UNL A   1      42.539  28.773  33.144  1.00  0.00     0.049 A 
ATOM     54  H   UNL A   1      40.850  29.926  32.623  1.00  0.00     0.167 HD
ATOM     55  C   UNL A   1      42.233  30.305  35.073  1.00  0.00     0.074 A 
ATOM     56  C   UNL A   1      42.595  30.822  36.378  1.00  0.00     0.031 C 
ATOM     57  C   UNL A   1      42.882  29.294  34.444  1.00  0.00     0.037 A 
BRANCH  44  58
ATOM     58  C   UNL A   1      40.444  27.743  28.980  1.00  0.00     0.064 A 
ATOM     59  C   UNL A   1      41.227  27.986  27.841  1.00  0.00     0.173 A 
ATOM     60  C   UNL A   1      39.665  26.576  29.003  1.00  0.00     0.173 A 
ATOM     61  F   UNL A   1      41.982  29.092  27.764  1.00  0.00    -0.203 F 
ATOM     62  C   UNL A   1      41.199  27.116  26.753  1.00  0.00     0.198 A 
ATOM     63  C   UNL A   1      39.663  25.693  27.925  1.00  0.00     0.198 A 
ATOM     64  F   UNL A   1      38.903  26.292  30.070  1.00  0.00    -0.203 F 
ATOM     65  F   UNL A   1      41.911  27.399  25.654  1.00  0.00    -0.200 F 
ATOM     66  C   UNL A   1      40.422  25.968  26.799  1.00  0.00     0.200 A 
ATOM     67  F   UNL A   1      38.920  24.579  27.976  1.00  0.00    -0.200 F 
ATOM     68  F   UNL A   1      40.397  25.133  25.751  1.00  0.00    -0.200 F 
ENDBRANCH  44  58
BRANCH  45  69
ATOM     69  C   UNL A   1      39.626  33.793  36.872  1.00  0.00     0.064 A 
ATOM     70  C   UNL A   1      40.242  35.049  36.954  1.00  0.00     0.173 A 
ATOM     71  C   UNL A   1      38.814  33.390  37.941  1.00  0.00     0.173 A 
ATOM     72  F   UNL A   1      41.042  35.469  35.963  1.00  0.00    -0.203 F 
ATOM     73  C   UNL A   1      40.056  35.868  38.066  1.00  0.00     0.198 A 
ATOM     74  C   UNL A   1      38.609  34.220  39.040  1.00  0.00     0.198 A 
ATOM     75  F   UNL A   1      38.198  32.200  37.904  1.00  0.00    -0.203 F 
ATOM     76  F   UNL A   1      40.676  37.054  38.133  1.00  0.00    -0.200 F 
ATOM     77  C   UNL A   1      39.233  35.457  39.104  1.00  0.00     0.200 A 
ATOM     78  F   UNL A   1      37.802  33.825  40.034  1.00  0.00    -0.200 F 
ATOM     79  F   UNL A   1      39.043  36.251  40.166  1.00  0.00    -0.200 F 
ENDBRANCH  45  69
BRANCH  57  80
ATOM     80  C   UNL A   1      44.058  28.689  35.150  1.00  0.00     0.064 A 
ATOM     81  C   UNL A   1      45.348  29.222  35.017  1.00  0.00     0.173 A 
ATOM     82  C   UNL A   1      43.885  27.590  36.006  1.00  0.00     0.173 A 
ATOM     83  F   UNL A   1      45.566  30.262  34.198  1.00  0.00    -0.203 F 
ATOM     84  C   UNL A   1      46.426  28.664  35.698  1.00  0.00     0.198 A 
ATOM     85  C   UNL A   1      44.961  27.052  36.706  1.00  0.00     0.198 A 
ATOM     86  F   UNL A   1      42.670  27.046  36.172  1.00  0.00    -0.203 F 
ATOM     87  F   UNL A   1      47.658  29.163  35.523  1.00  0.00    -0.200 F 
ATOM     88  C   UNL A   1      46.231  27.585  36.547  1.00  0.00     0.200 A 
ATOM     89  F   UNL A   1      44.768  26.016  37.535  1.00  0.00    -0.200 F 
ATOM     90  F   UNL A   1      47.269  27.053  37.208  1.00  0.00    -0.200 F 
ENDBRANCH  57  80
ENDBRANCH  31  32
ENDBRANCH  23  26
ENDBRANCH  21  22
ENDBRANCH   1  21
TORSDOF 13
ENDMDL
MODEL 3
REMARK VINA RESULT:     -11.7      5.846     11.164
REMARK SMILES CN(c1ccc(C(=O)NCCCNC(=O)c2ccc(-c3c4nc(c(-c5c(F)c(F)c(F)c(F)c5F)c5ccc([nH]5)c(-c5c(F)c(F)c(F)c(F)c5F)c5nc(c(-c6c(F)c(F)c(F)c(F)c6F)c6ccc3[nH]6)C=C5)C=C4)cc2)cc1[N+](=O)[O-])C1CC1
REMARK SMILES IDX 11 1 10 2 9 3 7 4 8 5 6 7 3 8 4 9 80 10 5 11 79 12 2 13 1 14
REMARK SMILES IDX 84 15 85 16 86 17 81 18 82 19 83 20 12 21 13 22 14 23 15 25
REMARK SMILES IDX 16 26 17 27 78 28 18 29 77 30 19 31 20 32 21 33 71 34 22 35
REMARK SMILES IDX 76 36 70 37 72 38 23 39 75 40 69 41 68 42 24 44 56 45 36 46
REMARK SMILES IDX 55 47 37 48 40 49 54 50 73 51 38 52 39 53 53 55 74 56 41 57
REMARK SMILES IDX 25 58 26 59 34 60 27 61 28 62 32 63 35 64 29 65 30 66 33 67
REMARK SMILES IDX 31 68 57 69 58 70 66 71 59 72 60 73 64 74 67 75 61 76 62 77
REMARK SMILES IDX 65 78 63 79 42 80 43 81 51 82 44 83 45 84 49 85 52 86 46 87
REMARK SMILES IDX 47 88 50 89 48 90
REMARK H PARENT 9 6 13 24 72 43 40 54
REMARK Flexibility Score: inf
ROOT
ATOM      1  C   UNL A   1      31.445  32.262  26.762  1.00  0.00     0.042 C 
ENDROOT
BRANCH   1   2
ATOM      2  C   UNL A   1      31.650  30.751  26.665  1.00  0.00     0.118 C 
BRANCH   2   3
ATOM      3  N   UNL A   1      32.920  30.357  27.246  1.00  0.00    -0.352 N 
ATOM      4  C   UNL A   1      33.661  29.210  27.131  1.00  0.00     0.251 C 
ATOM      5  O   UNL A   1      34.761  29.170  27.678  1.00  0.00    -0.269 OA
ATOM      6  H   UNL A   1      33.324  31.038  27.830  1.00  0.00     0.163 HD
BRANCH   4   7
ATOM      7  C   UNL A   1      33.207  28.037  26.342  1.00  0.00     0.046 A 
ATOM      8  C   UNL A   1      32.491  25.798  24.720  1.00  0.00     0.116 A 
ATOM      9  C   UNL A   1      33.397  26.773  24.273  1.00  0.00     0.034 A 
ATOM     10  C   UNL A   1      31.953  25.994  26.001  1.00  0.00     0.293 A 
ATOM     11  C   UNL A   1      33.753  27.871  25.066  1.00  0.00     0.016 A 
ATOM     12  C   UNL A   1      32.322  27.076  26.822  1.00  0.00     0.101 A 
BRANCH   8  13
ATOM     13  N   UNL A   1      32.217  24.721  23.867  1.00  0.00    -0.366 N 
ATOM     14  C   UNL A   1      30.949  24.709  23.143  1.00  0.00     0.144 C 
BRANCH  13  15
ATOM     15  C   UNL A   1      32.923  23.425  23.998  1.00  0.00     0.082 C 
ATOM     16  C   UNL A   1      32.804  22.280  23.031  1.00  0.00     0.027 C 
ATOM     17  C   UNL A   1      34.087  23.052  23.119  1.00  0.00     0.027 C 
ENDBRANCH  13  15
ENDBRANCH   8  13
BRANCH  10  18
ATOM     18  N   UNL A   1      30.970  25.085  26.556  1.00  0.00     0.065 N 
ATOM     19  O   UNL A   1      29.780  25.387  26.375  1.00  0.00    -0.258 OA
ATOM     20  O   UNL A   1      31.372  24.115  27.210  1.00  0.00    -0.258 OA
ENDBRANCH  10  18
ENDBRANCH   4   7
ENDBRANCH   2   3
ENDBRANCH   1   2
BRANCH   1  21
ATOM     21  C   UNL A   1      32.734  33.032  27.030  1.00  0.00     0.118 C 
BRANCH  21  22
ATOM     22  N   UNL A   1      32.478  34.334  27.626  1.00  0.00    -0.352 N 
ATOM     23  C   UNL A   1      33.023  34.912  28.745  1.00  0.00     0.251 C 
ATOM     24  H   UNL A   1      31.811  34.884  27.156  1.00  0.00     0.163 HD
ATOM     25  O   UNL A   1      32.520  35.930  29.208  1.00  0.00    -0.269 OA
BRANCH  23  26
ATOM     26  C   UNL A   1      34.208  34.316  29.401  1.00  0.00     0.039 A 
ATOM     27  C   UNL A   1      34.014  33.501  30.521  1.00  0.00     0.014 A 
ATOM     28  C   UNL A   1      35.504  34.599  28.959  1.00  0.00     0.014 A 
ATOM     29  C   UNL A   1      35.113  32.936  31.169  1.00  0.00     0.010 A 
ATOM     30  C   UNL A   1      36.596  33.981  29.564  1.00  0.00     0.010 A 
ATOM     31  C   UNL A   1      36.412  33.153  30.682  1.00  0.00    -0.014 A 
BRANCH  31  32
ATOM     32  C   UNL A   1      37.590  32.529  31.332  1.00  0.00     0.031 A 
ATOM     33  C   UNL A   1      38.303  31.385  30.670  1.00  0.00     0.074 A 
ATOM     34  C   UNL A   1      37.969  32.944  32.555  1.00  0.00     0.049 A 
ATOM     35  N   UNL A   1      39.300  30.660  31.113  1.00  0.00    -0.248 NA
ATOM     36  C   UNL A   1      37.808  30.978  29.346  1.00  0.00     0.031 C 
ATOM     37  C   UNL A   1      37.318  34.004  33.324  1.00  0.00     0.029 A 
ATOM     38  N   UNL A   1      38.980  32.508  33.374  1.00  0.00    -0.354 N 
ATOM     39  C   UNL A   1      39.532  29.700  30.138  1.00  0.00     0.074 A 
ATOM     40  C   UNL A   1      38.546  29.906  29.099  1.00  0.00     0.031 C 
ATOM     41  C   UNL A   1      37.948  34.141  34.502  1.00  0.00     0.029 A 
ATOM     42  C   UNL A   1      39.027  33.160  34.582  1.00  0.00     0.049 A 
ATOM     43  H   UNL A   1      39.610  31.796  33.121  1.00  0.00     0.167 HD
ATOM     44  C   UNL A   1      40.491  28.744  30.106  1.00  0.00     0.037 A 
ATOM     45  C   UNL A   1      39.840  32.979  35.639  1.00  0.00     0.037 A 
ATOM     46  C   UNL A   1      41.492  28.568  31.127  1.00  0.00     0.049 A 
ATOM     47  C   UNL A   1      40.920  31.938  35.565  1.00  0.00     0.074 A 
ATOM     48  C   UNL A   1      42.565  27.695  31.141  1.00  0.00     0.029 A 
ATOM     49  N   UNL A   1      41.535  29.277  32.318  1.00  0.00    -0.354 N 
ATOM     50  N   UNL A   1      41.188  31.092  34.601  1.00  0.00    -0.248 NA
ATOM     51  C   UNL A   1      41.819  31.832  36.724  1.00  0.00     0.031 C 
ATOM     52  C   UNL A   1      43.232  27.844  32.362  1.00  0.00     0.029 A 
ATOM     53  C   UNL A   1      42.602  28.843  33.089  1.00  0.00     0.049 A 
ATOM     54  H   UNL A   1      40.902  29.985  32.578  1.00  0.00     0.167 HD
ATOM     55  C   UNL A   1      42.293  30.366  35.024  1.00  0.00     0.074 A 
ATOM     56  C   UNL A   1      42.656  30.882  36.328  1.00  0.00     0.031 C 
ATOM     57  C   UNL A   1      42.946  29.362  34.388  1.00  0.00     0.037 A 
BRANCH  44  58
ATOM     58  C   UNL A   1      40.497  27.809  28.931  1.00  0.00     0.064 A 
ATOM     59  C   UNL A   1      39.725  26.637  28.914  1.00  0.00     0.173 A 
ATOM     60  C   UNL A   1      41.275  28.097  27.799  1.00  0.00     0.173 A 
ATOM     61  F   UNL A   1      38.971  26.309  29.974  1.00  0.00    -0.203 F 
ATOM     62  C   UNL A   1      39.762  25.769  27.824  1.00  0.00     0.198 A 
ATOM     63  C   UNL A   1      41.286  27.242  26.699  1.00  0.00     0.198 A 
ATOM     64  F   UNL A   1      42.027  29.207  27.760  1.00  0.00    -0.203 F 
ATOM     65  F   UNL A   1      39.061  24.628  27.855  1.00  0.00    -0.200 F 
ATOM     66  C   UNL A   1      40.538  26.076  26.716  1.00  0.00     0.200 A 
ATOM     67  F   UNL A   1      42.028  27.546  25.624  1.00  0.00    -0.200 F 
ATOM     68  F   UNL A   1      40.572  25.240  25.669  1.00  0.00    -0.200 F 
ENDBRANCH  44  58
BRANCH  45  69
ATOM     69  C   UNL A   1      39.667  33.829  36.843  1.00  0.00     0.064 A 
ATOM     70  C   UNL A   1      40.266  35.094  36.923  1.00  0.00     0.173 A 
ATOM     71  C   UNL A   1      38.869  33.413  37.918  1.00  0.00     0.173 A 
ATOM     72  F   UNL A   1      41.052  35.526  35.927  1.00  0.00    -0.203 F 
ATOM     73  C   UNL A   1      40.078  35.908  38.038  1.00  0.00     0.198 A 
ATOM     74  C   UNL A   1      38.663  34.238  39.021  1.00  0.00     0.198 A 
ATOM     75  F   UNL A   1      38.269  32.215  37.884  1.00  0.00    -0.203 F 
ATOM     76  F   UNL A   1      40.683  37.102  38.103  1.00  0.00    -0.200 F 
ATOM     77  C   UNL A   1      39.270  35.483  39.083  1.00  0.00     0.200 A 
ATOM     78  F   UNL A   1      37.869  33.830  40.021  1.00  0.00    -0.200 F 
ATOM     79  F   UNL A   1      39.078  36.272  40.147  1.00  0.00    -0.200 F 
ENDBRANCH  45  69
BRANCH  57  80
ATOM     80  C   UNL A   1      44.129  28.764  35.089  1.00  0.00     0.064 A 
ATOM     81  C   UNL A   1      43.998  27.652  35.933  1.00  0.00     0.173 A 
ATOM     82  C   UNL A   1      45.416  29.282  34.879  1.00  0.00     0.173 A 
ATOM     83  F   UNL A   1      42.785  27.131  36.177  1.00  0.00    -0.203 F 
ATOM     84  C   UNL A   1      45.109  27.093  36.558  1.00  0.00     0.198 A 
ATOM     85  C   UNL A   1      46.529  28.703  35.484  1.00  0.00     0.198 A 
ATOM     86  F   UNL A   1      45.597  30.341  34.076  1.00  0.00    -0.203 F 
ATOM     87  F   UNL A   1      44.954  26.056  37.394  1.00  0.00    -0.200 F 
ATOM     88  C   UNL A   1      46.373  27.614  36.328  1.00  0.00     0.200 A 
ATOM     89  F   UNL A   1      47.751  29.201  35.251  1.00  0.00    -0.200 F 
ATOM     90  F   UNL A   1      47.443  27.069  36.924  1.00  0.00    -0.200 F 
ENDBRANCH  57  80
ENDBRANCH  31  32
ENDBRANCH  23  26
ENDBRANCH  21  22
ENDBRANCH   1  21
TORSDOF 13
ENDMDL
