MODEL 1
REMARK VINA RESULT:     -12.5      0.000      0.000
REMARK SMILES C[C@H](NC1=[NH+]S(=O)(=O)c2ccccc21)C(=O)NCCCNC(=O)c1ccc(-c2c3nc(c(-c4c(F)c(F)c(F)c(F)c4F)c4ccc([nH]4)c(-c4c(F)c(F)c(F)c(F)c4F)c4nc(c(-c5c(F)c(F)c(F)c(F)c5F)c5ccc2[nH]5)C=C4)C=C3)cc1
REMARK SMILES IDX 19 1 18 2 17 3 15 4 16 5 2 7 1 8 3 9 4 10 5 12 14 13 6 14
REMARK SMILES IDX 9 16 13 17 7 18 8 19 10 20 12 21 11 22 20 23 21 24 22 25
REMARK SMILES IDX 23 27 24 28 25 29 86 30 26 31 85 32 27 33 28 34 29 35 79 36
REMARK SMILES IDX 30 37 84 38 78 39 80 40 31 41 83 42 77 43 76 44 32 46 64 47
REMARK SMILES IDX 44 48 63 49 45 50 48 51 62 52 81 53 46 54 47 55 61 57 82 58
REMARK SMILES IDX 49 59 33 60 34 61 42 62 35 63 36 64 40 65 43 66 37 67 38 68
REMARK SMILES IDX 41 69 39 70 65 71 66 72 74 73 67 74 68 75 72 76 75 77 69 78
REMARK SMILES IDX 70 79 73 80 71 81 50 82 51 83 59 84 52 85 53 86 57 87 60 88
REMARK SMILES IDX 54 89 55 90 58 91 56 92
REMARK H PARENT 17 6 3 11 5 15 21 26 80 45 48 56
REMARK Flexibility Score: inf
ROOT
ATOM      1  C   UNL A   1      31.378  32.231  26.531  1.00  0.00     0.042 C 
ENDROOT
BRANCH   1   2
ATOM      2  C   UNL A   1      31.404  30.709  26.473  1.00  0.00     0.118 C 
BRANCH   2   3
ATOM      3  N   UNL A   1      32.014  30.226  25.245  1.00  0.00    -0.352 N 
ATOM      4  C   UNL A   1      32.976  29.274  25.051  1.00  0.00     0.264 C 
ATOM      5  O   UNL A   1      33.394  29.114  23.902  1.00  0.00    -0.270 OA
ATOM      6  H   UNL A   1      31.681  30.653  24.422  1.00  0.00     0.163 HD
BRANCH   4   7
ATOM      7  C   UNL A   1      33.545  28.450  26.230  1.00  0.00     0.258 C 
ATOM      8  C   UNL A   1      34.576  29.275  26.996  1.00  0.00     0.069 C 
BRANCH   7   9
ATOM      9  N   UNL A   1      33.990  27.146  25.723  1.00  0.00    -0.262 N 
ATOM     10  C   UNL A   1      33.312  25.957  25.753  1.00  0.00     0.292 C 
ATOM     11  H   UNL A   1      34.884  27.124  25.312  1.00  0.00     0.306 HD
ATOM     12  N   UNL A   1      32.031  25.832  25.930  1.00  0.00    -0.162 N 
ATOM     13  C   UNL A   1      34.064  24.680  25.672  1.00  0.00     0.087 A 
ATOM     14  S   UNL A   1      31.599  24.256  26.062  1.00  0.00     0.329 S 
ATOM     15  H   UNL A   1      31.400  26.587  25.979  1.00  0.00     0.327 HD
ATOM     16  C   UNL A   1      33.213  23.626  25.934  1.00  0.00     0.124 A 
ATOM     17  C   UNL A   1      35.421  24.455  25.505  1.00  0.00     0.018 A 
ATOM     18  O   UNL A   1      30.880  23.823  24.889  1.00  0.00    -0.179 OA
ATOM     19  O   UNL A   1      31.145  23.978  27.412  1.00  0.00    -0.179 OA
ATOM     20  C   UNL A   1      33.648  22.329  26.126  1.00  0.00     0.025 A 
ATOM     21  C   UNL A   1      35.898  23.150  25.681  1.00  0.00     0.001 A 
ATOM     22  C   UNL A   1      35.020  22.099  26.006  1.00  0.00     0.002 A 
ENDBRANCH   7   9
ENDBRANCH   4   7
ENDBRANCH   2   3
ENDBRANCH   1   2
BRANCH   1  23
ATOM     23  C   UNL A   1      32.627  32.858  27.137  1.00  0.00     0.118 C 
BRANCH  23  24
ATOM     24  N   UNL A   1      32.402  34.213  27.615  1.00  0.00    -0.352 N 
ATOM     25  C   UNL A   1      33.001  34.916  28.631  1.00  0.00     0.251 C 
ATOM     26  H   UNL A   1      31.702  34.708  27.130  1.00  0.00     0.163 HD
ATOM     27  O   UNL A   1      32.527  35.998  28.971  1.00  0.00    -0.269 OA
BRANCH  25  28
ATOM     28  C   UNL A   1      34.189  34.388  29.341  1.00  0.00     0.039 A 
ATOM     29  C   UNL A   1      33.997  33.696  30.541  1.00  0.00     0.014 A 
ATOM     30  C   UNL A   1      35.485  34.604  28.868  1.00  0.00     0.014 A 
ATOM     31  C   UNL A   1      35.093  33.164  31.227  1.00  0.00     0.010 A 
ATOM     32  C   UNL A   1      36.570  34.007  29.509  1.00  0.00     0.010 A 
ATOM     33  C   UNL A   1      36.387  33.282  30.696  1.00  0.00    -0.014 A 
BRANCH  33  34
ATOM     34  C   UNL A   1      37.559  32.657  31.362  1.00  0.00     0.031 A 
ATOM     35  C   UNL A   1      38.279  31.509  30.709  1.00  0.00     0.074 A 
ATOM     36  C   UNL A   1      37.931  33.072  32.589  1.00  0.00     0.049 A 
ATOM     37  N   UNL A   1      39.246  30.761  31.179  1.00  0.00    -0.248 NA
ATOM     38  C   UNL A   1      37.833  31.133  29.359  1.00  0.00     0.031 C 
ATOM     39  C   UNL A   1      37.295  34.151  33.346  1.00  0.00     0.029 A 
ATOM     40  N   UNL A   1      38.927  32.624  33.422  1.00  0.00    -0.354 N 
ATOM     41  C   UNL A   1      39.507  29.817  30.196  1.00  0.00     0.074 A 
ATOM     42  C   UNL A   1      38.570  30.057  29.120  1.00  0.00     0.031 C 
ATOM     43  C   UNL A   1      37.925  34.292  34.523  1.00  0.00     0.029 A 
ATOM     44  C   UNL A   1      38.981  33.289  34.623  1.00  0.00     0.049 A 
ATOM     45  H   UNL A   1      39.543  31.895  33.182  1.00  0.00     0.167 HD
ATOM     46  C   UNL A   1      40.456  28.850  30.182  1.00  0.00     0.037 A 
ATOM     47  C   UNL A   1      39.782  33.102  35.689  1.00  0.00     0.037 A 
ATOM     48  C   UNL A   1      41.414  28.636  31.234  1.00  0.00     0.049 A 
ATOM     49  C   UNL A   1      40.826  32.020  35.648  1.00  0.00     0.074 A 
ATOM     50  C   UNL A   1      42.456  27.725  31.280  1.00  0.00     0.029 A 
ATOM     51  N   UNL A   1      41.448  29.343  32.426  1.00  0.00    -0.354 N 
ATOM     52  N   UNL A   1      41.097  31.169  34.690  1.00  0.00    -0.248 NA
ATOM     53  C   UNL A   1      41.676  31.875  36.839  1.00  0.00     0.031 C 
ATOM     54  C   UNL A   1      43.097  27.856  32.516  1.00  0.00     0.029 A 
ATOM     55  C   UNL A   1      42.480  28.876  33.223  1.00  0.00     0.049 A 
ATOM     56  H   UNL A   1      40.830  30.070  32.669  1.00  0.00     0.167 HD
ATOM     57  C   UNL A   1      42.163  30.406  35.147  1.00  0.00     0.074 A 
ATOM     58  C   UNL A   1      42.497  30.903  36.466  1.00  0.00     0.031 C 
ATOM     59  C   UNL A   1      42.806  29.386  34.530  1.00  0.00     0.037 A 
BRANCH  46  60
ATOM     60  C   UNL A   1      40.509  27.947  28.983  1.00  0.00     0.064 A 
ATOM     61  C   UNL A   1      39.744  26.773  28.913  1.00  0.00     0.173 A 
ATOM     62  C   UNL A   1      41.303  28.281  27.875  1.00  0.00     0.173 A 
ATOM     63  F   UNL A   1      38.978  26.404  29.950  1.00  0.00    -0.203 F 
ATOM     64  C   UNL A   1      39.792  25.953  27.788  1.00  0.00     0.198 A 
ATOM     65  C   UNL A   1      41.327  27.474  26.741  1.00  0.00     0.198 A 
ATOM     66  F   UNL A   1      42.049  29.396  27.889  1.00  0.00    -0.203 F 
ATOM     67  F   UNL A   1      39.088  24.813  27.763  1.00  0.00    -0.200 F 
ATOM     68  C   UNL A   1      40.577  26.307  26.701  1.00  0.00     0.200 A 
ATOM     69  F   UNL A   1      42.077  27.822  25.687  1.00  0.00    -0.200 F 
ATOM     70  F   UNL A   1      40.618  25.519  25.618  1.00  0.00    -0.200 F 
ENDBRANCH  46  60
BRANCH  47  71
ATOM     71  C   UNL A   1      39.637  33.974  36.884  1.00  0.00     0.064 A 
ATOM     72  C   UNL A   1      40.300  35.206  36.957  1.00  0.00     0.173 A 
ATOM     73  C   UNL A   1      38.838  33.595  37.972  1.00  0.00     0.173 A 
ATOM     74  F   UNL A   1      41.091  35.601  35.949  1.00  0.00    -0.203 F 
ATOM     75  C   UNL A   1      40.182  36.021  38.081  1.00  0.00     0.198 A 
ATOM     76  C   UNL A   1      38.699  34.423  39.085  1.00  0.00     0.198 A 
ATOM     77  F   UNL A   1      38.177  32.428  37.947  1.00  0.00    -0.203 F 
ATOM     78  F   UNL A   1      40.857  37.177  38.141  1.00  0.00    -0.200 F 
ATOM     79  C   UNL A   1      39.377  35.631  39.141  1.00  0.00     0.200 A 
ATOM     80  F   UNL A   1      37.908  34.050  40.099  1.00  0.00    -0.200 F 
ATOM     81  F   UNL A   1      39.259  36.418  40.219  1.00  0.00    -0.200 F 
ENDBRANCH  47  71
BRANCH  59  82
ATOM     82  C   UNL A   1      43.955  28.755  35.258  1.00  0.00     0.064 A 
ATOM     83  C   UNL A   1      45.271  29.209  35.085  1.00  0.00     0.173 A 
ATOM     84  C   UNL A   1      43.731  27.714  36.172  1.00  0.00     0.173 A 
ATOM     85  F   UNL A   1      45.537  30.189  34.211  1.00  0.00    -0.203 F 
ATOM     86  C   UNL A   1      46.324  28.630  35.789  1.00  0.00     0.198 A 
ATOM     87  C   UNL A   1      44.783  27.155  36.893  1.00  0.00     0.198 A 
ATOM     88  F   UNL A   1      42.489  27.248  36.375  1.00  0.00    -0.203 F 
ATOM     89  F   UNL A   1      47.578  29.052  35.580  1.00  0.00    -0.200 F 
ATOM     90  C   UNL A   1      46.078  27.610  36.697  1.00  0.00     0.200 A 
ATOM     91  F   UNL A   1      44.543  26.177  37.777  1.00  0.00    -0.200 F 
ATOM     92  F   UNL A   1      47.092  27.060  37.378  1.00  0.00    -0.200 F 
ENDBRANCH  59  82
ENDBRANCH  33  34
ENDBRANCH  25  28
ENDBRANCH  23  24
ENDBRANCH   1  23
TORSDOF 11
ENDMDL
MODEL 2
REMARK VINA RESULT:     -12.5      5.577     10.795
REMARK SMILES C[C@H](NC1=[NH+]S(=O)(=O)c2ccccc21)C(=O)NCCCNC(=O)c1ccc(-c2c3nc(c(-c4c(F)c(F)c(F)c(F)c4F)c4ccc([nH]4)c(-c4c(F)c(F)c(F)c(F)c4F)c4nc(c(-c5c(F)c(F)c(F)c(F)c5F)c5ccc2[nH]5)C=C4)C=C3)cc1
REMARK SMILES IDX 19 1 18 2 17 3 15 4 16 5 2 7 1 8 3 9 4 10 5 12 14 13 6 14
REMARK SMILES IDX 9 16 13 17 7 18 8 19 10 20 12 21 11 22 20 23 21 24 22 25
REMARK SMILES IDX 23 27 24 28 25 29 86 30 26 31 85 32 27 33 28 34 29 35 79 36
REMARK SMILES IDX 30 37 84 38 78 39 80 40 31 41 83 42 77 43 76 44 32 46 64 47
REMARK SMILES IDX 44 48 63 49 45 50 48 51 62 52 81 53 46 54 47 55 61 57 82 58
REMARK SMILES IDX 49 59 33 60 34 61 42 62 35 63 36 64 40 65 43 66 37 67 38 68
REMARK SMILES IDX 41 69 39 70 65 71 66 72 74 73 67 74 68 75 72 76 75 77 69 78
REMARK SMILES IDX 70 79 73 80 71 81 50 82 51 83 59 84 52 85 53 86 57 87 60 88
REMARK SMILES IDX 54 89 55 90 58 91 56 92
REMARK H PARENT 17 6 3 11 5 15 21 26 80 45 48 56
REMARK Flexibility Score: inf
ROOT
ATOM      1  C   UNL A   1      37.878  19.525  25.021  1.00  0.00     0.042 C 
ENDROOT
BRANCH   1   2
ATOM      2  C   UNL A   1      36.904  20.592  24.538  1.00  0.00     0.118 C 
BRANCH   2   3
ATOM      3  N   UNL A   1      35.925  20.930  25.558  1.00  0.00    -0.352 N 
ATOM      4  C   UNL A   1      35.553  22.148  26.055  1.00  0.00     0.264 C 
ATOM      5  O   UNL A   1      34.755  22.158  26.997  1.00  0.00    -0.270 OA
ATOM      6  H   UNL A   1      35.456  20.160  25.954  1.00  0.00     0.163 HD
BRANCH   4   7
ATOM      7  C   UNL A   1      36.132  23.465  25.485  1.00  0.00     0.258 C 
ATOM      8  C   UNL A   1      37.542  23.693  26.024  1.00  0.00     0.069 C 
BRANCH   7   9
ATOM      9  N   UNL A   1      35.160  24.542  25.705  1.00  0.00    -0.262 N 
ATOM     10  C   UNL A   1      34.319  25.116  24.790  1.00  0.00     0.292 C 
ATOM     11  H   UNL A   1      35.106  24.895  26.623  1.00  0.00     0.306 HD
ATOM     12  N   UNL A   1      33.990  24.593  23.647  1.00  0.00    -0.162 N 
ATOM     13  C   UNL A   1      33.788  26.481  25.034  1.00  0.00     0.087 A 
ATOM     14  S   UNL A   1      33.092  25.632  22.752  1.00  0.00     0.329 S 
ATOM     15  H   UNL A   1      34.247  23.687  23.356  1.00  0.00     0.327 HD
ATOM     16  C   UNL A   1      33.148  26.936  23.900  1.00  0.00     0.124 A 
ATOM     17  C   UNL A   1      33.955  27.320  26.123  1.00  0.00     0.018 A 
ATOM     18  O   UNL A   1      31.721  25.190  22.678  1.00  0.00    -0.179 OA
ATOM     19  O   UNL A   1      33.846  26.063  21.590  1.00  0.00    -0.179 OA
ATOM     20  C   UNL A   1      32.718  28.239  23.742  1.00  0.00     0.025 A 
ATOM     21  C   UNL A   1      33.523  28.646  26.005  1.00  0.00     0.001 A 
ATOM     22  C   UNL A   1      32.924  29.106  24.817  1.00  0.00     0.002 A 
ENDBRANCH   7   9
ENDBRANCH   4   7
ENDBRANCH   2   3
ENDBRANCH   1   2
BRANCH   1  23
ATOM     23  C   UNL A   1      39.097  20.073  25.753  1.00  0.00     0.118 C 
BRANCH  23  24
ATOM     24  N   UNL A   1      40.187  19.113  25.828  1.00  0.00    -0.352 N 
ATOM     25  C   UNL A   1      41.524  19.292  26.087  1.00  0.00     0.251 C 
ATOM     26  H   UNL A   1      39.922  18.178  25.665  1.00  0.00     0.163 HD
ATOM     27  O   UNL A   1      42.296  18.350  25.929  1.00  0.00    -0.269 OA
BRANCH  25  28
ATOM     28  C   UNL A   1      42.056  20.602  26.529  1.00  0.00     0.039 A 
ATOM     29  C   UNL A   1      42.517  21.497  25.558  1.00  0.00     0.014 A 
ATOM     30  C   UNL A   1      42.151  20.940  27.881  1.00  0.00     0.014 A 
ATOM     31  C   UNL A   1      43.006  22.751  25.937  1.00  0.00     0.010 A 
ATOM     32  C   UNL A   1      42.563  22.219  28.253  1.00  0.00     0.010 A 
ATOM     33  C   UNL A   1      42.998  23.139  27.286  1.00  0.00    -0.014 A 
BRANCH  33  34
ATOM     34  C   UNL A   1      43.435  24.494  27.707  1.00  0.00     0.031 A 
ATOM     35  C   UNL A   1      42.417  25.546  28.052  1.00  0.00     0.074 A 
ATOM     36  C   UNL A   1      44.746  24.804  27.707  1.00  0.00     0.049 A 
ATOM     37  N   UNL A   1      42.595  26.813  28.331  1.00  0.00    -0.248 NA
ATOM     38  C   UNL A   1      41.008  25.124  28.058  1.00  0.00     0.031 C 
ATOM     39  C   UNL A   1      45.833  23.886  27.359  1.00  0.00     0.029 A 
ATOM     40  N   UNL A   1      45.388  25.984  27.995  1.00  0.00    -0.354 N 
ATOM     41  C   UNL A   1      41.325  27.342  28.522  1.00  0.00     0.074 A 
ATOM     42  C   UNL A   1      40.382  26.270  28.286  1.00  0.00     0.031 C 
ATOM     43  C   UNL A   1      47.004  24.532  27.468  1.00  0.00     0.029 A 
ATOM     44  C   UNL A   1      46.753  25.917  27.854  1.00  0.00     0.049 A 
ATOM     45  H   UNL A   1      44.915  26.800  28.275  1.00  0.00     0.167 HD
ATOM     46  C   UNL A   1      40.978  28.601  28.882  1.00  0.00     0.037 A 
ATOM     47  C   UNL A   1      47.694  26.868  28.006  1.00  0.00     0.037 A 
ATOM     48  C   UNL A   1      41.917  29.656  29.154  1.00  0.00     0.049 A 
ATOM     49  C   UNL A   1      47.282  28.259  28.404  1.00  0.00     0.074 A 
ATOM     50  C   UNL A   1      41.664  30.946  29.590  1.00  0.00     0.029 A 
ATOM     51  N   UNL A   1      43.292  29.544  29.019  1.00  0.00    -0.354 N 
ATOM     52  N   UNL A   1      46.081  28.731  28.633  1.00  0.00    -0.248 NA
ATOM     53  C   UNL A   1      48.357  29.248  28.565  1.00  0.00     0.031 C 
ATOM     54  C   UNL A   1      42.883  31.625  29.682  1.00  0.00     0.029 A 
ATOM     55  C   UNL A   1      43.899  30.746  29.343  1.00  0.00     0.049 A 
ATOM     56  H   UNL A   1      43.767  28.729  28.735  1.00  0.00     0.167 HD
ATOM     57  C   UNL A   1      46.256  30.061  28.991  1.00  0.00     0.074 A 
ATOM     58  C   UNL A   1      47.680  30.319  28.959  1.00  0.00     0.031 C 
ATOM     59  C   UNL A   1      45.320  30.985  29.315  1.00  0.00     0.037 A 
BRANCH  46  60
ATOM     60  C   UNL A   1      39.514  28.909  29.006  1.00  0.00     0.064 A 
ATOM     61  C   UNL A   1      38.845  28.816  30.235  1.00  0.00     0.173 A 
ATOM     62  C   UNL A   1      38.781  29.340  27.890  1.00  0.00     0.173 A 
ATOM     63  F   UNL A   1      39.498  28.397  31.329  1.00  0.00    -0.203 F 
ATOM     64  C   UNL A   1      37.489  29.119  30.337  1.00  0.00     0.198 A 
ATOM     65  C   UNL A   1      37.433  29.669  28.001  1.00  0.00     0.198 A 
ATOM     66  F   UNL A   1      39.375  29.452  26.692  1.00  0.00    -0.203 F 
ATOM     67  F   UNL A   1      36.861  28.979  31.513  1.00  0.00    -0.200 F 
ATOM     68  C   UNL A   1      36.787  29.552  29.223  1.00  0.00     0.200 A 
ATOM     69  F   UNL A   1      36.757  30.098  26.927  1.00  0.00    -0.200 F 
ATOM     70  F   UNL A   1      35.484  29.848  29.325  1.00  0.00    -0.200 F 
ENDBRANCH  46  60
BRANCH  47  71
ATOM     71  C   UNL A   1      49.126  26.531  27.796  1.00  0.00     0.064 A 
ATOM     72  C   UNL A   1      49.982  26.327  28.886  1.00  0.00     0.173 A 
ATOM     73  C   UNL A   1      49.666  26.407  26.508  1.00  0.00     0.173 A 
ATOM     74  F   UNL A   1      49.515  26.454  30.137  1.00  0.00    -0.203 F 
ATOM     75  C   UNL A   1      51.329  26.027  28.696  1.00  0.00     0.198 A 
ATOM     76  C   UNL A   1      51.007  26.081  26.319  1.00  0.00     0.198 A 
ATOM     77  F   UNL A   1      48.885  26.586  25.432  1.00  0.00    -0.203 F 
ATOM     78  F   UNL A   1      52.135  25.874  29.756  1.00  0.00    -0.200 F 
ATOM     79  C   UNL A   1      51.839  25.899  27.413  1.00  0.00     0.200 A 
ATOM     80  F   UNL A   1      51.492  25.942  25.078  1.00  0.00    -0.200 F 
ATOM     81  F   UNL A   1      53.134  25.604  27.231  1.00  0.00    -0.200 F 
ENDBRANCH  47  71
BRANCH  59  82
ATOM     82  C   UNL A   1      45.804  32.353  29.691  1.00  0.00     0.064 A 
ATOM     83  C   UNL A   1      46.153  32.671  31.011  1.00  0.00     0.173 A 
ATOM     84  C   UNL A   1      45.963  33.345  28.711  1.00  0.00     0.173 A 
ATOM     85  F   UNL A   1      46.003  31.763  31.986  1.00  0.00    -0.203 F 
ATOM     86  C   UNL A   1      46.626  33.939  31.340  1.00  0.00     0.198 A 
ATOM     87  C   UNL A   1      46.461  34.603  29.038  1.00  0.00     0.198 A 
ATOM     88  F   UNL A   1      45.647  33.088  27.432  1.00  0.00    -0.203 F 
ATOM     89  F   UNL A   1      46.917  34.233  32.614  1.00  0.00    -0.200 F 
ATOM     90  C   UNL A   1      46.787  34.900  30.352  1.00  0.00     0.200 A 
ATOM     91  F   UNL A   1      46.625  35.526  28.082  1.00  0.00    -0.200 F 
ATOM     92  F   UNL A   1      47.250  36.116  30.670  1.00  0.00    -0.200 F 
ENDBRANCH  59  82
ENDBRANCH  33  34
ENDBRANCH  25  28
ENDBRANCH  23  24
ENDBRANCH   1  23
TORSDOF 11
ENDMDL
MODEL 3
REMARK VINA RESULT:     -12.4      0.201      1.632
REMARK SMILES C[C@H](NC1=[NH+]S(=O)(=O)c2ccccc21)C(=O)NCCCNC(=O)c1ccc(-c2c3nc(c(-c4c(F)c(F)c(F)c(F)c4F)c4ccc([nH]4)c(-c4c(F)c(F)c(F)c(F)c4F)c4nc(c(-c5c(F)c(F)c(F)c(F)c5F)c5ccc2[nH]5)C=C4)C=C3)cc1
REMARK SMILES IDX 19 1 18 2 17 3 15 4 16 5 2 7 1 8 3 9 4 10 5 12 14 13 6 14
REMARK SMILES IDX 9 16 13 17 7 18 8 19 10 20 12 21 11 22 20 23 21 24 22 25
REMARK SMILES IDX 23 27 24 28 25 29 86 30 26 31 85 32 27 33 28 34 29 35 79 36
REMARK SMILES IDX 30 37 84 38 78 39 80 40 31 41 83 42 77 43 76 44 32 46 64 47
REMARK SMILES IDX 44 48 63 49 45 50 48 51 62 52 81 53 46 54 47 55 61 57 82 58
REMARK SMILES IDX 49 59 33 60 34 61 42 62 35 63 36 64 40 65 43 66 37 67 38 68
REMARK SMILES IDX 41 69 39 70 65 71 66 72 74 73 67 74 68 75 72 76 75 77 69 78
REMARK SMILES IDX 70 79 73 80 71 81 50 82 51 83 59 84 52 85 53 86 57 87 60 88
REMARK SMILES IDX 54 89 55 90 58 91 56 92
REMARK H PARENT 17 6 3 11 5 15 21 26 80 45 48 56
REMARK Flexibility Score: inf
ROOT
ATOM      1  C   UNL A   1      31.403  32.054  26.501  1.00  0.00     0.042 C 
ENDROOT
BRANCH   1   2
ATOM      2  C   UNL A   1      31.403  30.534  26.394  1.00  0.00     0.118 C 
BRANCH   2   3
ATOM      3  N   UNL A   1      32.090  30.078  25.197  1.00  0.00    -0.352 N 
ATOM      4  C   UNL A   1      33.051  29.118  25.042  1.00  0.00     0.264 C 
ATOM      5  O   UNL A   1      33.545  28.985  23.919  1.00  0.00    -0.270 OA
ATOM      6  H   UNL A   1      31.821  30.533  24.366  1.00  0.00     0.163 HD
BRANCH   4   7
ATOM      7  C   UNL A   1      33.528  28.252  26.232  1.00  0.00     0.258 C 
ATOM      8  C   UNL A   1      34.507  29.042  27.095  1.00  0.00     0.069 C 
BRANCH   7   9
ATOM      9  N   UNL A   1      33.997  26.960  25.717  1.00  0.00    -0.262 N 
ATOM     10  C   UNL A   1      33.375  25.744  25.806  1.00  0.00     0.292 C 
ATOM     11  H   UNL A   1      34.864  26.969  25.252  1.00  0.00     0.306 HD
ATOM     12  N   UNL A   1      32.114  25.567  26.065  1.00  0.00    -0.162 N 
ATOM     13  C   UNL A   1      34.176  24.499  25.698  1.00  0.00     0.087 A 
ATOM     14  S   UNL A   1      31.760  23.976  26.246  1.00  0.00     0.329 S 
ATOM     15  H   UNL A   1      31.455  26.295  26.141  1.00  0.00     0.327 HD
ATOM     16  C   UNL A   1      33.390  23.414  26.028  1.00  0.00     0.124 A 
ATOM     17  C   UNL A   1      35.529  24.329  25.450  1.00  0.00     0.018 A 
ATOM     18  O   UNL A   1      30.991  23.492  25.127  1.00  0.00    -0.179 OA
ATOM     19  O   UNL A   1      31.403  23.703  27.626  1.00  0.00    -0.179 OA
ATOM     20  C   UNL A   1      33.892  22.140  26.211  1.00  0.00     0.025 A 
ATOM     21  C   UNL A   1      36.072  23.049  25.615  1.00  0.00     0.001 A 
ATOM     22  C   UNL A   1      35.262  21.967  26.009  1.00  0.00     0.002 A 
ENDBRANCH   7   9
ENDBRANCH   4   7
ENDBRANCH   2   3
ENDBRANCH   1   2
BRANCH   1  23
ATOM     23  C   UNL A   1      32.622  32.635  27.205  1.00  0.00     0.118 C 
BRANCH  23  24
ATOM     24  N   UNL A   1      32.430  34.017  27.616  1.00  0.00    -0.352 N 
ATOM     25  C   UNL A   1      33.048  34.755  28.595  1.00  0.00     0.251 C 
ATOM     26  H   UNL A   1      31.740  34.503  27.109  1.00  0.00     0.163 HD
ATOM     27  O   UNL A   1      32.602  35.863  28.882  1.00  0.00    -0.269 OA
BRANCH  25  28
ATOM     28  C   UNL A   1      34.227  34.235  29.327  1.00  0.00     0.039 A 
ATOM     29  C   UNL A   1      34.017  33.530  30.516  1.00  0.00     0.014 A 
ATOM     30  C   UNL A   1      35.531  34.472  28.886  1.00  0.00     0.014 A 
ATOM     31  C   UNL A   1      35.104  33.006  31.222  1.00  0.00     0.010 A 
ATOM     32  C   UNL A   1      36.608  33.882  29.545  1.00  0.00     0.010 A 
ATOM     33  C   UNL A   1      36.408  33.144  30.722  1.00  0.00    -0.014 A 
BRANCH  33  34
ATOM     34  C   UNL A   1      37.572  32.528  31.409  1.00  0.00     0.031 A 
ATOM     35  C   UNL A   1      38.298  31.371  30.779  1.00  0.00     0.074 A 
ATOM     36  C   UNL A   1      37.930  32.959  32.634  1.00  0.00     0.049 A 
ATOM     37  N   UNL A   1      39.260  30.630  31.269  1.00  0.00    -0.248 NA
ATOM     38  C   UNL A   1      37.868  30.978  29.428  1.00  0.00     0.031 C 
ATOM     39  C   UNL A   1      37.286  34.048  33.370  1.00  0.00     0.029 A 
ATOM     40  N   UNL A   1      38.917  32.521  33.484  1.00  0.00    -0.354 N 
ATOM     41  C   UNL A   1      39.532  29.673  30.301  1.00  0.00     0.074 A 
ATOM     42  C   UNL A   1      38.607  29.899  29.211  1.00  0.00     0.031 C 
ATOM     43  C   UNL A   1      37.903  34.203  34.552  1.00  0.00     0.029 A 
ATOM     44  C   UNL A   1      38.957  33.201  34.677  1.00  0.00     0.049 A 
ATOM     45  H   UNL A   1      39.535  31.789  33.260  1.00  0.00     0.167 HD
ATOM     46  C   UNL A   1      40.481  28.706  30.309  1.00  0.00     0.037 A 
ATOM     47  C   UNL A   1      39.746  33.028  35.754  1.00  0.00     0.037 A 
ATOM     48  C   UNL A   1      41.427  28.505  31.375  1.00  0.00     0.049 A 
ATOM     49  C   UNL A   1      40.791  31.946  35.739  1.00  0.00     0.074 A 
ATOM     50  C   UNL A   1      42.468  27.595  31.444  1.00  0.00     0.029 A 
ATOM     51  N   UNL A   1      41.448  29.227  32.558  1.00  0.00    -0.354 N 
ATOM     52  N   UNL A   1      41.072  31.083  34.794  1.00  0.00    -0.248 NA
ATOM     53  C   UNL A   1      41.628  31.816  36.940  1.00  0.00     0.031 C 
ATOM     54  C   UNL A   1      43.095  27.742  32.686  1.00  0.00     0.029 A 
ATOM     55  C   UNL A   1      42.471  28.771  33.373  1.00  0.00     0.049 A 
ATOM     56  H   UNL A   1      40.827  29.957  32.785  1.00  0.00     0.167 HD
ATOM     57  C   UNL A   1      42.133  30.326  35.273  1.00  0.00     0.074 A 
ATOM     58  C   UNL A   1      42.453  30.839  36.589  1.00  0.00     0.031 C 
ATOM     59  C   UNL A   1      42.782  29.297  34.677  1.00  0.00     0.037 A 
BRANCH  46  60
ATOM     60  C   UNL A   1      40.547  27.788  29.124  1.00  0.00     0.064 A 
ATOM     61  C   UNL A   1      39.733  26.650  29.028  1.00  0.00     0.173 A 
ATOM     62  C   UNL A   1      41.406  28.072  28.050  1.00  0.00     0.173 A 
ATOM     63  F   UNL A   1      38.903  26.328  30.033  1.00  0.00    -0.203 F 
ATOM     64  C   UNL A   1      39.794  25.815  27.915  1.00  0.00     0.198 A 
ATOM     65  C   UNL A   1      41.445  27.251  26.927  1.00  0.00     0.198 A 
ATOM     66  F   UNL A   1      42.201  29.151  28.088  1.00  0.00    -0.203 F 
ATOM     67  F   UNL A   1      39.039  24.708  27.868  1.00  0.00    -0.200 F 
ATOM     68  C   UNL A   1      40.644  26.120  26.863  1.00  0.00     0.200 A 
ATOM     69  F   UNL A   1      42.258  27.552  25.905  1.00  0.00    -0.200 F 
ATOM     70  F   UNL A   1      40.698  25.319  25.790  1.00  0.00    -0.200 F 
ENDBRANCH  46  60
BRANCH  47  71
ATOM     71  C   UNL A   1      39.589  33.915  36.936  1.00  0.00     0.064 A 
ATOM     72  C   UNL A   1      38.815  33.516  38.033  1.00  0.00     0.173 A 
ATOM     73  C   UNL A   1      40.206  35.173  36.993  1.00  0.00     0.173 A 
ATOM     74  F   UNL A   1      38.189  32.330  38.016  1.00  0.00    -0.203 F 
ATOM     75  C   UNL A   1      38.649  34.350  39.138  1.00  0.00     0.198 A 
ATOM     76  C   UNL A   1      40.062  35.995  38.109  1.00  0.00     0.198 A 
ATOM     77  F   UNL A   1      40.965  35.597  35.971  1.00  0.00    -0.203 F 
ATOM     78  F   UNL A   1      37.872  33.960  40.158  1.00  0.00    -0.200 F 
ATOM     79  C   UNL A   1      39.278  35.585  39.177  1.00  0.00     0.200 A 
ATOM     80  F   UNL A   1      40.684  37.180  38.150  1.00  0.00    -0.200 F 
ATOM     81  F   UNL A   1      39.124  36.384  40.243  1.00  0.00    -0.200 F 
ENDBRANCH  47  71
BRANCH  59  82
ATOM     82  C   UNL A   1      43.923  28.676  35.426  1.00  0.00     0.064 A 
ATOM     83  C   UNL A   1      43.727  27.592  36.294  1.00  0.00     0.173 A 
ATOM     84  C   UNL A   1      45.233  29.142  35.239  1.00  0.00     0.173 A 
ATOM     85  F   UNL A   1      42.492  27.122  36.518  1.00  0.00    -0.203 F 
ATOM     86  C   UNL A   1      44.801  27.009  36.962  1.00  0.00     0.198 A 
ATOM     87  C   UNL A   1      46.307  28.540  35.889  1.00  0.00     0.198 A 
ATOM     88  F   UNL A   1      45.472  30.174  34.415  1.00  0.00    -0.203 F 
ATOM     89  F   UNL A   1      44.586  25.999  37.816  1.00  0.00    -0.200 F 
ATOM     90  C   UNL A   1      46.090  27.478  36.753  1.00  0.00     0.200 A 
ATOM     91  F   UNL A   1      47.552  28.988  35.678  1.00  0.00    -0.200 F 
ATOM     92  F   UNL A   1      47.122  26.910  37.391  1.00  0.00    -0.200 F 
ENDBRANCH  59  82
ENDBRANCH  33  34
ENDBRANCH  25  28
ENDBRANCH  23  24
ENDBRANCH   1  23
TORSDOF 11
ENDMDL
