MODEL 1
REMARK VINA RESULT:     -11.3      0.000      0.000
REMARK SMILES COC(=O)Oc1cncc(C(=O)NCCCNC(=O)c2ccc(-c3c4nc(c(-c5c(F)c(F)c(F)c(F)c5F)c5ccc([nH]5)c(-c5c(F)c(F)c(F)c(F)c5F)c5nc(c(-c6c(F)c(F)c(F)c(F)c6F)c6ccc3[nH]6)C=C5)C=C4)cc2)c1
REMARK SMILES IDX 14 1 13 2 11 3 12 4 10 6 6 7 7 8 83 9 8 10 9 11 5 12 3 13
REMARK SMILES IDX 4 14 2 15 1 16 15 17 16 18 17 19 18 20 19 22 20 23 21 24
REMARK SMILES IDX 82 25 22 26 81 27 23 28 24 29 25 30 75 31 26 32 80 33 74 34
REMARK SMILES IDX 76 35 27 36 79 37 73 38 72 39 28 41 60 42 40 43 59 44 41 45
REMARK SMILES IDX 44 46 58 47 77 48 42 49 43 50 57 52 78 53 45 54 29 55 30 56
REMARK SMILES IDX 38 57 31 58 32 59 36 60 39 61 33 62 34 63 37 64 35 65 61 66
REMARK SMILES IDX 62 67 70 68 63 69 64 70 68 71 71 72 65 73 66 74 69 75 67 76
REMARK SMILES IDX 46 77 47 78 55 79 48 80 49 81 53 82 56 83 50 84 51 85 54 86
REMARK SMILES IDX 52 87
REMARK H PARENT 13 5 17 21 76 40 44 51
REMARK Flexibility Score: inf
ROOT
ATOM      1  C   UNL A   1      31.964  27.393  25.923  1.00  0.00     0.118 C 
ENDROOT
BRANCH   1   2
ATOM      2  N   UNL A   1      32.298  27.197  24.523  1.00  0.00    -0.352 N 
ATOM      3  C   UNL A   1      31.578  27.329  23.363  1.00  0.00     0.252 C 
ATOM      4  O   UNL A   1      32.164  27.101  22.305  1.00  0.00    -0.269 OA
ATOM      5  H   UNL A   1      33.230  26.914  24.377  1.00  0.00     0.163 HD
BRANCH   3   6
ATOM      6  C   UNL A   1      30.169  27.786  23.317  1.00  0.00     0.061 A 
ATOM      7  C   UNL A   1      28.359  29.209  22.631  1.00  0.00     0.153 A 
ATOM      8  C   UNL A   1      27.464  28.282  23.135  1.00  0.00     0.158 A 
ATOM      9  C   UNL A   1      29.726  29.003  22.809  1.00  0.00     0.064 A 
ATOM     10  N   UNL A   1      27.854  27.141  23.742  1.00  0.00    -0.260 NA
ATOM     11  C   UNL A   1      29.195  26.911  23.797  1.00  0.00     0.125 A 
BRANCH   7  12
ATOM     12  O   UNL A   1      27.879  30.329  21.949  1.00  0.00    -0.393 OA
BRANCH  12  13
ATOM     13  C   UNL A   1      27.624  31.408  22.790  1.00  0.00     0.513 C 
ATOM     14  O   UNL A   1      27.226  31.357  23.945  1.00  0.00    -0.203 OA
BRANCH  13  15
ATOM     15  O   UNL A   1      27.859  32.556  22.100  1.00  0.00    -0.437 OA
ATOM     16  C   UNL A   1      27.980  32.354  20.690  1.00  0.00     0.286 C 
ENDBRANCH  13  15
ENDBRANCH  12  13
ENDBRANCH   7  12
ENDBRANCH   3   6
ENDBRANCH   1   2
BRANCH   1  17
ATOM     17  C   UNL A   1      31.769  28.880  26.227  1.00  0.00     0.042 C 
BRANCH  17  18
ATOM     18  C   UNL A   1      32.985  29.727  25.853  1.00  0.00     0.118 C 
BRANCH  18  19
ATOM     19  N   UNL A   1      32.807  31.120  26.240  1.00  0.00    -0.352 N 
ATOM     20  C   UNL A   1      33.387  31.856  27.237  1.00  0.00     0.251 C 
ATOM     21  H   UNL A   1      32.157  31.616  25.691  1.00  0.00     0.163 HD
ATOM     22  O   UNL A   1      32.882  32.930  27.555  1.00  0.00    -0.269 OA
BRANCH  20  23
ATOM     23  C   UNL A   1      34.606  31.389  27.932  1.00  0.00     0.039 A 
ATOM     24  C   UNL A   1      35.667  32.288  28.078  1.00  0.00     0.014 A 
ATOM     25  C   UNL A   1      34.750  30.069  28.367  1.00  0.00     0.014 A 
ATOM     26  C   UNL A   1      36.849  31.875  28.690  1.00  0.00     0.010 A 
ATOM     27  C   UNL A   1      35.899  29.680  29.053  1.00  0.00     0.010 A 
ATOM     28  C   UNL A   1      36.965  30.576  29.213  1.00  0.00    -0.014 A 
BRANCH  28  29
ATOM     29  C   UNL A   1      38.193  30.173  29.944  1.00  0.00     0.031 A 
ATOM     30  C   UNL A   1      38.456  30.656  31.343  1.00  0.00     0.074 A 
ATOM     31  C   UNL A   1      39.083  29.372  29.326  1.00  0.00     0.049 A 
ATOM     32  N   UNL A   1      39.456  30.370  32.140  1.00  0.00    -0.248 NA
ATOM     33  C   UNL A   1      37.487  31.602  31.915  1.00  0.00     0.031 C 
ATOM     34  C   UNL A   1      38.963  28.887  27.948  1.00  0.00     0.029 A 
ATOM     35  N   UNL A   1      40.254  28.817  29.772  1.00  0.00    -0.354 N 
ATOM     36  C   UNL A   1      39.235  31.098  33.302  1.00  0.00     0.074 A 
ATOM     37  C   UNL A   1      38.043  31.887  33.084  1.00  0.00     0.031 C 
ATOM     38  C   UNL A   1      39.993  28.072  27.678  1.00  0.00     0.029 A 
ATOM     39  C   UNL A   1      40.867  28.009  28.845  1.00  0.00     0.049 A 
ATOM     40  H   UNL A   1      40.621  28.981  30.671  1.00  0.00     0.167 HD
ATOM     41  C   UNL A   1      39.949  31.088  34.455  1.00  0.00     0.037 A 
ATOM     42  C   UNL A   1      42.006  27.297  28.926  1.00  0.00     0.037 A 
ATOM     43  C   UNL A   1      41.134  30.295  34.665  1.00  0.00     0.049 A 
ATOM     44  C   UNL A   1      42.782  27.312  30.215  1.00  0.00     0.074 A 
ATOM     45  C   UNL A   1      41.901  30.174  35.811  1.00  0.00     0.029 A 
ATOM     46  N   UNL A   1      41.731  29.495  33.701  1.00  0.00    -0.354 N 
ATOM     47  N   UNL A   1      42.518  27.939  31.335  1.00  0.00    -0.248 NA
ATOM     48  C   UNL A   1      44.009  26.508  30.251  1.00  0.00     0.031 C 
ATOM     49  C   UNL A   1      42.995  29.351  35.521  1.00  0.00     0.029 A 
ATOM     50  C   UNL A   1      42.874  28.902  34.217  1.00  0.00     0.049 A 
ATOM     51  H   UNL A   1      41.393  29.367  32.785  1.00  0.00     0.167 HD
ATOM     52  C   UNL A   1      43.530  27.588  32.217  1.00  0.00     0.074 A 
ATOM     53  C   UNL A   1      44.395  26.666  31.508  1.00  0.00     0.031 C 
ATOM     54  C   UNL A   1      43.732  27.995  33.496  1.00  0.00     0.037 A 
BRANCH  41  55
ATOM     55  C   UNL A   1      39.471  31.967  35.579  1.00  0.00     0.064 A 
ATOM     56  C   UNL A   1      38.545  31.512  36.530  1.00  0.00     0.173 A 
ATOM     57  C   UNL A   1      39.977  33.267  35.733  1.00  0.00     0.173 A 
ATOM     58  F   UNL A   1      38.020  30.281  36.428  1.00  0.00    -0.203 F 
ATOM     59  C   UNL A   1      38.119  32.334  37.571  1.00  0.00     0.198 A 
ATOM     60  C   UNL A   1      39.577  34.073  36.795  1.00  0.00     0.198 A 
ATOM     61  F   UNL A   1      40.871  33.753  34.858  1.00  0.00    -0.203 F 
ATOM     62  F   UNL A   1      37.193  31.894  38.435  1.00  0.00    -0.200 F 
ATOM     63  C   UNL A   1      38.642  33.610  37.708  1.00  0.00     0.200 A 
ATOM     64  F   UNL A   1      40.096  35.301  36.935  1.00  0.00    -0.200 F 
ATOM     65  F   UNL A   1      38.240  34.397  38.716  1.00  0.00    -0.200 F 
ENDBRANCH  41  55
BRANCH  42  66
ATOM     66  C   UNL A   1      42.467  26.494  27.763  1.00  0.00     0.064 A 
ATOM     67  C   UNL A   1      43.409  27.005  26.859  1.00  0.00     0.173 A 
ATOM     68  C   UNL A   1      41.972  25.203  27.526  1.00  0.00     0.173 A 
ATOM     69  F   UNL A   1      43.901  28.241  27.031  1.00  0.00    -0.203 F 
ATOM     70  C   UNL A   1      43.816  26.267  25.749  1.00  0.00     0.198 A 
ATOM     71  C   UNL A   1      42.406  24.453  26.436  1.00  0.00     0.198 A 
ATOM     72  F   UNL A   1      41.075  24.663  28.366  1.00  0.00    -0.203 F 
ATOM     73  F   UNL A   1      44.675  26.802  24.870  1.00  0.00    -0.200 F 
ATOM     74  C   UNL A   1      43.318  24.990  25.541  1.00  0.00     0.200 A 
ATOM     75  F   UNL A   1      41.938  23.211  26.252  1.00  0.00    -0.200 F 
ATOM     76  F   UNL A   1      43.713  24.279  24.477  1.00  0.00    -0.200 F 
ENDBRANCH  42  66
BRANCH  54  77
ATOM     77  C   UNL A   1      44.923  27.421  34.211  1.00  0.00     0.064 A 
ATOM     78  C   UNL A   1      46.177  28.054  34.187  1.00  0.00     0.173 A 
ATOM     79  C   UNL A   1      44.811  26.218  34.926  1.00  0.00     0.173 A 
ATOM     80  F   UNL A   1      46.342  29.199  33.508  1.00  0.00    -0.203 F 
ATOM     81  C   UNL A   1      47.282  27.478  34.807  1.00  0.00     0.198 A 
ATOM     82  C   UNL A   1      45.910  25.667  35.580  1.00  0.00     0.198 A 
ATOM     83  F   UNL A   1      43.636  25.576  34.993  1.00  0.00    -0.203 F 
ATOM     84  F   UNL A   1      48.485  28.060  34.702  1.00  0.00    -0.200 F 
ATOM     85  C   UNL A   1      47.148  26.288  35.506  1.00  0.00     0.200 A 
ATOM     86  F   UNL A   1      45.774  24.527  36.271  1.00  0.00    -0.200 F 
ATOM     87  F   UNL A   1      48.214  25.733  36.098  1.00  0.00    -0.200 F 
ENDBRANCH  54  77
ENDBRANCH  28  29
ENDBRANCH  20  23
ENDBRANCH  18  19
ENDBRANCH  17  18
ENDBRANCH   1  17
TORSDOF 13
ENDMDL
MODEL 2
REMARK VINA RESULT:     -11.3      4.229      6.904
REMARK SMILES COC(=O)Oc1cncc(C(=O)NCCCNC(=O)c2ccc(-c3c4nc(c(-c5c(F)c(F)c(F)c(F)c5F)c5ccc([nH]5)c(-c5c(F)c(F)c(F)c(F)c5F)c5nc(c(-c6c(F)c(F)c(F)c(F)c6F)c6ccc3[nH]6)C=C5)C=C4)cc2)c1
REMARK SMILES IDX 14 1 13 2 11 3 12 4 10 6 6 7 7 8 83 9 8 10 9 11 5 12 3 13
REMARK SMILES IDX 4 14 2 15 1 16 15 17 16 18 17 19 18 20 19 22 20 23 21 24
REMARK SMILES IDX 82 25 22 26 81 27 23 28 24 29 25 30 75 31 26 32 80 33 74 34
REMARK SMILES IDX 76 35 27 36 79 37 73 38 72 39 28 41 60 42 40 43 59 44 41 45
REMARK SMILES IDX 44 46 58 47 77 48 42 49 43 50 57 52 78 53 45 54 29 55 30 56
REMARK SMILES IDX 38 57 31 58 32 59 36 60 39 61 33 62 34 63 37 64 35 65 61 66
REMARK SMILES IDX 62 67 70 68 63 69 64 70 68 71 71 72 65 73 66 74 69 75 67 76
REMARK SMILES IDX 46 77 47 78 55 79 48 80 49 81 53 82 56 83 50 84 51 85 54 86
REMARK SMILES IDX 52 87
REMARK H PARENT 13 5 17 21 76 40 44 51
REMARK Flexibility Score: inf
ROOT
ATOM      1  C   UNL A   1      35.372  34.841  28.584  1.00  0.00     0.118 C 
ENDROOT
BRANCH   1   2
ATOM      2  N   UNL A   1      34.066  35.447  28.398  1.00  0.00    -0.352 N 
ATOM      3  C   UNL A   1      33.143  35.963  29.272  1.00  0.00     0.252 C 
ATOM      4  O   UNL A   1      32.111  36.431  28.792  1.00  0.00    -0.269 OA
ATOM      5  H   UNL A   1      33.787  35.499  27.455  1.00  0.00     0.163 HD
BRANCH   3   6
ATOM      6  C   UNL A   1      33.349  36.039  30.737  1.00  0.00     0.061 A 
ATOM      7  C   UNL A   1      33.931  35.182  32.905  1.00  0.00     0.153 A 
ATOM      8  C   UNL A   1      33.951  36.478  33.391  1.00  0.00     0.158 A 
ATOM      9  C   UNL A   1      33.533  34.954  31.588  1.00  0.00     0.064 A 
ATOM     10  N   UNL A   1      33.664  37.552  32.625  1.00  0.00    -0.260 NA
ATOM     11  C   UNL A   1      33.393  37.308  31.314  1.00  0.00     0.125 A 
BRANCH   7  12
ATOM     12  O   UNL A   1      34.313  34.129  33.738  1.00  0.00    -0.393 OA
BRANCH  12  13
ATOM     13  C   UNL A   1      35.671  34.144  34.043  1.00  0.00     0.513 C 
ATOM     14  O   UNL A   1      36.591  34.380  33.274  1.00  0.00    -0.203 OA
BRANCH  13  15
ATOM     15  O   UNL A   1      35.820  33.815  35.355  1.00  0.00    -0.437 OA
ATOM     16  C   UNL A   1      37.175  33.539  35.719  1.00  0.00     0.286 C 
ENDBRANCH  13  15
ENDBRANCH  12  13
ENDBRANCH   7  12
ENDBRANCH   3   6
ENDBRANCH   1   2
BRANCH   1  17
ATOM     17  C   UNL A   1      35.350  33.372  28.157  1.00  0.00     0.042 C 
BRANCH  17  18
ATOM     18  C   UNL A   1      34.613  32.475  29.150  1.00  0.00     0.118 C 
BRANCH  18  19
ATOM     19  N   UNL A   1      34.045  31.305  28.496  1.00  0.00    -0.352 N 
ATOM     20  C   UNL A   1      34.642  30.191  27.970  1.00  0.00     0.251 C 
ATOM     21  H   UNL A   1      33.064  31.317  28.418  1.00  0.00     0.163 HD
ATOM     22  O   UNL A   1      33.993  29.465  27.220  1.00  0.00    -0.269 OA
BRANCH  20  23
ATOM     23  C   UNL A   1      36.045  29.845  28.288  1.00  0.00     0.039 A 
ATOM     24  C   UNL A   1      37.008  30.019  27.289  1.00  0.00     0.014 A 
ATOM     25  C   UNL A   1      36.408  29.282  29.513  1.00  0.00     0.014 A 
ATOM     26  C   UNL A   1      38.335  29.666  27.534  1.00  0.00     0.010 A 
ATOM     27  C   UNL A   1      37.747  29.007  29.787  1.00  0.00     0.010 A 
ATOM     28  C   UNL A   1      38.723  29.186  28.797  1.00  0.00    -0.014 A 
BRANCH  28  29
ATOM     29  C   UNL A   1      40.152  28.899  29.078  1.00  0.00     0.031 A 
ATOM     30  C   UNL A   1      40.997  29.862  29.863  1.00  0.00     0.074 A 
ATOM     31  C   UNL A   1      40.691  27.758  28.602  1.00  0.00     0.049 A 
ATOM     32  N   UNL A   1      42.249  29.750  30.234  1.00  0.00    -0.248 NA
ATOM     33  C   UNL A   1      40.366  31.127  30.267  1.00  0.00     0.031 C 
ATOM     34  C   UNL A   1      39.984  26.775  27.778  1.00  0.00     0.029 A 
ATOM     35  N   UNL A   1      41.946  27.228  28.749  1.00  0.00    -0.354 N 
ATOM     36  C   UNL A   1      42.552  30.925  30.910  1.00  0.00     0.074 A 
ATOM     37  C   UNL A   1      41.375  31.762  30.846  1.00  0.00     0.031 C 
ATOM     38  C   UNL A   1      40.802  25.741  27.530  1.00  0.00     0.029 A 
ATOM     39  C   UNL A   1      42.099  26.006  28.141  1.00  0.00     0.049 A 
ATOM     40  H   UNL A   1      42.669  27.679  29.244  1.00  0.00     0.167 HD
ATOM     41  C   UNL A   1      43.700  31.261  31.549  1.00  0.00     0.037 A 
ATOM     42  C   UNL A   1      43.168  25.189  28.083  1.00  0.00     0.037 A 
ATOM     43  C   UNL A   1      44.866  30.418  31.612  1.00  0.00     0.049 A 
ATOM     44  C   UNL A   1      44.431  25.593  28.793  1.00  0.00     0.074 A 
ATOM     45  C   UNL A   1      46.060  30.642  32.275  1.00  0.00     0.029 A 
ATOM     46  N   UNL A   1      44.990  29.190  30.977  1.00  0.00    -0.354 N 
ATOM     47  N   UNL A   1      44.677  26.668  29.500  1.00  0.00    -0.248 NA
ATOM     48  C   UNL A   1      45.559  24.658  28.707  1.00  0.00     0.031 C 
ATOM     49  C   UNL A   1      46.927  29.581  31.991  1.00  0.00     0.029 A 
ATOM     50  C   UNL A   1      46.251  28.659  31.208  1.00  0.00     0.049 A 
ATOM     51  H   UNL A   1      44.286  28.758  30.442  1.00  0.00     0.167 HD
ATOM     52  C   UNL A   1      45.979  26.531  29.962  1.00  0.00     0.074 A 
ATOM     53  C   UNL A   1      46.456  25.250  29.481  1.00  0.00     0.031 C 
ATOM     54  C   UNL A   1      46.717  27.389  30.712  1.00  0.00     0.037 A 
BRANCH  41  55
ATOM     55  C   UNL A   1      43.753  32.603  32.227  1.00  0.00     0.064 A 
ATOM     56  C   UNL A   1      44.195  33.754  31.554  1.00  0.00     0.173 A 
ATOM     57  C   UNL A   1      43.316  32.751  33.552  1.00  0.00     0.173 A 
ATOM     58  F   UNL A   1      44.633  33.671  30.289  1.00  0.00    -0.203 F 
ATOM     59  C   UNL A   1      44.229  34.992  32.192  1.00  0.00     0.198 A 
ATOM     60  C   UNL A   1      43.318  33.996  34.175  1.00  0.00     0.198 A 
ATOM     61  F   UNL A   1      42.876  31.688  34.242  1.00  0.00    -0.203 F 
ATOM     62  F   UNL A   1      44.707  36.064  31.546  1.00  0.00    -0.200 F 
ATOM     63  C   UNL A   1      43.783  35.113  33.499  1.00  0.00     0.200 A 
ATOM     64  F   UNL A   1      42.870  34.116  35.433  1.00  0.00    -0.200 F 
ATOM     65  F   UNL A   1      43.806  36.308  34.108  1.00  0.00    -0.200 F 
ENDBRANCH  41  55
BRANCH  42  66
ATOM     66  C   UNL A   1      43.081  23.901  27.345  1.00  0.00     0.064 A 
ATOM     67  C   UNL A   1      43.451  23.814  25.995  1.00  0.00     0.173 A 
ATOM     68  C   UNL A   1      42.621  22.733  27.969  1.00  0.00     0.173 A 
ATOM     69  F   UNL A   1      43.883  24.906  25.347  1.00  0.00    -0.203 F 
ATOM     70  C   UNL A   1      43.338  22.616  25.293  1.00  0.00     0.198 A 
ATOM     71  C   UNL A   1      42.541  21.527  27.275  1.00  0.00     0.198 A 
ATOM     72  F   UNL A   1      42.262  22.758  29.262  1.00  0.00    -0.203 F 
ATOM     73  F   UNL A   1      43.646  22.575  23.989  1.00  0.00    -0.200 F 
ATOM     74  C   UNL A   1      42.888  21.472  25.935  1.00  0.00     0.200 A 
ATOM     75  F   UNL A   1      42.127  20.420  27.906  1.00  0.00    -0.200 F 
ATOM     76  F   UNL A   1      42.783  20.320  25.261  1.00  0.00    -0.200 F 
ENDBRANCH  42  66
BRANCH  54  77
ATOM     77  C   UNL A   1      48.108  26.950  31.074  1.00  0.00     0.064 A 
ATOM     78  C   UNL A   1      49.225  27.320  30.306  1.00  0.00     0.173 A 
ATOM     79  C   UNL A   1      48.329  26.142  32.201  1.00  0.00     0.173 A 
ATOM     80  F   UNL A   1      49.068  28.081  29.212  1.00  0.00    -0.203 F 
ATOM     81  C   UNL A   1      50.498  26.857  30.623  1.00  0.00     0.198 A 
ATOM     82  C   UNL A   1      49.610  25.714  32.538  1.00  0.00     0.198 A 
ATOM     83  F   UNL A   1      47.302  25.766  32.977  1.00  0.00    -0.203 F 
ATOM     84  F   UNL A   1      51.535  27.159  29.829  1.00  0.00    -0.200 F 
ATOM     85  C   UNL A   1      50.691  26.058  31.741  1.00  0.00     0.200 A 
ATOM     86  F   UNL A   1      49.797  24.959  33.629  1.00  0.00    -0.200 F 
ATOM     87  F   UNL A   1      51.917  25.610  32.042  1.00  0.00    -0.200 F 
ENDBRANCH  54  77
ENDBRANCH  28  29
ENDBRANCH  20  23
ENDBRANCH  18  19
ENDBRANCH  17  18
ENDBRANCH   1  17
TORSDOF 13
ENDMDL
MODEL 3
REMARK VINA RESULT:     -11.2      6.310     11.354
REMARK SMILES COC(=O)Oc1cncc(C(=O)NCCCNC(=O)c2ccc(-c3c4nc(c(-c5c(F)c(F)c(F)c(F)c5F)c5ccc([nH]5)c(-c5c(F)c(F)c(F)c(F)c5F)c5nc(c(-c6c(F)c(F)c(F)c(F)c6F)c6ccc3[nH]6)C=C5)C=C4)cc2)c1
REMARK SMILES IDX 14 1 13 2 11 3 12 4 10 6 6 7 7 8 83 9 8 10 9 11 5 12 3 13
REMARK SMILES IDX 4 14 2 15 1 16 15 17 16 18 17 19 18 20 19 22 20 23 21 24
REMARK SMILES IDX 82 25 22 26 81 27 23 28 24 29 25 30 75 31 26 32 80 33 74 34
REMARK SMILES IDX 76 35 27 36 79 37 73 38 72 39 28 41 60 42 40 43 59 44 41 45
REMARK SMILES IDX 44 46 58 47 77 48 42 49 43 50 57 52 78 53 45 54 29 55 30 56
REMARK SMILES IDX 38 57 31 58 32 59 36 60 39 61 33 62 34 63 37 64 35 65 61 66
REMARK SMILES IDX 62 67 70 68 63 69 64 70 68 71 71 72 65 73 66 74 69 75 67 76
REMARK SMILES IDX 46 77 47 78 55 79 48 80 49 81 53 82 56 83 50 84 51 85 54 86
REMARK SMILES IDX 52 87
REMARK H PARENT 13 5 17 21 76 40 44 51
REMARK Flexibility Score: inf
ROOT
ATOM      1  C   UNL A   1      37.498  20.448  24.376  1.00  0.00     0.118 C 
ENDROOT
BRANCH   1   2
ATOM      2  N   UNL A   1      36.677  21.148  25.349  1.00  0.00    -0.352 N 
ATOM      3  C   UNL A   1      35.344  21.082  25.666  1.00  0.00     0.252 C 
ATOM      4  O   UNL A   1      34.943  21.811  26.573  1.00  0.00    -0.269 OA
ATOM      5  H   UNL A   1      37.178  21.799  25.891  1.00  0.00     0.163 HD
BRANCH   3   6
ATOM      6  C   UNL A   1      34.390  20.148  25.024  1.00  0.00     0.061 A 
ATOM      7  C   UNL A   1      33.628  18.011  24.234  1.00  0.00     0.153 A 
ATOM      8  C   UNL A   1      32.362  18.544  24.069  1.00  0.00     0.158 A 
ATOM      9  C   UNL A   1      34.673  18.846  24.625  1.00  0.00     0.064 A 
ATOM     10  N   UNL A   1      32.071  19.836  24.333  1.00  0.00    -0.260 NA
ATOM     11  C   UNL A   1      33.086  20.599  24.825  1.00  0.00     0.125 A 
BRANCH   7  12
ATOM     12  O   UNL A   1      33.834  16.648  24.012  1.00  0.00    -0.393 OA
BRANCH  12  13
ATOM     13  C   UNL A   1      34.207  15.961  25.164  1.00  0.00     0.513 C 
ATOM     14  O   UNL A   1      35.277  15.408  25.370  1.00  0.00    -0.203 OA
BRANCH  13  15
ATOM     15  O   UNL A   1      33.158  15.973  26.030  1.00  0.00    -0.437 OA
ATOM     16  C   UNL A   1      32.186  14.962  25.755  1.00  0.00     0.286 C 
ENDBRANCH  13  15
ENDBRANCH  12  13
ENDBRANCH   7  12
ENDBRANCH   3   6
ENDBRANCH   1   2
BRANCH   1  17
ATOM     17  C   UNL A   1      38.358  19.385  25.063  1.00  0.00     0.042 C 
BRANCH  17  18
ATOM     18  C   UNL A   1      39.326  19.976  26.088  1.00  0.00     0.118 C 
BRANCH  18  19
ATOM     19  N   UNL A   1      40.580  19.236  26.129  1.00  0.00    -0.352 N 
ATOM     20  C   UNL A   1      41.878  19.668  26.128  1.00  0.00     0.251 C 
ATOM     21  H   UNL A   1      40.476  18.257  26.161  1.00  0.00     0.163 HD
ATOM     22  O   UNL A   1      42.774  18.862  25.885  1.00  0.00    -0.269 OA
BRANCH  20  23
ATOM     23  C   UNL A   1      42.223  21.077  26.417  1.00  0.00     0.039 A 
ATOM     24  C   UNL A   1      42.592  21.410  27.724  1.00  0.00     0.014 A 
ATOM     25  C   UNL A   1      42.111  22.079  25.450  1.00  0.00     0.014 A 
ATOM     26  C   UNL A   1      42.883  22.735  28.048  1.00  0.00     0.010 A 
ATOM     27  C   UNL A   1      42.483  23.387  25.753  1.00  0.00     0.010 A 
ATOM     28  C   UNL A   1      42.864  23.731  27.057  1.00  0.00    -0.014 A 
BRANCH  28  29
ATOM     29  C   UNL A   1      43.264  25.122  27.390  1.00  0.00     0.031 A 
ATOM     30  C   UNL A   1      44.648  25.624  27.086  1.00  0.00     0.074 A 
ATOM     31  C   UNL A   1      42.367  25.930  27.988  1.00  0.00     0.049 A 
ATOM     32  N   UNL A   1      45.152  26.820  27.272  1.00  0.00    -0.248 NA
ATOM     33  C   UNL A   1      45.600  24.657  26.521  1.00  0.00     0.031 C 
ATOM     34  C   UNL A   1      41.013  25.536  28.384  1.00  0.00     0.029 A 
ATOM     35  N   UNL A   1      42.450  27.248  28.356  1.00  0.00    -0.354 N 
ATOM     36  C   UNL A   1      46.473  26.745  26.850  1.00  0.00     0.074 A 
ATOM     37  C   UNL A   1      46.711  25.374  26.456  1.00  0.00     0.031 C 
ATOM     38  C   UNL A   1      40.378  26.599  28.899  1.00  0.00     0.029 A 
ATOM     39  C   UNL A   1      41.291  27.738  28.907  1.00  0.00     0.049 A 
ATOM     40  H   UNL A   1      43.262  27.792  28.237  1.00  0.00     0.167 HD
ATOM     41  C   UNL A   1      47.393  27.737  26.773  1.00  0.00     0.037 A 
ATOM     42  C   UNL A   1      40.996  28.968  29.367  1.00  0.00     0.037 A 
ATOM     43  C   UNL A   1      47.144  29.102  27.164  1.00  0.00     0.049 A 
ATOM     44  C   UNL A   1      42.040  30.046  29.278  1.00  0.00     0.074 A 
ATOM     45  C   UNL A   1      47.991  30.193  27.078  1.00  0.00     0.029 A 
ATOM     46  N   UNL A   1      45.962  29.561  27.726  1.00  0.00    -0.354 N 
ATOM     47  N   UNL A   1      43.258  29.985  28.798  1.00  0.00    -0.248 NA
ATOM     48  C   UNL A   1      41.659  31.371  29.783  1.00  0.00     0.031 C 
ATOM     49  C   UNL A   1      47.344  31.297  27.646  1.00  0.00     0.029 A 
ATOM     50  C   UNL A   1      46.067  30.912  28.020  1.00  0.00     0.049 A 
ATOM     51  H   UNL A   1      45.163  29.009  27.891  1.00  0.00     0.167 HD
ATOM     52  C   UNL A   1      43.783  31.264  28.922  1.00  0.00     0.074 A 
ATOM     53  C   UNL A   1      42.735  32.087  29.491  1.00  0.00     0.031 C 
ATOM     54  C   UNL A   1      45.020  31.717  28.599  1.00  0.00     0.037 A 
BRANCH  41  55
ATOM     55  C   UNL A   1      48.759  27.383  26.252  1.00  0.00     0.064 A 
ATOM     56  C   UNL A   1      49.789  26.959  27.108  1.00  0.00     0.173 A 
ATOM     57  C   UNL A   1      49.032  27.426  24.876  1.00  0.00     0.173 A 
ATOM     58  F   UNL A   1      49.588  26.906  28.434  1.00  0.00    -0.203 F 
ATOM     59  C   UNL A   1      51.046  26.623  26.610  1.00  0.00     0.198 A 
ATOM     60  C   UNL A   1      50.279  27.057  24.379  1.00  0.00     0.198 A 
ATOM     61  F   UNL A   1      48.084  27.817  24.011  1.00  0.00    -0.203 F 
ATOM     62  F   UNL A   1      52.028  26.274  27.453  1.00  0.00    -0.200 F 
ATOM     63  C   UNL A   1      51.287  26.665  25.246  1.00  0.00     0.200 A 
ATOM     64  F   UNL A   1      50.505  27.080  23.058  1.00  0.00    -0.200 F 
ATOM     65  F   UNL A   1      52.495  26.332  24.766  1.00  0.00    -0.200 F 
ENDBRANCH  41  55
BRANCH  42  66
ATOM     66  C   UNL A   1      39.648  29.249  29.931  1.00  0.00     0.064 A 
ATOM     67  C   UNL A   1      38.615  29.744  29.123  1.00  0.00     0.173 A 
ATOM     68  C   UNL A   1      39.367  29.034  31.287  1.00  0.00     0.173 A 
ATOM     69  F   UNL A   1      38.838  29.982  27.821  1.00  0.00    -0.203 F 
ATOM     70  C   UNL A   1      37.363  30.040  29.656  1.00  0.00     0.198 A 
ATOM     71  C   UNL A   1      38.104  29.297  31.812  1.00  0.00     0.198 A 
ATOM     72  F   UNL A   1      40.317  28.552  32.104  1.00  0.00    -0.203 F 
ATOM     73  F   UNL A   1      36.411  30.565  28.872  1.00  0.00    -0.200 F 
ATOM     74  C   UNL A   1      37.106  29.811  30.999  1.00  0.00     0.200 A 
ATOM     75  F   UNL A   1      37.854  29.054  33.106  1.00  0.00    -0.200 F 
ATOM     76  F   UNL A   1      35.900  30.092  31.511  1.00  0.00    -0.200 F 
ENDBRANCH  42  66
BRANCH  54  77
ATOM     77  C   UNL A   1      45.292  33.177  28.835  1.00  0.00     0.064 A 
ATOM     78  C   UNL A   1      45.837  33.642  30.043  1.00  0.00     0.173 A 
ATOM     79  C   UNL A   1      44.997  34.124  27.843  1.00  0.00     0.173 A 
ATOM     80  F   UNL A   1      46.126  32.780  31.029  1.00  0.00    -0.203 F 
ATOM     81  C   UNL A   1      46.028  35.003  30.266  1.00  0.00     0.198 A 
ATOM     82  C   UNL A   1      45.228  35.481  28.054  1.00  0.00     0.198 A 
ATOM     83  F   UNL A   1      44.484  33.736  26.666  1.00  0.00    -0.203 F 
ATOM     84  F   UNL A   1      46.474  35.428  31.456  1.00  0.00    -0.200 F 
ATOM     85  C   UNL A   1      45.728  35.921  29.270  1.00  0.00     0.200 A 
ATOM     86  F   UNL A   1      44.955  36.364  27.084  1.00  0.00    -0.200 F 
ATOM     87  F   UNL A   1      45.908  37.231  29.488  1.00  0.00    -0.200 F 
ENDBRANCH  54  77
ENDBRANCH  28  29
ENDBRANCH  20  23
ENDBRANCH  18  19
ENDBRANCH  17  18
ENDBRANCH   1  17
TORSDOF 13
ENDMDL
