MODEL 1
REMARK VINA RESULT:     -13.0      0.000      0.000
REMARK SMILES O=C(NCCCNC(=O)c1cnccc1C(=O)Nc1ccc(Cl)c(Cl)c1)c1ccc(-c2c3nc(c(-c4c(F)c(F)c(F)c(F)c4F)c4ccc([nH]4)c(-c4c(F)c(F)c(F)c(F)c4F)c4nc(c(-c5c(F)c(F)c(F)c(F)c5F)c5ccc2[nH]5)C=C4)C=C3)cc1
REMARK SMILES IDX 5 1 4 2 3 3 1 4 2 5 27 7 28 8 89 9 29 10 88 11 30 12 31 13
REMARK SMILES IDX 32 14 82 15 33 16 87 17 81 18 83 19 34 20 86 21 80 22 79 23
REMARK SMILES IDX 35 25 67 26 47 27 66 28 48 29 51 30 65 31 84 32 49 33 50 34
REMARK SMILES IDX 64 36 85 37 52 38 36 39 37 40 45 41 38 42 39 43 43 44 46 45
REMARK SMILES IDX 40 46 41 47 44 48 42 49 68 50 69 51 77 52 70 53 71 54 75 55
REMARK SMILES IDX 78 56 72 57 73 58 76 59 74 60 53 61 54 62 62 63 55 64 56 65
REMARK SMILES IDX 60 66 63 67 57 68 58 69 61 70 59 71 6 72 7 73 8 74 9 76
REMARK SMILES IDX 10 77 11 78 15 79 12 80 14 81 13 82 16 83 17 84 18 85 19 87
REMARK SMILES IDX 20 88 26 89 21 90 24 91 22 92 25 93 23 94
REMARK H PARENT 3 6 83 24 51 35 7 75 18 86
REMARK Flexibility Score: inf
ROOT
ATOM      1  C   UNL A   1      31.937  31.633  26.616  1.00  0.00     0.042 C 
ENDROOT
BRANCH   1   2
ATOM      2  C   UNL A   1      32.959  32.470  27.372  1.00  0.00     0.118 C 
BRANCH   2   3
ATOM      3  N   UNL A   1      32.529  33.838  27.629  1.00  0.00    -0.352 N 
ATOM      4  O   UNL A   1      32.529  35.836  28.700  1.00  0.00    -0.269 OA
ATOM      5  C   UNL A   1      33.049  34.743  28.532  1.00  0.00     0.251 C 
ATOM      6  H   UNL A   1      31.771  34.159  27.089  1.00  0.00     0.163 HD
BRANCH   5   7
ATOM      7  C   UNL A   1      34.222  34.337  29.335  1.00  0.00     0.039 A 
ATOM      8  C   UNL A   1      35.507  34.566  28.847  1.00  0.00     0.014 A 
ATOM      9  C   UNL A   1      34.029  33.617  30.517  1.00  0.00     0.014 A 
ATOM     10  C   UNL A   1      36.576  33.887  29.413  1.00  0.00     0.010 A 
ATOM     11  C   UNL A   1      35.130  33.042  31.161  1.00  0.00     0.010 A 
ATOM     12  C   UNL A   1      36.406  33.126  30.585  1.00  0.00    -0.014 A 
BRANCH  12  13
ATOM     13  C   UNL A   1      37.601  32.480  31.189  1.00  0.00     0.031 A 
ATOM     14  C   UNL A   1      38.051  32.790  32.591  1.00  0.00     0.074 A 
ATOM     15  C   UNL A   1      38.238  31.535  30.470  1.00  0.00     0.049 A 
ATOM     16  N   UNL A   1      39.046  32.269  33.269  1.00  0.00    -0.248 NA
ATOM     17  C   UNL A   1      37.306  33.821  33.329  1.00  0.00     0.031 C 
ATOM     18  C   UNL A   1      37.903  31.164  29.092  1.00  0.00     0.029 A 
ATOM     19  N   UNL A   1      39.259  30.683  30.802  1.00  0.00    -0.354 N 
ATOM     20  C   UNL A   1      39.064  32.926  34.493  1.00  0.00     0.074 A 
ATOM     21  C   UNL A   1      37.989  33.895  34.464  1.00  0.00     0.031 C 
ATOM     22  C   UNL A   1      38.640  30.108  28.728  1.00  0.00     0.029 A 
ATOM     23  C   UNL A   1      39.555  29.777  29.813  1.00  0.00     0.049 A 
ATOM     24  H   UNL A   1      39.733  30.718  31.664  1.00  0.00     0.167 HD
ATOM     25  C   UNL A   1      39.900  32.733  35.542  1.00  0.00     0.037 A 
ATOM     26  C   UNL A   1      40.471  28.793  29.774  1.00  0.00     0.037 A 
ATOM     27  C   UNL A   1      40.951  31.747  35.574  1.00  0.00     0.049 A 
ATOM     28  C   UNL A   1      41.353  28.578  30.966  1.00  0.00     0.074 A 
ATOM     29  C   UNL A   1      41.852  31.476  36.590  1.00  0.00     0.029 A 
ATOM     30  N   UNL A   1      41.233  30.859  34.546  1.00  0.00    -0.354 N 
ATOM     31  N   UNL A   1      41.368  29.221  32.107  1.00  0.00    -0.248 NA
ATOM     32  C   UNL A   1      42.354  27.510  30.860  1.00  0.00     0.031 C 
ATOM     33  C   UNL A   1      42.696  30.442  36.167  1.00  0.00     0.029 A 
ATOM     34  C   UNL A   1      42.296  30.043  34.902  1.00  0.00     0.049 A 
ATOM     35  H   UNL A   1      40.749  30.815  33.691  1.00  0.00     0.167 HD
ATOM     36  C   UNL A   1      42.385  28.648  32.851  1.00  0.00     0.074 A 
ATOM     37  C   UNL A   1      42.935  27.573  32.050  1.00  0.00     0.031 C 
ATOM     38  C   UNL A   1      42.838  28.992  34.081  1.00  0.00     0.037 A 
BRANCH  25  39
ATOM     39  C   UNL A   1      39.729  33.613  36.748  1.00  0.00     0.064 A 
ATOM     40  C   UNL A   1      40.350  34.866  36.837  1.00  0.00     0.173 A 
ATOM     41  C   UNL A   1      38.876  33.227  37.794  1.00  0.00     0.173 A 
ATOM     42  F   UNL A   1      41.183  35.277  35.870  1.00  0.00    -0.203 F 
ATOM     43  C   UNL A   1      40.133  35.697  37.935  1.00  0.00     0.198 A 
ATOM     44  C   UNL A   1      38.644  34.068  38.879  1.00  0.00     0.198 A 
ATOM     45  F   UNL A   1      38.251  32.040  37.754  1.00  0.00    -0.203 F 
ATOM     46  F   UNL A   1      40.760  36.879  38.014  1.00  0.00    -0.200 F 
ATOM     47  C   UNL A   1      39.274  35.301  38.950  1.00  0.00     0.200 A 
ATOM     48  F   UNL A   1      37.805  33.689  39.853  1.00  0.00    -0.200 F 
ATOM     49  F   UNL A   1      39.057  36.106  39.999  1.00  0.00    -0.200 F 
ENDBRANCH  25  39
BRANCH  26  50
ATOM     50  C   UNL A   1      40.592  27.955  28.556  1.00  0.00     0.064 A 
ATOM     51  C   UNL A   1      41.365  28.372  27.464  1.00  0.00     0.173 A 
ATOM     52  C   UNL A   1      39.967  26.702  28.474  1.00  0.00     0.173 A 
ATOM     53  F   UNL A   1      41.968  29.570  27.490  1.00  0.00    -0.203 F 
ATOM     54  C   UNL A   1      41.499  27.571  26.332  1.00  0.00     0.198 A 
ATOM     55  C   UNL A   1      40.127  25.888  27.356  1.00  0.00     0.198 A 
ATOM     56  F   UNL A   1      39.224  26.255  29.497  1.00  0.00    -0.203 F 
ATOM     57  F   UNL A   1      42.215  28.007  25.287  1.00  0.00    -0.200 F 
ATOM     58  C   UNL A   1      40.889  26.326  26.283  1.00  0.00     0.200 A 
ATOM     59  F   UNL A   1      39.553  24.678  27.324  1.00  0.00    -0.200 F 
ATOM     60  F   UNL A   1      41.031  25.550  25.202  1.00  0.00    -0.200 F 
ENDBRANCH  26  50
BRANCH  38  61
ATOM     61  C   UNL A   1      43.990  28.197  34.616  1.00  0.00     0.064 A 
ATOM     62  C   UNL A   1      43.782  27.019  35.349  1.00  0.00     0.173 A 
ATOM     63  C   UNL A   1      45.310  28.617  34.399  1.00  0.00     0.173 A 
ATOM     64  F   UNL A   1      42.535  26.591  35.597  1.00  0.00    -0.203 F 
ATOM     65  C   UNL A   1      44.856  26.307  35.874  1.00  0.00     0.198 A 
ATOM     66  C   UNL A   1      46.382  27.888  34.905  1.00  0.00     0.198 A 
ATOM     67  F   UNL A   1      45.558  29.736  33.702  1.00  0.00    -0.203 F 
ATOM     68  F   UNL A   1      44.633  25.214  36.618  1.00  0.00    -0.200 F 
ATOM     69  C   UNL A   1      46.154  26.740  35.649  1.00  0.00     0.200 A 
ATOM     70  F   UNL A   1      47.637  28.303  34.683  1.00  0.00    -0.200 F 
ATOM     71  F   UNL A   1      47.186  26.057  36.163  1.00  0.00    -0.200 F 
ENDBRANCH  38  61
ENDBRANCH  12  13
ENDBRANCH   5   7
ENDBRANCH   2   3
ENDBRANCH   1   2
BRANCH   1  72
ATOM     72  C   UNL A   1      32.191  30.144  26.729  1.00  0.00     0.118 C 
BRANCH  72  73
ATOM     73  N   UNL A   1      33.205  29.705  25.783  1.00  0.00    -0.352 N 
ATOM     74  C   UNL A   1      33.102  28.904  24.687  1.00  0.00     0.253 C 
ATOM     75  H   UNL A   1      34.112  30.042  25.965  1.00  0.00     0.163 HD
ATOM     76  O   UNL A   1      34.125  28.572  24.093  1.00  0.00    -0.269 OA
BRANCH  74  77
ATOM     77  C   UNL A   1      31.813  28.374  24.234  1.00  0.00     0.070 A 
ATOM     78  C   UNL A   1      31.346  28.957  23.057  1.00  0.00     0.125 A 
ATOM     79  C   UNL A   1      31.036  27.378  24.827  1.00  0.00     0.056 A 
ATOM     80  N   UNL A   1      30.229  28.567  22.402  1.00  0.00    -0.264 NA
ATOM     81  C   UNL A   1      29.885  26.949  24.141  1.00  0.00     0.035 A 
ATOM     82  C   UNL A   1      29.533  27.556  22.948  1.00  0.00     0.112 A 
BRANCH  79  83
ATOM     83  C   UNL A   1      31.354  26.589  26.045  1.00  0.00     0.256 C 
ATOM     84  O   UNL A   1      30.691  26.838  27.057  1.00  0.00    -0.269 OA
ATOM     85  N   UNL A   1      32.232  25.537  26.125  1.00  0.00    -0.322 N 
ATOM     86  H   UNL A   1      32.163  25.035  26.969  1.00  0.00     0.170 HD
BRANCH  85  87
ATOM     87  C   UNL A   1      33.200  25.030  25.258  1.00  0.00     0.043 A 
ATOM     88  C   UNL A   1      32.962  24.745  23.916  1.00  0.00     0.028 A 
ATOM     89  C   UNL A   1      34.461  24.775  25.810  1.00  0.00     0.048 A 
ATOM     90  C   UNL A   1      33.959  24.127  23.153  1.00  0.00     0.024 A 
ATOM     91  C   UNL A   1      35.441  24.118  25.062  1.00  0.00     0.061 A 
ATOM     92  C   UNL A   1      35.188  23.787  23.729  1.00  0.00     0.059 A 
ATOM     93  Cl  UNL A   1      36.912  23.701  25.866  1.00  0.00    -0.083 Cl
ATOM     94  Cl  UNL A   1      36.339  22.950  22.751  1.00  0.00    -0.083 Cl
ENDBRANCH  85  87
ENDBRANCH  79  83
ENDBRANCH  74  77
ENDBRANCH  72  73
ENDBRANCH   1  72
TORSDOF 12
ENDMDL
MODEL 2
REMARK VINA RESULT:     -12.9      0.619      7.422
REMARK SMILES O=C(NCCCNC(=O)c1cnccc1C(=O)Nc1ccc(Cl)c(Cl)c1)c1ccc(-c2c3nc(c(-c4c(F)c(F)c(F)c(F)c4F)c4ccc([nH]4)c(-c4c(F)c(F)c(F)c(F)c4F)c4nc(c(-c5c(F)c(F)c(F)c(F)c5F)c5ccc2[nH]5)C=C4)C=C3)cc1
REMARK SMILES IDX 5 1 4 2 3 3 1 4 2 5 27 7 28 8 89 9 29 10 88 11 30 12 31 13
REMARK SMILES IDX 32 14 82 15 33 16 87 17 81 18 83 19 34 20 86 21 80 22 79 23
REMARK SMILES IDX 35 25 67 26 47 27 66 28 48 29 51 30 65 31 84 32 49 33 50 34
REMARK SMILES IDX 64 36 85 37 52 38 36 39 37 40 45 41 38 42 39 43 43 44 46 45
REMARK SMILES IDX 40 46 41 47 44 48 42 49 68 50 69 51 77 52 70 53 71 54 75 55
REMARK SMILES IDX 78 56 72 57 73 58 76 59 74 60 53 61 54 62 62 63 55 64 56 65
REMARK SMILES IDX 60 66 63 67 57 68 58 69 61 70 59 71 6 72 7 73 8 74 9 76
REMARK SMILES IDX 10 77 11 78 15 79 12 80 14 81 13 82 16 83 17 84 18 85 19 87
REMARK SMILES IDX 20 88 26 89 21 90 24 91 22 92 25 93 23 94
REMARK H PARENT 3 6 83 24 51 35 7 75 18 86
REMARK Flexibility Score: inf
ROOT
ATOM      1  C   UNL A   1      31.799  32.017  26.611  1.00  0.00     0.042 C 
ENDROOT
BRANCH   1   2
ATOM      2  C   UNL A   1      32.834  32.790  27.416  1.00  0.00     0.118 C 
BRANCH   2   3
ATOM      3  N   UNL A   1      32.465  34.174  27.680  1.00  0.00    -0.352 N 
ATOM      4  O   UNL A   1      32.522  36.153  28.784  1.00  0.00    -0.269 OA
ATOM      5  C   UNL A   1      32.992  35.036  28.620  1.00  0.00     0.251 C 
ATOM      6  H   UNL A   1      31.749  34.543  27.113  1.00  0.00     0.163 HD
BRANCH   5   7
ATOM      7  C   UNL A   1      34.105  34.556  29.465  1.00  0.00     0.039 A 
ATOM      8  C   UNL A   1      35.409  34.585  28.974  1.00  0.00     0.014 A 
ATOM      9  C   UNL A   1      33.825  33.964  30.699  1.00  0.00     0.014 A 
ATOM     10  C   UNL A   1      36.386  33.829  29.603  1.00  0.00     0.010 A 
ATOM     11  C   UNL A   1      34.846  33.313  31.399  1.00  0.00     0.010 A 
ATOM     12  C   UNL A   1      36.123  33.193  30.832  1.00  0.00    -0.014 A 
BRANCH  12  13
ATOM     13  C   UNL A   1      37.229  32.457  31.499  1.00  0.00     0.031 A 
ATOM     14  C   UNL A   1      38.024  31.397  30.785  1.00  0.00     0.074 A 
ATOM     15  C   UNL A   1      37.563  32.820  32.753  1.00  0.00     0.049 A 
ATOM     16  N   UNL A   1      39.049  30.704  31.222  1.00  0.00    -0.248 NA
ATOM     17  C   UNL A   1      37.619  31.056  29.413  1.00  0.00     0.031 C 
ATOM     18  C   UNL A   1      36.850  33.820  33.552  1.00  0.00     0.029 A 
ATOM     19  N   UNL A   1      38.601  32.433  33.559  1.00  0.00    -0.354 N 
ATOM     20  C   UNL A   1      39.389  29.831  30.197  1.00  0.00     0.074 A 
ATOM     21  C   UNL A   1      38.455  30.068  29.117  1.00  0.00     0.031 C 
ATOM     22  C   UNL A   1      37.519  34.032  34.692  1.00  0.00     0.029 A 
ATOM     23  C   UNL A   1      38.660  33.127  34.742  1.00  0.00     0.049 A 
ATOM     24  H   UNL A   1      39.243  31.728  33.313  1.00  0.00     0.167 HD
ATOM     25  C   UNL A   1      40.391  28.919  30.163  1.00  0.00     0.037 A 
ATOM     26  C   UNL A   1      39.528  33.040  35.766  1.00  0.00     0.037 A 
ATOM     27  C   UNL A   1      41.335  28.707  31.232  1.00  0.00     0.049 A 
ATOM     28  C   UNL A   1      40.649  32.050  35.681  1.00  0.00     0.074 A 
ATOM     29  C   UNL A   1      42.384  27.805  31.293  1.00  0.00     0.029 A 
ATOM     30  N   UNL A   1      41.351  29.416  32.424  1.00  0.00    -0.354 N 
ATOM     31  N   UNL A   1      40.944  31.220  34.711  1.00  0.00    -0.248 NA
ATOM     32  C   UNL A   1      41.551  31.976  36.836  1.00  0.00     0.031 C 
ATOM     33  C   UNL A   1      43.019  27.951  32.532  1.00  0.00     0.029 A 
ATOM     34  C   UNL A   1      42.389  28.970  33.228  1.00  0.00     0.049 A 
ATOM     35  H   UNL A   1      40.719  30.132  32.663  1.00  0.00     0.167 HD
ATOM     36  C   UNL A   1      42.055  30.514  35.142  1.00  0.00     0.074 A 
ATOM     37  C   UNL A   1      42.410  31.047  36.442  1.00  0.00     0.031 C 
ATOM     38  C   UNL A   1      42.713  29.503  34.526  1.00  0.00     0.037 A 
BRANCH  25  39
ATOM     39  C   UNL A   1      40.521  28.063  28.935  1.00  0.00     0.064 A 
ATOM     40  C   UNL A   1      39.847  26.840  28.817  1.00  0.00     0.173 A 
ATOM     41  C   UNL A   1      41.272  28.507  27.835  1.00  0.00     0.173 A 
ATOM     42  F   UNL A   1      39.125  26.365  29.843  1.00  0.00    -0.203 F 
ATOM     43  C   UNL A   1      39.929  26.086  27.648  1.00  0.00     0.198 A 
ATOM     44  C   UNL A   1      41.334  27.762  26.660  1.00  0.00     0.198 A 
ATOM     45  F   UNL A   1      41.931  29.675  27.893  1.00  0.00    -0.203 F 
ATOM     46  F   UNL A   1      39.299  24.906  27.568  1.00  0.00    -0.200 F 
ATOM     47  C   UNL A   1      40.665  26.551  26.568  1.00  0.00     0.200 A 
ATOM     48  F   UNL A   1      42.036  28.219  25.614  1.00  0.00    -0.200 F 
ATOM     49  F   UNL A   1      40.732  25.831  25.440  1.00  0.00    -0.200 F 
ENDBRANCH  25  39
BRANCH  26  50
ATOM     50  C   UNL A   1      39.350  33.913  36.952  1.00  0.00     0.064 A 
ATOM     51  C   UNL A   1      38.676  33.457  38.092  1.00  0.00     0.173 A 
ATOM     52  C   UNL A   1      39.884  35.210  36.982  1.00  0.00     0.173 A 
ATOM     53  F   UNL A   1      38.133  32.230  38.103  1.00  0.00    -0.203 F 
ATOM     54  C   UNL A   1      38.533  34.270  39.214  1.00  0.00     0.198 A 
ATOM     55  C   UNL A   1      39.769  36.009  38.116  1.00  0.00     0.198 A 
ATOM     56  F   UNL A   1      40.546  35.688  35.919  1.00  0.00    -0.203 F 
ATOM     57  F   UNL A   1      37.854  33.824  40.280  1.00  0.00    -0.200 F 
ATOM     58  C   UNL A   1      39.089  35.541  39.229  1.00  0.00     0.200 A 
ATOM     59  F   UNL A   1      40.326  37.228  38.132  1.00  0.00    -0.200 F 
ATOM     60  F   UNL A   1      38.965  36.316  40.315  1.00  0.00    -0.200 F 
ENDBRANCH  26  50
BRANCH  38  61
ATOM     61  C   UNL A   1      43.871  28.909  35.267  1.00  0.00     0.064 A 
ATOM     62  C   UNL A   1      43.685  27.883  36.205  1.00  0.00     0.173 A 
ATOM     63  C   UNL A   1      45.176  29.370  35.042  1.00  0.00     0.173 A 
ATOM     64  F   UNL A   1      42.451  27.424  36.466  1.00  0.00    -0.203 F 
ATOM     65  C   UNL A   1      44.761  27.362  36.917  1.00  0.00     0.198 A 
ATOM     66  C   UNL A   1      46.253  28.829  35.738  1.00  0.00     0.198 A 
ATOM     67  F   UNL A   1      45.404  30.347  34.151  1.00  0.00    -0.203 F 
ATOM     68  F   UNL A   1      44.553  26.420  37.848  1.00  0.00    -0.200 F 
ATOM     69  C   UNL A   1      46.044  27.833  36.680  1.00  0.00     0.200 A 
ATOM     70  F   UNL A   1      47.494  29.279  35.505  1.00  0.00    -0.200 F 
ATOM     71  F   UNL A   1      47.078  27.335  37.372  1.00  0.00    -0.200 F 
ENDBRANCH  38  61
ENDBRANCH  12  13
ENDBRANCH   5   7
ENDBRANCH   2   3
ENDBRANCH   1   2
BRANCH   1  72
ATOM     72  C   UNL A   1      31.871  30.520  26.836  1.00  0.00     0.118 C 
BRANCH  72  73
ATOM     73  N   UNL A   1      33.042  29.943  26.196  1.00  0.00    -0.352 N 
ATOM     74  C   UNL A   1      33.138  29.024  25.195  1.00  0.00     0.253 C 
ATOM     75  H   UNL A   1      33.904  30.269  26.542  1.00  0.00     0.163 HD
ATOM     76  O   UNL A   1      34.246  28.593  24.887  1.00  0.00    -0.269 OA
BRANCH  74  77
ATOM     77  C   UNL A   1      31.954  28.488  24.520  1.00  0.00     0.070 A 
ATOM     78  C   UNL A   1      31.609  29.174  23.357  1.00  0.00     0.125 A 
ATOM     79  C   UNL A   1      31.168  27.398  24.897  1.00  0.00     0.056 A 
ATOM     80  N   UNL A   1      30.612  28.807  22.520  1.00  0.00    -0.264 NA
ATOM     81  C   UNL A   1      30.143  26.994  24.021  1.00  0.00     0.035 A 
ATOM     82  C   UNL A   1      29.913  27.711  22.860  1.00  0.00     0.112 A 
BRANCH  79  83
ATOM     83  C   UNL A   1      31.372  26.496  26.060  1.00  0.00     0.256 C 
ATOM     84  O   UNL A   1      30.659  26.695  27.049  1.00  0.00    -0.269 OA
ATOM     85  N   UNL A   1      32.193  25.397  26.100  1.00  0.00    -0.322 N 
ATOM     86  H   UNL A   1      32.048  24.832  26.894  1.00  0.00     0.170 HD
BRANCH  85  87
ATOM     87  C   UNL A   1      33.189  24.915  25.251  1.00  0.00     0.043 A 
ATOM     88  C   UNL A   1      32.970  24.577  23.919  1.00  0.00     0.028 A 
ATOM     89  C   UNL A   1      34.460  24.741  25.814  1.00  0.00     0.048 A 
ATOM     90  C   UNL A   1      34.000  23.987  23.177  1.00  0.00     0.024 A 
ATOM     91  C   UNL A   1      35.475  24.113  25.088  1.00  0.00     0.061 A 
ATOM     92  C   UNL A   1      35.243  23.729  23.765  1.00  0.00     0.059 A 
ATOM     93  Cl  UNL A   1      36.962  23.796  25.907  1.00  0.00    -0.083 Cl
ATOM     94  Cl  UNL A   1      36.439  22.922  22.816  1.00  0.00    -0.083 Cl
ENDBRANCH  85  87
ENDBRANCH  79  83
ENDBRANCH  74  77
ENDBRANCH  72  73
ENDBRANCH   1  72
TORSDOF 12
ENDMDL
MODEL 3
REMARK VINA RESULT:     -12.9      5.528     10.886
REMARK SMILES O=C(NCCCNC(=O)c1cnccc1C(=O)Nc1ccc(Cl)c(Cl)c1)c1ccc(-c2c3nc(c(-c4c(F)c(F)c(F)c(F)c4F)c4ccc([nH]4)c(-c4c(F)c(F)c(F)c(F)c4F)c4nc(c(-c5c(F)c(F)c(F)c(F)c5F)c5ccc2[nH]5)C=C4)C=C3)cc1
REMARK SMILES IDX 5 1 4 2 3 3 1 4 2 5 27 7 28 8 89 9 29 10 88 11 30 12 31 13
REMARK SMILES IDX 32 14 82 15 33 16 87 17 81 18 83 19 34 20 86 21 80 22 79 23
REMARK SMILES IDX 35 25 67 26 47 27 66 28 48 29 51 30 65 31 84 32 49 33 50 34
REMARK SMILES IDX 64 36 85 37 52 38 36 39 37 40 45 41 38 42 39 43 43 44 46 45
REMARK SMILES IDX 40 46 41 47 44 48 42 49 68 50 69 51 77 52 70 53 71 54 75 55
REMARK SMILES IDX 78 56 72 57 73 58 76 59 74 60 53 61 54 62 62 63 55 64 56 65
REMARK SMILES IDX 60 66 63 67 57 68 58 69 61 70 59 71 6 72 7 73 8 74 9 76
REMARK SMILES IDX 10 77 11 78 15 79 12 80 14 81 13 82 16 83 17 84 18 85 19 87
REMARK SMILES IDX 20 88 26 89 21 90 24 91 22 92 25 93 23 94
REMARK H PARENT 3 6 83 24 51 35 7 75 18 86
REMARK Flexibility Score: inf
ROOT
ATOM      1  C   UNL A   1      37.861  20.492  25.053  1.00  0.00     0.042 C 
ENDROOT
BRANCH   1   2
ATOM      2  C   UNL A   1      39.163  20.677  25.819  1.00  0.00     0.118 C 
BRANCH   2   3
ATOM      3  N   UNL A   1      40.011  19.493  25.839  1.00  0.00    -0.352 N 
ATOM      4  O   UNL A   1      41.966  18.354  25.966  1.00  0.00    -0.269 OA
ATOM      5  C   UNL A   1      41.370  19.417  26.063  1.00  0.00     0.251 C 
ATOM      6  H   UNL A   1      39.555  18.636  25.673  1.00  0.00     0.163 HD
BRANCH   5   7
ATOM      7  C   UNL A   1      42.101  20.664  26.370  1.00  0.00     0.039 A 
ATOM      8  C   UNL A   1      42.339  21.018  27.697  1.00  0.00     0.014 A 
ATOM      9  C   UNL A   1      42.436  21.537  25.332  1.00  0.00     0.014 A 
ATOM     10  C   UNL A   1      42.698  22.323  27.995  1.00  0.00     0.010 A 
ATOM     11  C   UNL A   1      42.925  22.812  25.635  1.00  0.00     0.010 A 
ATOM     12  C   UNL A   1      43.010  23.236  26.968  1.00  0.00    -0.014 A 
BRANCH  12  13
ATOM     13  C   UNL A   1      43.460  24.601  27.348  1.00  0.00     0.031 A 
ATOM     14  C   UNL A   1      44.845  25.099  27.035  1.00  0.00     0.074 A 
ATOM     15  C   UNL A   1      42.559  25.427  27.918  1.00  0.00     0.049 A 
ATOM     16  N   UNL A   1      45.364  26.282  27.261  1.00  0.00    -0.248 NA
ATOM     17  C   UNL A   1      45.776  24.154  26.400  1.00  0.00     0.031 C 
ATOM     18  C   UNL A   1      41.193  25.047  28.287  1.00  0.00     0.029 A 
ATOM     19  N   UNL A   1      42.632  26.755  28.244  1.00  0.00    -0.354 N 
ATOM     20  C   UNL A   1      46.681  26.214  26.827  1.00  0.00     0.074 A 
ATOM     21  C   UNL A   1      46.892  24.870  26.334  1.00  0.00     0.031 C 
ATOM     22  C   UNL A   1      40.531  26.134  28.704  1.00  0.00     0.029 A 
ATOM     23  C   UNL A   1      41.447  27.268  28.710  1.00  0.00     0.049 A 
ATOM     24  H   UNL A   1      43.454  27.290  28.152  1.00  0.00     0.167 HD
ATOM     25  C   UNL A   1      47.624  27.189  26.837  1.00  0.00     0.037 A 
ATOM     26  C   UNL A   1      41.128  28.511  29.112  1.00  0.00     0.037 A 
ATOM     27  C   UNL A   1      47.400  28.534  27.304  1.00  0.00     0.049 A 
ATOM     28  C   UNL A   1      42.182  29.576  29.073  1.00  0.00     0.074 A 
ATOM     29  C   UNL A   1      48.292  29.592  27.356  1.00  0.00     0.029 A 
ATOM     30  N   UNL A   1      46.190  29.010  27.787  1.00  0.00    -0.354 N 
ATOM     31  N   UNL A   1      43.427  29.488  28.676  1.00  0.00    -0.248 NA
ATOM     32  C   UNL A   1      41.790  30.907  29.549  1.00  0.00     0.031 C 
ATOM     33  C   UNL A   1      47.630  30.700  27.895  1.00  0.00     0.029 A 
ATOM     34  C   UNL A   1      46.314  30.345  28.144  1.00  0.00     0.049 A 
ATOM     35  H   UNL A   1      45.365  28.480  27.864  1.00  0.00     0.167 HD
ATOM     36  C   UNL A   1      43.974  30.747  28.866  1.00  0.00     0.074 A 
ATOM     37  C   UNL A   1      42.911  31.592  29.370  1.00  0.00     0.031 C 
ATOM     38  C   UNL A   1      45.247  31.162  28.660  1.00  0.00     0.037 A 
BRANCH  25  39
ATOM     39  C   UNL A   1      48.998  26.841  26.340  1.00  0.00     0.064 A 
ATOM     40  C   UNL A   1      49.959  26.260  27.179  1.00  0.00     0.173 A 
ATOM     41  C   UNL A   1      49.334  27.025  24.988  1.00  0.00     0.173 A 
ATOM     42  F   UNL A   1      49.693  26.073  28.481  1.00  0.00    -0.203 F 
ATOM     43  C   UNL A   1      51.209  25.887  26.689  1.00  0.00     0.198 A 
ATOM     44  C   UNL A   1      50.575  26.631  24.496  1.00  0.00     0.198 A 
ATOM     45  F   UNL A   1      48.448  27.570  24.141  1.00  0.00    -0.203 F 
ATOM     46  F   UNL A   1      52.122  25.360  27.516  1.00  0.00    -0.200 F 
ATOM     47  C   UNL A   1      51.513  26.065  25.347  1.00  0.00     0.200 A 
ATOM     48  F   UNL A   1      50.863  26.793  23.197  1.00  0.00    -0.200 F 
ATOM     49  F   UNL A   1      52.711  25.695  24.874  1.00  0.00    -0.200 F 
ENDBRANCH  25  39
BRANCH  26  50
ATOM     50  C   UNL A   1      39.753  28.795  29.592  1.00  0.00     0.064 A 
ATOM     51  C   UNL A   1      38.780  29.320  28.732  1.00  0.00     0.173 A 
ATOM     52  C   UNL A   1      39.375  28.512  30.913  1.00  0.00     0.173 A 
ATOM     53  F   UNL A   1      39.099  29.623  27.465  1.00  0.00    -0.203 F 
ATOM     54  C   UNL A   1      37.483  29.560  29.178  1.00  0.00     0.198 A 
ATOM     55  C   UNL A   1      38.071  28.721  31.349  1.00  0.00     0.198 A 
ATOM     56  F   UNL A   1      40.270  27.999  31.771  1.00  0.00    -0.203 F 
ATOM     57  F   UNL A   1      36.579  30.095  28.346  1.00  0.00    -0.200 F 
ATOM     58  C   UNL A   1      37.126  29.252  30.483  1.00  0.00     0.200 A 
ATOM     59  F   UNL A   1      37.727  28.402  32.604  1.00  0.00    -0.200 F 
ATOM     60  F   UNL A   1      35.875  29.468  30.907  1.00  0.00    -0.200 F 
ENDBRANCH  26  50
BRANCH  38  61
ATOM     61  C   UNL A   1      45.547  32.591  28.995  1.00  0.00     0.064 A 
ATOM     62  C   UNL A   1      45.381  33.610  28.045  1.00  0.00     0.173 A 
ATOM     63  C   UNL A   1      46.008  32.945  30.271  1.00  0.00     0.173 A 
ATOM     64  F   UNL A   1      44.960  33.315  26.806  1.00  0.00    -0.203 F 
ATOM     65  C   UNL A   1      45.697  34.930  28.352  1.00  0.00     0.198 A 
ATOM     66  C   UNL A   1      46.300  34.270  30.581  1.00  0.00     0.198 A 
ATOM     67  F   UNL A   1      46.179  32.005  31.213  1.00  0.00    -0.203 F 
ATOM     68  F   UNL A   1      45.583  35.880  27.413  1.00  0.00    -0.200 F 
ATOM     69  C   UNL A   1      46.152  35.259  29.620  1.00  0.00     0.200 A 
ATOM     70  F   UNL A   1      46.734  34.589  31.808  1.00  0.00    -0.200 F 
ATOM     71  F   UNL A   1      46.464  36.529  29.911  1.00  0.00    -0.200 F 
ENDBRANCH  38  61
ENDBRANCH  12  13
ENDBRANCH   5   7
ENDBRANCH   2   3
ENDBRANCH   1   2
BRANCH   1  72
ATOM     72  C   UNL A   1      37.335  21.783  24.459  1.00  0.00     0.118 C 
BRANCH  72  73
ATOM     73  N   UNL A   1      36.744  22.635  25.478  1.00  0.00    -0.352 N 
ATOM     74  C   UNL A   1      35.441  22.822  25.825  1.00  0.00     0.253 C 
ATOM     75  H   UNL A   1      37.391  23.161  26.002  1.00  0.00     0.163 HD
ATOM     76  O   UNL A   1      35.162  23.687  26.652  1.00  0.00    -0.269 OA
BRANCH  74  77
ATOM     77  C   UNL A   1      34.356  22.067  25.195  1.00  0.00     0.070 A 
ATOM     78  C   UNL A   1      33.962  20.939  25.913  1.00  0.00     0.125 A 
ATOM     79  C   UNL A   1      33.691  22.350  24.000  1.00  0.00     0.056 A 
ATOM     80  N   UNL A   1      32.922  20.142  25.575  1.00  0.00    -0.264 NA
ATOM     81  C   UNL A   1      32.593  21.541  23.652  1.00  0.00     0.035 A 
ATOM     82  C   UNL A   1      32.247  20.473  24.462  1.00  0.00     0.112 A 
BRANCH  79  83
ATOM     83  C   UNL A   1      33.905  23.513  23.101  1.00  0.00     0.256 C 
ATOM     84  O   UNL A   1      34.425  23.280  22.005  1.00  0.00    -0.269 OA
ATOM     85  N   UNL A   1      33.481  24.799  23.323  1.00  0.00    -0.322 N 
ATOM     86  H   UNL A   1      33.559  25.378  22.530  1.00  0.00     0.170 HD
BRANCH  85  87
ATOM     87  C   UNL A   1      32.961  25.457  24.438  1.00  0.00     0.043 A 
ATOM     88  C   UNL A   1      31.668  25.262  24.915  1.00  0.00     0.028 A 
ATOM     89  C   UNL A   1      33.803  26.382  25.067  1.00  0.00     0.048 A 
ATOM     90  C   UNL A   1      31.192  26.054  25.967  1.00  0.00     0.024 A 
ATOM     91  C   UNL A   1      33.316  27.203  26.087  1.00  0.00     0.061 A 
ATOM     92  C   UNL A   1      32.003  27.043  26.536  1.00  0.00     0.059 A 
ATOM     93  Cl  UNL A   1      34.372  28.424  26.702  1.00  0.00    -0.083 Cl
ATOM     94  Cl  UNL A   1      31.322  28.039  27.771  1.00  0.00    -0.083 Cl
ENDBRANCH  85  87
ENDBRANCH  79  83
ENDBRANCH  74  77
ENDBRANCH  72  73
ENDBRANCH   1  72
TORSDOF 12
ENDMDL
