MODEL 1
REMARK VINA RESULT:     -13.3      0.000      0.000
REMARK SMILES O=C(Cc1ccn[nH]1)Nc1sc2c(c1C(=O)NCCCNC(=O)c1ccc(-c3c4nc(c(-c5c(F)c(F)c(F)c(F)c5F)c5ccc([nH]5)c(-c5c(F)c(F)c(F)c(F)c5F)c5nc(c(-c6c(F)c(F)c(F)c(F)c6F)c6ccc3[nH]6)C=C5)C=C4)cc1)CCC2
REMARK SMILES IDX 18 1 17 2 15 3 16 4 14 6 10 7 11 8 12 9 13 10 89 11 87 12
REMARK SMILES IDX 88 13 9 14 1 15 2 16 3 18 4 19 5 20 8 21 6 22 7 23 19 25
REMARK SMILES IDX 20 26 21 27 22 28 23 30 24 31 25 32 86 33 26 34 85 35 27 36
REMARK SMILES IDX 28 37 29 38 79 39 30 40 84 41 78 42 80 43 31 44 83 45 77 46
REMARK SMILES IDX 76 47 32 49 64 50 44 51 63 52 45 53 48 54 62 55 81 56 46 57
REMARK SMILES IDX 47 58 61 60 82 61 49 62 33 63 34 64 42 65 35 66 36 67 40 68
REMARK SMILES IDX 43 69 37 70 38 71 41 72 39 73 65 74 66 75 74 76 67 77 68 78
REMARK SMILES IDX 72 79 75 80 69 81 70 82 73 83 71 84 50 85 51 86 59 87 52 88
REMARK SMILES IDX 53 89 57 90 60 91 54 92 55 93 58 94 56 95
REMARK H PARENT 17 5 9 17 8 24 21 29 80 48 48 59
REMARK Flexibility Score: inf
ROOT
ATOM      1  C   UNL A   1      37.145  22.949  25.534  1.00  0.00     0.118 C 
ENDROOT
BRANCH   1   2
ATOM      2  N   UNL A   1      36.351  22.885  24.331  1.00  0.00    -0.352 N 
ATOM      3  C   UNL A   1      35.132  23.416  23.989  1.00  0.00     0.254 C 
ATOM      4  O   UNL A   1      35.006  23.557  22.766  1.00  0.00    -0.269 OA
ATOM      5  H   UNL A   1      36.765  22.353  23.612  1.00  0.00     0.163 HD
BRANCH   3   6
ATOM      6  C   UNL A   1      34.099  23.878  24.945  1.00  0.00     0.078 A 
ATOM      7  C   UNL A   1      33.329  22.943  25.655  1.00  0.00     0.108 A 
ATOM      8  S   UNL A   1      31.938  23.579  26.418  1.00  0.00    -0.122 S 
ATOM      9  C   UNL A   1      32.486  25.118  26.118  1.00  0.00     0.011 A 
ATOM     10  C   UNL A   1      33.629  25.183  25.358  1.00  0.00    -0.019 A 
ATOM     11  C   UNL A   1      31.920  26.422  26.537  1.00  0.00     0.047 C 
ATOM     12  C   UNL A   1      33.987  26.619  25.190  1.00  0.00     0.038 C 
ATOM     13  C   UNL A   1      33.094  27.369  26.214  1.00  0.00     0.010 C 
BRANCH   7  14
ATOM     14  N   UNL A   1      33.424  21.584  25.858  1.00  0.00    -0.317 N 
ATOM     15  O   UNL A   1      32.365  20.919  23.896  1.00  0.00    -0.274 OA
ATOM     16  C   UNL A   1      32.806  20.673  25.019  1.00  0.00     0.230 C 
ATOM     17  H   UNL A   1      33.947  21.250  26.623  1.00  0.00     0.170 HD
BRANCH  16  18
ATOM     18  C   UNL A   1      32.826  19.255  25.569  1.00  0.00     0.155 C 
BRANCH  18  19
ATOM     19  C   UNL A   1      33.203  18.287  24.500  1.00  0.00     0.044 A 
ATOM     20  C   UNL A   1      34.306  17.477  24.341  1.00  0.00     0.045 A 
ATOM     21  N   UNL A   1      32.406  18.049  23.409  1.00  0.00    -0.282 N 
ATOM     22  C   UNL A   1      34.099  16.826  23.113  1.00  0.00     0.135 A 
ATOM     23  N   UNL A   1      32.951  17.186  22.536  1.00  0.00    -0.184 NA
ATOM     24  H   UNL A   1      31.525  18.468  23.278  1.00  0.00     0.190 HD
ENDBRANCH  18  19
ENDBRANCH  16  18
ENDBRANCH   7  14
ENDBRANCH   3   6
ENDBRANCH   1   2
BRANCH   1  25
ATOM     25  C   UNL A   1      38.243  21.887  25.581  1.00  0.00     0.042 C 
BRANCH  25  26
ATOM     26  C   UNL A   1      39.291  22.137  26.642  1.00  0.00     0.118 C 
BRANCH  26  27
ATOM     27  N   UNL A   1      40.658  22.108  26.108  1.00  0.00    -0.352 N 
ATOM     28  C   UNL A   1      41.574  23.143  26.048  1.00  0.00     0.251 C 
ATOM     29  H   UNL A   1      40.961  21.244  25.747  1.00  0.00     0.163 HD
ATOM     30  O   UNL A   1      42.541  23.098  25.294  1.00  0.00    -0.269 OA
BRANCH  28  31
ATOM     31  C   UNL A   1      41.345  24.313  26.905  1.00  0.00     0.039 A 
ATOM     32  C   UNL A   1      42.045  24.516  28.095  1.00  0.00     0.014 A 
ATOM     33  C   UNL A   1      40.499  25.288  26.400  1.00  0.00     0.014 A 
ATOM     34  C   UNL A   1      41.966  25.765  28.708  1.00  0.00     0.010 A 
ATOM     35  C   UNL A   1      40.640  26.569  26.851  1.00  0.00     0.010 A 
ATOM     36  C   UNL A   1      41.284  26.804  28.057  1.00  0.00    -0.014 A 
BRANCH  36  37
ATOM     37  C   UNL A   1      41.227  28.153  28.602  1.00  0.00     0.031 A 
ATOM     38  C   UNL A   1      42.308  29.091  28.204  1.00  0.00     0.074 A 
ATOM     39  C   UNL A   1      40.173  28.599  29.320  1.00  0.00     0.049 A 
ATOM     40  N   UNL A   1      43.237  29.574  28.962  1.00  0.00    -0.248 NA
ATOM     41  C   UNL A   1      42.425  29.493  26.795  1.00  0.00     0.031 C 
ATOM     42  C   UNL A   1      38.891  27.941  29.614  1.00  0.00     0.029 A 
ATOM     43  N   UNL A   1      40.008  29.824  29.880  1.00  0.00    -0.354 N 
ATOM     44  C   UNL A   1      43.981  30.448  28.177  1.00  0.00     0.074 A 
ATOM     45  C   UNL A   1      43.509  30.274  26.826  1.00  0.00     0.031 C 
ATOM     46  C   UNL A   1      38.008  28.850  30.077  1.00  0.00     0.029 A 
ATOM     47  C   UNL A   1      38.720  30.089  30.307  1.00  0.00     0.049 A 
ATOM     48  H   UNL A   1      40.746  30.472  29.974  1.00  0.00     0.167 HD
ATOM     49  C   UNL A   1      44.813  31.371  28.736  1.00  0.00     0.037 A 
ATOM     50  C   UNL A   1      38.264  31.254  30.818  1.00  0.00     0.037 A 
ATOM     51  C   UNL A   1      45.027  31.112  30.136  1.00  0.00     0.049 A 
ATOM     52  C   UNL A   1      39.444  31.969  31.366  1.00  0.00     0.074 A 
ATOM     53  C   UNL A   1      45.588  30.071  30.849  1.00  0.00     0.029 A 
ATOM     54  N   UNL A   1      44.288  31.829  31.047  1.00  0.00    -0.354 N 
ATOM     55  N   UNL A   1      40.133  31.541  32.390  1.00  0.00    -0.248 NA
ATOM     56  C   UNL A   1      40.140  32.902  30.493  1.00  0.00     0.031 C 
ATOM     57  C   UNL A   1      44.757  29.927  32.000  1.00  0.00     0.029 A 
ATOM     58  C   UNL A   1      43.781  30.925  31.946  1.00  0.00     0.049 A 
ATOM     59  H   UNL A   1      44.149  32.803  31.052  1.00  0.00     0.167 HD
ATOM     60  C   UNL A   1      41.456  31.803  32.062  1.00  0.00     0.074 A 
ATOM     61  C   UNL A   1      41.391  32.726  30.930  1.00  0.00     0.031 C 
ATOM     62  C   UNL A   1      42.475  31.037  32.551  1.00  0.00     0.037 A 
BRANCH  49  63
ATOM     63  C   UNL A   1      45.204  32.682  28.114  1.00  0.00     0.064 A 
ATOM     64  C   UNL A   1      44.229  33.680  27.916  1.00  0.00     0.173 A 
ATOM     65  C   UNL A   1      46.429  32.876  27.444  1.00  0.00     0.173 A 
ATOM     66  F   UNL A   1      43.022  33.579  28.493  1.00  0.00    -0.203 F 
ATOM     67  C   UNL A   1      44.445  34.759  27.056  1.00  0.00     0.198 A 
ATOM     68  C   UNL A   1      46.659  33.981  26.626  1.00  0.00     0.198 A 
ATOM     69  F   UNL A   1      47.396  31.951  27.467  1.00  0.00    -0.203 F 
ATOM     70  F   UNL A   1      43.450  35.622  26.806  1.00  0.00    -0.200 F 
ATOM     71  C   UNL A   1      45.657  34.906  26.408  1.00  0.00     0.200 A 
ATOM     72  F   UNL A   1      47.833  34.098  25.991  1.00  0.00    -0.200 F 
ATOM     73  F   UNL A   1      45.847  35.907  25.537  1.00  0.00    -0.200 F 
ENDBRANCH  49  63
BRANCH  50  74
ATOM     74  C   UNL A   1      36.945  31.873  30.579  1.00  0.00     0.064 A 
ATOM     75  C   UNL A   1      35.979  31.929  31.592  1.00  0.00     0.173 A 
ATOM     76  C   UNL A   1      36.699  32.654  29.430  1.00  0.00     0.173 A 
ATOM     77  F   UNL A   1      36.156  31.245  32.730  1.00  0.00    -0.203 F 
ATOM     78  C   UNL A   1      34.848  32.743  31.477  1.00  0.00     0.198 A 
ATOM     79  C   UNL A   1      35.567  33.460  29.313  1.00  0.00     0.198 A 
ATOM     80  F   UNL A   1      37.597  32.723  28.437  1.00  0.00    -0.203 F 
ATOM     81  F   UNL A   1      33.976  32.822  32.493  1.00  0.00    -0.200 F 
ATOM     82  C   UNL A   1      34.649  33.517  30.344  1.00  0.00     0.200 A 
ATOM     83  F   UNL A   1      35.404  34.227  28.226  1.00  0.00    -0.200 F 
ATOM     84  F   UNL A   1      33.598  34.344  30.263  1.00  0.00    -0.200 F 
ENDBRANCH  50  74
BRANCH  62  85
ATOM     85  C   UNL A   1      42.154  30.047  33.637  1.00  0.00     0.064 A 
ATOM     86  C   UNL A   1      41.759  28.720  33.392  1.00  0.00     0.173 A 
ATOM     87  C   UNL A   1      42.427  30.399  34.965  1.00  0.00     0.173 A 
ATOM     88  F   UNL A   1      41.578  28.276  32.145  1.00  0.00    -0.203 F 
ATOM     89  C   UNL A   1      41.609  27.803  34.430  1.00  0.00     0.198 A 
ATOM     90  C   UNL A   1      42.308  29.472  35.997  1.00  0.00     0.198 A 
ATOM     91  F   UNL A   1      42.867  31.634  35.254  1.00  0.00    -0.203 F 
ATOM     92  F   UNL A   1      41.230  26.544  34.165  1.00  0.00    -0.200 F 
ATOM     93  C   UNL A   1      41.892  28.177  35.732  1.00  0.00     0.200 A 
ATOM     94  F   UNL A   1      42.631  29.826  37.249  1.00  0.00    -0.200 F 
ATOM     95  F   UNL A   1      41.794  27.284  36.725  1.00  0.00    -0.200 F 
ENDBRANCH  62  85
ENDBRANCH  36  37
ENDBRANCH  28  31
ENDBRANCH  26  27
ENDBRANCH  25  26
ENDBRANCH   1  25
TORSDOF 13
ENDMDL
MODEL 2
REMARK VINA RESULT:     -13.1      3.711      8.965
REMARK SMILES O=C(Cc1ccn[nH]1)Nc1sc2c(c1C(=O)NCCCNC(=O)c1ccc(-c3c4nc(c(-c5c(F)c(F)c(F)c(F)c5F)c5ccc([nH]5)c(-c5c(F)c(F)c(F)c(F)c5F)c5nc(c(-c6c(F)c(F)c(F)c(F)c6F)c6ccc3[nH]6)C=C5)C=C4)cc1)CCC2
REMARK SMILES IDX 18 1 17 2 15 3 16 4 14 6 10 7 11 8 12 9 13 10 89 11 87 12
REMARK SMILES IDX 88 13 9 14 1 15 2 16 3 18 4 19 5 20 8 21 6 22 7 23 19 25
REMARK SMILES IDX 20 26 21 27 22 28 23 30 24 31 25 32 86 33 26 34 85 35 27 36
REMARK SMILES IDX 28 37 29 38 79 39 30 40 84 41 78 42 80 43 31 44 83 45 77 46
REMARK SMILES IDX 76 47 32 49 64 50 44 51 63 52 45 53 48 54 62 55 81 56 46 57
REMARK SMILES IDX 47 58 61 60 82 61 49 62 33 63 34 64 42 65 35 66 36 67 40 68
REMARK SMILES IDX 43 69 37 70 38 71 41 72 39 73 65 74 66 75 74 76 67 77 68 78
REMARK SMILES IDX 72 79 75 80 69 81 70 82 73 83 71 84 50 85 51 86 59 87 52 88
REMARK SMILES IDX 53 89 57 90 60 91 54 92 55 93 58 94 56 95
REMARK H PARENT 17 5 9 17 8 24 21 29 80 48 48 59
REMARK Flexibility Score: inf
ROOT
ATOM      1  C   UNL A   1      33.280  28.642  27.026  1.00  0.00     0.118 C 
ENDROOT
BRANCH   1   2
ATOM      2  N   UNL A   1      33.545  28.331  25.642  1.00  0.00    -0.352 N 
ATOM      3  C   UNL A   1      33.326  27.210  24.881  1.00  0.00     0.254 C 
ATOM      4  O   UNL A   1      33.230  27.471  23.675  1.00  0.00    -0.269 OA
ATOM      5  H   UNL A   1      33.966  29.069  25.145  1.00  0.00     0.163 HD
BRANCH   3   6
ATOM      6  C   UNL A   1      33.120  25.841  25.408  1.00  0.00     0.078 A 
ATOM      7  C   UNL A   1      31.825  25.388  25.704  1.00  0.00     0.108 A 
ATOM      8  S   UNL A   1      31.753  23.966  26.649  1.00  0.00    -0.122 S 
ATOM      9  C   UNL A   1      33.380  23.734  26.413  1.00  0.00     0.011 A 
ATOM     10  C   UNL A   1      34.013  24.752  25.740  1.00  0.00    -0.019 A 
ATOM     11  C   UNL A   1      34.246  22.605  26.829  1.00  0.00     0.047 C 
ATOM     12  C   UNL A   1      35.451  24.387  25.606  1.00  0.00     0.038 C 
ATOM     13  C   UNL A   1      35.515  22.887  25.999  1.00  0.00     0.010 C 
BRANCH   7  14
ATOM     14  N   UNL A   1      30.561  25.859  25.426  1.00  0.00    -0.317 N 
ATOM     15  O   UNL A   1      30.409  25.029  23.258  1.00  0.00    -0.274 OA
ATOM     16  C   UNL A   1      30.003  25.758  24.163  1.00  0.00     0.230 C 
ATOM     17  H   UNL A   1      30.038  26.279  26.147  1.00  0.00     0.170 HD
BRANCH  16  18
ATOM     18  C   UNL A   1      28.720  26.563  24.018  1.00  0.00     0.155 C 
BRANCH  18  19
ATOM     19  C   UNL A   1      28.967  27.798  23.222  1.00  0.00     0.044 A 
ATOM     20  C   UNL A   1      28.157  28.870  22.915  1.00  0.00     0.045 A 
ATOM     21  N   UNL A   1      30.173  28.059  22.624  1.00  0.00    -0.282 N 
ATOM     22  C   UNL A   1      28.950  29.696  22.100  1.00  0.00     0.135 A 
ATOM     23  N   UNL A   1      30.172  29.195  21.908  1.00  0.00    -0.184 NA
ATOM     24  H   UNL A   1      30.960  27.474  22.710  1.00  0.00     0.190 HD
ENDBRANCH  18  19
ENDBRANCH  16  18
ENDBRANCH   7  14
ENDBRANCH   3   6
ENDBRANCH   1   2
BRANCH   1  25
ATOM     25  C   UNL A   1      33.008  30.127  27.262  1.00  0.00     0.042 C 
BRANCH  25  26
ATOM     26  C   UNL A   1      34.259  30.967  27.390  1.00  0.00     0.118 C 
BRANCH  26  27
ATOM     27  N   UNL A   1      34.266  31.796  28.601  1.00  0.00    -0.352 N 
ATOM     28  C   UNL A   1      35.157  31.758  29.658  1.00  0.00     0.251 C 
ATOM     29  H   UNL A   1      33.545  32.463  28.670  1.00  0.00     0.163 HD
ATOM     30  O   UNL A   1      34.879  32.252  30.746  1.00  0.00    -0.269 OA
BRANCH  28  31
ATOM     31  C   UNL A   1      36.448  31.090  29.444  1.00  0.00     0.039 A 
ATOM     32  C   UNL A   1      37.651  31.795  29.372  1.00  0.00     0.014 A 
ATOM     33  C   UNL A   1      36.431  29.705  29.464  1.00  0.00     0.014 A 
ATOM     34  C   UNL A   1      38.844  31.078  29.435  1.00  0.00     0.010 A 
ATOM     35  C   UNL A   1      37.581  29.046  29.793  1.00  0.00     0.010 A 
ATOM     36  C   UNL A   1      38.801  29.698  29.683  1.00  0.00    -0.014 A 
BRANCH  36  37
ATOM     37  C   UNL A   1      40.010  28.901  29.838  1.00  0.00     0.031 A 
ATOM     38  C   UNL A   1      40.533  28.724  31.217  1.00  0.00     0.074 A 
ATOM     39  C   UNL A   1      40.567  28.223  28.810  1.00  0.00     0.049 A 
ATOM     40  N   UNL A   1      41.628  29.210  31.701  1.00  0.00    -0.248 NA
ATOM     41  C   UNL A   1      39.727  27.985  32.198  1.00  0.00     0.031 C 
ATOM     42  C   UNL A   1      40.083  28.041  27.433  1.00  0.00     0.029 A 
ATOM     43  N   UNL A   1      41.686  27.456  28.830  1.00  0.00    -0.354 N 
ATOM     44  C   UNL A   1      41.734  28.736  33.004  1.00  0.00     0.074 A 
ATOM     45  C   UNL A   1      40.483  28.081  33.296  1.00  0.00     0.031 C 
ATOM     46  C   UNL A   1      40.762  27.040  26.839  1.00  0.00     0.029 A 
ATOM     47  C   UNL A   1      41.854  26.661  27.711  1.00  0.00     0.049 A 
ATOM     48  H   UNL A   1      42.326  27.466  29.579  1.00  0.00     0.167 HD
ATOM     49  C   UNL A   1      42.917  28.776  33.680  1.00  0.00     0.037 A 
ATOM     50  C   UNL A   1      42.830  25.747  27.511  1.00  0.00     0.037 A 
ATOM     51  C   UNL A   1      43.882  29.607  33.009  1.00  0.00     0.049 A 
ATOM     52  C   UNL A   1      43.964  26.139  28.385  1.00  0.00     0.074 A 
ATOM     53  C   UNL A   1      43.940  30.948  32.684  1.00  0.00     0.029 A 
ATOM     54  N   UNL A   1      44.824  28.993  32.218  1.00  0.00    -0.354 N 
ATOM     55  N   UNL A   1      44.659  27.232  28.215  1.00  0.00    -0.248 NA
ATOM     56  C   UNL A   1      44.028  25.561  29.719  1.00  0.00     0.031 C 
ATOM     57  C   UNL A   1      44.529  30.984  31.385  1.00  0.00     0.029 A 
ATOM     58  C   UNL A   1      44.846  29.672  31.026  1.00  0.00     0.049 A 
ATOM     59  H   UNL A   1      45.378  28.216  32.461  1.00  0.00     0.167 HD
ATOM     60  C   UNL A   1      44.889  27.708  29.499  1.00  0.00     0.074 A 
ATOM     61  C   UNL A   1      44.562  26.590  30.383  1.00  0.00     0.031 C 
ATOM     62  C   UNL A   1      45.054  29.041  29.744  1.00  0.00     0.037 A 
BRANCH  49  63
ATOM     63  C   UNL A   1      43.322  27.841  34.784  1.00  0.00     0.064 A 
ATOM     64  C   UNL A   1      43.662  28.361  36.049  1.00  0.00     0.173 A 
ATOM     65  C   UNL A   1      43.669  26.494  34.559  1.00  0.00     0.173 A 
ATOM     66  F   UNL A   1      43.394  29.639  36.357  1.00  0.00    -0.203 F 
ATOM     67  C   UNL A   1      44.358  27.602  36.994  1.00  0.00     0.198 A 
ATOM     68  C   UNL A   1      44.318  25.724  35.523  1.00  0.00     0.198 A 
ATOM     69  F   UNL A   1      43.494  25.915  33.364  1.00  0.00    -0.203 F 
ATOM     70  F   UNL A   1      44.763  28.170  38.138  1.00  0.00    -0.200 F 
ATOM     71  C   UNL A   1      44.689  26.286  36.728  1.00  0.00     0.200 A 
ATOM     72  F   UNL A   1      44.649  24.457  35.241  1.00  0.00    -0.200 F 
ATOM     73  F   UNL A   1      45.408  25.574  37.607  1.00  0.00    -0.200 F 
ENDBRANCH  49  63
BRANCH  50  74
ATOM     74  C   UNL A   1      42.694  24.434  26.851  1.00  0.00     0.064 A 
ATOM     75  C   UNL A   1      43.263  24.196  25.592  1.00  0.00     0.173 A 
ATOM     76  C   UNL A   1      42.225  23.304  27.553  1.00  0.00     0.173 A 
ATOM     77  F   UNL A   1      43.764  25.212  24.877  1.00  0.00    -0.203 F 
ATOM     78  C   UNL A   1      43.386  22.901  25.080  1.00  0.00     0.198 A 
ATOM     79  C   UNL A   1      42.341  22.013  27.039  1.00  0.00     0.198 A 
ATOM     80  F   UNL A   1      41.729  23.419  28.794  1.00  0.00    -0.203 F 
ATOM     81  F   UNL A   1      43.993  22.704  23.901  1.00  0.00    -0.200 F 
ATOM     82  C   UNL A   1      42.936  21.810  25.808  1.00  0.00     0.200 A 
ATOM     83  F   UNL A   1      41.931  20.966  27.768  1.00  0.00    -0.200 F 
ATOM     84  F   UNL A   1      43.111  20.565  25.345  1.00  0.00    -0.200 F 
ENDBRANCH  50  74
BRANCH  62  85
ATOM     85  C   UNL A   1      45.211  29.961  28.564  1.00  0.00     0.064 A 
ATOM     86  C   UNL A   1      44.134  30.593  27.918  1.00  0.00     0.173 A 
ATOM     87  C   UNL A   1      46.502  30.353  28.189  1.00  0.00     0.173 A 
ATOM     88  F   UNL A   1      42.873  30.350  28.287  1.00  0.00    -0.203 F 
ATOM     89  C   UNL A   1      44.341  31.544  26.921  1.00  0.00     0.198 A 
ATOM     90  C   UNL A   1      46.708  31.327  27.216  1.00  0.00     0.198 A 
ATOM     91  F   UNL A   1      47.570  29.830  28.813  1.00  0.00    -0.203 F 
ATOM     92  F   UNL A   1      43.295  32.130  26.321  1.00  0.00    -0.200 F 
ATOM     93  C   UNL A   1      45.629  31.917  26.576  1.00  0.00     0.200 A 
ATOM     94  F   UNL A   1      47.955  31.721  26.921  1.00  0.00    -0.200 F 
ATOM     95  F   UNL A   1      45.830  32.865  25.651  1.00  0.00    -0.200 F 
ENDBRANCH  62  85
ENDBRANCH  36  37
ENDBRANCH  28  31
ENDBRANCH  26  27
ENDBRANCH  25  26
ENDBRANCH   1  25
TORSDOF 13
ENDMDL
MODEL 3
REMARK VINA RESULT:     -13.0      1.452      3.176
REMARK SMILES O=C(Cc1ccn[nH]1)Nc1sc2c(c1C(=O)NCCCNC(=O)c1ccc(-c3c4nc(c(-c5c(F)c(F)c(F)c(F)c5F)c5ccc([nH]5)c(-c5c(F)c(F)c(F)c(F)c5F)c5nc(c(-c6c(F)c(F)c(F)c(F)c6F)c6ccc3[nH]6)C=C5)C=C4)cc1)CCC2
REMARK SMILES IDX 18 1 17 2 15 3 16 4 14 6 10 7 11 8 12 9 13 10 89 11 87 12
REMARK SMILES IDX 88 13 9 14 1 15 2 16 3 18 4 19 5 20 8 21 6 22 7 23 19 25
REMARK SMILES IDX 20 26 21 27 22 28 23 30 24 31 25 32 86 33 26 34 85 35 27 36
REMARK SMILES IDX 28 37 29 38 79 39 30 40 84 41 78 42 80 43 31 44 83 45 77 46
REMARK SMILES IDX 76 47 32 49 64 50 44 51 63 52 45 53 48 54 62 55 81 56 46 57
REMARK SMILES IDX 47 58 61 60 82 61 49 62 33 63 34 64 42 65 35 66 36 67 40 68
REMARK SMILES IDX 43 69 37 70 38 71 41 72 39 73 65 74 66 75 74 76 67 77 68 78
REMARK SMILES IDX 72 79 75 80 69 81 70 82 73 83 71 84 50 85 51 86 59 87 52 88
REMARK SMILES IDX 53 89 57 90 60 91 54 92 55 93 58 94 56 95
REMARK H PARENT 17 5 9 17 8 24 21 29 80 48 48 59
REMARK Flexibility Score: inf
ROOT
ATOM      1  C   UNL A   1      37.122  21.157  25.381  1.00  0.00     0.118 C 
ENDROOT
BRANCH   1   2
ATOM      2  N   UNL A   1      36.002  21.548  26.202  1.00  0.00    -0.352 N 
ATOM      3  C   UNL A   1      34.664  21.242  26.160  1.00  0.00     0.254 C 
ATOM      4  O   UNL A   1      34.119  21.357  27.265  1.00  0.00    -0.269 OA
ATOM      5  H   UNL A   1      36.244  22.155  26.938  1.00  0.00     0.163 HD
BRANCH   3   6
ATOM      6  C   UNL A   1      33.937  20.730  24.975  1.00  0.00     0.078 A 
ATOM      7  C   UNL A   1      33.250  21.619  24.133  1.00  0.00     0.108 A 
ATOM      8  S   UNL A   1      32.153  20.886  23.046  1.00  0.00    -0.122 S 
ATOM      9  C   UNL A   1      32.790  19.397  23.418  1.00  0.00     0.011 A 
ATOM     10  C   UNL A   1      33.728  19.409  24.423  1.00  0.00    -0.019 A 
ATOM     11  C   UNL A   1      32.489  18.067  22.838  1.00  0.00     0.047 C 
ATOM     12  C   UNL A   1      34.200  18.011  24.625  1.00  0.00     0.038 C 
ATOM     13  C   UNL A   1      33.658  17.231  23.397  1.00  0.00     0.010 C 
BRANCH   7  14
ATOM     14  N   UNL A   1      33.232  22.989  24.001  1.00  0.00    -0.317 N 
ATOM     15  O   UNL A   1      35.305  23.212  22.970  1.00  0.00    -0.274 OA
ATOM     16  C   UNL A   1      34.333  23.696  23.549  1.00  0.00     0.230 C 
ATOM     17  H   UNL A   1      32.411  23.481  24.234  1.00  0.00     0.170 HD
BRANCH  16  18
ATOM     18  C   UNL A   1      34.181  25.200  23.723  1.00  0.00     0.155 C 
BRANCH  18  19
ATOM     19  C   UNL A   1      33.069  25.714  22.874  1.00  0.00     0.044 A 
ATOM     20  C   UNL A   1      32.807  25.585  21.528  1.00  0.00     0.045 A 
ATOM     21  N   UNL A   1      32.043  26.468  23.384  1.00  0.00    -0.282 N 
ATOM     22  C   UNL A   1      31.631  26.327  21.320  1.00  0.00     0.135 A 
ATOM     23  N   UNL A   1      31.174  26.879  22.446  1.00  0.00    -0.184 NA
ATOM     24  H   UNL A   1      31.953  26.687  24.339  1.00  0.00     0.190 HD
ENDBRANCH  18  19
ENDBRANCH  16  18
ENDBRANCH   7  14
ENDBRANCH   3   6
ENDBRANCH   1   2
BRANCH   1  25
ATOM     25  C   UNL A   1      38.246  22.193  25.374  1.00  0.00     0.042 C 
BRANCH  25  26
ATOM     26  C   UNL A   1      39.200  22.069  26.541  1.00  0.00     0.118 C 
BRANCH  26  27
ATOM     27  N   UNL A   1      40.603  21.975  26.120  1.00  0.00    -0.352 N 
ATOM     28  C   UNL A   1      41.567  22.968  26.129  1.00  0.00     0.251 C 
ATOM     29  H   UNL A   1      40.896  21.095  25.791  1.00  0.00     0.163 HD
ATOM     30  O   UNL A   1      42.588  22.873  25.456  1.00  0.00    -0.269 OA
BRANCH  28  31
ATOM     31  C   UNL A   1      41.320  24.155  26.958  1.00  0.00     0.039 A 
ATOM     32  C   UNL A   1      41.953  24.353  28.186  1.00  0.00     0.014 A 
ATOM     33  C   UNL A   1      40.537  25.148  26.390  1.00  0.00     0.014 A 
ATOM     34  C   UNL A   1      41.874  25.611  28.779  1.00  0.00     0.010 A 
ATOM     35  C   UNL A   1      40.689  26.430  26.835  1.00  0.00     0.010 A 
ATOM     36  C   UNL A   1      41.265  26.662  28.076  1.00  0.00    -0.014 A 
BRANCH  36  37
ATOM     37  C   UNL A   1      41.216  28.019  28.601  1.00  0.00     0.031 A 
ATOM     38  C   UNL A   1      42.295  28.949  28.180  1.00  0.00     0.074 A 
ATOM     39  C   UNL A   1      40.169  28.478  29.322  1.00  0.00     0.049 A 
ATOM     40  N   UNL A   1      43.231  29.440  28.923  1.00  0.00    -0.248 NA
ATOM     41  C   UNL A   1      42.400  29.329  26.764  1.00  0.00     0.031 C 
ATOM     42  C   UNL A   1      38.887  27.827  29.636  1.00  0.00     0.029 A 
ATOM     43  N   UNL A   1      40.011  29.712  29.864  1.00  0.00    -0.354 N 
ATOM     44  C   UNL A   1      43.970  30.301  28.119  1.00  0.00     0.074 A 
ATOM     45  C   UNL A   1      43.487  30.108  26.774  1.00  0.00     0.031 C 
ATOM     46  C   UNL A   1      38.010  28.744  30.093  1.00  0.00     0.029 A 
ATOM     47  C   UNL A   1      38.727  29.986  30.299  1.00  0.00     0.049 A 
ATOM     48  H   UNL A   1      40.751  30.358  29.943  1.00  0.00     0.167 HD
ATOM     49  C   UNL A   1      44.809  31.231  28.657  1.00  0.00     0.037 A 
ATOM     50  C   UNL A   1      38.278  31.159  30.797  1.00  0.00     0.037 A 
ATOM     51  C   UNL A   1      45.035  30.992  30.059  1.00  0.00     0.049 A 
ATOM     52  C   UNL A   1      39.464  31.879  31.323  1.00  0.00     0.074 A 
ATOM     53  C   UNL A   1      45.599  29.960  30.782  1.00  0.00     0.029 A 
ATOM     54  N   UNL A   1      44.305  31.723  30.965  1.00  0.00    -0.354 N 
ATOM     55  N   UNL A   1      40.161  31.465  32.348  1.00  0.00    -0.248 NA
ATOM     56  C   UNL A   1      40.155  32.798  30.431  1.00  0.00     0.031 C 
ATOM     57  C   UNL A   1      44.778  29.835  31.942  1.00  0.00     0.029 A 
ATOM     58  C   UNL A   1      43.804  30.834  31.882  1.00  0.00     0.049 A 
ATOM     59  H   UNL A   1      44.168  32.698  30.957  1.00  0.00     0.167 HD
ATOM     60  C   UNL A   1      41.482  31.719  32.004  1.00  0.00     0.074 A 
ATOM     61  C   UNL A   1      41.409  32.625  30.859  1.00  0.00     0.031 C 
ATOM     62  C   UNL A   1      42.503  30.958  32.496  1.00  0.00     0.037 A 
BRANCH  49  63
ATOM     63  C   UNL A   1      45.198  32.531  28.012  1.00  0.00     0.064 A 
ATOM     64  C   UNL A   1      44.221  33.524  27.799  1.00  0.00     0.173 A 
ATOM     65  C   UNL A   1      46.421  32.715  27.336  1.00  0.00     0.173 A 
ATOM     66  F   UNL A   1      43.016  33.432  28.380  1.00  0.00    -0.203 F 
ATOM     67  C   UNL A   1      44.434  34.589  26.921  1.00  0.00     0.198 A 
ATOM     68  C   UNL A   1      46.648  33.806  26.500  1.00  0.00     0.198 A 
ATOM     69  F   UNL A   1      47.390  31.791  27.374  1.00  0.00    -0.203 F 
ATOM     70  F   UNL A   1      43.438  35.447  26.658  1.00  0.00    -0.200 F 
ATOM     71  C   UNL A   1      45.646  34.726  26.268  1.00  0.00     0.200 A 
ATOM     72  F   UNL A   1      47.821  33.913  25.861  1.00  0.00    -0.200 F 
ATOM     73  F   UNL A   1      45.833  35.713  25.380  1.00  0.00    -0.200 F 
ENDBRANCH  49  63
BRANCH  50  74
ATOM     74  C   UNL A   1      36.958  31.777  30.559  1.00  0.00     0.064 A 
ATOM     75  C   UNL A   1      36.010  31.873  31.586  1.00  0.00     0.173 A 
ATOM     76  C   UNL A   1      36.696  32.521  29.389  1.00  0.00     0.173 A 
ATOM     77  F   UNL A   1      36.203  31.225  32.743  1.00  0.00    -0.203 F 
ATOM     78  C   UNL A   1      34.882  32.689  31.464  1.00  0.00     0.198 A 
ATOM     79  C   UNL A   1      35.567  33.330  29.265  1.00  0.00     0.198 A 
ATOM     80  F   UNL A   1      37.578  32.552  28.379  1.00  0.00    -0.203 F 
ATOM     81  F   UNL A   1      34.028  32.806  32.491  1.00  0.00    -0.200 F 
ATOM     82  C   UNL A   1      34.667  33.426  30.309  1.00  0.00     0.200 A 
ATOM     83  F   UNL A   1      35.390  34.061  28.156  1.00  0.00    -0.200 F 
ATOM     84  F   UNL A   1      33.620  34.256  30.218  1.00  0.00    -0.200 F 
ENDBRANCH  50  74
BRANCH  62  85
ATOM     85  C   UNL A   1      42.189  29.985  33.599  1.00  0.00     0.064 A 
ATOM     86  C   UNL A   1      41.804  28.651  33.377  1.00  0.00     0.173 A 
ATOM     87  C   UNL A   1      42.459  30.362  34.921  1.00  0.00     0.173 A 
ATOM     88  F   UNL A   1      41.627  28.183  32.138  1.00  0.00    -0.203 F 
ATOM     89  C   UNL A   1      41.661  27.751  34.431  1.00  0.00     0.198 A 
ATOM     90  C   UNL A   1      42.347  29.453  35.970  1.00  0.00     0.198 A 
ATOM     91  F   UNL A   1      42.889  31.606  35.189  1.00  0.00    -0.203 F 
ATOM     92  F   UNL A   1      41.292  26.484  34.190  1.00  0.00    -0.200 F 
ATOM     93  C   UNL A   1      41.941  28.150  35.727  1.00  0.00     0.200 A 
ATOM     94  F   UNL A   1      42.667  29.831  37.215  1.00  0.00    -0.200 F 
ATOM     95  F   UNL A   1      41.849  27.274  36.736  1.00  0.00    -0.200 F 
ENDBRANCH  62  85
ENDBRANCH  36  37
ENDBRANCH  28  31
ENDBRANCH  26  27
ENDBRANCH  25  26
ENDBRANCH   1  25
TORSDOF 13
ENDMDL
