MODEL 1
REMARK VINA RESULT:     -13.3      0.000      0.000
REMARK SMILES O=C(NCCCNC(=O)c1cc(S(=O)(=O)Nc2ccc(F)c(C(F)(F)F)c2)c[nH]1)c1ccc(-c2c3nc(c(-c4c(F)c(F)c(F)c(F)c4F)c4ccc([nH]4)c(-c4c(F)c(F)c(F)c(F)c4F)c4nc(c(-c5c(F)c(F)c(F)c(F)c5F)c5ccc2[nH]5)C=C4)C=C3)cc1
REMARK SMILES IDX 6 1 5 2 4 3 3 4 1 5 2 6 30 8 31 9 92 10 32 11 91 12 33 13
REMARK SMILES IDX 34 14 35 15 85 16 36 17 90 18 84 19 86 20 37 21 89 22 83 23
REMARK SMILES IDX 82 24 38 26 70 27 50 28 69 29 51 30 54 31 68 32 87 33 52 34
REMARK SMILES IDX 53 35 67 37 88 38 55 39 39 40 40 41 48 42 41 43 42 44 46 45
REMARK SMILES IDX 49 46 43 47 44 48 47 49 45 50 71 51 72 52 80 53 73 54 74 55
REMARK SMILES IDX 78 56 81 57 75 58 76 59 79 60 77 61 56 62 57 63 65 64 58 65
REMARK SMILES IDX 59 66 63 67 66 68 60 69 61 70 64 71 62 72 7 73 8 74 9 76
REMARK SMILES IDX 10 77 11 78 29 79 12 80 28 81 13 83 14 84 15 85 16 86 17 88
REMARK SMILES IDX 18 89 27 90 19 91 22 92 20 93 21 94 23 95 24 96 25 97 26 98
REMARK H PARENT 3 7 86 25 54 36 7 75 29 82 16 87
REMARK Flexibility Score: inf
ROOT
ATOM      1  C   UNL A   1      31.726  30.615  26.711  1.00  0.00     0.118 C 
ENDROOT
BRANCH   1   2
ATOM      2  C   UNL A   1      31.356  32.087  26.788  1.00  0.00     0.042 C 
BRANCH   2   3
ATOM      3  C   UNL A   1      32.561  33.005  26.953  1.00  0.00     0.118 C 
BRANCH   3   4
ATOM      4  N   UNL A   1      32.311  34.222  27.706  1.00  0.00    -0.352 N 
ATOM      5  O   UNL A   1      32.589  35.999  29.022  1.00  0.00    -0.269 OA
ATOM      6  C   UNL A   1      33.020  34.904  28.661  1.00  0.00     0.251 C 
ATOM      7  H   UNL A   1      31.451  34.647  27.482  1.00  0.00     0.163 HD
BRANCH   6   8
ATOM      8  C   UNL A   1      34.229  34.359  29.328  1.00  0.00     0.039 A 
ATOM      9  C   UNL A   1      34.198  33.620  30.511  1.00  0.00     0.014 A 
ATOM     10  C   UNL A   1      35.466  34.590  28.698  1.00  0.00     0.014 A 
ATOM     11  C   UNL A   1      35.380  33.205  31.112  1.00  0.00     0.010 A 
ATOM     12  C   UNL A   1      36.655  34.133  29.268  1.00  0.00     0.010 A 
ATOM     13  C   UNL A   1      36.605  33.438  30.478  1.00  0.00    -0.014 A 
BRANCH  13  14
ATOM     14  C   UNL A   1      37.773  32.700  31.010  1.00  0.00     0.031 A 
ATOM     15  C   UNL A   1      38.026  31.405  30.202  1.00  0.00     0.074 A 
ATOM     16  C   UNL A   1      38.352  33.196  32.142  1.00  0.00     0.049 A 
ATOM     17  N   UNL A   1      38.581  30.287  30.557  1.00  0.00    -0.248 NA
ATOM     18  C   UNL A   1      37.522  31.325  28.801  1.00  0.00     0.031 C 
ATOM     19  C   UNL A   1      38.004  34.488  32.770  1.00  0.00     0.029 A 
ATOM     20  N   UNL A   1      39.325  32.729  33.008  1.00  0.00    -0.354 N 
ATOM     21  C   UNL A   1      38.652  29.460  29.412  1.00  0.00     0.074 A 
ATOM     22  C   UNL A   1      37.895  30.112  28.391  1.00  0.00     0.031 C 
ATOM     23  C   UNL A   1      38.667  34.654  33.935  1.00  0.00     0.029 A 
ATOM     24  C   UNL A   1      39.517  33.506  34.183  1.00  0.00     0.049 A 
ATOM     25  H   UNL A   1      39.847  31.915  32.822  1.00  0.00     0.167 HD
ATOM     26  C   UNL A   1      39.415  28.330  29.342  1.00  0.00     0.037 A 
ATOM     27  C   UNL A   1      40.265  33.215  35.297  1.00  0.00     0.037 A 
ATOM     28  C   UNL A   1      40.037  28.076  30.593  1.00  0.00     0.049 A 
ATOM     29  C   UNL A   1      40.986  31.979  34.956  1.00  0.00     0.074 A 
ATOM     30  C   UNL A   1      39.550  27.570  31.768  1.00  0.00     0.029 A 
ATOM     31  N   UNL A   1      41.246  28.680  30.831  1.00  0.00    -0.354 N 
ATOM     32  N   UNL A   1      41.981  31.907  34.122  1.00  0.00    -0.248 NA
ATOM     33  C   UNL A   1      40.513  30.711  35.526  1.00  0.00     0.031 C 
ATOM     34  C   UNL A   1      40.255  28.285  32.755  1.00  0.00     0.029 A 
ATOM     35  C   UNL A   1      41.266  29.045  32.155  1.00  0.00     0.049 A 
ATOM     36  H   UNL A   1      41.965  28.826  30.174  1.00  0.00     0.167 HD
ATOM     37  C   UNL A   1      42.020  30.565  33.833  1.00  0.00     0.074 A 
ATOM     38  C   UNL A   1      41.358  29.882  34.920  1.00  0.00     0.031 C 
ATOM     39  C   UNL A   1      42.091  30.164  32.539  1.00  0.00     0.037 A 
BRANCH  26  40
ATOM     40  C   UNL A   1      39.826  27.464  28.185  1.00  0.00     0.064 A 
ATOM     41  C   UNL A   1      40.586  27.934  27.107  1.00  0.00     0.173 A 
ATOM     42  C   UNL A   1      39.748  26.056  28.329  1.00  0.00     0.173 A 
ATOM     43  F   UNL A   1      40.749  29.248  26.901  1.00  0.00    -0.203 F 
ATOM     44  C   UNL A   1      41.282  27.055  26.269  1.00  0.00     0.198 A 
ATOM     45  C   UNL A   1      40.476  25.186  27.519  1.00  0.00     0.198 A 
ATOM     46  F   UNL A   1      39.012  25.504  29.307  1.00  0.00    -0.203 F 
ATOM     47  F   UNL A   1      42.038  27.544  25.277  1.00  0.00    -0.200 F 
ATOM     48  C   UNL A   1      41.257  25.689  26.498  1.00  0.00     0.200 A 
ATOM     49  F   UNL A   1      40.466  23.870  27.772  1.00  0.00    -0.200 F 
ATOM     50  F   UNL A   1      42.008  24.863  25.756  1.00  0.00    -0.200 F 
ENDBRANCH  26  40
BRANCH  27  51
ATOM     51  C   UNL A   1      40.448  33.726  36.715  1.00  0.00     0.064 A 
ATOM     52  C   UNL A   1      39.403  33.556  37.673  1.00  0.00     0.173 A 
ATOM     53  C   UNL A   1      41.535  34.466  37.196  1.00  0.00     0.173 A 
ATOM     54  F   UNL A   1      38.371  32.731  37.452  1.00  0.00    -0.203 F 
ATOM     55  C   UNL A   1      39.355  34.225  38.897  1.00  0.00     0.198 A 
ATOM     56  C   UNL A   1      41.514  35.095  38.458  1.00  0.00     0.198 A 
ATOM     57  F   UNL A   1      42.656  34.596  36.481  1.00  0.00    -0.203 F 
ATOM     58  F   UNL A   1      38.270  34.107  39.676  1.00  0.00    -0.200 F 
ATOM     59  C   UNL A   1      40.406  35.015  39.284  1.00  0.00     0.200 A 
ATOM     60  F   UNL A   1      42.578  35.803  38.865  1.00  0.00    -0.200 F 
ATOM     61  F   UNL A   1      40.359  35.680  40.446  1.00  0.00    -0.200 F 
ENDBRANCH  27  51
BRANCH  39  62
ATOM     62  C   UNL A   1      42.709  31.186  31.610  1.00  0.00     0.064 A 
ATOM     63  C   UNL A   1      41.971  32.024  30.758  1.00  0.00     0.173 A 
ATOM     64  C   UNL A   1      44.092  31.415  31.651  1.00  0.00     0.173 A 
ATOM     65  F   UNL A   1      40.652  31.894  30.657  1.00  0.00    -0.203 F 
ATOM     66  C   UNL A   1      42.566  33.022  29.985  1.00  0.00     0.198 A 
ATOM     67  C   UNL A   1      44.693  32.419  30.886  1.00  0.00     0.198 A 
ATOM     68  F   UNL A   1      44.871  30.657  32.438  1.00  0.00    -0.203 F 
ATOM     69  F   UNL A   1      41.815  33.782  29.174  1.00  0.00    -0.200 F 
ATOM     70  C   UNL A   1      43.931  33.220  30.050  1.00  0.00     0.200 A 
ATOM     71  F   UNL A   1      46.019  32.602  30.950  1.00  0.00    -0.200 F 
ATOM     72  F   UNL A   1      44.511  34.169  29.302  1.00  0.00    -0.200 F 
ENDBRANCH  39  62
ENDBRANCH  13  14
ENDBRANCH   6   8
ENDBRANCH   3   4
ENDBRANCH   2   3
ENDBRANCH   1   2
BRANCH   1  73
ATOM     73  N   UNL A   1      33.088  30.379  27.161  1.00  0.00    -0.351 N 
ATOM     74  C   UNL A   1      33.905  29.286  27.010  1.00  0.00     0.267 C 
ATOM     75  H   UNL A   1      33.493  31.128  27.656  1.00  0.00     0.163 HD
ATOM     76  O   UNL A   1      34.872  29.184  27.761  1.00  0.00    -0.268 OA
BRANCH  74  77
ATOM     77  C   UNL A   1      33.646  28.321  25.966  1.00  0.00     0.105 A 
ATOM     78  C   UNL A   1      33.475  28.487  24.607  1.00  0.00     0.055 A 
ATOM     79  N   UNL A   1      33.665  26.956  26.176  1.00  0.00    -0.356 N 
ATOM     80  C   UNL A   1      33.458  27.228  23.976  1.00  0.00     0.106 A 
ATOM     81  C   UNL A   1      33.530  26.286  24.982  1.00  0.00     0.105 A 
ATOM     82  H   UNL A   1      33.760  26.522  27.056  1.00  0.00     0.166 HD
BRANCH  80  83
ATOM     83  S   UNL A   1      33.465  26.966  22.262  1.00  0.00     0.263 S 
ATOM     84  O   UNL A   1      34.076  28.160  21.726  1.00  0.00    -0.201 OA
ATOM     85  O   UNL A   1      34.078  25.664  22.106  1.00  0.00    -0.201 OA
BRANCH  83  86
ATOM     86  N   UNL A   1      31.900  26.847  21.630  1.00  0.00    -0.280 N 
ATOM     87  H   UNL A   1      31.787  26.523  20.708  1.00  0.00     0.180 HD
BRANCH  86  88
ATOM     88  C   UNL A   1      30.738  27.196  22.379  1.00  0.00     0.050 A 
ATOM     89  C   UNL A   1      30.027  26.313  23.193  1.00  0.00     0.030 A 
ATOM     90  C   UNL A   1      30.267  28.504  22.209  1.00  0.00     0.043 A 
ATOM     91  C   UNL A   1      28.775  26.687  23.688  1.00  0.00     0.042 A 
ATOM     92  C   UNL A   1      29.014  28.894  22.717  1.00  0.00     0.093 A 
ATOM     93  C   UNL A   1      28.272  27.961  23.431  1.00  0.00     0.135 A 
ATOM     94  F   UNL A   1      27.045  28.262  23.874  1.00  0.00    -0.206 F 
BRANCH  92  95
ATOM     95  C   UNL A   1      28.496  30.280  22.466  1.00  0.00     0.419 C 
ATOM     96  F   UNL A   1      27.557  30.301  21.481  1.00  0.00    -0.166 F 
ATOM     97  F   UNL A   1      27.881  30.794  23.572  1.00  0.00    -0.166 F 
ATOM     98  F   UNL A   1      29.436  31.193  22.113  1.00  0.00    -0.166 F 
ENDBRANCH  92  95
ENDBRANCH  86  88
ENDBRANCH  83  86
ENDBRANCH  80  83
ENDBRANCH  74  77
ENDBRANCH   1  73
TORSDOF 14
ENDMDL
MODEL 2
REMARK VINA RESULT:     -13.1      4.833      7.260
REMARK SMILES O=C(NCCCNC(=O)c1cc(S(=O)(=O)Nc2ccc(F)c(C(F)(F)F)c2)c[nH]1)c1ccc(-c2c3nc(c(-c4c(F)c(F)c(F)c(F)c4F)c4ccc([nH]4)c(-c4c(F)c(F)c(F)c(F)c4F)c4nc(c(-c5c(F)c(F)c(F)c(F)c5F)c5ccc2[nH]5)C=C4)C=C3)cc1
REMARK SMILES IDX 6 1 5 2 4 3 3 4 1 5 2 6 30 8 31 9 92 10 32 11 91 12 33 13
REMARK SMILES IDX 34 14 35 15 85 16 36 17 90 18 84 19 86 20 37 21 89 22 83 23
REMARK SMILES IDX 82 24 38 26 70 27 50 28 69 29 51 30 54 31 68 32 87 33 52 34
REMARK SMILES IDX 53 35 67 37 88 38 55 39 39 40 40 41 48 42 41 43 42 44 46 45
REMARK SMILES IDX 49 46 43 47 44 48 47 49 45 50 71 51 72 52 80 53 73 54 74 55
REMARK SMILES IDX 78 56 81 57 75 58 76 59 79 60 77 61 56 62 57 63 65 64 58 65
REMARK SMILES IDX 59 66 63 67 66 68 60 69 61 70 64 71 62 72 7 73 8 74 9 76
REMARK SMILES IDX 10 77 11 78 29 79 12 80 28 81 13 83 14 84 15 85 16 86 17 88
REMARK SMILES IDX 18 89 27 90 19 91 22 92 20 93 21 94 23 95 24 96 25 97 26 98
REMARK H PARENT 3 7 86 25 54 36 7 75 29 82 16 87
REMARK Flexibility Score: inf
ROOT
ATOM      1  C   UNL A   1      33.835  28.022  24.340  1.00  0.00     0.118 C 
ENDROOT
BRANCH   1   2
ATOM      2  C   UNL A   1      33.600  28.908  25.552  1.00  0.00     0.042 C 
BRANCH   2   3
ATOM      3  C   UNL A   1      34.667  28.755  26.627  1.00  0.00     0.118 C 
BRANCH   3   4
ATOM      4  N   UNL A   1      34.862  29.919  27.475  1.00  0.00    -0.352 N 
ATOM      5  O   UNL A   1      35.817  31.531  28.683  1.00  0.00    -0.269 OA
ATOM      6  C   UNL A   1      35.945  30.433  28.140  1.00  0.00     0.251 C 
ATOM      7  H   UNL A   1      34.042  30.451  27.597  1.00  0.00     0.163 HD
BRANCH   6   8
ATOM      8  C   UNL A   1      37.229  29.704  28.298  1.00  0.00     0.039 A 
ATOM      9  C   UNL A   1      38.282  29.776  27.386  1.00  0.00     0.014 A 
ATOM     10  C   UNL A   1      37.381  28.921  29.457  1.00  0.00     0.014 A 
ATOM     11  C   UNL A   1      39.424  29.007  27.569  1.00  0.00     0.010 A 
ATOM     12  C   UNL A   1      38.546  28.185  29.676  1.00  0.00     0.010 A 
ATOM     13  C   UNL A   1      39.567  28.233  28.725  1.00  0.00    -0.014 A 
BRANCH  13  14
ATOM     14  C   UNL A   1      40.921  27.702  28.998  1.00  0.00     0.031 A 
ATOM     15  C   UNL A   1      41.086  26.277  28.421  1.00  0.00     0.074 A 
ATOM     16  C   UNL A   1      41.742  28.472  29.773  1.00  0.00     0.049 A 
ATOM     17  N   UNL A   1      41.856  25.300  28.795  1.00  0.00    -0.248 NA
ATOM     18  C   UNL A   1      40.207  25.856  27.291  1.00  0.00     0.031 C 
ATOM     19  C   UNL A   1      41.434  29.849  30.214  1.00  0.00     0.029 A 
ATOM     20  N   UNL A   1      42.975  28.268  30.364  1.00  0.00    -0.354 N 
ATOM     21  C   UNL A   1      41.690  24.244  27.869  1.00  0.00     0.074 A 
ATOM     22  C   UNL A   1      40.592  24.605  27.030  1.00  0.00     0.031 C 
ATOM     23  C   UNL A   1      42.383  30.310  31.057  1.00  0.00     0.029 A 
ATOM     24  C   UNL A   1      43.405  29.297  31.245  1.00  0.00     0.049 A 
ATOM     25  H   UNL A   1      43.517  27.465  30.186  1.00  0.00     0.167 HD
ATOM     26  C   UNL A   1      42.534  23.173  27.785  1.00  0.00     0.037 A 
ATOM     27  C   UNL A   1      44.477  29.308  32.103  1.00  0.00     0.037 A 
ATOM     28  C   UNL A   1      43.522  23.243  28.803  1.00  0.00     0.049 A 
ATOM     29  C   UNL A   1      45.215  28.071  31.801  1.00  0.00     0.074 A 
ATOM     30  C   UNL A   1      43.467  22.985  30.146  1.00  0.00     0.029 A 
ATOM     31  N   UNL A   1      44.662  23.954  28.527  1.00  0.00    -0.354 N 
ATOM     32  N   UNL A   1      45.922  27.873  30.729  1.00  0.00    -0.248 NA
ATOM     33  C   UNL A   1      45.091  26.937  32.726  1.00  0.00     0.031 C 
ATOM     34  C   UNL A   1      44.336  23.942  30.704  1.00  0.00     0.029 A 
ATOM     35  C   UNL A   1      45.024  24.606  29.681  1.00  0.00     0.049 A 
ATOM     36  H   UNL A   1      45.133  23.991  27.663  1.00  0.00     0.167 HD
ATOM     37  C   UNL A   1      46.041  26.505  30.709  1.00  0.00     0.074 A 
ATOM     38  C   UNL A   1      45.818  26.045  32.059  1.00  0.00     0.031 C 
ATOM     39  C   UNL A   1      45.779  25.830  29.562  1.00  0.00     0.037 A 
BRANCH  26  40
ATOM     40  C   UNL A   1      42.692  22.097  26.749  1.00  0.00     0.064 A 
ATOM     41  C   UNL A   1      43.649  22.148  25.729  1.00  0.00     0.173 A 
ATOM     42  C   UNL A   1      42.101  20.830  26.990  1.00  0.00     0.173 A 
ATOM     43  F   UNL A   1      44.289  23.290  25.443  1.00  0.00    -0.203 F 
ATOM     44  C   UNL A   1      44.043  20.995  25.042  1.00  0.00     0.198 A 
ATOM     45  C   UNL A   1      42.526  19.677  26.334  1.00  0.00     0.198 A 
ATOM     46  F   UNL A   1      41.144  20.683  27.920  1.00  0.00    -0.203 F 
ATOM     47  F   UNL A   1      44.997  21.075  24.104  1.00  0.00    -0.200 F 
ATOM     48  C   UNL A   1      43.511  19.758  25.370  1.00  0.00     0.200 A 
ATOM     49  F   UNL A   1      42.024  18.485  26.684  1.00  0.00    -0.200 F 
ATOM     50  F   UNL A   1      43.969  18.645  24.780  1.00  0.00    -0.200 F 
ENDBRANCH  26  40
BRANCH  27  51
ATOM     51  C   UNL A   1      45.003  30.133  33.264  1.00  0.00     0.064 A 
ATOM     52  C   UNL A   1      44.346  30.078  34.531  1.00  0.00     0.173 A 
ATOM     53  C   UNL A   1      46.049  31.061  33.215  1.00  0.00     0.173 A 
ATOM     54  F   UNL A   1      43.445  29.129  34.818  1.00  0.00    -0.203 F 
ATOM     55  C   UNL A   1      44.570  30.991  35.562  1.00  0.00     0.198 A 
ATOM     56  C   UNL A   1      46.317  31.947  34.280  1.00  0.00     0.198 A 
ATOM     57  F   UNL A   1      46.858  31.138  32.155  1.00  0.00    -0.203 F 
ATOM     58  F   UNL A   1      43.812  30.943  36.668  1.00  0.00    -0.200 F 
ATOM     59  C   UNL A   1      45.546  31.944  35.429  1.00  0.00     0.200 A 
ATOM     60  F   UNL A   1      47.324  32.825  34.175  1.00  0.00    -0.200 F 
ATOM     61  F   UNL A   1      45.752  32.840  36.403  1.00  0.00    -0.200 F 
ENDBRANCH  27  51
BRANCH  39  62
ATOM     62  C   UNL A   1      45.966  26.652  28.305  1.00  0.00     0.064 A 
ATOM     63  C   UNL A   1      44.908  27.160  27.532  1.00  0.00     0.173 A 
ATOM     64  C   UNL A   1      47.255  27.044  27.917  1.00  0.00     0.173 A 
ATOM     65  F   UNL A   1      43.648  26.857  27.827  1.00  0.00    -0.203 F 
ATOM     66  C   UNL A   1      45.114  27.996  26.435  1.00  0.00     0.198 A 
ATOM     67  C   UNL A   1      47.467  27.888  26.822  1.00  0.00     0.198 A 
ATOM     68  F   UNL A   1      48.321  26.602  28.600  1.00  0.00    -0.203 F 
ATOM     69  F   UNL A   1      44.068  28.437  25.719  1.00  0.00    -0.200 F 
ATOM     70  C   UNL A   1      46.397  28.361  26.080  1.00  0.00     0.200 A 
ATOM     71  F   UNL A   1      48.715  28.234  26.480  1.00  0.00    -0.200 F 
ATOM     72  F   UNL A   1      46.603  29.155  25.019  1.00  0.00    -0.200 F 
ENDBRANCH  39  62
ENDBRANCH  13  14
ENDBRANCH   6   8
ENDBRANCH   3   4
ENDBRANCH   2   3
ENDBRANCH   1   2
BRANCH   1  73
ATOM     73  N   UNL A   1      32.636  27.288  23.970  1.00  0.00    -0.351 N 
ATOM     74  C   UNL A   1      32.442  25.949  23.738  1.00  0.00     0.267 C 
ATOM     75  H   UNL A   1      31.830  27.843  23.868  1.00  0.00     0.163 HD
ATOM     76  O   UNL A   1      31.439  25.615  23.111  1.00  0.00    -0.268 OA
BRANCH  74  77
ATOM     77  C   UNL A   1      33.372  24.975  24.261  1.00  0.00     0.105 A 
ATOM     78  C   UNL A   1      33.346  24.241  25.429  1.00  0.00     0.055 A 
ATOM     79  N   UNL A   1      34.452  24.499  23.544  1.00  0.00    -0.356 N 
ATOM     80  C   UNL A   1      34.365  23.269  25.399  1.00  0.00     0.106 A 
ATOM     81  C   UNL A   1      35.072  23.482  24.233  1.00  0.00     0.105 A 
ATOM     82  H   UNL A   1      34.739  24.839  22.666  1.00  0.00     0.166 HD
BRANCH  80  83
ATOM     83  S   UNL A   1      34.576  22.001  26.562  1.00  0.00     0.263 S 
ATOM     84  O   UNL A   1      35.878  21.455  26.255  1.00  0.00    -0.201 OA
ATOM     85  O   UNL A   1      34.300  22.636  27.833  1.00  0.00    -0.201 OA
BRANCH  83  86
ATOM     86  N   UNL A   1      33.431  20.769  26.374  1.00  0.00    -0.280 N 
ATOM     87  H   UNL A   1      32.901  20.494  27.156  1.00  0.00     0.180 HD
BRANCH  86  88
ATOM     88  C   UNL A   1      33.204  20.112  25.129  1.00  0.00     0.050 A 
ATOM     89  C   UNL A   1      32.425  20.630  24.094  1.00  0.00     0.030 A 
ATOM     90  C   UNL A   1      33.759  18.833  24.999  1.00  0.00     0.043 A 
ATOM     91  C   UNL A   1      32.070  19.807  23.021  1.00  0.00     0.042 A 
ATOM     92  C   UNL A   1      33.419  18.003  23.914  1.00  0.00     0.093 A 
ATOM     93  C   UNL A   1      32.551  18.502  22.949  1.00  0.00     0.135 A 
ATOM     94  F   UNL A   1      32.142  17.728  21.936  1.00  0.00    -0.206 F 
BRANCH  92  95
ATOM     95  C   UNL A   1      33.970  16.611  23.826  1.00  0.00     0.419 C 
ATOM     96  F   UNL A   1      34.378  16.305  22.564  1.00  0.00    -0.166 F 
ATOM     97  F   UNL A   1      35.073  16.456  24.617  1.00  0.00    -0.166 F 
ATOM     98  F   UNL A   1      33.113  15.626  24.196  1.00  0.00    -0.166 F 
ENDBRANCH  92  95
ENDBRANCH  86  88
ENDBRANCH  83  86
ENDBRANCH  80  83
ENDBRANCH  74  77
ENDBRANCH   1  73
TORSDOF 14
ENDMDL
MODEL 3
REMARK VINA RESULT:     -13.0      5.182     10.453
REMARK SMILES O=C(NCCCNC(=O)c1cc(S(=O)(=O)Nc2ccc(F)c(C(F)(F)F)c2)c[nH]1)c1ccc(-c2c3nc(c(-c4c(F)c(F)c(F)c(F)c4F)c4ccc([nH]4)c(-c4c(F)c(F)c(F)c(F)c4F)c4nc(c(-c5c(F)c(F)c(F)c(F)c5F)c5ccc2[nH]5)C=C4)C=C3)cc1
REMARK SMILES IDX 6 1 5 2 4 3 3 4 1 5 2 6 30 8 31 9 92 10 32 11 91 12 33 13
REMARK SMILES IDX 34 14 35 15 85 16 36 17 90 18 84 19 86 20 37 21 89 22 83 23
REMARK SMILES IDX 82 24 38 26 70 27 50 28 69 29 51 30 54 31 68 32 87 33 52 34
REMARK SMILES IDX 53 35 67 37 88 38 55 39 39 40 40 41 48 42 41 43 42 44 46 45
REMARK SMILES IDX 49 46 43 47 44 48 47 49 45 50 71 51 72 52 80 53 73 54 74 55
REMARK SMILES IDX 78 56 81 57 75 58 76 59 79 60 77 61 56 62 57 63 65 64 58 65
REMARK SMILES IDX 59 66 63 67 66 68 60 69 61 70 64 71 62 72 7 73 8 74 9 76
REMARK SMILES IDX 10 77 11 78 29 79 12 80 28 81 13 83 14 84 15 85 16 86 17 88
REMARK SMILES IDX 18 89 27 90 19 91 22 92 20 93 21 94 23 95 24 96 25 97 26 98
REMARK H PARENT 3 7 86 25 54 36 7 75 29 82 16 87
REMARK Flexibility Score: inf
ROOT
ATOM      1  C   UNL A   1      41.880  20.927  26.656  1.00  0.00     0.118 C 
ENDROOT
BRANCH   1   2
ATOM      2  C   UNL A   1      42.173  21.696  27.933  1.00  0.00     0.042 C 
BRANCH   2   3
ATOM      3  C   UNL A   1      41.461  23.041  28.004  1.00  0.00     0.118 C 
BRANCH   3   4
ATOM      4  N   UNL A   1      40.150  23.079  27.378  1.00  0.00    -0.352 N 
ATOM      5  O   UNL A   1      38.230  23.812  26.515  1.00  0.00    -0.269 OA
ATOM      6  C   UNL A   1      39.208  24.063  27.219  1.00  0.00     0.251 C 
ATOM      7  H   UNL A   1      39.881  22.217  26.986  1.00  0.00     0.163 HD
BRANCH   6   8
ATOM      8  C   UNL A   1      39.272  25.377  27.909  1.00  0.00     0.039 A 
ATOM      9  C   UNL A   1      38.950  25.567  29.253  1.00  0.00     0.014 A 
ATOM     10  C   UNL A   1      39.710  26.477  27.148  1.00  0.00     0.014 A 
ATOM     11  C   UNL A   1      38.967  26.840  29.806  1.00  0.00     0.010 A 
ATOM     12  C   UNL A   1      39.779  27.752  27.710  1.00  0.00     0.010 A 
ATOM     13  C   UNL A   1      39.405  27.928  29.043  1.00  0.00    -0.014 A 
BRANCH  13  14
ATOM     14  C   UNL A   1      39.694  29.177  29.783  1.00  0.00     0.031 A 
ATOM     15  C   UNL A   1      38.529  30.185  29.647  1.00  0.00     0.074 A 
ATOM     16  C   UNL A   1      40.930  29.284  30.355  1.00  0.00     0.049 A 
ATOM     17  N   UNL A   1      38.526  31.482  29.707  1.00  0.00    -0.248 NA
ATOM     18  C   UNL A   1      37.167  29.666  29.331  1.00  0.00     0.031 C 
ATOM     19  C   UNL A   1      41.923  28.191  30.424  1.00  0.00     0.029 A 
ATOM     20  N   UNL A   1      41.617  30.313  30.971  1.00  0.00    -0.354 N 
ATOM     21  C   UNL A   1      37.182  31.913  29.615  1.00  0.00     0.074 A 
ATOM     22  C   UNL A   1      36.405  30.761  29.285  1.00  0.00     0.031 C 
ATOM     23  C   UNL A   1      43.088  28.629  30.948  1.00  0.00     0.029 A 
ATOM     24  C   UNL A   1      42.977  30.036  31.282  1.00  0.00     0.049 A 
ATOM     25  H   UNL A   1      41.194  31.178  31.180  1.00  0.00     0.167 HD
ATOM     26  C   UNL A   1      36.773  33.181  29.917  1.00  0.00     0.037 A 
ATOM     27  C   UNL A   1      43.953  30.893  31.725  1.00  0.00     0.037 A 
ATOM     28  C   UNL A   1      37.891  33.996  30.239  1.00  0.00     0.049 A 
ATOM     29  C   UNL A   1      43.254  32.162  31.983  1.00  0.00     0.074 A 
ATOM     30  C   UNL A   1      38.847  34.583  29.456  1.00  0.00     0.029 A 
ATOM     31  N   UNL A   1      38.314  33.999  31.544  1.00  0.00    -0.354 N 
ATOM     32  N   UNL A   1      42.448  32.374  32.980  1.00  0.00    -0.248 NA
ATOM     33  C   UNL A   1      43.400  33.253  31.011  1.00  0.00     0.031 C 
ATOM     34  C   UNL A   1      40.013  34.505  30.241  1.00  0.00     0.029 A 
ATOM     35  C   UNL A   1      39.686  34.059  31.527  1.00  0.00     0.049 A 
ATOM     36  H   UNL A   1      37.741  33.964  32.344  1.00  0.00     0.167 HD
ATOM     37  C   UNL A   1      41.759  33.487  32.564  1.00  0.00     0.074 A 
ATOM     38  C   UNL A   1      42.576  34.137  31.566  1.00  0.00     0.031 C 
ATOM     39  C   UNL A   1      40.405  33.502  32.648  1.00  0.00     0.037 A 
BRANCH  26  40
ATOM     40  C   UNL A   1      35.410  33.774  30.128  1.00  0.00     0.064 A 
ATOM     41  C   UNL A   1      34.831  33.936  31.392  1.00  0.00     0.173 A 
ATOM     42  C   UNL A   1      34.816  34.508  29.068  1.00  0.00     0.173 A 
ATOM     43  F   UNL A   1      35.335  33.312  32.464  1.00  0.00    -0.203 F 
ATOM     44  C   UNL A   1      33.772  34.828  31.598  1.00  0.00     0.198 A 
ATOM     45  C   UNL A   1      33.792  35.427  29.286  1.00  0.00     0.198 A 
ATOM     46  F   UNL A   1      35.273  34.391  27.811  1.00  0.00    -0.203 F 
ATOM     47  F   UNL A   1      33.275  34.993  32.832  1.00  0.00    -0.200 F 
ATOM     48  C   UNL A   1      33.280  35.598  30.556  1.00  0.00     0.200 A 
ATOM     49  F   UNL A   1      33.349  36.185  28.274  1.00  0.00    -0.200 F 
ATOM     50  F   UNL A   1      32.339  36.525  30.783  1.00  0.00    -0.200 F 
ENDBRANCH  26  40
BRANCH  27  51
ATOM     51  C   UNL A   1      45.462  30.914  31.900  1.00  0.00     0.064 A 
ATOM     52  C   UNL A   1      46.036  31.534  33.051  1.00  0.00     0.173 A 
ATOM     53  C   UNL A   1      46.410  30.461  30.976  1.00  0.00     0.173 A 
ATOM     54  F   UNL A   1      45.294  31.864  34.117  1.00  0.00    -0.203 F 
ATOM     55  C   UNL A   1      47.389  31.853  33.168  1.00  0.00     0.198 A 
ATOM     56  C   UNL A   1      47.787  30.730  31.120  1.00  0.00     0.198 A 
ATOM     57  F   UNL A   1      46.051  29.733  29.914  1.00  0.00    -0.203 F 
ATOM     58  F   UNL A   1      47.817  32.554  34.229  1.00  0.00    -0.200 F 
ATOM     59  C   UNL A   1      48.267  31.468  32.188  1.00  0.00     0.200 A 
ATOM     60  F   UNL A   1      48.651  30.284  30.198  1.00  0.00    -0.200 F 
ATOM     61  F   UNL A   1      49.564  31.790  32.280  1.00  0.00    -0.200 F 
ENDBRANCH  27  51
BRANCH  39  62
ATOM     62  C   UNL A   1      39.842  32.582  33.709  1.00  0.00     0.064 A 
ATOM     63  C   UNL A   1      39.877  32.853  35.086  1.00  0.00     0.173 A 
ATOM     64  C   UNL A   1      39.138  31.430  33.326  1.00  0.00     0.173 A 
ATOM     65  F   UNL A   1      40.509  33.928  35.549  1.00  0.00    -0.203 F 
ATOM     66  C   UNL A   1      39.263  32.030  36.030  1.00  0.00     0.198 A 
ATOM     67  C   UNL A   1      38.514  30.606  34.267  1.00  0.00     0.198 A 
ATOM     68  F   UNL A   1      39.057  31.097  32.030  1.00  0.00    -0.203 F 
ATOM     69  F   UNL A   1      39.345  32.326  37.336  1.00  0.00    -0.200 F 
ATOM     70  C   UNL A   1      38.579  30.904  35.619  1.00  0.00     0.200 A 
ATOM     71  F   UNL A   1      37.856  29.512  33.861  1.00  0.00    -0.200 F 
ATOM     72  F   UNL A   1      37.996  30.102  36.522  1.00  0.00    -0.200 F 
ENDBRANCH  39  62
ENDBRANCH  13  14
ENDBRANCH   6   8
ENDBRANCH   3   4
ENDBRANCH   2   3
ENDBRANCH   1   2
BRANCH   1  73
ATOM     73  N   UNL A   1      42.930  19.967  26.354  1.00  0.00    -0.351 N 
ATOM     74  C   UNL A   1      44.035  20.072  25.547  1.00  0.00     0.267 C 
ATOM     75  H   UNL A   1      42.831  19.096  26.803  1.00  0.00     0.163 HD
ATOM     76  O   UNL A   1      44.581  19.033  25.182  1.00  0.00    -0.268 OA
BRANCH  74  77
ATOM     77  C   UNL A   1      44.555  21.371  25.187  1.00  0.00     0.105 A 
ATOM     78  C   UNL A   1      45.050  22.393  25.971  1.00  0.00     0.055 A 
ATOM     79  N   UNL A   1      44.772  21.764  23.881  1.00  0.00    -0.356 N 
ATOM     80  C   UNL A   1      45.632  23.379  25.151  1.00  0.00     0.106 A 
ATOM     81  C   UNL A   1      45.403  22.986  23.847  1.00  0.00     0.105 A 
ATOM     82  H   UNL A   1      44.511  21.245  23.086  1.00  0.00     0.166 HD
BRANCH  80  83
ATOM     83  S   UNL A   1      46.550  24.738  25.713  1.00  0.00     0.263 S 
ATOM     84  O   UNL A   1      47.662  24.144  26.418  1.00  0.00    -0.201 OA
ATOM     85  O   UNL A   1      46.746  25.546  24.529  1.00  0.00    -0.201 OA
BRANCH  83  86
ATOM     86  N   UNL A   1      45.677  25.684  26.811  1.00  0.00    -0.280 N 
ATOM     87  H   UNL A   1      45.984  25.727  27.744  1.00  0.00     0.180 HD
BRANCH  86  88
ATOM     88  C   UNL A   1      44.514  26.422  26.438  1.00  0.00     0.050 A 
ATOM     89  C   UNL A   1      43.580  25.999  25.492  1.00  0.00     0.030 A 
ATOM     90  C   UNL A   1      44.370  27.682  27.032  1.00  0.00     0.043 A 
ATOM     91  C   UNL A   1      42.616  26.897  25.026  1.00  0.00     0.042 A 
ATOM     92  C   UNL A   1      43.392  28.587  26.580  1.00  0.00     0.093 A 
ATOM     93  C   UNL A   1      42.541  28.183  25.557  1.00  0.00     0.135 A 
ATOM     94  F   UNL A   1      41.641  29.031  25.045  1.00  0.00    -0.206 F 
BRANCH  92  95
ATOM     95  C   UNL A   1      43.295  29.958  27.182  1.00  0.00     0.419 C 
ATOM     96  F   UNL A   1      43.468  30.936  26.250  1.00  0.00    -0.166 F 
ATOM     97  F   UNL A   1      42.063  30.182  27.726  1.00  0.00    -0.166 F 
ATOM     98  F   UNL A   1      44.185  30.217  28.173  1.00  0.00    -0.166 F 
ENDBRANCH  92  95
ENDBRANCH  86  88
ENDBRANCH  83  86
ENDBRANCH  80  83
ENDBRANCH  74  77
ENDBRANCH   1  73
TORSDOF 14
ENDMDL
