MODEL 1
REMARK VINA RESULT:     -11.0      0.000      0.000
REMARK SMILES COc1c(Br)cc(C)cc1C(=O)NCCCNC(=O)c1ccc(-c2c3nc(c(-c4c(F)c(F)c(F)c(F)c4F)c4ccc([nH]4)c(-c4c(F)c(F)c(F)c(F)c4F)c4nc(c(-c5c(F)c(F)c(F)c(F)c5F)c5ccc2[nH]5)C=C4)C=C3)cc1
REMARK SMILES IDX 15 1 14 2 13 3 11 4 12 5 10 7 3 8 4 9 5 10 6 11 9 12 7 13
REMARK SMILES IDX 8 14 2 15 1 16 16 17 17 18 18 19 19 21 20 22 21 23 82 24
REMARK SMILES IDX 22 25 81 26 23 27 24 28 25 29 75 30 26 31 80 32 74 33 76 34
REMARK SMILES IDX 27 35 79 36 73 37 72 38 28 40 60 41 40 42 59 43 41 44 44 45
REMARK SMILES IDX 58 46 77 47 42 48 43 49 57 51 78 52 45 53 29 54 30 55 38 56
REMARK SMILES IDX 31 57 32 58 36 59 39 60 33 61 34 62 37 63 35 64 61 65 62 66
REMARK SMILES IDX 70 67 63 68 64 69 68 70 71 71 65 72 66 73 69 74 67 75 46 76
REMARK SMILES IDX 47 77 55 78 48 79 49 80 53 81 56 82 50 83 51 84 54 85 52 86
REMARK H PARENT 13 6 17 20 76 39 44 50
REMARK Flexibility Score: inf
ROOT
ATOM      1  C   UNL A   1      35.220  22.930  26.854  1.00  0.00     0.042 C 
ENDROOT
BRANCH   1   2
ATOM      2  C   UNL A   1      34.022  22.356  26.094  1.00  0.00     0.118 C 
BRANCH   2   3
ATOM      3  N   UNL A   1      32.773  22.877  26.616  1.00  0.00    -0.352 N 
ATOM      4  C   UNL A   1      32.111  24.077  26.564  1.00  0.00     0.255 C 
ATOM      5  O   UNL A   1      31.063  24.089  27.211  1.00  0.00    -0.269 OA
ATOM      6  H   UNL A   1      32.279  22.202  27.136  1.00  0.00     0.163 HD
BRANCH   4   7
ATOM      7  C   UNL A   1      32.565  25.284  25.789  1.00  0.00     0.083 A 
ATOM      8  C   UNL A   1      32.520  25.281  24.376  1.00  0.00     0.145 A 
ATOM      9  C   UNL A   1      33.079  26.344  23.642  1.00  0.00     0.061 A 
ATOM     10  Br  UNL A   1      33.135  26.336  21.740  1.00  0.00    -0.047 Br
ATOM     11  C   UNL A   1      33.630  27.445  24.294  1.00  0.00     0.023 A 
ATOM     12  C   UNL A   1      33.052  26.444  26.413  1.00  0.00     0.021 A 
ATOM     13  C   UNL A   1      33.611  27.508  25.687  1.00  0.00    -0.049 A 
ATOM     14  C   UNL A   1      34.211  28.693  26.389  1.00  0.00     0.044 C 
BRANCH   8  15
ATOM     15  O   UNL A   1      31.997  24.224  23.670  1.00  0.00    -0.495 OA
ATOM     16  C   UNL A   1      30.591  24.409  23.459  1.00  0.00     0.278 C 
ENDBRANCH   8  15
ENDBRANCH   4   7
ENDBRANCH   2   3
ENDBRANCH   1   2
BRANCH   1  17
ATOM     17  C   UNL A   1      36.350  23.423  25.946  1.00  0.00     0.118 C 
BRANCH  17  18
ATOM     18  N   UNL A   1      37.512  22.550  25.996  1.00  0.00    -0.352 N 
ATOM     19  C   UNL A   1      38.828  22.821  26.263  1.00  0.00     0.251 C 
ATOM     20  H   UNL A   1      37.321  21.603  25.805  1.00  0.00     0.163 HD
ATOM     21  O   UNL A   1      39.676  21.969  26.007  1.00  0.00    -0.269 OA
BRANCH  19  22
ATOM     22  C   UNL A   1      39.251  24.111  26.853  1.00  0.00     0.039 A 
ATOM     23  C   UNL A   1      39.946  25.014  26.040  1.00  0.00     0.014 A 
ATOM     24  C   UNL A   1      39.061  24.402  28.207  1.00  0.00     0.014 A 
ATOM     25  C   UNL A   1      40.416  26.216  26.572  1.00  0.00     0.010 A 
ATOM     26  C   UNL A   1      39.480  25.629  28.724  1.00  0.00     0.010 A 
ATOM     27  C   UNL A   1      40.169  26.543  27.914  1.00  0.00    -0.014 A 
BRANCH  27  28
ATOM     28  C   UNL A   1      40.628  27.841  28.471  1.00  0.00     0.031 A 
ATOM     29  C   UNL A   1      42.080  28.069  28.790  1.00  0.00     0.074 A 
ATOM     30  C   UNL A   1      39.723  28.807  28.721  1.00  0.00     0.049 A 
ATOM     31  N   UNL A   1      42.658  29.130  29.295  1.00  0.00    -0.248 NA
ATOM     32  C   UNL A   1      42.998  26.951  28.527  1.00  0.00     0.031 C 
ATOM     33  C   UNL A   1      38.281  28.687  28.500  1.00  0.00     0.029 A 
ATOM     34  N   UNL A   1      39.881  30.075  29.217  1.00  0.00    -0.354 N 
ATOM     35  C   UNL A   1      44.003  28.804  29.422  1.00  0.00     0.074 A 
ATOM     36  C   UNL A   1      44.148  27.433  28.982  1.00  0.00     0.031 C 
ATOM     37  C   UNL A   1      37.688  29.843  28.837  1.00  0.00     0.029 A 
ATOM     38  C   UNL A   1      38.702  30.775  29.321  1.00  0.00     0.049 A 
ATOM     39  H   UNL A   1      40.753  30.450  29.476  1.00  0.00     0.167 HD
ATOM     40  C   UNL A   1      45.025  29.584  29.848  1.00  0.00     0.037 A 
ATOM     41  C   UNL A   1      38.469  32.027  29.753  1.00  0.00     0.037 A 
ATOM     42  C   UNL A   1      44.884  30.957  30.262  1.00  0.00     0.049 A 
ATOM     43  C   UNL A   1      39.626  32.879  30.195  1.00  0.00     0.074 A 
ATOM     44  C   UNL A   1      45.866  31.846  30.661  1.00  0.00     0.029 A 
ATOM     45  N   UNL A   1      43.678  31.639  30.327  1.00  0.00    -0.354 N 
ATOM     46  N   UNL A   1      40.900  32.580  30.252  1.00  0.00    -0.248 NA
ATOM     47  C   UNL A   1      39.311  34.250  30.621  1.00  0.00     0.031 C 
ATOM     48  C   UNL A   1      45.251  33.058  30.999  1.00  0.00     0.029 A 
ATOM     49  C   UNL A   1      43.890  32.935  30.772  1.00  0.00     0.049 A 
ATOM     50  H   UNL A   1      42.801  31.260  30.093  1.00  0.00     0.167 HD
ATOM     51  C   UNL A   1      41.541  33.726  30.699  1.00  0.00     0.074 A 
ATOM     52  C   UNL A   1      40.517  34.734  30.878  1.00  0.00     0.031 C 
ATOM     53  C   UNL A   1      42.859  33.925  30.943  1.00  0.00     0.037 A 
BRANCH  40  54
ATOM     54  C   UNL A   1      46.397  28.974  29.883  1.00  0.00     0.064 A 
ATOM     55  C   UNL A   1      46.883  28.328  31.030  1.00  0.00     0.173 A 
ATOM     56  C   UNL A   1      47.218  28.998  28.746  1.00  0.00     0.173 A 
ATOM     57  F   UNL A   1      46.139  28.287  32.147  1.00  0.00    -0.203 F 
ATOM     58  C   UNL A   1      48.148  27.748  31.045  1.00  0.00     0.198 A 
ATOM     59  C   UNL A   1      48.474  28.394  28.756  1.00  0.00     0.198 A 
ATOM     60  F   UNL A   1      46.800  29.597  27.621  1.00  0.00    -0.203 F 
ATOM     61  F   UNL A   1      48.607  27.173  32.165  1.00  0.00    -0.200 F 
ATOM     62  C   UNL A   1      48.940  27.776  29.907  1.00  0.00     0.200 A 
ATOM     63  F   UNL A   1      49.233  28.412  27.652  1.00  0.00    -0.200 F 
ATOM     64  F   UNL A   1      50.155  27.211  29.920  1.00  0.00    -0.200 F 
ENDBRANCH  40  54
BRANCH  41  65
ATOM     65  C   UNL A   1      37.084  32.563  29.754  1.00  0.00     0.064 A 
ATOM     66  C   UNL A   1      36.246  32.386  30.864  1.00  0.00     0.173 A 
ATOM     67  C   UNL A   1      36.571  33.261  28.651  1.00  0.00     0.173 A 
ATOM     68  F   UNL A   1      36.688  31.709  31.934  1.00  0.00    -0.203 F 
ATOM     69  C   UNL A   1      34.940  32.871  30.863  1.00  0.00     0.198 A 
ATOM     70  C   UNL A   1      35.273  33.767  28.662  1.00  0.00     0.198 A 
ATOM     71  F   UNL A   1      37.336  33.462  27.568  1.00  0.00    -0.203 F 
ATOM     72  F   UNL A   1      34.147  32.651  31.920  1.00  0.00    -0.200 F 
ATOM     73  C   UNL A   1      34.456  33.564  29.765  1.00  0.00     0.200 A 
ATOM     74  F   UNL A   1      34.813  34.449  27.604  1.00  0.00    -0.200 F 
ATOM     75  F   UNL A   1      33.201  34.033  29.765  1.00  0.00    -0.200 F 
ENDBRANCH  41  65
BRANCH  53  76
ATOM     76  C   UNL A   1      43.264  35.292  31.409  1.00  0.00     0.064 A 
ATOM     77  C   UNL A   1      43.232  35.643  32.767  1.00  0.00     0.173 A 
ATOM     78  C   UNL A   1      43.699  36.258  30.489  1.00  0.00     0.173 A 
ATOM     79  F   UNL A   1      42.808  34.760  33.683  1.00  0.00    -0.203 F 
ATOM     80  C   UNL A   1      43.591  36.922  33.183  1.00  0.00     0.198 A 
ATOM     81  C   UNL A   1      44.082  37.527  30.912  1.00  0.00     0.198 A 
ATOM     82  F   UNL A   1      43.752  35.969  29.180  1.00  0.00    -0.203 F 
ATOM     83  F   UNL A   1      43.502  37.253  34.479  1.00  0.00    -0.200 F 
ATOM     84  C   UNL A   1      44.020  37.861  32.256  1.00  0.00     0.200 A 
ATOM     85  F   UNL A   1      44.505  38.431  30.016  1.00  0.00    -0.200 F 
ATOM     86  F   UNL A   1      44.361  39.093  32.658  1.00  0.00    -0.200 F 
ENDBRANCH  53  76
ENDBRANCH  27  28
ENDBRANCH  19  22
ENDBRANCH  17  18
ENDBRANCH   1  17
TORSDOF 11
ENDMDL
MODEL 2
REMARK VINA RESULT:     -10.9      4.207      8.830
REMARK SMILES COc1c(Br)cc(C)cc1C(=O)NCCCNC(=O)c1ccc(-c2c3nc(c(-c4c(F)c(F)c(F)c(F)c4F)c4ccc([nH]4)c(-c4c(F)c(F)c(F)c(F)c4F)c4nc(c(-c5c(F)c(F)c(F)c(F)c5F)c5ccc2[nH]5)C=C4)C=C3)cc1
REMARK SMILES IDX 15 1 14 2 13 3 11 4 12 5 10 7 3 8 4 9 5 10 6 11 9 12 7 13
REMARK SMILES IDX 8 14 2 15 1 16 16 17 17 18 18 19 19 21 20 22 21 23 82 24
REMARK SMILES IDX 22 25 81 26 23 27 24 28 25 29 75 30 26 31 80 32 74 33 76 34
REMARK SMILES IDX 27 35 79 36 73 37 72 38 28 40 60 41 40 42 59 43 41 44 44 45
REMARK SMILES IDX 58 46 77 47 42 48 43 49 57 51 78 52 45 53 29 54 30 55 38 56
REMARK SMILES IDX 31 57 32 58 36 59 39 60 33 61 34 62 37 63 35 64 61 65 62 66
REMARK SMILES IDX 70 67 63 68 64 69 68 70 71 71 65 72 66 73 69 74 67 75 46 76
REMARK SMILES IDX 47 77 55 78 48 79 49 80 53 81 56 82 50 83 51 84 54 85 52 86
REMARK H PARENT 13 6 17 20 76 39 44 50
REMARK Flexibility Score: inf
ROOT
ATOM      1  C   UNL A   1      33.706  28.890  23.692  1.00  0.00     0.042 C 
ENDROOT
BRANCH   1   2
ATOM      2  C   UNL A   1      32.429  28.439  22.980  1.00  0.00     0.118 C 
BRANCH   2   3
ATOM      3  N   UNL A   1      32.712  27.407  22.001  1.00  0.00    -0.352 N 
ATOM      4  C   UNL A   1      33.109  26.095  22.045  1.00  0.00     0.255 C 
ATOM      5  O   UNL A   1      33.279  25.595  20.932  1.00  0.00    -0.269 OA
ATOM      6  H   UNL A   1      32.590  27.728  21.079  1.00  0.00     0.163 HD
BRANCH   4   7
ATOM      7  C   UNL A   1      33.310  25.291  23.301  1.00  0.00     0.083 A 
ATOM      8  C   UNL A   1      32.201  24.933  24.102  1.00  0.00     0.145 A 
ATOM      9  C   UNL A   1      32.394  24.313  25.350  1.00  0.00     0.061 A 
ATOM     10  Br  UNL A   1      30.940  23.906  26.508  1.00  0.00    -0.047 Br
ATOM     11  C   UNL A   1      33.674  23.984  25.790  1.00  0.00     0.023 A 
ATOM     12  C   UNL A   1      34.578  24.872  23.736  1.00  0.00     0.021 A 
ATOM     13  C   UNL A   1      34.777  24.252  24.981  1.00  0.00    -0.049 A 
ATOM     14  C   UNL A   1      36.157  23.903  25.459  1.00  0.00     0.044 C 
BRANCH   8  15
ATOM     15  O   UNL A   1      30.912  25.233  23.730  1.00  0.00    -0.495 OA
ATOM     16  C   UNL A   1      30.286  24.095  23.126  1.00  0.00     0.278 C 
ENDBRANCH   8  15
ENDBRANCH   4   7
ENDBRANCH   2   3
ENDBRANCH   1   2
BRANCH   1  17
ATOM     17  C   UNL A   1      33.603  28.868  25.220  1.00  0.00     0.118 C 
BRANCH  17  18
ATOM     18  N   UNL A   1      33.102  30.125  25.753  1.00  0.00    -0.352 N 
ATOM     19  C   UNL A   1      33.473  30.843  26.859  1.00  0.00     0.251 C 
ATOM     20  H   UNL A   1      32.371  30.529  25.230  1.00  0.00     0.163 HD
ATOM     21  O   UNL A   1      32.746  31.751  27.251  1.00  0.00    -0.269 OA
BRANCH  19  22
ATOM     22  C   UNL A   1      34.729  30.553  27.587  1.00  0.00     0.039 A 
ATOM     23  C   UNL A   1      34.820  29.347  28.293  1.00  0.00     0.014 A 
ATOM     24  C   UNL A   1      35.769  31.483  27.666  1.00  0.00     0.014 A 
ATOM     25  C   UNL A   1      35.963  29.060  29.043  1.00  0.00     0.010 A 
ATOM     26  C   UNL A   1      36.935  31.171  28.368  1.00  0.00     0.010 A 
ATOM     27  C   UNL A   1      37.038  29.961  29.070  1.00  0.00    -0.014 A 
BRANCH  27  28
ATOM     28  C   UNL A   1      38.273  29.638  29.830  1.00  0.00     0.031 A 
ATOM     29  C   UNL A   1      38.517  30.236  31.188  1.00  0.00     0.074 A 
ATOM     30  C   UNL A   1      39.194  28.827  29.275  1.00  0.00     0.049 A 
ATOM     31  N   UNL A   1      39.543  30.081  31.987  1.00  0.00    -0.248 NA
ATOM     32  C   UNL A   1      37.483  31.144  31.707  1.00  0.00     0.031 C 
ATOM     33  C   UNL A   1      39.094  28.225  27.945  1.00  0.00     0.029 A 
ATOM     34  N   UNL A   1      40.394  28.372  29.758  1.00  0.00    -0.354 N 
ATOM     35  C   UNL A   1      39.284  30.879  33.095  1.00  0.00     0.074 A 
ATOM     36  C   UNL A   1      38.027  31.551  32.847  1.00  0.00     0.031 C 
ATOM     37  C   UNL A   1      40.175  27.461  27.726  1.00  0.00     0.029 A 
ATOM     38  C   UNL A   1      41.056  27.539  28.888  1.00  0.00     0.049 A 
ATOM     39  H   UNL A   1      40.749  28.618  30.642  1.00  0.00     0.167 HD
ATOM     40  C   UNL A   1      40.020  31.022  34.223  1.00  0.00     0.037 A 
ATOM     41  C   UNL A   1      42.237  26.908  29.016  1.00  0.00     0.037 A 
ATOM     42  C   UNL A   1      41.259  30.334  34.480  1.00  0.00     0.049 A 
ATOM     43  C   UNL A   1      43.019  27.064  30.290  1.00  0.00     0.074 A 
ATOM     44  C   UNL A   1      42.052  30.373  35.614  1.00  0.00     0.029 A 
ATOM     45  N   UNL A   1      41.884  29.477  33.587  1.00  0.00    -0.354 N 
ATOM     46  N   UNL A   1      42.734  27.773  31.354  1.00  0.00    -0.248 NA
ATOM     47  C   UNL A   1      44.283  26.320  30.384  1.00  0.00     0.031 C 
ATOM     48  C   UNL A   1      43.173  29.564  35.394  1.00  0.00     0.029 A 
ATOM     49  C   UNL A   1      43.059  28.991  34.139  1.00  0.00     0.049 A 
ATOM     50  H   UNL A   1      41.544  29.248  32.692  1.00  0.00     0.167 HD
ATOM     51  C   UNL A   1      43.767  27.547  32.251  1.00  0.00     0.074 A 
ATOM     52  C   UNL A   1      44.677  26.617  31.614  1.00  0.00     0.031 C 
ATOM     53  C   UNL A   1      43.951  28.065  33.490  1.00  0.00     0.037 A 
BRANCH  40  54
ATOM     54  C   UNL A   1      39.501  31.959  35.277  1.00  0.00     0.064 A 
ATOM     55  C   UNL A   1      38.620  31.520  36.276  1.00  0.00     0.173 A 
ATOM     56  C   UNL A   1      39.921  33.297  35.313  1.00  0.00     0.173 A 
ATOM     57  F   UNL A   1      38.180  30.252  36.280  1.00  0.00    -0.203 F 
ATOM     58  C   UNL A   1      38.161  32.392  37.260  1.00  0.00     0.198 A 
ATOM     59  C   UNL A   1      39.479  34.160  36.313  1.00  0.00     0.198 A 
ATOM     60  F   UNL A   1      40.767  33.766  34.384  1.00  0.00    -0.203 F 
ATOM     61  F   UNL A   1      37.287  31.961  38.181  1.00  0.00    -0.200 F 
ATOM     62  C   UNL A   1      38.595  33.708  37.282  1.00  0.00     0.200 A 
ATOM     63  F   UNL A   1      39.909  35.429  36.340  1.00  0.00    -0.200 F 
ATOM     64  F   UNL A   1      38.158  34.545  38.233  1.00  0.00    -0.200 F 
ENDBRANCH  40  54
BRANCH  41  65
ATOM     65  C   UNL A   1      42.734  26.039  27.919  1.00  0.00     0.064 A 
ATOM     66  C   UNL A   1      42.336  24.699  27.828  1.00  0.00     0.173 A 
ATOM     67  C   UNL A   1      43.614  26.528  26.943  1.00  0.00     0.173 A 
ATOM     68  F   UNL A   1      41.510  24.183  28.750  1.00  0.00    -0.203 F 
ATOM     69  C   UNL A   1      42.814  23.874  26.812  1.00  0.00     0.198 A 
ATOM     70  C   UNL A   1      44.072  25.709  25.913  1.00  0.00     0.198 A 
ATOM     71  F   UNL A   1      44.019  27.806  26.983  1.00  0.00    -0.203 F 
ATOM     72  F   UNL A   1      42.450  22.585  26.773  1.00  0.00    -0.200 F 
ATOM     73  C   UNL A   1      43.677  24.381  25.854  1.00  0.00     0.200 A 
ATOM     74  F   UNL A   1      44.895  26.206  24.980  1.00  0.00    -0.200 F 
ATOM     75  F   UNL A   1      44.135  23.589  24.874  1.00  0.00    -0.200 F 
ENDBRANCH  41  65
BRANCH  53  76
ATOM     76  C   UNL A   1      45.170  27.618  34.240  1.00  0.00     0.064 A 
ATOM     77  C   UNL A   1      46.383  28.318  34.153  1.00  0.00     0.173 A 
ATOM     78  C   UNL A   1      45.123  26.482  35.063  1.00  0.00     0.173 A 
ATOM     79  F   UNL A   1      46.482  29.400  33.366  1.00  0.00    -0.203 F 
ATOM     80  C   UNL A   1      47.512  27.879  34.838  1.00  0.00     0.198 A 
ATOM     81  C   UNL A   1      46.247  26.062  35.767  1.00  0.00     0.198 A 
ATOM     82  F   UNL A   1      43.985  25.781  35.182  1.00  0.00    -0.203 F 
ATOM     83  F   UNL A   1      48.674  28.532  34.699  1.00  0.00    -0.200 F 
ATOM     84  C   UNL A   1      47.443  26.755  35.648  1.00  0.00     0.200 A 
ATOM     85  F   UNL A   1      46.176  24.980  36.556  1.00  0.00    -0.200 F 
ATOM     86  F   UNL A   1      48.531  26.331  36.304  1.00  0.00    -0.200 F 
ENDBRANCH  53  76
ENDBRANCH  27  28
ENDBRANCH  19  22
ENDBRANCH  17  18
ENDBRANCH   1  17
TORSDOF 11
ENDMDL
MODEL 3
REMARK VINA RESULT:     -10.9      4.465     10.042
REMARK SMILES COc1c(Br)cc(C)cc1C(=O)NCCCNC(=O)c1ccc(-c2c3nc(c(-c4c(F)c(F)c(F)c(F)c4F)c4ccc([nH]4)c(-c4c(F)c(F)c(F)c(F)c4F)c4nc(c(-c5c(F)c(F)c(F)c(F)c5F)c5ccc2[nH]5)C=C4)C=C3)cc1
REMARK SMILES IDX 15 1 14 2 13 3 11 4 12 5 10 7 3 8 4 9 5 10 6 11 9 12 7 13
REMARK SMILES IDX 8 14 2 15 1 16 16 17 17 18 18 19 19 21 20 22 21 23 82 24
REMARK SMILES IDX 22 25 81 26 23 27 24 28 25 29 75 30 26 31 80 32 74 33 76 34
REMARK SMILES IDX 27 35 79 36 73 37 72 38 28 40 60 41 40 42 59 43 41 44 44 45
REMARK SMILES IDX 58 46 77 47 42 48 43 49 57 51 78 52 45 53 29 54 30 55 38 56
REMARK SMILES IDX 31 57 32 58 36 59 39 60 33 61 34 62 37 63 35 64 61 65 62 66
REMARK SMILES IDX 70 67 63 68 64 69 68 70 71 71 65 72 66 73 69 74 67 75 46 76
REMARK SMILES IDX 47 77 55 78 48 79 49 80 53 81 56 82 50 83 51 84 54 85 52 86
REMARK H PARENT 13 6 17 20 76 39 44 50
REMARK Flexibility Score: inf
ROOT
ATOM      1  C   UNL A   1      34.773  32.526  30.488  1.00  0.00     0.042 C 
ENDROOT
BRANCH   1   2
ATOM      2  C   UNL A   1      34.946  33.914  31.108  1.00  0.00     0.118 C 
BRANCH   2   3
ATOM      3  N   UNL A   1      36.314  34.376  30.985  1.00  0.00    -0.352 N 
ATOM      4  C   UNL A   1      37.497  34.128  31.634  1.00  0.00     0.255 C 
ATOM      5  O   UNL A   1      38.440  34.798  31.211  1.00  0.00    -0.269 OA
ATOM      6  H   UNL A   1      36.421  35.028  30.255  1.00  0.00     0.163 HD
BRANCH   4   7
ATOM      7  C   UNL A   1      37.684  33.129  32.744  1.00  0.00     0.083 A 
ATOM      8  C   UNL A   1      37.372  33.480  34.077  1.00  0.00     0.145 A 
ATOM      9  C   UNL A   1      37.683  32.607  35.136  1.00  0.00     0.061 A 
ATOM     10  Br  UNL A   1      37.378  33.079  36.953  1.00  0.00    -0.047 Br
ATOM     11  C   UNL A   1      38.245  31.357  34.884  1.00  0.00     0.023 A 
ATOM     12  C   UNL A   1      38.173  31.832  32.519  1.00  0.00     0.021 A 
ATOM     13  C   UNL A   1      38.485  30.955  33.571  1.00  0.00    -0.049 A 
ATOM     14  C   UNL A   1      39.097  29.610  33.302  1.00  0.00     0.044 C 
BRANCH   8  15
ATOM     15  O   UNL A   1      36.823  34.699  34.396  1.00  0.00    -0.495 OA
ATOM     16  C   UNL A   1      35.398  34.594  34.507  1.00  0.00     0.278 C 
ENDBRANCH   8  15
ENDBRANCH   4   7
ENDBRANCH   2   3
ENDBRANCH   1   2
BRANCH   1  17
ATOM     17  C   UNL A   1      34.679  32.538  28.960  1.00  0.00     0.118 C 
BRANCH  17  18
ATOM     18  N   UNL A   1      34.098  31.311  28.438  1.00  0.00    -0.352 N 
ATOM     19  C   UNL A   1      34.685  30.143  28.026  1.00  0.00     0.251 C 
ATOM     20  H   UNL A   1      33.115  31.321  28.369  1.00  0.00     0.163 HD
ATOM     21  O   UNL A   1      34.015  29.332  27.392  1.00  0.00    -0.269 OA
BRANCH  19  22
ATOM     22  C   UNL A   1      36.100  29.837  28.330  1.00  0.00     0.039 A 
ATOM     23  C   UNL A   1      37.046  30.002  27.311  1.00  0.00     0.014 A 
ATOM     24  C   UNL A   1      36.494  29.303  29.560  1.00  0.00     0.014 A 
ATOM     25  C   UNL A   1      38.383  29.668  27.536  1.00  0.00     0.010 A 
ATOM     26  C   UNL A   1      37.839  29.023  29.804  1.00  0.00     0.010 A 
ATOM     27  C   UNL A   1      38.794  29.194  28.791  1.00  0.00    -0.014 A 
BRANCH  27  28
ATOM     28  C   UNL A   1      40.223  28.881  29.047  1.00  0.00     0.031 A 
ATOM     29  C   UNL A   1      41.104  29.858  29.776  1.00  0.00     0.074 A 
ATOM     30  C   UNL A   1      40.736  27.723  28.590  1.00  0.00     0.049 A 
ATOM     31  N   UNL A   1      42.376  29.762  30.074  1.00  0.00    -0.248 NA
ATOM     32  C   UNL A   1      40.480  31.118  30.207  1.00  0.00     0.031 C 
ATOM     33  C   UNL A   1      39.995  26.717  27.828  1.00  0.00     0.029 A 
ATOM     34  N   UNL A   1      41.998  27.198  28.696  1.00  0.00    -0.354 N 
ATOM     35  C   UNL A   1      42.706  30.950  30.715  1.00  0.00     0.074 A 
ATOM     36  C   UNL A   1      41.514  31.770  30.724  1.00  0.00     0.031 C 
ATOM     37  C   UNL A   1      40.809  25.685  27.555  1.00  0.00     0.029 A 
ATOM     38  C   UNL A   1      42.133  25.967  28.099  1.00  0.00     0.049 A 
ATOM     39  H   UNL A   1      42.738  27.658  29.154  1.00  0.00     0.167 HD
ATOM     40  C   UNL A   1      43.891  31.314  31.261  1.00  0.00     0.037 A 
ATOM     41  C   UNL A   1      43.204  25.158  28.006  1.00  0.00     0.037 A 
ATOM     42  C   UNL A   1      45.070  30.487  31.274  1.00  0.00     0.049 A 
ATOM     43  C   UNL A   1      44.499  25.576  28.646  1.00  0.00     0.074 A 
ATOM     44  C   UNL A   1      46.302  30.745  31.848  1.00  0.00     0.029 A 
ATOM     45  N   UNL A   1      45.160  29.235  30.683  1.00  0.00    -0.354 N 
ATOM     46  N   UNL A   1      44.781  26.674  29.302  1.00  0.00    -0.248 NA
ATOM     47  C   UNL A   1      45.621  24.633  28.542  1.00  0.00     0.031 C 
ATOM     48  C   UNL A   1      47.149  29.663  31.578  1.00  0.00     0.029 A 
ATOM     49  C   UNL A   1      46.432  28.714  30.869  1.00  0.00     0.049 A 
ATOM     50  H   UNL A   1      44.430  28.783  30.202  1.00  0.00     0.167 HD
ATOM     51  C   UNL A   1      46.101  26.549  29.706  1.00  0.00     0.074 A 
ATOM     52  C   UNL A   1      46.559  25.256  29.240  1.00  0.00     0.031 C 
ATOM     53  C   UNL A   1      46.869  27.426  30.398  1.00  0.00     0.037 A 
BRANCH  40  54
ATOM     54  C   UNL A   1      43.972  32.670  31.903  1.00  0.00     0.064 A 
ATOM     55  C   UNL A   1      43.637  32.864  33.251  1.00  0.00     0.173 A 
ATOM     56  C   UNL A   1      44.430  33.778  31.174  1.00  0.00     0.173 A 
ATOM     57  F   UNL A   1      43.185  31.837  33.988  1.00  0.00    -0.203 F 
ATOM     58  C   UNL A   1      43.736  34.121  33.841  1.00  0.00     0.198 A 
ATOM     59  C   UNL A   1      44.552  35.029  31.774  1.00  0.00     0.198 A 
ATOM     60  F   UNL A   1      44.769  33.646  29.883  1.00  0.00    -0.203 F 
ATOM     61  F   UNL A   1      43.372  34.290  35.119  1.00  0.00    -0.200 F 
ATOM     62  C   UNL A   1      44.199  35.201  33.104  1.00  0.00     0.200 A 
ATOM     63  F   UNL A   1      45.010  36.069  31.064  1.00  0.00    -0.200 F 
ATOM     64  F   UNL A   1      44.300  36.409  33.675  1.00  0.00    -0.200 F 
ENDBRANCH  40  54
BRANCH  41  65
ATOM     65  C   UNL A   1      43.086  23.852  27.309  1.00  0.00     0.064 A 
ATOM     66  C   UNL A   1      43.461  23.719  25.965  1.00  0.00     0.173 A 
ATOM     67  C   UNL A   1      42.598  22.715  27.968  1.00  0.00     0.173 A 
ATOM     68  F   UNL A   1      43.915  24.784  25.289  1.00  0.00    -0.203 F 
ATOM     69  C   UNL A   1      43.335  22.501  25.301  1.00  0.00     0.198 A 
ATOM     70  C   UNL A   1      42.496  21.491  27.310  1.00  0.00     0.198 A 
ATOM     71  F   UNL A   1      42.233  22.790  29.257  1.00  0.00    -0.203 F 
ATOM     72  F   UNL A   1      43.661  22.412  24.005  1.00  0.00    -0.200 F 
ATOM     73  C   UNL A   1      42.857  21.388  25.975  1.00  0.00     0.200 A 
ATOM     74  F   UNL A   1      42.048  20.414  27.968  1.00  0.00    -0.200 F 
ATOM     75  F   UNL A   1      42.739  20.215  25.337  1.00  0.00    -0.200 F 
ENDBRANCH  41  65
BRANCH  53  76
ATOM     76  C   UNL A   1      48.274  27.001  30.707  1.00  0.00     0.064 A 
ATOM     77  C   UNL A   1      48.578  26.250  31.853  1.00  0.00     0.173 A 
ATOM     78  C   UNL A   1      49.326  27.339  29.843  1.00  0.00     0.173 A 
ATOM     79  F   UNL A   1      47.608  25.916  32.717  1.00  0.00    -0.203 F 
ATOM     80  C   UNL A   1      49.889  25.880  32.138  1.00  0.00     0.198 A 
ATOM     81  C   UNL A   1      50.632  26.945  30.118  1.00  0.00     0.198 A 
ATOM     82  F   UNL A   1      49.086  28.052  28.732  1.00  0.00    -0.203 F 
ATOM     83  F   UNL A   1      50.164  25.209  33.265  1.00  0.00    -0.200 F 
ATOM     84  C   UNL A   1      50.914  26.224  31.269  1.00  0.00     0.200 A 
ATOM     85  F   UNL A   1      51.621  27.270  29.273  1.00  0.00    -0.200 F 
ATOM     86  F   UNL A   1      52.177  25.871  31.546  1.00  0.00    -0.200 F 
ENDBRANCH  53  76
ENDBRANCH  27  28
ENDBRANCH  19  22
ENDBRANCH  17  18
ENDBRANCH   1  17
TORSDOF 11
ENDMDL
