MODEL 1
REMARK VINA RESULT:     -14.2      0.000      0.000
REMARK SMILES CC(C)=C1[C@H]2CC[C@@H]1[C@@H](C(=O)Nc1cc(C)cc(C)c1)[C@@H]2C(=O)NCCCNC(=O)c1ccc(-c2c3nc(c(-c4c(F)c(F)c(F)c(F)c4F)c4ccc([nH]4)c(-c4c(F)c(F)c(F)c(F)c4F)c4nc(c(-c5c(F)c(F)c(F)c(F)c5F)c5ccc2[nH]5)C=C4)C=C3)cc1
REMARK SMILES IDX 26 1 25 2 24 3 22 4 23 5 21 7 1 8 2 9 3 10 4 11 5 12 8 13
REMARK SMILES IDX 6 14 7 15 9 16 10 17 11 18 12 19 13 21 14 22 20 23 15 24
REMARK SMILES IDX 18 25 16 26 17 27 19 28 27 29 28 30 29 31 30 33 31 34 32 35
REMARK SMILES IDX 93 36 33 37 92 38 34 39 35 40 36 41 86 42 37 43 91 44 85 45
REMARK SMILES IDX 87 46 38 47 90 48 84 49 83 50 39 52 71 53 51 54 70 55 52 56
REMARK SMILES IDX 55 57 69 58 88 59 53 60 54 61 68 63 89 64 56 65 40 66 41 67
REMARK SMILES IDX 49 68 42 69 43 70 47 71 50 72 44 73 45 74 48 75 46 76 72 77
REMARK SMILES IDX 73 78 81 79 74 80 75 81 79 82 82 83 76 84 77 85 80 86 78 87
REMARK SMILES IDX 57 88 58 89 66 90 59 91 60 92 64 93 67 94 61 95 62 96 65 97
REMARK SMILES IDX 63 98
REMARK H PARENT 24 6 12 20 28 32 87 51 55 62
REMARK Flexibility Score: inf
ROOT
ATOM      1  C   UNL A   1      32.181  28.019  26.186  1.00  0.00     0.042 C 
ENDROOT
BRANCH   1   2
ATOM      2  C   UNL A   1      32.466  26.689  25.533  1.00  0.00     0.117 C 
BRANCH   2   3
ATOM      3  N   UNL A   1      31.690  25.592  25.988  1.00  0.00    -0.356 N 
ATOM      4  C   UNL A   1      32.182  24.482  26.589  1.00  0.00     0.224 C 
ATOM      5  O   UNL A   1      31.351  23.804  27.209  1.00  0.00    -0.275 OA
ATOM      6  H   UNL A   1      30.716  25.641  25.856  1.00  0.00     0.163 HD
BRANCH   4   7
ATOM      7  C   UNL A   1      33.627  23.938  26.439  1.00  0.00     0.098 C 
ATOM      8  C   UNL A   1      37.706  21.801  25.137  1.00  0.00     0.039 C 
ATOM      9  C   UNL A   1      37.107  23.049  25.727  1.00  0.00    -0.077 C 
ATOM     10  C   UNL A   1      38.079  24.103  26.174  1.00  0.00     0.039 C 
ATOM     11  C   UNL A   1      35.783  23.284  25.666  1.00  0.00    -0.064 C 
ATOM     12  C   UNL A   1      34.969  24.558  25.891  1.00  0.00     0.028 C 
ATOM     13  C   UNL A   1      34.771  22.522  24.865  1.00  0.00     0.028 C 
ATOM     14  C   UNL A   1      35.121  24.885  24.398  1.00  0.00     0.009 C 
ATOM     15  C   UNL A   1      34.646  23.577  23.730  1.00  0.00     0.009 C 
ATOM     16  C   UNL A   1      33.562  22.546  25.808  1.00  0.00     0.099 C 
BRANCH  16  17
ATOM     17  C   UNL A   1      33.509  21.307  26.734  1.00  0.00     0.228 C 
ATOM     18  O   UNL A   1      33.652  21.510  27.953  1.00  0.00    -0.274 OA
ATOM     19  N   UNL A   1      33.142  20.033  26.401  1.00  0.00    -0.326 N 
ATOM     20  H   UNL A   1      32.986  19.457  27.185  1.00  0.00     0.169 HD
BRANCH  19  21
ATOM     21  C   UNL A   1      32.939  19.373  25.182  1.00  0.00     0.041 A 
ATOM     22  C   UNL A   1      33.306  18.046  24.972  1.00  0.00     0.029 A 
ATOM     23  C   UNL A   1      32.320  20.074  24.146  1.00  0.00     0.029 A 
ATOM     24  C   UNL A   1      33.322  17.502  23.682  1.00  0.00    -0.049 A 
ATOM     25  C   UNL A   1      32.254  19.524  22.856  1.00  0.00    -0.049 A 
ATOM     26  C   UNL A   1      34.046  16.216  23.408  1.00  0.00     0.044 C 
ATOM     27  C   UNL A   1      32.787  18.248  22.627  1.00  0.00     0.007 A 
ATOM     28  C   UNL A   1      31.776  20.347  21.696  1.00  0.00     0.044 C 
ENDBRANCH  19  21
ENDBRANCH  16  17
ENDBRANCH   4   7
ENDBRANCH   2   3
ENDBRANCH   1   2
BRANCH   1  29
ATOM     29  C   UNL A   1      33.001  29.126  25.559  1.00  0.00     0.118 C 
BRANCH  29  30
ATOM     30  N   UNL A   1      32.604  30.458  26.026  1.00  0.00    -0.352 N 
ATOM     31  C   UNL A   1      33.144  31.302  26.963  1.00  0.00     0.251 C 
ATOM     32  H   UNL A   1      31.799  30.814  25.584  1.00  0.00     0.163 HD
ATOM     33  O   UNL A   1      32.519  32.303  27.311  1.00  0.00    -0.269 OA
BRANCH  31  34
ATOM     34  C   UNL A   1      34.451  31.002  27.579  1.00  0.00     0.039 A 
ATOM     35  C   UNL A   1      35.401  32.016  27.725  1.00  0.00     0.014 A 
ATOM     36  C   UNL A   1      34.737  29.717  28.031  1.00  0.00     0.014 A 
ATOM     37  C   UNL A   1      36.590  31.752  28.411  1.00  0.00     0.010 A 
ATOM     38  C   UNL A   1      35.825  29.505  28.858  1.00  0.00     0.010 A 
ATOM     39  C   UNL A   1      36.784  30.510  29.034  1.00  0.00    -0.014 A 
BRANCH  39  40
ATOM     40  C   UNL A   1      37.996  30.199  29.833  1.00  0.00     0.031 A 
ATOM     41  C   UNL A   1      39.028  29.251  29.277  1.00  0.00     0.074 A 
ATOM     42  C   UNL A   1      38.120  30.685  31.084  1.00  0.00     0.049 A 
ATOM     43  N   UNL A   1      40.081  28.736  29.859  1.00  0.00    -0.248 NA
ATOM     44  C   UNL A   1      38.820  28.771  27.898  1.00  0.00     0.031 C 
ATOM     45  C   UNL A   1      37.150  31.548  31.762  1.00  0.00     0.029 A 
ATOM     46  N   UNL A   1      39.110  30.507  32.018  1.00  0.00    -0.354 N 
ATOM     47  C   UNL A   1      40.626  27.850  28.937  1.00  0.00     0.074 A 
ATOM     48  C   UNL A   1      39.752  27.838  27.788  1.00  0.00     0.031 C 
ATOM     49  C   UNL A   1      37.610  31.852  32.987  1.00  0.00     0.029 A 
ATOM     50  C   UNL A   1      38.879  31.167  33.201  1.00  0.00     0.049 A 
ATOM     51  H   UNL A   1      39.911  29.957  31.855  1.00  0.00     0.167 HD
ATOM     52  C   UNL A   1      41.774  27.141  29.024  1.00  0.00     0.037 A 
ATOM     53  C   UNL A   1      39.610  31.206  34.331  1.00  0.00     0.037 A 
ATOM     54  C   UNL A   1      42.674  27.215  30.141  1.00  0.00     0.049 A 
ATOM     55  C   UNL A   1      40.906  30.440  34.383  1.00  0.00     0.074 A 
ATOM     56  C   UNL A   1      43.912  26.615  30.291  1.00  0.00     0.029 A 
ATOM     57  N   UNL A   1      42.435  27.944  31.296  1.00  0.00    -0.354 N 
ATOM     58  N   UNL A   1      41.455  29.676  33.470  1.00  0.00    -0.248 NA
ATOM     59  C   UNL A   1      41.690  30.550  35.621  1.00  0.00     0.031 C 
ATOM     60  C   UNL A   1      44.399  26.941  31.560  1.00  0.00     0.029 A 
ATOM     61  C   UNL A   1      43.494  27.791  32.175  1.00  0.00     0.049 A 
ATOM     62  H   UNL A   1      41.632  28.488  31.466  1.00  0.00     0.167 HD
ATOM     63  C   UNL A   1      42.658  29.242  34.008  1.00  0.00     0.074 A 
ATOM     64  C   UNL A   1      42.769  29.843  35.320  1.00  0.00     0.031 C 
ATOM     65  C   UNL A   1      43.587  28.416  33.468  1.00  0.00     0.037 A 
BRANCH  52  66
ATOM     66  C   UNL A   1      42.135  26.242  27.876  1.00  0.00     0.064 A 
ATOM     67  C   UNL A   1      41.534  24.985  27.703  1.00  0.00     0.173 A 
ATOM     68  C   UNL A   1      43.057  26.665  26.907  1.00  0.00     0.173 A 
ATOM     69  F   UNL A   1      40.657  24.525  28.608  1.00  0.00    -0.203 F 
ATOM     70  C   UNL A   1      41.862  24.176  26.619  1.00  0.00     0.198 A 
ATOM     71  C   UNL A   1      43.357  25.868  25.806  1.00  0.00     0.198 A 
ATOM     72  F   UNL A   1      43.660  27.858  27.022  1.00  0.00    -0.203 F 
ATOM     73  F   UNL A   1      41.312  22.960  26.503  1.00  0.00    -0.200 F 
ATOM     74  C   UNL A   1      42.764  24.622  25.665  1.00  0.00     0.200 A 
ATOM     75  F   UNL A   1      44.219  26.306  24.877  1.00  0.00    -0.200 F 
ATOM     76  F   UNL A   1      43.066  23.849  24.613  1.00  0.00    -0.200 F 
ENDBRANCH  52  66
BRANCH  53  77
ATOM     77  C   UNL A   1      39.151  32.009  35.496  1.00  0.00     0.064 A 
ATOM     78  C   UNL A   1      39.513  33.357  35.631  1.00  0.00     0.173 A 
ATOM     79  C   UNL A   1      38.363  31.443  36.510  1.00  0.00     0.173 A 
ATOM     80  F   UNL A   1      40.278  33.941  34.697  1.00  0.00    -0.203 F 
ATOM     81  C   UNL A   1      39.136  34.098  36.750  1.00  0.00     0.198 A 
ATOM     82  C   UNL A   1      37.958  32.195  37.612  1.00  0.00     0.198 A 
ATOM     83  F   UNL A   1      37.979  30.162  36.427  1.00  0.00    -0.203 F 
ATOM     84  F   UNL A   1      39.549  35.366  36.882  1.00  0.00    -0.200 F 
ATOM     85  C   UNL A   1      38.356  33.517  37.738  1.00  0.00     0.200 A 
ATOM     86  F   UNL A   1      37.190  31.634  38.556  1.00  0.00    -0.200 F 
ATOM     87  F   UNL A   1      37.997  34.228  38.816  1.00  0.00    -0.200 F 
ENDBRANCH  53  77
BRANCH  65  88
ATOM     88  C   UNL A   1      44.824  28.150  34.275  1.00  0.00     0.064 A 
ATOM     89  C   UNL A   1      45.947  28.986  34.200  1.00  0.00     0.173 A 
ATOM     90  C   UNL A   1      44.864  27.070  35.172  1.00  0.00     0.173 A 
ATOM     91  F   UNL A   1      45.962  30.023  33.349  1.00  0.00    -0.203 F 
ATOM     92  C   UNL A   1      47.076  28.735  34.974  1.00  0.00     0.198 A 
ATOM     93  C   UNL A   1      45.981  26.844  35.970  1.00  0.00     0.198 A 
ATOM     94  F   UNL A   1      43.811  26.247  35.288  1.00  0.00    -0.203 F 
ATOM     95  F   UNL A   1      48.157  29.517  34.850  1.00  0.00    -0.200 F 
ATOM     96  C   UNL A   1      47.089  27.671  35.864  1.00  0.00     0.200 A 
ATOM     97  F   UNL A   1      45.984  25.826  36.841  1.00  0.00    -0.200 F 
ATOM     98  F   UNL A   1      48.174  27.437  36.616  1.00  0.00    -0.200 F 
ENDBRANCH  65  88
ENDBRANCH  39  40
ENDBRANCH  31  34
ENDBRANCH  29  30
ENDBRANCH   1  29
TORSDOF 12
ENDMDL
MODEL 2
REMARK VINA RESULT:     -14.0      1.707      7.655
REMARK SMILES CC(C)=C1[C@H]2CC[C@@H]1[C@@H](C(=O)Nc1cc(C)cc(C)c1)[C@@H]2C(=O)NCCCNC(=O)c1ccc(-c2c3nc(c(-c4c(F)c(F)c(F)c(F)c4F)c4ccc([nH]4)c(-c4c(F)c(F)c(F)c(F)c4F)c4nc(c(-c5c(F)c(F)c(F)c(F)c5F)c5ccc2[nH]5)C=C4)C=C3)cc1
REMARK SMILES IDX 26 1 25 2 24 3 22 4 23 5 21 7 1 8 2 9 3 10 4 11 5 12 8 13
REMARK SMILES IDX 6 14 7 15 9 16 10 17 11 18 12 19 13 21 14 22 20 23 15 24
REMARK SMILES IDX 18 25 16 26 17 27 19 28 27 29 28 30 29 31 30 33 31 34 32 35
REMARK SMILES IDX 93 36 33 37 92 38 34 39 35 40 36 41 86 42 37 43 91 44 85 45
REMARK SMILES IDX 87 46 38 47 90 48 84 49 83 50 39 52 71 53 51 54 70 55 52 56
REMARK SMILES IDX 55 57 69 58 88 59 53 60 54 61 68 63 89 64 56 65 40 66 41 67
REMARK SMILES IDX 49 68 42 69 43 70 47 71 50 72 44 73 45 74 48 75 46 76 72 77
REMARK SMILES IDX 73 78 81 79 74 80 75 81 79 82 82 83 76 84 77 85 80 86 78 87
REMARK SMILES IDX 57 88 58 89 66 90 59 91 60 92 64 93 67 94 61 95 62 96 65 97
REMARK SMILES IDX 63 98
REMARK H PARENT 24 6 12 20 28 32 87 51 55 62
REMARK Flexibility Score: inf
ROOT
ATOM      1  C   UNL A   1      31.378  30.109  25.778  1.00  0.00     0.042 C 
ENDROOT
BRANCH   1   2
ATOM      2  C   UNL A   1      31.633  29.298  24.531  1.00  0.00     0.117 C 
BRANCH   2   3
ATOM      3  N   UNL A   1      30.551  28.502  24.073  1.00  0.00    -0.356 N 
ATOM      4  C   UNL A   1      30.435  27.164  24.250  1.00  0.00     0.224 C 
ATOM      5  O   UNL A   1      29.295  26.707  24.089  1.00  0.00    -0.275 OA
ATOM      6  H   UNL A   1      29.827  28.960  23.588  1.00  0.00     0.163 HD
BRANCH   4   7
ATOM      7  C   UNL A   1      31.609  26.178  24.482  1.00  0.00     0.098 C 
ATOM      8  C   UNL A   1      35.774  23.827  24.663  1.00  0.00     0.039 C 
ATOM      9  C   UNL A   1      34.528  24.179  25.430  1.00  0.00    -0.077 C 
ATOM     10  C   UNL A   1      34.395  23.568  26.795  1.00  0.00     0.039 C 
ATOM     11  C   UNL A   1      33.691  25.142  24.998  1.00  0.00    -0.064 C 
ATOM     12  C   UNL A   1      32.565  25.897  25.704  1.00  0.00     0.028 C 
ATOM     13  C   UNL A   1      33.942  26.118  23.888  1.00  0.00     0.028 C 
ATOM     14  C   UNL A   1      33.589  26.952  26.148  1.00  0.00     0.009 C 
ATOM     15  C   UNL A   1      34.272  27.323  24.814  1.00  0.00     0.009 C 
ATOM     16  C   UNL A   1      32.543  26.234  23.271  1.00  0.00     0.099 C 
BRANCH  16  17
ATOM     17  C   UNL A   1      32.323  25.234  22.110  1.00  0.00     0.228 C 
ATOM     18  O   UNL A   1      32.427  25.682  20.955  1.00  0.00    -0.274 OA
ATOM     19  N   UNL A   1      32.208  23.875  22.193  1.00  0.00    -0.326 N 
ATOM     20  H   UNL A   1      32.279  23.426  21.319  1.00  0.00     0.169 HD
BRANCH  19  21
ATOM     21  C   UNL A   1      32.012  22.983  23.256  1.00  0.00     0.041 A 
ATOM     22  C   UNL A   1      31.025  23.163  24.220  1.00  0.00     0.029 A 
ATOM     23  C   UNL A   1      32.832  21.855  23.332  1.00  0.00     0.029 A 
ATOM     24  C   UNL A   1      31.022  22.401  25.395  1.00  0.00    -0.049 A 
ATOM     25  C   UNL A   1      32.800  21.028  24.465  1.00  0.00    -0.049 A 
ATOM     26  C   UNL A   1      30.196  22.826  26.575  1.00  0.00     0.044 C 
ATOM     27  C   UNL A   1      31.912  21.329  25.507  1.00  0.00     0.007 A 
ATOM     28  C   UNL A   1      33.813  19.937  24.646  1.00  0.00     0.044 C 
ENDBRANCH  19  21
ENDBRANCH  16  17
ENDBRANCH   4   7
ENDBRANCH   2   3
ENDBRANCH   1   2
BRANCH   1  29
ATOM     29  C   UNL A   1      32.676  30.499  26.453  1.00  0.00     0.118 C 
BRANCH  29  30
ATOM     30  N   UNL A   1      32.733  31.926  26.785  1.00  0.00    -0.352 N 
ATOM     31  C   UNL A   1      33.602  32.656  27.557  1.00  0.00     0.251 C 
ATOM     32  H   UNL A   1      32.014  32.462  26.377  1.00  0.00     0.163 HD
ATOM     33  O   UNL A   1      33.333  33.824  27.833  1.00  0.00    -0.269 OA
BRANCH  31  34
ATOM     34  C   UNL A   1      34.835  32.041  28.085  1.00  0.00     0.039 A 
ATOM     35  C   UNL A   1      35.989  32.813  28.233  1.00  0.00     0.014 A 
ATOM     36  C   UNL A   1      34.850  30.699  28.453  1.00  0.00     0.014 A 
ATOM     37  C   UNL A   1      37.119  32.256  28.838  1.00  0.00     0.010 A 
ATOM     38  C   UNL A   1      35.898  30.204  29.209  1.00  0.00     0.010 A 
ATOM     39  C   UNL A   1      37.060  30.964  29.384  1.00  0.00    -0.014 A 
BRANCH  39  40
ATOM     40  C   UNL A   1      38.206  30.348  30.100  1.00  0.00     0.031 A 
ATOM     41  C   UNL A   1      38.474  30.726  31.535  1.00  0.00     0.074 A 
ATOM     42  C   UNL A   1      39.055  29.537  29.439  1.00  0.00     0.049 A 
ATOM     43  N   UNL A   1      39.493  30.420  32.298  1.00  0.00    -0.248 NA
ATOM     44  C   UNL A   1      37.493  31.614  32.186  1.00  0.00     0.031 C 
ATOM     45  C   UNL A   1      38.947  29.160  28.028  1.00  0.00     0.029 A 
ATOM     46  N   UNL A   1      40.190  28.893  29.865  1.00  0.00    -0.354 N 
ATOM     47  C   UNL A   1      39.291  31.108  33.488  1.00  0.00     0.074 A 
ATOM     48  C   UNL A   1      38.098  31.904  33.326  1.00  0.00     0.031 C 
ATOM     49  C   UNL A   1      39.952  28.325  27.715  1.00  0.00     0.029 A 
ATOM     50  C   UNL A   1      40.802  28.147  28.886  1.00  0.00     0.049 A 
ATOM     51  H   UNL A   1      40.533  28.960  30.785  1.00  0.00     0.167 HD
ATOM     52  C   UNL A   1      40.014  31.049  34.630  1.00  0.00     0.037 A 
ATOM     53  C   UNL A   1      41.927  27.409  28.932  1.00  0.00     0.037 A 
ATOM     54  C   UNL A   1      41.158  30.198  34.806  1.00  0.00     0.049 A 
ATOM     55  C   UNL A   1      42.689  27.328  30.230  1.00  0.00     0.074 A 
ATOM     56  C   UNL A   1      41.906  29.986  35.950  1.00  0.00     0.029 A 
ATOM     57  N   UNL A   1      41.712  29.409  33.810  1.00  0.00    -0.354 N 
ATOM     58  N   UNL A   1      42.438  27.914  31.376  1.00  0.00    -0.248 NA
ATOM     59  C   UNL A   1      43.884  26.475  30.243  1.00  0.00     0.031 C 
ATOM     60  C   UNL A   1      42.944  29.106  35.632  1.00  0.00     0.029 A 
ATOM     61  C   UNL A   1      42.808  28.725  34.307  1.00  0.00     0.049 A 
ATOM     62  H   UNL A   1      41.376  29.346  32.886  1.00  0.00     0.167 HD
ATOM     63  C   UNL A   1      43.422  27.477  32.251  1.00  0.00     0.074 A 
ATOM     64  C   UNL A   1      44.263  26.561  31.509  1.00  0.00     0.031 C 
ATOM     65  C   UNL A   1      43.617  27.805  33.551  1.00  0.00     0.037 A 
BRANCH  52  66
ATOM     66  C   UNL A   1      39.581  31.908  35.783  1.00  0.00     0.064 A 
ATOM     67  C   UNL A   1      40.153  33.167  36.024  1.00  0.00     0.173 A 
ATOM     68  C   UNL A   1      38.542  31.488  36.629  1.00  0.00     0.173 A 
ATOM     69  F   UNL A   1      41.159  33.610  35.256  1.00  0.00    -0.203 F 
ATOM     70  C   UNL A   1      39.721  33.961  37.082  1.00  0.00     0.198 A 
ATOM     71  C   UNL A   1      38.090  32.300  37.665  1.00  0.00     0.198 A 
ATOM     72  F   UNL A   1      37.959  30.295  36.443  1.00  0.00    -0.203 F 
ATOM     73  F   UNL A   1      40.317  35.137  37.322  1.00  0.00    -0.200 F 
ATOM     74  C   UNL A   1      38.682  33.533  37.895  1.00  0.00     0.200 A 
ATOM     75  F   UNL A   1      37.076  31.891  38.442  1.00  0.00    -0.200 F 
ATOM     76  F   UNL A   1      38.257  34.306  38.904  1.00  0.00    -0.200 F 
ENDBRANCH  52  66
BRANCH  53  77
ATOM     77  C   UNL A   1      42.394  26.673  27.726  1.00  0.00     0.064 A 
ATOM     78  C   UNL A   1      41.922  25.384  27.440  1.00  0.00     0.173 A 
ATOM     79  C   UNL A   1      43.337  27.230  26.849  1.00  0.00     0.173 A 
ATOM     80  F   UNL A   1      41.032  24.801  28.256  1.00  0.00    -0.203 F 
ATOM     81  C   UNL A   1      42.401  24.667  26.345  1.00  0.00     0.198 A 
ATOM     82  C   UNL A   1      43.790  26.524  25.735  1.00  0.00     0.198 A 
ATOM     83  F   UNL A   1      43.814  28.464  27.068  1.00  0.00    -0.203 F 
ATOM     84  F   UNL A   1      41.979  23.413  26.132  1.00  0.00    -0.200 F 
ATOM     85  C   UNL A   1      43.333  25.239  25.492  1.00  0.00     0.200 A 
ATOM     86  F   UNL A   1      44.676  27.088  24.903  1.00  0.00    -0.200 F 
ATOM     87  F   UNL A   1      43.795  24.547  24.441  1.00  0.00    -0.200 F 
ENDBRANCH  53  77
BRANCH  65  88
ATOM     88  C   UNL A   1      44.755  27.139  34.267  1.00  0.00     0.064 A 
ATOM     89  C   UNL A   1      46.024  27.729  34.345  1.00  0.00     0.173 A 
ATOM     90  C   UNL A   1      44.556  25.915  34.926  1.00  0.00     0.173 A 
ATOM     91  F   UNL A   1      46.268  28.892  33.722  1.00  0.00    -0.203 F 
ATOM     92  C   UNL A   1      47.061  27.105  35.033  1.00  0.00     0.198 A 
ATOM     93  C   UNL A   1      45.584  25.312  35.642  1.00  0.00     0.198 A 
ATOM     94  F   UNL A   1      43.357  25.314  34.890  1.00  0.00    -0.203 F 
ATOM     95  F   UNL A   1      48.279  27.663  35.053  1.00  0.00    -0.200 F 
ATOM     96  C   UNL A   1      46.838  25.903  35.688  1.00  0.00     0.200 A 
ATOM     97  F   UNL A   1      45.362  24.160  36.289  1.00  0.00    -0.200 F 
ATOM     98  F   UNL A   1      47.834  25.309  36.360  1.00  0.00    -0.200 F 
ENDBRANCH  65  88
ENDBRANCH  39  40
ENDBRANCH  31  34
ENDBRANCH  29  30
ENDBRANCH   1  29
TORSDOF 12
ENDMDL
MODEL 3
REMARK VINA RESULT:     -14.0      4.204      7.171
REMARK SMILES CC(C)=C1[C@H]2CC[C@@H]1[C@@H](C(=O)Nc1cc(C)cc(C)c1)[C@@H]2C(=O)NCCCNC(=O)c1ccc(-c2c3nc(c(-c4c(F)c(F)c(F)c(F)c4F)c4ccc([nH]4)c(-c4c(F)c(F)c(F)c(F)c4F)c4nc(c(-c5c(F)c(F)c(F)c(F)c5F)c5ccc2[nH]5)C=C4)C=C3)cc1
REMARK SMILES IDX 26 1 25 2 24 3 22 4 23 5 21 7 1 8 2 9 3 10 4 11 5 12 8 13
REMARK SMILES IDX 6 14 7 15 9 16 10 17 11 18 12 19 13 21 14 22 20 23 15 24
REMARK SMILES IDX 18 25 16 26 17 27 19 28 27 29 28 30 29 31 30 33 31 34 32 35
REMARK SMILES IDX 93 36 33 37 92 38 34 39 35 40 36 41 86 42 37 43 91 44 85 45
REMARK SMILES IDX 87 46 38 47 90 48 84 49 83 50 39 52 71 53 51 54 70 55 52 56
REMARK SMILES IDX 55 57 69 58 88 59 53 60 54 61 68 63 89 64 56 65 40 66 41 67
REMARK SMILES IDX 49 68 42 69 43 70 47 71 50 72 44 73 45 74 48 75 46 76 72 77
REMARK SMILES IDX 73 78 81 79 74 80 75 81 79 82 82 83 76 84 77 85 80 86 78 87
REMARK SMILES IDX 57 88 58 89 66 90 59 91 60 92 64 93 67 94 61 95 62 96 65 97
REMARK SMILES IDX 63 98
REMARK H PARENT 24 6 12 20 28 32 87 51 55 62
REMARK Flexibility Score: inf
ROOT
ATOM      1  C   UNL A   1      36.344  20.910  24.621  1.00  0.00     0.042 C 
ENDROOT
BRANCH   1   2
ATOM      2  C   UNL A   1      34.983  21.007  25.266  1.00  0.00     0.117 C 
BRANCH   2   3
ATOM      3  N   UNL A   1      33.871  20.803  24.408  1.00  0.00    -0.356 N 
ATOM      4  C   UNL A   1      33.173  21.784  23.786  1.00  0.00     0.224 C 
ATOM      5  O   UNL A   1      32.472  21.412  22.835  1.00  0.00    -0.275 OA
ATOM      6  H   UNL A   1      33.584  19.874  24.251  1.00  0.00     0.163 HD
BRANCH   4   7
ATOM      7  C   UNL A   1      33.073  23.259  24.256  1.00  0.00     0.098 C 
ATOM      8  C   UNL A   1      32.871  27.401  26.644  1.00  0.00     0.039 C 
ATOM      9  C   UNL A   1      33.374  26.725  25.397  1.00  0.00    -0.077 C 
ATOM     10  C   UNL A   1      34.065  27.608  24.397  1.00  0.00     0.039 C 
ATOM     11  C   UNL A   1      33.386  25.383  25.287  1.00  0.00    -0.064 C 
ATOM     12  C   UNL A   1      34.100  24.453  24.307  1.00  0.00     0.028 C 
ATOM     13  C   UNL A   1      33.133  24.390  26.380  1.00  0.00     0.028 C 
ATOM     14  C   UNL A   1      35.298  24.408  25.268  1.00  0.00     0.009 C 
ATOM     15  C   UNL A   1      34.627  24.022  26.604  1.00  0.00     0.009 C 
ATOM     16  C   UNL A   1      32.379  23.292  25.619  1.00  0.00     0.099 C 
BRANCH  16  17
ATOM     17  C   UNL A   1      30.844  23.483  25.672  1.00  0.00     0.228 C 
ATOM     18  O   UNL A   1      30.220  22.792  26.496  1.00  0.00    -0.274 OA
ATOM     19  N   UNL A   1      30.103  24.449  25.053  1.00  0.00    -0.326 N 
ATOM     20  H   UNL A   1      29.178  24.503  25.387  1.00  0.00     0.169 HD
BRANCH  19  21
ATOM     21  C   UNL A   1      30.378  25.382  24.043  1.00  0.00     0.041 A 
ATOM     22  C   UNL A   1      30.988  25.034  22.840  1.00  0.00     0.029 A 
ATOM     23  C   UNL A   1      30.002  26.710  24.250  1.00  0.00     0.029 A 
ATOM     24  C   UNL A   1      31.473  26.019  21.972  1.00  0.00    -0.049 A 
ATOM     25  C   UNL A   1      30.410  27.712  23.356  1.00  0.00    -0.049 A 
ATOM     26  C   UNL A   1      32.431  25.659  20.873  1.00  0.00     0.044 C 
ATOM     27  C   UNL A   1      31.174  27.359  22.235  1.00  0.00     0.007 A 
ATOM     28  C   UNL A   1      30.186  29.161  23.674  1.00  0.00     0.044 C 
ENDBRANCH  19  21
ENDBRANCH  16  17
ENDBRANCH   4   7
ENDBRANCH   2   3
ENDBRANCH   1   2
BRANCH   1  29
ATOM     29  C   UNL A   1      37.403  21.575  25.474  1.00  0.00     0.118 C 
BRANCH  29  30
ATOM     30  N   UNL A   1      38.460  20.646  25.887  1.00  0.00    -0.352 N 
ATOM     31  C   UNL A   1      39.710  20.853  26.415  1.00  0.00     0.251 C 
ATOM     32  H   UNL A   1      38.230  19.696  25.764  1.00  0.00     0.163 HD
ATOM     33  O   UNL A   1      40.491  19.907  26.512  1.00  0.00    -0.269 OA
BRANCH  31  34
ATOM     34  C   UNL A   1      40.134  22.202  26.834  1.00  0.00     0.039 A 
ATOM     35  C   UNL A   1      41.137  22.349  27.795  1.00  0.00     0.014 A 
ATOM     36  C   UNL A   1      39.552  23.331  26.265  1.00  0.00     0.014 A 
ATOM     37  C   UNL A   1      41.614  23.626  28.104  1.00  0.00     0.010 A 
ATOM     38  C   UNL A   1      40.142  24.570  26.437  1.00  0.00     0.010 A 
ATOM     39  C   UNL A   1      41.159  24.742  27.383  1.00  0.00    -0.014 A 
BRANCH  39  40
ATOM     40  C   UNL A   1      41.681  26.111  27.621  1.00  0.00     0.031 A 
ATOM     41  C   UNL A   1      43.049  26.483  27.107  1.00  0.00     0.074 A 
ATOM     42  C   UNL A   1      40.977  26.978  28.375  1.00  0.00     0.049 A 
ATOM     43  N   UNL A   1      43.750  27.567  27.323  1.00  0.00    -0.248 NA
ATOM     44  C   UNL A   1      43.750  25.479  26.285  1.00  0.00     0.031 C 
ATOM     45  C   UNL A   1      39.677  26.707  28.994  1.00  0.00     0.029 A 
ATOM     46  N   UNL A   1      41.265  28.263  28.764  1.00  0.00    -0.354 N 
ATOM     47  C   UNL A   1      44.975  27.353  26.704  1.00  0.00     0.074 A 
ATOM     48  C   UNL A   1      44.955  26.012  26.167  1.00  0.00     0.031 C 
ATOM     49  C   UNL A   1      39.265  27.802  29.654  1.00  0.00     0.029 A 
ATOM     50  C   UNL A   1      40.290  28.834  29.548  1.00  0.00     0.049 A 
ATOM     51  H   UNL A   1      42.092  28.730  28.506  1.00  0.00     0.167 HD
ATOM     52  C   UNL A   1      46.010  28.211  26.559  1.00  0.00     0.037 A 
ATOM     53  C   UNL A   1      40.239  30.051  30.121  1.00  0.00     0.037 A 
ATOM     54  C   UNL A   1      45.993  29.567  27.033  1.00  0.00     0.049 A 
ATOM     55  C   UNL A   1      41.388  31.002  29.906  1.00  0.00     0.074 A 
ATOM     56  C   UNL A   1      46.946  30.554  26.856  1.00  0.00     0.029 A 
ATOM     57  N   UNL A   1      44.962  30.129  27.769  1.00  0.00    -0.354 N 
ATOM     58  N   UNL A   1      42.503  30.818  29.242  1.00  0.00    -0.248 NA
ATOM     59  C   UNL A   1      41.265  32.335  30.513  1.00  0.00     0.031 C 
ATOM     60  C   UNL A   1      46.514  31.700  27.529  1.00  0.00     0.029 A 
ATOM     61  C   UNL A   1      45.266  31.445  28.075  1.00  0.00     0.049 A 
ATOM     62  H   UNL A   1      44.137  29.662  28.037  1.00  0.00     0.167 HD
ATOM     63  C   UNL A   1      43.198  32.016  29.325  1.00  0.00     0.074 A 
ATOM     64  C   UNL A   1      42.370  32.928  30.086  1.00  0.00     0.031 C 
ATOM     65  C   UNL A   1      44.415  32.336  28.820  1.00  0.00     0.037 A 
BRANCH  52  66
ATOM     66  C   UNL A   1      47.236  27.722  25.843  1.00  0.00     0.064 A 
ATOM     67  C   UNL A   1      47.338  27.755  24.443  1.00  0.00     0.173 A 
ATOM     68  C   UNL A   1      48.346  27.262  26.569  1.00  0.00     0.173 A 
ATOM     69  F   UNL A   1      46.301  28.171  23.700  1.00  0.00    -0.203 F 
ATOM     70  C   UNL A   1      48.492  27.322  23.797  1.00  0.00     0.198 A 
ATOM     71  C   UNL A   1      49.511  26.862  25.920  1.00  0.00     0.198 A 
ATOM     72  F   UNL A   1      48.304  27.212  27.908  1.00  0.00    -0.203 F 
ATOM     73  F   UNL A   1      48.546  27.316  22.458  1.00  0.00    -0.200 F 
ATOM     74  C   UNL A   1      49.582  26.887  24.535  1.00  0.00     0.200 A 
ATOM     75  F   UNL A   1      50.569  26.454  26.636  1.00  0.00    -0.200 F 
ATOM     76  F   UNL A   1      50.698  26.485  23.912  1.00  0.00    -0.200 F 
ENDBRANCH  52  66
BRANCH  53  77
ATOM     77  C   UNL A   1      39.058  30.451  30.932  1.00  0.00     0.064 A 
ATOM     78  C   UNL A   1      37.952  31.074  30.337  1.00  0.00     0.173 A 
ATOM     79  C   UNL A   1      39.019  30.244  32.318  1.00  0.00     0.173 A 
ATOM     80  F   UNL A   1      37.946  31.310  29.016  1.00  0.00    -0.203 F 
ATOM     81  C   UNL A   1      36.868  31.506  31.101  1.00  0.00     0.198 A 
ATOM     82  C   UNL A   1      37.920  30.645  33.077  1.00  0.00     0.198 A 
ATOM     83  F   UNL A   1      40.044  29.643  32.938  1.00  0.00    -0.203 F 
ATOM     84  F   UNL A   1      35.854  32.154  30.513  1.00  0.00    -0.200 F 
ATOM     85  C   UNL A   1      36.852  31.288  32.470  1.00  0.00     0.200 A 
ATOM     86  F   UNL A   1      37.900  30.416  34.397  1.00  0.00    -0.200 F 
ATOM     87  F   UNL A   1      35.812  31.706  33.204  1.00  0.00    -0.200 F 
ENDBRANCH  53  77
BRANCH  65  88
ATOM     88  C   UNL A   1      44.904  33.738  29.035  1.00  0.00     0.064 A 
ATOM     89  C   UNL A   1      45.710  34.078  30.130  1.00  0.00     0.173 A 
ATOM     90  C   UNL A   1      44.600  34.743  28.103  1.00  0.00     0.173 A 
ATOM     91  F   UNL A   1      46.017  33.155  31.055  1.00  0.00    -0.203 F 
ATOM     92  C   UNL A   1      46.172  35.380  30.300  1.00  0.00     0.198 A 
ATOM     93  C   UNL A   1      45.093  36.034  28.256  1.00  0.00     0.198 A 
ATOM     94  F   UNL A   1      43.841  34.466  27.031  1.00  0.00    -0.203 F 
ATOM     95  F   UNL A   1      46.900  35.694  31.380  1.00  0.00    -0.200 F 
ATOM     96  C   UNL A   1      45.872  36.354  29.359  1.00  0.00     0.200 A 
ATOM     97  F   UNL A   1      44.817  36.969  27.337  1.00  0.00    -0.200 F 
ATOM     98  F   UNL A   1      46.327  37.604  29.518  1.00  0.00    -0.200 F 
ENDBRANCH  65  88
ENDBRANCH  39  40
ENDBRANCH  31  34
ENDBRANCH  29  30
ENDBRANCH   1  29
TORSDOF 12
ENDMDL
