MODEL 1
REMARK VINA RESULT:     -12.7      0.000      0.000
REMARK SMILES C[C@@H]1CN(C(=O)C[NH+]2CCC(CC(=O)NCCCNC(=O)c3ccc(-c4c5nc(c(-c6c(F)c(F)c(F)c(F)c6F)c6ccc([nH]6)c(-c6c(F)c(F)c(F)c(F)c6F)c6nc(c(-c7c(F)c(F)c(F)c(F)c7F)c7ccc4[nH]7)C=C6)C=C5)cc3)CC2)C[C@@H](C)O1
REMARK SMILES IDX 16 1 15 2 13 3 14 4 12 6 11 7 8 8 9 9 86 10 10 12 85 13 7 14
REMARK SMILES IDX 5 15 1 16 2 17 3 18 90 19 4 20 88 21 87 22 89 23 6 24 17 25
REMARK SMILES IDX 18 26 19 27 20 28 21 30 22 31 23 32 84 33 24 34 83 35 25 36
REMARK SMILES IDX 26 37 27 38 77 39 28 40 82 41 76 42 78 43 29 44 81 45 75 46
REMARK SMILES IDX 74 47 30 49 62 50 42 51 61 52 43 53 46 54 60 55 79 56 44 57
REMARK SMILES IDX 45 58 59 60 80 61 47 62 31 63 32 64 40 65 33 66 34 67 38 68
REMARK SMILES IDX 41 69 35 70 36 71 39 72 37 73 63 74 64 75 72 76 65 77 66 78
REMARK SMILES IDX 70 79 73 80 67 81 68 82 71 83 69 84 48 85 49 86 57 87 50 88
REMARK SMILES IDX 51 89 55 90 58 91 52 92 53 93 56 94 54 95
REMARK H PARENT 15 5 8 11 19 29 78 48 46 59
REMARK Flexibility Score: inf
ROOT
ATOM      1  C   UNL A   1      31.538  30.840  26.098  1.00  0.00     0.117 C 
ENDROOT
BRANCH   1   2
ATOM      2  N   UNL A   1      32.695  30.166  26.676  1.00  0.00    -0.356 N 
ATOM      3  C   UNL A   1      33.101  28.867  26.657  1.00  0.00     0.220 C 
ATOM      4  O   UNL A   1      34.141  28.581  27.254  1.00  0.00    -0.275 OA
ATOM      5  H   UNL A   1      33.297  30.765  27.175  1.00  0.00     0.163 HD
BRANCH   3   6
ATOM      6  C   UNL A   1      32.307  27.791  25.940  1.00  0.00     0.104 C 
BRANCH   6   7
ATOM      7  C   UNL A   1      32.381  27.907  24.402  1.00  0.00     0.009 C 
ATOM      8  N   UNL A   1      32.323  26.001  22.105  1.00  0.00    -0.327 N 
ATOM      9  C   UNL A   1      31.216  26.955  22.309  1.00  0.00     0.262 C 
ATOM     10  C   UNL A   1      33.569  26.682  22.453  1.00  0.00     0.262 C 
ATOM     11  H   UNL A   1      32.402  25.706  21.132  1.00  0.00     0.348 HD
ATOM     12  C   UNL A   1      31.066  27.422  23.764  1.00  0.00     0.066 C 
ATOM     13  C   UNL A   1      33.615  27.155  23.894  1.00  0.00     0.066 C 
BRANCH   8  14
ATOM     14  C   UNL A   1      32.064  24.752  22.862  1.00  0.00     0.363 C 
BRANCH  14  15
ATOM     15  C   UNL A   1      33.212  23.738  22.898  1.00  0.00     0.277 C 
ATOM     16  C   UNL A   1      32.152  20.868  24.850  1.00  0.00     0.040 C 
ATOM     17  C   UNL A   1      32.985  21.764  25.768  1.00  0.00     0.135 C 
ATOM     18  C   UNL A   1      32.969  23.251  25.348  1.00  0.00     0.151 C 
ATOM     19  O   UNL A   1      34.335  21.269  25.882  1.00  0.00    -0.372 OA
ATOM     20  N   UNL A   1      33.753  23.426  24.129  1.00  0.00    -0.333 N 
ATOM     21  C   UNL A   1      35.118  21.442  24.682  1.00  0.00     0.135 C 
ATOM     22  C   UNL A   1      35.114  22.909  24.228  1.00  0.00     0.151 C 
ATOM     23  C   UNL A   1      36.537  20.986  24.995  1.00  0.00     0.040 C 
ATOM     24  O   UNL A   1      33.707  23.323  21.846  1.00  0.00    -0.268 OA
ENDBRANCH  14  15
ENDBRANCH   8  14
ENDBRANCH   6   7
ENDBRANCH   3   6
ENDBRANCH   1   2
BRANCH   1  25
ATOM     25  C   UNL A   1      31.394  32.290  26.566  1.00  0.00     0.042 C 
BRANCH  25  26
ATOM     26  C   UNL A   1      32.589  32.841  27.335  1.00  0.00     0.118 C 
BRANCH  26  27
ATOM     27  N   UNL A   1      32.438  34.253  27.626  1.00  0.00    -0.352 N 
ATOM     28  C   UNL A   1      32.994  35.007  28.630  1.00  0.00     0.251 C 
ATOM     29  H   UNL A   1      31.849  34.746  27.010  1.00  0.00     0.163 HD
ATOM     30  O   UNL A   1      32.551  36.132  28.845  1.00  0.00    -0.269 OA
BRANCH  28  31
ATOM     31  C   UNL A   1      34.119  34.501  29.460  1.00  0.00     0.039 A 
ATOM     32  C   UNL A   1      35.415  34.566  28.930  1.00  0.00     0.014 A 
ATOM     33  C   UNL A   1      33.915  33.870  30.690  1.00  0.00     0.014 A 
ATOM     34  C   UNL A   1      36.491  34.002  29.625  1.00  0.00     0.010 A 
ATOM     35  C   UNL A   1      35.000  33.372  31.417  1.00  0.00     0.010 A 
ATOM     36  C   UNL A   1      36.294  33.398  30.874  1.00  0.00    -0.014 A 
BRANCH  36  37
ATOM     37  C   UNL A   1      37.409  32.704  31.573  1.00  0.00     0.031 A 
ATOM     38  C   UNL A   1      38.122  31.562  30.896  1.00  0.00     0.074 A 
ATOM     39  C   UNL A   1      37.772  33.073  32.816  1.00  0.00     0.049 A 
ATOM     40  N   UNL A   1      39.081  30.792  31.348  1.00  0.00    -0.248 NA
ATOM     41  C   UNL A   1      37.679  31.223  29.534  1.00  0.00     0.031 C 
ATOM     42  C   UNL A   1      37.149  34.140  33.599  1.00  0.00     0.029 A 
ATOM     43  N   UNL A   1      38.757  32.586  33.642  1.00  0.00    -0.354 N 
ATOM     44  C   UNL A   1      39.333  29.869  30.342  1.00  0.00     0.074 A 
ATOM     45  C   UNL A   1      38.400  30.142  29.272  1.00  0.00     0.031 C 
ATOM     46  C   UNL A   1      37.776  34.240  34.783  1.00  0.00     0.029 A 
ATOM     47  C   UNL A   1      38.829  33.229  34.854  1.00  0.00     0.049 A 
ATOM     48  H   UNL A   1      39.355  31.846  33.389  1.00  0.00     0.167 HD
ATOM     49  C   UNL A   1      40.274  28.894  30.299  1.00  0.00     0.037 A 
ATOM     50  C   UNL A   1      39.650  33.025  35.901  1.00  0.00     0.037 A 
ATOM     51  C   UNL A   1      41.238  28.649  31.339  1.00  0.00     0.049 A 
ATOM     52  C   UNL A   1      40.709  31.957  35.817  1.00  0.00     0.074 A 
ATOM     53  C   UNL A   1      42.263  27.721  31.365  1.00  0.00     0.029 A 
ATOM     54  N   UNL A   1      41.302  29.350  32.533  1.00  0.00    -0.354 N 
ATOM     55  N   UNL A   1      40.967  31.123  34.840  1.00  0.00    -0.248 NA
ATOM     56  C   UNL A   1      41.598  31.812  36.978  1.00  0.00     0.031 C 
ATOM     57  C   UNL A   1      42.931  27.840  32.589  1.00  0.00     0.029 A 
ATOM     58  C   UNL A   1      42.346  28.870  33.307  1.00  0.00     0.049 A 
ATOM     59  H   UNL A   1      40.695  30.081  32.794  1.00  0.00     0.167 HD
ATOM     60  C   UNL A   1      42.064  30.379  35.253  1.00  0.00     0.074 A 
ATOM     61  C   UNL A   1      42.430  30.867  36.566  1.00  0.00     0.031 C 
ATOM     62  C   UNL A   1      42.710  29.381  34.602  1.00  0.00     0.037 A 
BRANCH  49  63
ATOM     63  C   UNL A   1      40.311  28.019  29.081  1.00  0.00     0.064 A 
ATOM     64  C   UNL A   1      41.055  28.372  27.944  1.00  0.00     0.173 A 
ATOM     65  C   UNL A   1      39.624  26.795  29.061  1.00  0.00     0.173 A 
ATOM     66  F   UNL A   1      41.719  29.537  27.909  1.00  0.00    -0.203 F 
ATOM     67  C   UNL A   1      41.086  27.548  26.822  1.00  0.00     0.198 A 
ATOM     68  C   UNL A   1      39.680  25.960  27.948  1.00  0.00     0.198 A 
ATOM     69  F   UNL A   1      38.904  26.406  30.124  1.00  0.00    -0.203 F 
ATOM     70  F   UNL A   1      41.763  27.929  25.732  1.00  0.00    -0.200 F 
ATOM     71  C   UNL A   1      40.404  26.339  26.827  1.00  0.00     0.200 A 
ATOM     72  F   UNL A   1      39.031  24.787  27.958  1.00  0.00    -0.200 F 
ATOM     73  F   UNL A   1      40.438  25.545  25.750  1.00  0.00    -0.200 F 
ENDBRANCH  49  63
BRANCH  50  74
ATOM     74  C   UNL A   1      39.530  33.875  37.114  1.00  0.00     0.064 A 
ATOM     75  C   UNL A   1      38.774  33.453  38.217  1.00  0.00     0.173 A 
ATOM     76  C   UNL A   1      40.158  35.126  37.192  1.00  0.00     0.173 A 
ATOM     77  F   UNL A   1      38.137  32.274  38.178  1.00  0.00    -0.203 F 
ATOM     78  C   UNL A   1      38.632  34.260  39.344  1.00  0.00     0.198 A 
ATOM     79  C   UNL A   1      40.037  35.922  38.330  1.00  0.00     0.198 A 
ATOM     80  F   UNL A   1      40.894  35.574  36.165  1.00  0.00    -0.203 F 
ATOM     81  F   UNL A   1      37.866  33.852  40.364  1.00  0.00    -0.200 F 
ATOM     82  C   UNL A   1      39.267  35.491  39.401  1.00  0.00     0.200 A 
ATOM     83  F   UNL A   1      40.659  37.106  38.387  1.00  0.00    -0.200 F 
ATOM     84  F   UNL A   1      39.131  36.267  40.485  1.00  0.00    -0.200 F 
ENDBRANCH  50  74
BRANCH  62  85
ATOM     85  C   UNL A   1      43.907  28.779  35.277  1.00  0.00     0.064 A 
ATOM     86  C   UNL A   1      45.200  29.276  35.064  1.00  0.00     0.173 A 
ATOM     87  C   UNL A   1      43.749  27.717  36.181  1.00  0.00     0.173 A 
ATOM     88  F   UNL A   1      45.402  30.282  34.200  1.00  0.00    -0.203 F 
ATOM     89  C   UNL A   1      46.297  28.716  35.714  1.00  0.00     0.198 A 
ATOM     90  C   UNL A   1      44.845  27.177  36.848  1.00  0.00     0.198 A 
ATOM     91  F   UNL A   1      42.531  27.210  36.423  1.00  0.00    -0.203 F 
ATOM     92  F   UNL A   1      47.529  29.179  35.465  1.00  0.00    -0.200 F 
ATOM     93  C   UNL A   1      46.118  27.672  36.610  1.00  0.00     0.200 A 
ATOM     94  F   UNL A   1      44.669  26.175  37.722  1.00  0.00    -0.200 F 
ATOM     95  F   UNL A   1      47.174  27.138  37.238  1.00  0.00    -0.200 F 
ENDBRANCH  62  85
ENDBRANCH  36  37
ENDBRANCH  28  31
ENDBRANCH  26  27
ENDBRANCH  25  26
ENDBRANCH   1  25
TORSDOF 13
ENDMDL
MODEL 2
REMARK VINA RESULT:     -12.6      1.196      7.425
REMARK SMILES C[C@@H]1CN(C(=O)C[NH+]2CCC(CC(=O)NCCCNC(=O)c3ccc(-c4c5nc(c(-c6c(F)c(F)c(F)c(F)c6F)c6ccc([nH]6)c(-c6c(F)c(F)c(F)c(F)c6F)c6nc(c(-c7c(F)c(F)c(F)c(F)c7F)c7ccc4[nH]7)C=C6)C=C5)cc3)CC2)C[C@@H](C)O1
REMARK SMILES IDX 16 1 15 2 13 3 14 4 12 6 11 7 8 8 9 9 86 10 10 12 85 13 7 14
REMARK SMILES IDX 5 15 1 16 2 17 3 18 90 19 4 20 88 21 87 22 89 23 6 24 17 25
REMARK SMILES IDX 18 26 19 27 20 28 21 30 22 31 23 32 84 33 24 34 83 35 25 36
REMARK SMILES IDX 26 37 27 38 77 39 28 40 82 41 76 42 78 43 29 44 81 45 75 46
REMARK SMILES IDX 74 47 30 49 62 50 42 51 61 52 43 53 46 54 60 55 79 56 44 57
REMARK SMILES IDX 45 58 59 60 80 61 47 62 31 63 32 64 40 65 33 66 34 67 38 68
REMARK SMILES IDX 41 69 35 70 36 71 39 72 37 73 63 74 64 75 72 76 65 77 66 78
REMARK SMILES IDX 70 79 73 80 67 81 68 82 71 83 69 84 48 85 49 86 57 87 50 88
REMARK SMILES IDX 51 89 55 90 58 91 52 92 53 93 56 94 54 95
REMARK H PARENT 15 5 8 11 19 29 78 48 46 59
REMARK Flexibility Score: inf
ROOT
ATOM      1  C   UNL A   1      31.391  30.915  25.917  1.00  0.00     0.117 C 
ENDROOT
BRANCH   1   2
ATOM      2  N   UNL A   1      32.583  30.193  26.345  1.00  0.00    -0.356 N 
ATOM      3  C   UNL A   1      33.209  29.088  25.854  1.00  0.00     0.220 C 
ATOM      4  O   UNL A   1      34.217  28.690  26.442  1.00  0.00    -0.275 OA
ATOM      5  H   UNL A   1      33.017  30.576  27.142  1.00  0.00     0.163 HD
BRANCH   3   6
ATOM      6  C   UNL A   1      32.693  28.352  24.632  1.00  0.00     0.104 C 
BRANCH   6   7
ATOM      7  C   UNL A   1      31.313  27.696  24.858  1.00  0.00     0.009 C 
ATOM      8  N   UNL A   1      30.246  24.908  24.886  1.00  0.00    -0.327 N 
ATOM      9  C   UNL A   1      30.277  25.705  26.127  1.00  0.00     0.262 C 
ATOM     10  C   UNL A   1      29.902  25.807  23.786  1.00  0.00     0.262 C 
ATOM     11  H   UNL A   1      29.533  24.179  24.915  1.00  0.00     0.348 HD
ATOM     12  C   UNL A   1      31.340  26.814  26.120  1.00  0.00     0.066 C 
ATOM     13  C   UNL A   1      30.898  26.936  23.595  1.00  0.00     0.066 C 
BRANCH   8  14
ATOM     14  C   UNL A   1      31.528  24.180  24.717  1.00  0.00     0.363 C 
BRANCH  14  15
ATOM     15  C   UNL A   1      31.523  22.705  25.130  1.00  0.00     0.277 C 
ATOM     16  C   UNL A   1      34.775  21.886  26.513  1.00  0.00     0.040 C 
ATOM     17  C   UNL A   1      34.768  21.423  25.056  1.00  0.00     0.135 C 
ATOM     18  C   UNL A   1      33.789  22.222  24.166  1.00  0.00     0.151 C 
ATOM     19  O   UNL A   1      34.513  20.005  24.969  1.00  0.00    -0.372 OA
ATOM     20  N   UNL A   1      32.414  21.860  24.501  1.00  0.00    -0.333 N 
ATOM     21  C   UNL A   1      33.155  19.640  25.294  1.00  0.00     0.135 C 
ATOM     22  C   UNL A   1      32.153  20.426  24.436  1.00  0.00     0.151 C 
ATOM     23  C   UNL A   1      33.013  18.145  25.042  1.00  0.00     0.040 C 
ATOM     24  O   UNL A   1      30.659  22.281  25.905  1.00  0.00    -0.268 OA
ENDBRANCH  14  15
ENDBRANCH   8  14
ENDBRANCH   6   7
ENDBRANCH   3   6
ENDBRANCH   1   2
BRANCH   1  25
ATOM     25  C   UNL A   1      31.304  32.327  26.501  1.00  0.00     0.042 C 
BRANCH  25  26
ATOM     26  C   UNL A   1      32.573  32.820  27.186  1.00  0.00     0.118 C 
BRANCH  26  27
ATOM     27  N   UNL A   1      32.448  34.195  27.627  1.00  0.00    -0.352 N 
ATOM     28  C   UNL A   1      33.049  34.837  28.682  1.00  0.00     0.251 C 
ATOM     29  H   UNL A   1      31.841  34.753  27.090  1.00  0.00     0.163 HD
ATOM     30  O   UNL A   1      32.626  35.937  29.029  1.00  0.00    -0.269 OA
BRANCH  28  31
ATOM     31  C   UNL A   1      34.200  34.241  29.410  1.00  0.00     0.039 A 
ATOM     32  C   UNL A   1      35.489  34.459  28.905  1.00  0.00     0.014 A 
ATOM     33  C   UNL A   1      34.031  33.390  30.506  1.00  0.00     0.014 A 
ATOM     34  C   UNL A   1      36.593  33.828  29.490  1.00  0.00     0.010 A 
ATOM     35  C   UNL A   1      35.140  32.819  31.134  1.00  0.00     0.010 A 
ATOM     36  C   UNL A   1      36.429  33.000  30.609  1.00  0.00    -0.014 A 
BRANCH  36  37
ATOM     37  C   UNL A   1      37.577  32.242  31.175  1.00  0.00     0.031 A 
ATOM     38  C   UNL A   1      38.060  32.545  32.570  1.00  0.00     0.074 A 
ATOM     39  C   UNL A   1      38.203  31.301  30.443  1.00  0.00     0.049 A 
ATOM     40  N   UNL A   1      39.072  32.039  33.231  1.00  0.00    -0.248 NA
ATOM     41  C   UNL A   1      37.320  33.577  33.315  1.00  0.00     0.031 C 
ATOM     42  C   UNL A   1      37.860  30.928  29.072  1.00  0.00     0.029 A 
ATOM     43  N   UNL A   1      39.266  30.486  30.753  1.00  0.00    -0.354 N 
ATOM     44  C   UNL A   1      39.104  32.706  34.448  1.00  0.00     0.074 A 
ATOM     45  C   UNL A   1      38.039  33.685  34.423  1.00  0.00     0.031 C 
ATOM     46  C   UNL A   1      38.683  29.947  28.664  1.00  0.00     0.029 A 
ATOM     47  C   UNL A   1      39.627  29.638  29.735  1.00  0.00     0.049 A 
ATOM     48  H   UNL A   1      39.726  30.508  31.624  1.00  0.00     0.167 HD
ATOM     49  C   UNL A   1      39.928  32.508  35.506  1.00  0.00     0.037 A 
ATOM     50  C   UNL A   1      40.608  28.719  29.673  1.00  0.00     0.037 A 
ATOM     51  C   UNL A   1      40.956  31.502  35.557  1.00  0.00     0.049 A 
ATOM     52  C   UNL A   1      41.491  28.494  30.873  1.00  0.00     0.074 A 
ATOM     53  C   UNL A   1      41.807  31.189  36.602  1.00  0.00     0.029 A 
ATOM     54  N   UNL A   1      41.262  30.637  34.517  1.00  0.00    -0.354 N 
ATOM     55  N   UNL A   1      41.478  29.099  32.035  1.00  0.00    -0.248 NA
ATOM     56  C   UNL A   1      42.517  27.448  30.754  1.00  0.00     0.031 C 
ATOM     57  C   UNL A   1      42.649  30.152  36.185  1.00  0.00     0.029 A 
ATOM     58  C   UNL A   1      42.295  29.794  34.894  1.00  0.00     0.049 A 
ATOM     59  H   UNL A   1      40.813  30.624  33.641  1.00  0.00     0.167 HD
ATOM     60  C   UNL A   1      42.467  28.489  32.794  1.00  0.00     0.074 A 
ATOM     61  C   UNL A   1      43.055  27.457  31.965  1.00  0.00     0.031 C 
ATOM     62  C   UNL A   1      42.853  28.759  34.065  1.00  0.00     0.037 A 
BRANCH  49  63
ATOM     63  C   UNL A   1      39.747  33.395  36.702  1.00  0.00     0.064 A 
ATOM     64  C   UNL A   1      40.437  34.611  36.826  1.00  0.00     0.173 A 
ATOM     65  C   UNL A   1      38.847  33.044  37.720  1.00  0.00     0.173 A 
ATOM     66  F   UNL A   1      41.317  34.986  35.886  1.00  0.00    -0.203 F 
ATOM     67  C   UNL A   1      40.255  35.428  37.939  1.00  0.00     0.198 A 
ATOM     68  C   UNL A   1      38.646  33.878  38.817  1.00  0.00     0.198 A 
ATOM     69  F   UNL A   1      38.157  31.896  37.647  1.00  0.00    -0.203 F 
ATOM     70  F   UNL A   1      40.960  36.561  38.059  1.00  0.00    -0.200 F 
ATOM     71  C   UNL A   1      39.355  35.065  38.930  1.00  0.00     0.200 A 
ATOM     72  F   UNL A   1      37.768  33.531  39.769  1.00  0.00    -0.200 F 
ATOM     73  F   UNL A   1      39.176  35.854  39.997  1.00  0.00    -0.200 F 
ENDBRANCH  49  63
BRANCH  50  74
ATOM     74  C   UNL A   1      40.790  27.909  28.440  1.00  0.00     0.064 A 
ATOM     75  C   UNL A   1      40.146  26.672  28.291  1.00  0.00     0.173 A 
ATOM     76  C   UNL A   1      41.615  28.347  27.395  1.00  0.00     0.173 A 
ATOM     77  F   UNL A   1      39.366  26.203  29.275  1.00  0.00    -0.203 F 
ATOM     78  C   UNL A   1      40.338  25.894  27.152  1.00  0.00     0.198 A 
ATOM     79  C   UNL A   1      41.786  27.580  26.245  1.00  0.00     0.198 A 
ATOM     80  F   UNL A   1      42.251  29.523  27.488  1.00  0.00    -0.203 F 
ATOM     81  F   UNL A   1      39.747  24.695  27.055  1.00  0.00    -0.200 F 
ATOM     82  C   UNL A   1      41.153  26.350  26.128  1.00  0.00     0.200 A 
ATOM     83  F   UNL A   1      42.566  28.027  25.253  1.00  0.00    -0.200 F 
ATOM     84  F   UNL A   1      41.338  25.601  25.032  1.00  0.00    -0.200 F 
ENDBRANCH  50  74
BRANCH  62  85
ATOM     85  C   UNL A   1      43.931  27.898  34.655  1.00  0.00     0.064 A 
ATOM     86  C   UNL A   1      43.635  26.706  35.332  1.00  0.00     0.173 A 
ATOM     87  C   UNL A   1      45.281  28.254  34.505  1.00  0.00     0.173 A 
ATOM     88  F   UNL A   1      42.359  26.333  35.512  1.00  0.00    -0.203 F 
ATOM     89  C   UNL A   1      44.650  25.912  35.857  1.00  0.00     0.198 A 
ATOM     90  C   UNL A   1      46.293  27.443  35.009  1.00  0.00     0.198 A 
ATOM     91  F   UNL A   1      45.615  29.381  33.861  1.00  0.00    -0.203 F 
ATOM     92  F   UNL A   1      44.343  24.798  36.536  1.00  0.00    -0.200 F 
ATOM     93  C   UNL A   1      45.978  26.277  35.690  1.00  0.00     0.200 A 
ATOM     94  F   UNL A   1      47.577  27.791  34.838  1.00  0.00    -0.200 F 
ATOM     95  F   UNL A   1      46.954  25.508  36.192  1.00  0.00    -0.200 F 
ENDBRANCH  62  85
ENDBRANCH  36  37
ENDBRANCH  28  31
ENDBRANCH  26  27
ENDBRANCH  25  26
ENDBRANCH   1  25
TORSDOF 13
ENDMDL
MODEL 3
REMARK VINA RESULT:     -12.6      1.217      2.316
REMARK SMILES C[C@@H]1CN(C(=O)C[NH+]2CCC(CC(=O)NCCCNC(=O)c3ccc(-c4c5nc(c(-c6c(F)c(F)c(F)c(F)c6F)c6ccc([nH]6)c(-c6c(F)c(F)c(F)c(F)c6F)c6nc(c(-c7c(F)c(F)c(F)c(F)c7F)c7ccc4[nH]7)C=C6)C=C5)cc3)CC2)C[C@@H](C)O1
REMARK SMILES IDX 16 1 15 2 13 3 14 4 12 6 11 7 8 8 9 9 86 10 10 12 85 13 7 14
REMARK SMILES IDX 5 15 1 16 2 17 3 18 90 19 4 20 88 21 87 22 89 23 6 24 17 25
REMARK SMILES IDX 18 26 19 27 20 28 21 30 22 31 23 32 84 33 24 34 83 35 25 36
REMARK SMILES IDX 26 37 27 38 77 39 28 40 82 41 76 42 78 43 29 44 81 45 75 46
REMARK SMILES IDX 74 47 30 49 62 50 42 51 61 52 43 53 46 54 60 55 79 56 44 57
REMARK SMILES IDX 45 58 59 60 80 61 47 62 31 63 32 64 40 65 33 66 34 67 38 68
REMARK SMILES IDX 41 69 35 70 36 71 39 72 37 73 63 74 64 75 72 76 65 77 66 78
REMARK SMILES IDX 70 79 73 80 67 81 68 82 71 83 69 84 48 85 49 86 57 87 50 88
REMARK SMILES IDX 51 89 55 90 58 91 52 92 53 93 56 94 54 95
REMARK H PARENT 15 5 8 11 19 29 78 48 46 59
REMARK Flexibility Score: inf
ROOT
ATOM      1  C   UNL A   1      31.713  30.643  25.818  1.00  0.00     0.117 C 
ENDROOT
BRANCH   1   2
ATOM      2  N   UNL A   1      30.780  30.369  24.732  1.00  0.00    -0.356 N 
ATOM      3  C   UNL A   1      30.630  29.300  23.903  1.00  0.00     0.220 C 
ATOM      4  O   UNL A   1      29.739  29.353  23.052  1.00  0.00    -0.275 OA
ATOM      5  H   UNL A   1      30.136  31.096  24.566  1.00  0.00     0.163 HD
BRANCH   3   6
ATOM      6  C   UNL A   1      31.527  28.080  23.999  1.00  0.00     0.104 C 
BRANCH   6   7
ATOM      7  C   UNL A   1      30.743  26.769  24.225  1.00  0.00     0.009 C 
ATOM      8  N   UNL A   1      31.396  24.023  25.197  1.00  0.00    -0.327 N 
ATOM      9  C   UNL A   1      30.517  24.903  25.989  1.00  0.00     0.262 C 
ATOM     10  C   UNL A   1      31.091  24.240  23.784  1.00  0.00     0.262 C 
ATOM     11  H   UNL A   1      31.231  23.036  25.392  1.00  0.00     0.348 HD
ATOM     12  C   UNL A   1      30.737  26.398  25.719  1.00  0.00     0.066 C 
ATOM     13  C   UNL A   1      31.322  25.669  23.329  1.00  0.00     0.066 C 
BRANCH   8  14
ATOM     14  C   UNL A   1      32.814  24.253  25.569  1.00  0.00     0.363 C 
BRANCH  14  15
ATOM     15  C   UNL A   1      33.645  22.998  25.857  1.00  0.00     0.277 C 
ATOM     16  C   UNL A   1      37.154  23.821  25.436  1.00  0.00     0.040 C 
ATOM     17  C   UNL A   1      36.684  23.148  24.146  1.00  0.00     0.135 C 
ATOM     18  C   UNL A   1      35.169  23.314  23.888  1.00  0.00     0.151 C 
ATOM     19  O   UNL A   1      37.067  21.757  24.123  1.00  0.00    -0.372 OA
ATOM     20  N   UNL A   1      34.417  22.491  24.831  1.00  0.00    -0.333 N 
ATOM     21  C   UNL A   1      36.325  20.937  25.049  1.00  0.00     0.135 C 
ATOM     22  C   UNL A   1      34.813  21.087  24.830  1.00  0.00     0.151 C 
ATOM     23  C   UNL A   1      36.754  19.493  24.823  1.00  0.00     0.040 C 
ATOM     24  O   UNL A   1      33.518  22.403  26.931  1.00  0.00    -0.268 OA
ENDBRANCH  14  15
ENDBRANCH   8  14
ENDBRANCH   6   7
ENDBRANCH   3   6
ENDBRANCH   1   2
BRANCH   1  25
ATOM     25  C   UNL A   1      31.442  31.976  26.519  1.00  0.00     0.042 C 
BRANCH  25  26
ATOM     26  C   UNL A   1      32.618  32.542  27.305  1.00  0.00     0.118 C 
BRANCH  26  27
ATOM     27  N   UNL A   1      32.467  33.962  27.555  1.00  0.00    -0.352 N 
ATOM     28  C   UNL A   1      33.028  34.747  28.532  1.00  0.00     0.251 C 
ATOM     29  H   UNL A   1      31.873  34.436  26.929  1.00  0.00     0.163 HD
ATOM     30  O   UNL A   1      32.584  35.877  28.716  1.00  0.00    -0.269 OA
BRANCH  28  31
ATOM     31  C   UNL A   1      34.160  34.268  29.369  1.00  0.00     0.039 A 
ATOM     32  C   UNL A   1      35.465  34.506  28.918  1.00  0.00     0.014 A 
ATOM     33  C   UNL A   1      33.965  33.501  30.521  1.00  0.00     0.014 A 
ATOM     34  C   UNL A   1      36.560  33.979  29.613  1.00  0.00     0.010 A 
ATOM     35  C   UNL A   1      35.060  33.037  31.254  1.00  0.00     0.010 A 
ATOM     36  C   UNL A   1      36.368  33.238  30.787  1.00  0.00    -0.014 A 
BRANCH  36  37
ATOM     37  C   UNL A   1      37.513  32.584  31.475  1.00  0.00     0.031 A 
ATOM     38  C   UNL A   1      38.231  31.437  30.811  1.00  0.00     0.074 A 
ATOM     39  C   UNL A   1      37.902  32.995  32.697  1.00  0.00     0.049 A 
ATOM     40  N   UNL A   1      39.217  30.699  31.259  1.00  0.00    -0.248 NA
ATOM     41  C   UNL A   1      37.761  31.052  29.471  1.00  0.00     0.031 C 
ATOM     42  C   UNL A   1      37.277  34.070  33.467  1.00  0.00     0.029 A 
ATOM     43  N   UNL A   1      38.916  32.549  33.510  1.00  0.00    -0.354 N 
ATOM     44  C   UNL A   1      39.461  29.753  30.272  1.00  0.00     0.074 A 
ATOM     45  C   UNL A   1      38.496  29.979  29.220  1.00  0.00     0.031 C 
ATOM     46  C   UNL A   1      37.933  34.215  34.631  1.00  0.00     0.029 A 
ATOM     47  C   UNL A   1      39.006  33.227  34.702  1.00  0.00     0.049 A 
ATOM     48  H   UNL A   1      39.522  31.814  33.262  1.00  0.00     0.167 HD
ATOM     49  C   UNL A   1      40.420  28.795  30.231  1.00  0.00     0.037 A 
ATOM     50  C   UNL A   1      39.857  33.067  35.733  1.00  0.00     0.037 A 
ATOM     51  C   UNL A   1      41.415  28.598  31.252  1.00  0.00     0.049 A 
ATOM     52  C   UNL A   1      40.934  32.018  35.650  1.00  0.00     0.074 A 
ATOM     53  C   UNL A   1      42.458  27.689  31.277  1.00  0.00     0.029 A 
ATOM     54  N   UNL A   1      41.495  29.332  32.425  1.00  0.00    -0.354 N 
ATOM     55  N   UNL A   1      41.184  31.162  34.690  1.00  0.00    -0.248 NA
ATOM     56  C   UNL A   1      41.855  31.922  36.792  1.00  0.00     0.031 C 
ATOM     57  C   UNL A   1      43.154  27.855  32.480  1.00  0.00     0.029 A 
ATOM     58  C   UNL A   1      42.567  28.893  33.184  1.00  0.00     0.049 A 
ATOM     59  H   UNL A   1      40.881  30.058  32.681  1.00  0.00     0.167 HD
ATOM     60  C   UNL A   1      42.305  30.450  35.095  1.00  0.00     0.074 A 
ATOM     61  C   UNL A   1      42.696  30.981  36.384  1.00  0.00     0.031 C 
ATOM     62  C   UNL A   1      42.954  29.447  34.455  1.00  0.00     0.037 A 
BRANCH  49  63
ATOM     63  C   UNL A   1      40.443  27.888  29.037  1.00  0.00     0.064 A 
ATOM     64  C   UNL A   1      39.695  26.700  29.000  1.00  0.00     0.173 A 
ATOM     65  C   UNL A   1      41.193  28.225  27.900  1.00  0.00     0.173 A 
ATOM     66  F   UNL A   1      38.971  26.327  30.066  1.00  0.00    -0.203 F 
ATOM     67  C   UNL A   1      39.720  25.871  27.882  1.00  0.00     0.198 A 
ATOM     68  C   UNL A   1      41.193  27.408  26.772  1.00  0.00     0.198 A 
ATOM     69  F   UNL A   1      41.920  29.353  27.879  1.00  0.00    -0.203 F 
ATOM     70  F   UNL A   1      39.037  24.719  27.889  1.00  0.00    -0.200 F 
ATOM     71  C   UNL A   1      40.464  26.228  26.767  1.00  0.00     0.200 A 
ATOM     72  F   UNL A   1      41.903  27.760  25.691  1.00  0.00    -0.200 F 
ATOM     73  F   UNL A   1      40.483  25.432  25.690  1.00  0.00    -0.200 F 
ENDBRANCH  49  63
BRANCH  50  74
ATOM     74  C   UNL A   1      39.752  33.949  36.925  1.00  0.00     0.064 A 
ATOM     75  C   UNL A   1      38.973  33.574  38.029  1.00  0.00     0.173 A 
ATOM     76  C   UNL A   1      40.416  35.182  36.980  1.00  0.00     0.173 A 
ATOM     77  F   UNL A   1      38.302  32.414  38.011  1.00  0.00    -0.203 F 
ATOM     78  C   UNL A   1      38.845  34.411  39.136  1.00  0.00     0.198 A 
ATOM     79  C   UNL A   1      40.308  36.007  38.099  1.00  0.00     0.198 A 
ATOM     80  F   UNL A   1      41.175  35.584  35.951  1.00  0.00    -0.203 F 
ATOM     81  F   UNL A   1      38.058  34.050  40.158  1.00  0.00    -0.200 F 
ATOM     82  C   UNL A   1      39.516  35.624  39.172  1.00  0.00     0.200 A 
ATOM     83  F   UNL A   1      40.965  37.173  38.135  1.00  0.00    -0.200 F 
ATOM     84  F   UNL A   1      39.393  36.428  40.236  1.00  0.00    -0.200 F 
ENDBRANCH  50  74
BRANCH  62  85
ATOM     85  C   UNL A   1      44.179  28.887  35.115  1.00  0.00     0.064 A 
ATOM     86  C   UNL A   1      44.109  27.802  36.000  1.00  0.00     0.173 A 
ATOM     87  C   UNL A   1      45.445  29.419  34.824  1.00  0.00     0.173 A 
ATOM     88  F   UNL A   1      42.920  27.268  36.319  1.00  0.00    -0.203 F 
ATOM     89  C   UNL A   1      45.260  27.284  36.588  1.00  0.00     0.198 A 
ATOM     90  C   UNL A   1      46.595  28.882  35.394  1.00  0.00     0.198 A 
ATOM     91  F   UNL A   1      45.565  30.453  33.978  1.00  0.00    -0.203 F 
ATOM     92  F   UNL A   1      45.165  26.274  37.463  1.00  0.00    -0.200 F 
ATOM     93  C   UNL A   1      46.501  27.820  36.281  1.00  0.00     0.200 A 
ATOM     94  F   UNL A   1      47.796  29.394  35.087  1.00  0.00    -0.200 F 
ATOM     95  F   UNL A   1      47.608  27.317  36.844  1.00  0.00    -0.200 F 
ENDBRANCH  62  85
ENDBRANCH  36  37
ENDBRANCH  28  31
ENDBRANCH  26  27
ENDBRANCH  25  26
ENDBRANCH   1  25
TORSDOF 13
ENDMDL
