MODEL 1
REMARK VINA RESULT:      -9.7      0.000      0.000
REMARK SMILES CC[NH2+][C@]1(C(=O)NCCCNC(=O)c2ccc(-c3c4nc(c(-c5c(F)c(F)c(F)c(F)c5F)c5ccc([nH]5)c(-c5c(F)c(F)c(F)c(F)c5F)c5nc(c(-c6c(F)c(F)c(F)c(F)c6F)c6ccc3[nH]6)C=C5)C=C4)cc2)CC[C@@H]([N@@H+](CC)[C@@H](C)CC)C1
REMARK SMILES IDX 8 1 7 2 5 3 6 4 4 6 77 7 87 8 78 9 79 10 3 11 2 14 1 15
REMARK SMILES IDX 80 16 81 18 82 19 83 20 84 21 85 22 86 23 9 24 10 25 11 26
REMARK SMILES IDX 12 27 13 29 14 30 15 31 76 32 16 33 75 34 17 35 18 36 19 37
REMARK SMILES IDX 69 38 20 39 74 40 68 41 70 42 21 43 73 44 67 45 66 46 22 48
REMARK SMILES IDX 54 49 34 50 53 51 35 52 38 53 52 54 71 55 36 56 37 57 51 59
REMARK SMILES IDX 72 60 39 61 23 62 24 63 32 64 25 65 26 66 30 67 33 68 27 69
REMARK SMILES IDX 28 70 31 71 29 72 55 73 56 74 64 75 57 76 58 77 62 78 65 79
REMARK SMILES IDX 59 80 60 81 63 82 61 83 40 84 41 85 49 86 42 87 43 88 47 89
REMARK SMILES IDX 50 90 44 91 45 92 48 93 46 94
REMARK H PARENT 7 5 3 12 3 13 80 17 11 28 70 47 38 58
REMARK Flexibility Score: inf
ROOT
ATOM      1  C   UNL A   1      34.224  34.974  29.350  1.00  0.00     0.118 C 
ENDROOT
BRANCH   1   2
ATOM      2  N   UNL A   1      33.776  34.149  30.458  1.00  0.00    -0.351 N 
ATOM      3  C   UNL A   1      34.425  33.673  31.556  1.00  0.00     0.281 C 
ATOM      4  O   UNL A   1      34.010  32.572  31.949  1.00  0.00    -0.268 OA
ATOM      5  H   UNL A   1      32.829  33.885  30.407  1.00  0.00     0.163 HD
BRANCH   3   6
ATOM      6  C   UNL A   1      35.466  34.474  32.415  1.00  0.00     0.181 C 
ATOM      7  C   UNL A   1      35.442  33.882  33.843  1.00  0.00     0.085 C 
ATOM      8  C   UNL A   1      36.962  34.333  32.067  1.00  0.00     0.144 C 
ATOM      9  C   UNL A   1      36.734  34.323  34.506  1.00  0.00     0.072 C 
ATOM     10  C   UNL A   1      37.778  34.330  33.388  1.00  0.00     0.191 C 
BRANCH   6  11
ATOM     11  N   UNL A   1      35.122  35.929  32.396  1.00  0.00    -0.334 N 
ATOM     12  H   UNL A   1      35.969  36.459  32.601  1.00  0.00     0.347 HD
ATOM     13  H   UNL A   1      34.742  36.124  31.469  1.00  0.00     0.347 HD
BRANCH  11  14
ATOM     14  C   UNL A   1      34.088  36.327  33.362  1.00  0.00     0.257 C 
ATOM     15  C   UNL A   1      32.813  36.725  32.632  1.00  0.00     0.071 C 
ENDBRANCH  11  14
ENDBRANCH   6  11
BRANCH  10  16
ATOM     16  N   UNL A   1      38.907  33.381  33.466  1.00  0.00    -0.330 N 
ATOM     17  H   UNL A   1      38.705  33.024  32.532  1.00  0.00     0.348 HD
BRANCH  16  18
ATOM     18  C   UNL A   1      40.228  34.021  33.580  1.00  0.00     0.259 C 
ATOM     19  C   UNL A   1      40.371  35.122  34.623  1.00  0.00     0.071 C 
ENDBRANCH  16  18
BRANCH  16  20
ATOM     20  C   UNL A   1      38.851  32.041  34.084  1.00  0.00     0.180 C 
ATOM     21  C   UNL A   1      37.964  30.986  33.416  1.00  0.00     0.075 C 
BRANCH  20  22
ATOM     22  C   UNL A   1      40.233  31.426  34.383  1.00  0.00     0.061 C 
ATOM     23  C   UNL A   1      40.435  31.075  35.854  1.00  0.00     0.010 C 
ENDBRANCH  20  22
ENDBRANCH  16  20
ENDBRANCH  10  16
ENDBRANCH   3   6
ENDBRANCH   1   2
BRANCH   1  24
ATOM     24  C   UNL A   1      34.176  34.178  28.040  1.00  0.00     0.042 C 
BRANCH  24  25
ATOM     25  C   UNL A   1      35.071  32.939  28.017  1.00  0.00     0.118 C 
BRANCH  25  26
ATOM     26  N   UNL A   1      34.296  31.710  27.946  1.00  0.00    -0.352 N 
ATOM     27  C   UNL A   1      34.679  30.392  27.877  1.00  0.00     0.251 C 
ATOM     28  H   UNL A   1      33.322  31.847  27.948  1.00  0.00     0.163 HD
ATOM     29  O   UNL A   1      33.834  29.556  27.562  1.00  0.00    -0.269 OA
BRANCH  27  30
ATOM     30  C   UNL A   1      36.064  29.940  28.168  1.00  0.00     0.039 A 
ATOM     31  C   UNL A   1      36.341  29.430  29.445  1.00  0.00     0.014 A 
ATOM     32  C   UNL A   1      37.115  30.108  27.265  1.00  0.00     0.014 A 
ATOM     33  C   UNL A   1      37.645  29.063  29.797  1.00  0.00     0.010 A 
ATOM     34  C   UNL A   1      38.401  29.662  27.586  1.00  0.00     0.010 A 
ATOM     35  C   UNL A   1      38.687  29.154  28.863  1.00  0.00    -0.014 A 
BRANCH  35  36
ATOM     36  C   UNL A   1      40.084  28.766  29.209  1.00  0.00     0.031 A 
ATOM     37  C   UNL A   1      40.955  29.703  30.007  1.00  0.00     0.074 A 
ATOM     38  C   UNL A   1      40.596  27.605  28.757  1.00  0.00     0.049 A 
ATOM     39  N   UNL A   1      42.228  29.608  30.302  1.00  0.00    -0.248 NA
ATOM     40  C   UNL A   1      40.315  30.926  30.515  1.00  0.00     0.031 C 
ATOM     41  C   UNL A   1      39.877  26.621  27.949  1.00  0.00     0.029 A 
ATOM     42  N   UNL A   1      41.851  27.063  28.900  1.00  0.00    -0.354 N 
ATOM     43  C   UNL A   1      42.545  30.769  30.995  1.00  0.00     0.074 A 
ATOM     44  C   UNL A   1      41.343  31.574  31.043  1.00  0.00     0.031 C 
ATOM     45  C   UNL A   1      40.693  25.589  27.681  1.00  0.00     0.029 A 
ATOM     46  C   UNL A   1      42.006  25.856  28.262  1.00  0.00     0.049 A 
ATOM     47  H   UNL A   1      42.571  27.498  29.411  1.00  0.00     0.167 HD
ATOM     48  C   UNL A   1      43.725  31.127  31.558  1.00  0.00     0.037 A 
ATOM     49  C   UNL A   1      43.086  25.060  28.147  1.00  0.00     0.037 A 
ATOM     50  C   UNL A   1      44.908  30.306  31.557  1.00  0.00     0.049 A 
ATOM     51  C   UNL A   1      44.379  25.469  28.798  1.00  0.00     0.074 A 
ATOM     52  C   UNL A   1      46.131  30.552  32.157  1.00  0.00     0.029 A 
ATOM     53  N   UNL A   1      45.012  29.073  30.929  1.00  0.00    -0.354 N 
ATOM     54  N   UNL A   1      44.654  26.550  29.487  1.00  0.00    -0.248 NA
ATOM     55  C   UNL A   1      45.514  24.545  28.659  1.00  0.00     0.031 C 
ATOM     56  C   UNL A   1      46.986  29.484  31.863  1.00  0.00     0.029 A 
ATOM     57  C   UNL A   1      46.281  28.553  31.117  1.00  0.00     0.049 A 
ATOM     58  H   UNL A   1      44.289  28.634  30.426  1.00  0.00     0.167 HD
ATOM     59  C   UNL A   1      45.978  26.423  29.885  1.00  0.00     0.074 A 
ATOM     60  C   UNL A   1      46.450  25.155  29.372  1.00  0.00     0.031 C 
ATOM     61  C   UNL A   1      46.733  27.282  30.612  1.00  0.00     0.037 A 
BRANCH  48  62
ATOM     62  C   UNL A   1      43.798  32.468  32.231  1.00  0.00     0.064 A 
ATOM     63  C   UNL A   1      43.717  32.600  33.626  1.00  0.00     0.173 A 
ATOM     64  C   UNL A   1      43.988  33.635  31.473  1.00  0.00     0.173 A 
ATOM     65  F   UNL A   1      43.526  31.517  34.395  1.00  0.00    -0.203 F 
ATOM     66  C   UNL A   1      43.791  33.850  34.234  1.00  0.00     0.198 A 
ATOM     67  C   UNL A   1      44.092  34.880  32.087  1.00  0.00     0.198 A 
ATOM     68  F   UNL A   1      44.081  33.566  30.137  1.00  0.00    -0.203 F 
ATOM     69  F   UNL A   1      43.660  33.954  35.563  1.00  0.00    -0.200 F 
ATOM     70  C   UNL A   1      43.986  34.988  33.466  1.00  0.00     0.200 A 
ATOM     71  F   UNL A   1      44.293  35.978  31.345  1.00  0.00    -0.200 F 
ATOM     72  F   UNL A   1      44.062  36.189  34.054  1.00  0.00    -0.200 F 
ENDBRANCH  48  62
BRANCH  49  73
ATOM     73  C   UNL A   1      42.984  23.779  27.401  1.00  0.00     0.064 A 
ATOM     74  C   UNL A   1      43.364  23.701  26.055  1.00  0.00     0.173 A 
ATOM     75  C   UNL A   1      42.507  22.611  28.014  1.00  0.00     0.173 A 
ATOM     76  F   UNL A   1      43.805  24.797  25.420  1.00  0.00    -0.203 F 
ATOM     77  C   UNL A   1      43.257  22.507  25.344  1.00  0.00     0.198 A 
ATOM     78  C   UNL A   1      42.426  21.411  27.309  1.00  0.00     0.198 A 
ATOM     79  F   UNL A   1      42.133  22.632  29.302  1.00  0.00    -0.203 F 
ATOM     80  F   UNL A   1      43.590  22.470  24.046  1.00  0.00    -0.200 F 
ATOM     81  C   UNL A   1      42.794  21.362  25.974  1.00  0.00     0.200 A 
ATOM     82  F   UNL A   1      41.989  20.304  27.925  1.00  0.00    -0.200 F 
ATOM     83  F   UNL A   1      42.697  20.214  25.291  1.00  0.00    -0.200 F 
ENDBRANCH  49  73
BRANCH  61  84
ATOM     84  C   UNL A   1      48.138  26.864  30.929  1.00  0.00     0.064 A 
ATOM     85  C   UNL A   1      49.222  27.256  30.129  1.00  0.00     0.173 A 
ATOM     86  C   UNL A   1      48.408  26.097  32.072  1.00  0.00     0.173 A 
ATOM     87  F   UNL A   1      49.013  27.977  29.017  1.00  0.00    -0.203 F 
ATOM     88  C   UNL A   1      50.522  26.877  30.451  1.00  0.00     0.198 A 
ATOM     89  C   UNL A   1      49.711  25.742  32.405  1.00  0.00     0.198 A 
ATOM     90  F   UNL A   1      47.406  25.702  32.873  1.00  0.00    -0.203 F 
ATOM     91  F   UNL A   1      51.538  27.227  29.650  1.00  0.00    -0.200 F 
ATOM     92  C   UNL A   1      50.767  26.126  31.592  1.00  0.00     0.200 A 
ATOM     93  F   UNL A   1      49.948  25.026  33.514  1.00  0.00    -0.200 F 
ATOM     94  F   UNL A   1      52.019  25.769  31.904  1.00  0.00    -0.200 F 
ENDBRANCH  61  84
ENDBRANCH  35  36
ENDBRANCH  27  30
ENDBRANCH  25  26
ENDBRANCH  24  25
ENDBRANCH   1  24
TORSDOF 16
ENDMDL
MODEL 2
REMARK VINA RESULT:      -9.7      4.172     10.436
REMARK SMILES CC[NH2+][C@]1(C(=O)NCCCNC(=O)c2ccc(-c3c4nc(c(-c5c(F)c(F)c(F)c(F)c5F)c5ccc([nH]5)c(-c5c(F)c(F)c(F)c(F)c5F)c5nc(c(-c6c(F)c(F)c(F)c(F)c6F)c6ccc3[nH]6)C=C5)C=C4)cc2)CC[C@@H]([N@@H+](CC)[C@@H](C)CC)C1
REMARK SMILES IDX 8 1 7 2 5 3 6 4 4 6 77 7 87 8 78 9 79 10 3 11 2 14 1 15
REMARK SMILES IDX 80 16 81 18 82 19 83 20 84 21 85 22 86 23 9 24 10 25 11 26
REMARK SMILES IDX 12 27 13 29 14 30 15 31 76 32 16 33 75 34 17 35 18 36 19 37
REMARK SMILES IDX 69 38 20 39 74 40 68 41 70 42 21 43 73 44 67 45 66 46 22 48
REMARK SMILES IDX 54 49 34 50 53 51 35 52 38 53 52 54 71 55 36 56 37 57 51 59
REMARK SMILES IDX 72 60 39 61 23 62 24 63 32 64 25 65 26 66 30 67 33 68 27 69
REMARK SMILES IDX 28 70 31 71 29 72 55 73 56 74 64 75 57 76 58 77 62 78 65 79
REMARK SMILES IDX 59 80 60 81 63 82 61 83 40 84 41 85 49 86 42 87 43 88 47 89
REMARK SMILES IDX 50 90 44 91 45 92 48 93 46 94
REMARK H PARENT 7 5 3 12 3 13 80 17 11 28 70 47 38 58
REMARK Flexibility Score: inf
ROOT
ATOM      1  C   UNL A   1      31.500  30.571  25.777  1.00  0.00     0.118 C 
ENDROOT
BRANCH   1   2
ATOM      2  N   UNL A   1      31.766  29.578  26.802  1.00  0.00    -0.351 N 
ATOM      3  C   UNL A   1      31.671  28.220  26.797  1.00  0.00     0.281 C 
ATOM      4  O   UNL A   1      31.366  27.732  27.897  1.00  0.00    -0.268 OA
ATOM      5  H   UNL A   1      32.073  29.955  27.658  1.00  0.00     0.163 HD
BRANCH   3   6
ATOM      6  C   UNL A   1      32.092  27.283  25.611  1.00  0.00     0.181 C 
ATOM      7  C   UNL A   1      33.635  27.307  25.525  1.00  0.00     0.085 C 
ATOM      8  C   UNL A   1      31.832  25.769  25.749  1.00  0.00     0.144 C 
ATOM      9  C   UNL A   1      34.034  26.083  24.722  1.00  0.00     0.072 C 
ATOM     10  C   UNL A   1      33.018  25.004  25.104  1.00  0.00     0.191 C 
BRANCH   6  11
ATOM     11  N   UNL A   1      31.444  27.750  24.346  1.00  0.00    -0.334 N 
ATOM     12  H   UNL A   1      31.406  28.769  24.365  1.00  0.00     0.347 HD
ATOM     13  H   UNL A   1      32.011  27.384  23.580  1.00  0.00     0.347 HD
BRANCH  11  14
ATOM     14  C   UNL A   1      30.081  27.244  24.134  1.00  0.00     0.257 C 
ATOM     15  C   UNL A   1      29.317  28.172  23.200  1.00  0.00     0.071 C 
ENDBRANCH  11  14
ENDBRANCH   6  11
BRANCH  10  16
ATOM     16  N   UNL A   1      33.496  23.801  25.816  1.00  0.00    -0.330 N 
ATOM     17  H   UNL A   1      34.342  24.284  26.119  1.00  0.00     0.348 HD
BRANCH  16  18
ATOM     18  C   UNL A   1      32.631  23.374  26.928  1.00  0.00     0.259 C 
ATOM     19  C   UNL A   1      33.160  22.257  27.820  1.00  0.00     0.071 C 
ENDBRANCH  16  18
BRANCH  16  20
ATOM     20  C   UNL A   1      34.248  22.689  25.200  1.00  0.00     0.180 C 
ATOM     21  C   UNL A   1      33.820  22.229  23.804  1.00  0.00     0.075 C 
BRANCH  20  22
ATOM     22  C   UNL A   1      35.779  22.871  25.228  1.00  0.00     0.061 C 
ATOM     23  C   UNL A   1      36.379  23.177  23.859  1.00  0.00     0.010 C 
ENDBRANCH  20  22
ENDBRANCH  16  20
ENDBRANCH  10  16
ENDBRANCH   3   6
ENDBRANCH   1   2
BRANCH   1  24
ATOM     24  C   UNL A   1      31.385  31.966  26.403  1.00  0.00     0.042 C 
BRANCH  24  25
ATOM     25  C   UNL A   1      32.609  32.404  27.207  1.00  0.00     0.118 C 
BRANCH  25  26
ATOM     26  N   UNL A   1      32.556  33.817  27.551  1.00  0.00    -0.352 N 
ATOM     27  C   UNL A   1      33.173  34.537  28.545  1.00  0.00     0.251 C 
ATOM     28  H   UNL A   1      31.973  34.352  26.968  1.00  0.00     0.163 HD
ATOM     29  O   UNL A   1      32.760  35.670  28.785  1.00  0.00    -0.269 OA
BRANCH  27  30
ATOM     30  C   UNL A   1      34.314  34.006  29.335  1.00  0.00     0.039 A 
ATOM     31  C   UNL A   1      35.615  34.290  28.895  1.00  0.00     0.014 A 
ATOM     32  C   UNL A   1      34.141  33.148  30.422  1.00  0.00     0.014 A 
ATOM     33  C   UNL A   1      36.725  33.750  29.556  1.00  0.00     0.010 A 
ATOM     34  C   UNL A   1      35.249  32.677  31.134  1.00  0.00     0.010 A 
ATOM     35  C   UNL A   1      36.554  32.955  30.698  1.00  0.00    -0.014 A 
BRANCH  35  36
ATOM     36  C   UNL A   1      37.717  32.370  31.425  1.00  0.00     0.031 A 
ATOM     37  C   UNL A   1      38.479  31.214  30.829  1.00  0.00     0.074 A 
ATOM     38  C   UNL A   1      38.052  32.829  32.646  1.00  0.00     0.049 A 
ATOM     39  N   UNL A   1      39.435  30.487  31.354  1.00  0.00    -0.248 NA
ATOM     40  C   UNL A   1      38.095  30.801  29.470  1.00  0.00     0.031 C 
ATOM     41  C   UNL A   1      37.381  33.918  33.355  1.00  0.00     0.029 A 
ATOM     42  N   UNL A   1      39.035  32.423  33.517  1.00  0.00    -0.354 N 
ATOM     43  C   UNL A   1      39.737  29.515  30.409  1.00  0.00     0.074 A 
ATOM     44  C   UNL A   1      38.837  29.718  29.294  1.00  0.00     0.031 C 
ATOM     45  C   UNL A   1      37.980  34.107  34.541  1.00  0.00     0.029 A 
ATOM     46  C   UNL A   1      39.050  33.125  34.698  1.00  0.00     0.049 A 
ATOM     47  H   UNL A   1      39.669  31.698  33.314  1.00  0.00     0.167 HD
ATOM     48  C   UNL A   1      40.689  28.552  30.456  1.00  0.00     0.037 A 
ATOM     49  C   UNL A   1      39.828  32.987  35.788  1.00  0.00     0.037 A 
ATOM     50  C   UNL A   1      41.619  28.380  31.541  1.00  0.00     0.049 A 
ATOM     51  C   UNL A   1      40.891  31.923  35.808  1.00  0.00     0.074 A 
ATOM     52  C   UNL A   1      42.662  27.476  31.651  1.00  0.00     0.029 A 
ATOM     53  N   UNL A   1      41.622  29.137  32.704  1.00  0.00    -0.354 N 
ATOM     54  N   UNL A   1      41.195  31.039  34.889  1.00  0.00    -0.248 NA
ATOM     55  C   UNL A   1      41.725  31.841  37.016  1.00  0.00     0.031 C 
ATOM     56  C   UNL A   1      43.273  27.663  32.896  1.00  0.00     0.029 A 
ATOM     57  C   UNL A   1      42.640  28.712  33.541  1.00  0.00     0.049 A 
ATOM     58  H   UNL A   1      40.993  29.867  32.903  1.00  0.00     0.167 HD
ATOM     59  C   UNL A   1      42.267  30.317  35.394  1.00  0.00     0.074 A 
ATOM     60  C   UNL A   1      42.571  30.872  36.696  1.00  0.00     0.031 C 
ATOM     61  C   UNL A   1      42.939  29.284  34.829  1.00  0.00     0.037 A 
BRANCH  48  62
ATOM     62  C   UNL A   1      40.779  27.605  29.293  1.00  0.00     0.064 A 
ATOM     63  C   UNL A   1      39.873  26.546  29.131  1.00  0.00     0.173 A 
ATOM     64  C   UNL A   1      41.762  27.782  28.306  1.00  0.00     0.173 A 
ATOM     65  F   UNL A   1      38.920  26.328  30.050  1.00  0.00    -0.203 F 
ATOM     66  C   UNL A   1      39.967  25.680  28.045  1.00  0.00     0.198 A 
ATOM     67  C   UNL A   1      41.835  26.932  27.205  1.00  0.00     0.198 A 
ATOM     68  F   UNL A   1      42.649  28.784  28.406  1.00  0.00    -0.203 F 
ATOM     69  F   UNL A   1      39.122  24.646  27.940  1.00  0.00    -0.200 F 
ATOM     70  C   UNL A   1      40.943  25.878  27.079  1.00  0.00     0.200 A 
ATOM     71  F   UNL A   1      42.769  27.132  26.266  1.00  0.00    -0.200 F 
ATOM     72  F   UNL A   1      41.028  25.047  26.031  1.00  0.00    -0.200 F 
ENDBRANCH  48  62
BRANCH  49  73
ATOM     73  C   UNL A   1      39.645  33.899  36.947  1.00  0.00     0.064 A 
ATOM     74  C   UNL A   1      38.853  33.520  38.039  1.00  0.00     0.173 A 
ATOM     75  C   UNL A   1      40.254  35.162  36.989  1.00  0.00     0.173 A 
ATOM     76  F   UNL A   1      38.232  32.331  38.035  1.00  0.00    -0.203 F 
ATOM     77  C   UNL A   1      38.663  34.374  39.123  1.00  0.00     0.198 A 
ATOM     78  C   UNL A   1      40.085  36.005  38.086  1.00  0.00     0.198 A 
ATOM     79  F   UNL A   1      41.024  35.570  35.971  1.00  0.00    -0.203 F 
ATOM     80  F   UNL A   1      37.868  34.003  40.136  1.00  0.00    -0.200 F 
ATOM     81  C   UNL A   1      39.285  35.614  39.149  1.00  0.00     0.200 A 
ATOM     82  F   UNL A   1      40.697  37.196  38.112  1.00  0.00    -0.200 F 
ATOM     83  F   UNL A   1      39.107  36.432  40.193  1.00  0.00    -0.200 F 
ENDBRANCH  49  73
BRANCH  61  84
ATOM     84  C   UNL A   1      44.095  28.712  35.595  1.00  0.00     0.064 A 
ATOM     85  C   UNL A   1      45.395  29.217  35.453  1.00  0.00     0.173 A 
ATOM     86  C   UNL A   1      43.889  27.673  36.516  1.00  0.00     0.173 A 
ATOM     87  F   UNL A   1      45.644  30.199  34.574  1.00  0.00    -0.203 F 
ATOM     88  C   UNL A   1      46.451  28.688  36.189  1.00  0.00     0.198 A 
ATOM     89  C   UNL A   1      44.942  27.165  37.269  1.00  0.00     0.198 A 
ATOM     90  F   UNL A   1      42.662  27.160  36.693  1.00  0.00    -0.203 F 
ATOM     91  F   UNL A   1      47.694  29.157  36.007  1.00  0.00    -0.200 F 
ATOM     92  C   UNL A   1      46.224  27.668  37.102  1.00  0.00     0.200 A 
ATOM     93  F   UNL A   1      44.719  26.187  38.159  1.00  0.00    -0.200 F 
ATOM     94  F   UNL A   1      47.241  27.165  37.814  1.00  0.00    -0.200 F 
ENDBRANCH  61  84
ENDBRANCH  35  36
ENDBRANCH  27  30
ENDBRANCH  25  26
ENDBRANCH  24  25
ENDBRANCH   1  24
TORSDOF 16
ENDMDL
MODEL 3
REMARK VINA RESULT:      -9.5      3.903     10.138
REMARK SMILES CC[NH2+][C@]1(C(=O)NCCCNC(=O)c2ccc(-c3c4nc(c(-c5c(F)c(F)c(F)c(F)c5F)c5ccc([nH]5)c(-c5c(F)c(F)c(F)c(F)c5F)c5nc(c(-c6c(F)c(F)c(F)c(F)c6F)c6ccc3[nH]6)C=C5)C=C4)cc2)CC[C@@H]([N@@H+](CC)[C@@H](C)CC)C1
REMARK SMILES IDX 8 1 7 2 5 3 6 4 4 6 77 7 87 8 78 9 79 10 3 11 2 14 1 15
REMARK SMILES IDX 80 16 81 18 82 19 83 20 84 21 85 22 86 23 9 24 10 25 11 26
REMARK SMILES IDX 12 27 13 29 14 30 15 31 76 32 16 33 75 34 17 35 18 36 19 37
REMARK SMILES IDX 69 38 20 39 74 40 68 41 70 42 21 43 73 44 67 45 66 46 22 48
REMARK SMILES IDX 54 49 34 50 53 51 35 52 38 53 52 54 71 55 36 56 37 57 51 59
REMARK SMILES IDX 72 60 39 61 23 62 24 63 32 64 25 65 26 66 30 67 33 68 27 69
REMARK SMILES IDX 28 70 31 71 29 72 55 73 56 74 64 75 57 76 58 77 62 78 65 79
REMARK SMILES IDX 59 80 60 81 63 82 61 83 40 84 41 85 49 86 42 87 43 88 47 89
REMARK SMILES IDX 50 90 44 91 45 92 48 93 46 94
REMARK H PARENT 7 5 3 12 3 13 80 17 11 28 70 47 38 58
REMARK Flexibility Score: inf
ROOT
ATOM      1  C   UNL A   1      31.017  30.769  26.130  1.00  0.00     0.118 C 
ENDROOT
BRANCH   1   2
ATOM      2  N   UNL A   1      31.589  30.142  24.951  1.00  0.00    -0.351 N 
ATOM      3  C   UNL A   1      32.589  29.230  24.803  1.00  0.00     0.281 C 
ATOM      4  O   UNL A   1      33.233  29.356  23.751  1.00  0.00    -0.268 OA
ATOM      5  H   UNL A   1      31.178  30.428  24.104  1.00  0.00     0.163 HD
BRANCH   3   6
ATOM      6  C   UNL A   1      32.831  27.987  25.730  1.00  0.00     0.181 C 
ATOM      7  C   UNL A   1      31.467  27.292  25.941  1.00  0.00     0.085 C 
ATOM      8  C   UNL A   1      33.671  26.818  25.178  1.00  0.00     0.144 C 
ATOM      9  C   UNL A   1      31.777  25.886  26.421  1.00  0.00     0.072 C 
ATOM     10  C   UNL A   1      33.060  25.486  25.690  1.00  0.00     0.191 C 
BRANCH   6  11
ATOM     11  N   UNL A   1      33.448  28.432  27.018  1.00  0.00    -0.334 N 
ATOM     12  H   UNL A   1      32.756  28.979  27.530  1.00  0.00     0.347 HD
ATOM     13  H   UNL A   1      33.731  27.583  27.510  1.00  0.00     0.347 HD
BRANCH  11  14
ATOM     14  C   UNL A   1      34.659  29.249  26.867  1.00  0.00     0.257 C 
ATOM     15  C   UNL A   1      35.114  29.770  28.223  1.00  0.00     0.071 C 
ENDBRANCH  11  14
ENDBRANCH   6  11
BRANCH  10  16
ATOM     16  N   UNL A   1      33.007  24.368  24.726  1.00  0.00    -0.330 N 
ATOM     17  H   UNL A   1      32.401  23.829  25.344  1.00  0.00     0.348 HD
BRANCH  16  18
ATOM     18  C   UNL A   1      32.382  24.709  23.438  1.00  0.00     0.259 C 
ATOM     19  C   UNL A   1      30.928  24.296  23.247  1.00  0.00     0.071 C 
ENDBRANCH  16  18
BRANCH  16  20
ATOM     20  C   UNL A   1      34.006  23.286  24.622  1.00  0.00     0.180 C 
ATOM     21  C   UNL A   1      34.868  23.232  23.357  1.00  0.00     0.075 C 
BRANCH  20  22
ATOM     22  C   UNL A   1      34.913  23.143  25.861  1.00  0.00     0.061 C 
ATOM     23  C   UNL A   1      34.835  21.767  26.515  1.00  0.00     0.010 C 
ENDBRANCH  20  22
ENDBRANCH  16  20
ENDBRANCH  10  16
ENDBRANCH   3   6
ENDBRANCH   1   2
BRANCH   1  24
ATOM     24  C   UNL A   1      31.422  32.247  26.197  1.00  0.00     0.042 C 
BRANCH  24  25
ATOM     25  C   UNL A   1      32.516  32.560  27.217  1.00  0.00     0.118 C 
BRANCH  25  26
ATOM     26  N   UNL A   1      32.516  33.963  27.601  1.00  0.00    -0.352 N 
ATOM     27  C   UNL A   1      33.197  34.640  28.584  1.00  0.00     0.251 C 
ATOM     28  H   UNL A   1      31.921  34.529  27.060  1.00  0.00     0.163 HD
ATOM     29  O   UNL A   1      32.825  35.776  28.873  1.00  0.00    -0.269 OA
BRANCH  27  30
ATOM     30  C   UNL A   1      34.359  34.059  29.305  1.00  0.00     0.039 A 
ATOM     31  C   UNL A   1      35.648  34.426  28.892  1.00  0.00     0.014 A 
ATOM     32  C   UNL A   1      34.220  33.082  30.293  1.00  0.00     0.014 A 
ATOM     33  C   UNL A   1      36.778  33.850  29.485  1.00  0.00     0.010 A 
ATOM     34  C   UNL A   1      35.346  32.569  30.943  1.00  0.00     0.010 A 
ATOM     35  C   UNL A   1      36.639  32.930  30.534  1.00  0.00    -0.014 A 
BRANCH  35  36
ATOM     36  C   UNL A   1      37.824  32.303  31.186  1.00  0.00     0.031 A 
ATOM     37  C   UNL A   1      38.606  31.233  30.468  1.00  0.00     0.074 A 
ATOM     38  C   UNL A   1      38.163  32.643  32.444  1.00  0.00     0.049 A 
ATOM     39  N   UNL A   1      39.584  30.480  30.908  1.00  0.00    -0.248 NA
ATOM     40  C   UNL A   1      38.215  30.950  29.078  1.00  0.00     0.031 C 
ATOM     41  C   UNL A   1      37.475  33.638  33.266  1.00  0.00     0.029 A 
ATOM     42  N   UNL A   1      39.165  32.176  33.260  1.00  0.00    -0.354 N 
ATOM     43  C   UNL A   1      39.898  29.616  29.865  1.00  0.00     0.074 A 
ATOM     44  C   UNL A   1      38.981  29.909  28.785  1.00  0.00     0.031 C 
ATOM     45  C   UNL A   1      38.083  33.720  34.460  1.00  0.00     0.029 A 
ATOM     46  C   UNL A   1      39.178  32.754  34.506  1.00  0.00     0.049 A 
ATOM     47  H   UNL A   1      39.814  31.491  32.978  1.00  0.00     0.167 HD
ATOM     48  C   UNL A   1      40.873  28.677  29.805  1.00  0.00     0.037 A 
ATOM     49  C   UNL A   1      39.972  32.526  35.569  1.00  0.00     0.037 A 
ATOM     50  C   UNL A   1      41.819  28.419  30.858  1.00  0.00     0.049 A 
ATOM     51  C   UNL A   1      41.060  31.491  35.470  1.00  0.00     0.074 A 
ATOM     52  C   UNL A   1      42.884  27.534  30.866  1.00  0.00     0.029 A 
ATOM     53  N   UNL A   1      41.818  29.053  32.092  1.00  0.00    -0.354 N 
ATOM     54  N   UNL A   1      41.373  30.713  34.463  1.00  0.00    -0.248 NA
ATOM     55  C   UNL A   1      41.910  31.307  36.656  1.00  0.00     0.031 C 
ATOM     56  C   UNL A   1      43.506  27.609  32.117  1.00  0.00     0.029 A 
ATOM     57  C   UNL A   1      42.856  28.571  32.872  1.00  0.00     0.049 A 
ATOM     58  H   UNL A   1      41.175  29.744  32.370  1.00  0.00     0.167 HD
ATOM     59  C   UNL A   1      42.468  29.969  34.882  1.00  0.00     0.074 A 
ATOM     60  C   UNL A   1      42.775  30.397  36.230  1.00  0.00     0.031 C 
ATOM     61  C   UNL A   1      43.157  29.016  34.208  1.00  0.00     0.037 A 
BRANCH  48  62
ATOM     62  C   UNL A   1      40.971  27.856  28.551  1.00  0.00     0.064 A 
ATOM     63  C   UNL A   1      41.767  28.257  27.466  1.00  0.00     0.173 A 
ATOM     64  C   UNL A   1      40.291  26.632  28.446  1.00  0.00     0.173 A 
ATOM     65  F   UNL A   1      42.431  29.423  27.512  1.00  0.00    -0.203 F 
ATOM     66  C   UNL A   1      41.852  27.482  26.313  1.00  0.00     0.198 A 
ATOM     67  C   UNL A   1      40.402  25.845  27.302  1.00  0.00     0.198 A 
ATOM     68  F   UNL A   1      39.524  26.196  29.456  1.00  0.00    -0.203 F 
ATOM     69  F   UNL A   1      42.577  27.912  25.272  1.00  0.00    -0.200 F 
ATOM     70  C   UNL A   1      41.176  26.274  26.234  1.00  0.00     0.200 A 
ATOM     71  F   UNL A   1      39.760  24.671  27.233  1.00  0.00    -0.200 F 
ATOM     72  F   UNL A   1      41.263  25.527  25.126  1.00  0.00    -0.200 F 
ENDBRANCH  48  62
BRANCH  49  73
ATOM     73  C   UNL A   1      39.781  33.310  36.817  1.00  0.00     0.064 A 
ATOM     74  C   UNL A   1      38.865  32.895  37.792  1.00  0.00     0.173 A 
ATOM     75  C   UNL A   1      40.507  34.485  37.061  1.00  0.00     0.173 A 
ATOM     76  F   UNL A   1      38.131  31.789  37.593  1.00  0.00    -0.203 F 
ATOM     77  C   UNL A   1      38.669  33.632  38.957  1.00  0.00     0.198 A 
ATOM     78  C   UNL A   1      40.329  35.208  38.239  1.00  0.00     0.198 A 
ATOM     79  F   UNL A   1      41.399  34.924  36.161  1.00  0.00    -0.203 F 
ATOM     80  F   UNL A   1      37.756  33.234  39.854  1.00  0.00    -0.200 F 
ATOM     81  C   UNL A   1      39.406  34.785  39.183  1.00  0.00     0.200 A 
ATOM     82  F   UNL A   1      41.053  36.314  38.459  1.00  0.00    -0.200 F 
ATOM     83  F   UNL A   1      39.221  35.490  40.306  1.00  0.00    -0.200 F 
ENDBRANCH  49  73
BRANCH  61  84
ATOM     84  C   UNL A   1      44.335  28.398  34.901  1.00  0.00     0.064 A 
ATOM     85  C   UNL A   1      45.615  28.968  34.830  1.00  0.00     0.173 A 
ATOM     86  C   UNL A   1      44.171  27.244  35.682  1.00  0.00     0.173 A 
ATOM     87  F   UNL A   1      45.824  30.062  34.083  1.00  0.00    -0.203 F 
ATOM     88  C   UNL A   1      46.691  28.392  35.498  1.00  0.00     0.198 A 
ATOM     89  C   UNL A   1      45.244  26.686  36.370  1.00  0.00     0.198 A 
ATOM     90  F   UNL A   1      42.965  26.664  35.787  1.00  0.00    -0.203 F 
ATOM     91  F   UNL A   1      47.914  28.929  35.382  1.00  0.00    -0.200 F 
ATOM     92  C   UNL A   1      46.505  27.256  36.273  1.00  0.00     0.200 A 
ATOM     93  F   UNL A   1      45.060  25.595  37.128  1.00  0.00    -0.200 F 
ATOM     94  F   UNL A   1      47.541  26.708  36.921  1.00  0.00    -0.200 F 
ENDBRANCH  61  84
ENDBRANCH  35  36
ENDBRANCH  27  30
ENDBRANCH  25  26
ENDBRANCH  24  25
ENDBRANCH   1  24
TORSDOF 16
ENDMDL
