MODEL 1
REMARK VINA RESULT:     -11.3      0.000      0.000
REMARK SMILES COCc1cc(SCC(=O)NCCCNC(=O)c2ccc(-c3c4nc(c(-c5c(F)c(F)c(F)c(F)c5F)c5ccc([nH]5)c(-c5c(F)c(F)c(F)c(F)c5F)c5nc(c(-c6c(F)c(F)c(F)c(F)c6F)c6ccc3[nH]6)C=C5)C=C4)cc2)nc(-c2cccnc2)n1
REMARK SMILES IDX 12 1 11 2 9 3 10 4 8 6 7 7 6 8 4 9 5 10 89 11 82 12 81 13
REMARK SMILES IDX 3 14 2 15 1 16 83 17 84 18 88 19 85 20 87 21 86 22 13 23
REMARK SMILES IDX 14 24 15 25 16 26 17 28 18 29 19 30 80 31 20 32 79 33 21 34
REMARK SMILES IDX 22 35 23 36 73 37 24 38 78 39 72 40 74 41 25 42 77 43 71 44
REMARK SMILES IDX 70 45 26 47 58 48 38 49 57 50 39 51 42 52 56 53 75 54 40 55
REMARK SMILES IDX 41 56 55 58 76 59 43 60 27 61 28 62 36 63 29 64 30 65 34 66
REMARK SMILES IDX 37 67 31 68 32 69 35 70 33 71 59 72 60 73 68 74 61 75 62 76
REMARK SMILES IDX 66 77 69 78 63 79 64 80 67 81 65 82 44 83 45 84 53 85 46 86
REMARK SMILES IDX 47 87 51 88 54 89 48 90 49 91 52 92 50 93
REMARK H PARENT 11 5 15 27 74 46 42 57
REMARK Flexibility Score: inf
ROOT
ATOM      1  C   UNL A   1      33.105  27.209  25.111  1.00  0.00     0.117 C 
ENDROOT
BRANCH   1   2
ATOM      2  N   UNL A   1      33.509  26.962  23.740  1.00  0.00    -0.355 N 
ATOM      3  C   UNL A   1      33.297  25.876  22.950  1.00  0.00     0.230 C 
ATOM      4  O   UNL A   1      33.813  25.879  21.828  1.00  0.00    -0.274 OA
ATOM      5  H   UNL A   1      34.013  27.693  23.316  1.00  0.00     0.163 HD
BRANCH   3   6
ATOM      6  C   UNL A   1      32.407  24.730  23.393  1.00  0.00     0.176 C 
BRANCH   6   7
ATOM      7  S   UNL A   1      32.591  23.202  22.426  1.00  0.00    -0.096 SA
BRANCH   7   8
ATOM      8  C   UNL A   1      33.395  22.038  23.507  1.00  0.00     0.101 A 
ATOM      9  C   UNL A   1      33.710  19.986  24.621  1.00  0.00     0.071 A 
ATOM     10  C   UNL A   1      32.887  20.814  23.878  1.00  0.00     0.062 A 
ATOM     11  N   UNL A   1      34.943  20.374  24.999  1.00  0.00    -0.230 NA
ATOM     12  C   UNL A   1      35.319  21.621  24.685  1.00  0.00     0.162 A 
ATOM     13  N   UNL A   1      34.598  22.469  23.938  1.00  0.00    -0.222 NA
BRANCH   9  14
ATOM     14  C   UNL A   1      33.256  18.571  24.934  1.00  0.00     0.215 C 
BRANCH  14  15
ATOM     15  O   UNL A   1      32.918  17.780  23.791  1.00  0.00    -0.378 OA
ATOM     16  C   UNL A   1      33.948  16.880  23.404  1.00  0.00     0.195 C 
ENDBRANCH  14  15
ENDBRANCH   9  14
BRANCH  12  17
ATOM     17  C   UNL A   1      36.600  22.076  25.208  1.00  0.00     0.038 A 
ATOM     18  C   UNL A   1      36.803  23.385  25.665  1.00  0.00     0.015 A 
ATOM     19  C   UNL A   1      37.683  21.208  25.318  1.00  0.00     0.123 A 
ATOM     20  C   UNL A   1      38.033  23.758  26.205  1.00  0.00     0.021 A 
ATOM     21  N   UNL A   1      38.900  21.544  25.818  1.00  0.00    -0.264 NA
ATOM     22  C   UNL A   1      39.042  22.811  26.256  1.00  0.00     0.111 A 
ENDBRANCH  12  17
ENDBRANCH   7   8
ENDBRANCH   6   7
ENDBRANCH   3   6
ENDBRANCH   1   2
BRANCH   1  23
ATOM     23  C   UNL A   1      34.048  28.188  25.810  1.00  0.00     0.042 C 
BRANCH  23  24
ATOM     24  C   UNL A   1      33.713  28.456  27.277  1.00  0.00     0.118 C 
BRANCH  24  25
ATOM     25  N   UNL A   1      33.668  29.874  27.603  1.00  0.00    -0.352 N 
ATOM     26  C   UNL A   1      34.595  30.672  28.224  1.00  0.00     0.251 C 
ATOM     27  H   UNL A   1      32.840  30.335  27.334  1.00  0.00     0.163 HD
ATOM     28  O   UNL A   1      34.286  31.822  28.543  1.00  0.00    -0.269 OA
BRANCH  26  29
ATOM     29  C   UNL A   1      35.950  30.171  28.538  1.00  0.00     0.039 A 
ATOM     30  C   UNL A   1      36.939  30.248  27.551  1.00  0.00     0.014 A 
ATOM     31  C   UNL A   1      36.248  29.592  29.775  1.00  0.00     0.014 A 
ATOM     32  C   UNL A   1      38.236  29.809  27.825  1.00  0.00     0.010 A 
ATOM     33  C   UNL A   1      37.558  29.215  30.070  1.00  0.00     0.010 A 
ATOM     34  C   UNL A   1      38.565  29.322  29.100  1.00  0.00    -0.014 A 
BRANCH  34  35
ATOM     35  C   UNL A   1      39.961  28.937  29.440  1.00  0.00     0.031 A 
ATOM     36  C   UNL A   1      40.840  29.870  30.224  1.00  0.00     0.074 A 
ATOM     37  C   UNL A   1      40.460  27.777  28.974  1.00  0.00     0.049 A 
ATOM     38  N   UNL A   1      42.104  29.746  30.543  1.00  0.00    -0.248 NA
ATOM     39  C   UNL A   1      40.223  31.120  30.692  1.00  0.00     0.031 C 
ATOM     40  C   UNL A   1      39.725  26.807  28.160  1.00  0.00     0.029 A 
ATOM     41  N   UNL A   1      41.709  27.222  29.103  1.00  0.00    -0.354 N 
ATOM     42  C   UNL A   1      42.438  30.906  31.228  1.00  0.00     0.074 A 
ATOM     43  C   UNL A   1      41.256  31.741  31.245  1.00  0.00     0.031 C 
ATOM     44  C   UNL A   1      40.531  25.774  27.873  1.00  0.00     0.029 A 
ATOM     45  C   UNL A   1      41.849  26.023  28.450  1.00  0.00     0.049 A 
ATOM     46  H   UNL A   1      42.436  27.644  29.617  1.00  0.00     0.167 HD
ATOM     47  C   UNL A   1      43.619  31.237  31.805  1.00  0.00     0.037 A 
ATOM     48  C   UNL A   1      42.922  25.220  28.317  1.00  0.00     0.037 A 
ATOM     49  C   UNL A   1      44.785  30.393  31.812  1.00  0.00     0.049 A 
ATOM     50  C   UNL A   1      44.219  25.607  28.972  1.00  0.00     0.074 A 
ATOM     51  C   UNL A   1      46.002  30.607  32.436  1.00  0.00     0.029 A 
ATOM     52  N   UNL A   1      44.881  29.173  31.159  1.00  0.00    -0.354 N 
ATOM     53  N   UNL A   1      44.502  26.672  29.682  1.00  0.00    -0.248 NA
ATOM     54  C   UNL A   1      45.345  24.676  28.813  1.00  0.00     0.031 C 
ATOM     55  C   UNL A   1      46.849  29.539  32.124  1.00  0.00     0.029 A 
ATOM     56  C   UNL A   1      46.146  28.634  31.345  1.00  0.00     0.049 A 
ATOM     57  H   UNL A   1      44.159  28.751  30.640  1.00  0.00     0.167 HD
ATOM     58  C   UNL A   1      45.826  26.531  30.070  1.00  0.00     0.074 A 
ATOM     59  C   UNL A   1      46.288  25.269  29.533  1.00  0.00     0.031 C 
ATOM     60  C   UNL A   1      46.591  27.375  30.806  1.00  0.00     0.037 A 
BRANCH  47  61
ATOM     61  C   UNL A   1      43.710  32.575  32.481  1.00  0.00     0.064 A 
ATOM     62  C   UNL A   1      44.147  33.718  31.794  1.00  0.00     0.173 A 
ATOM     63  C   UNL A   1      43.320  32.724  33.820  1.00  0.00     0.173 A 
ATOM     64  F   UNL A   1      44.539  33.627  30.514  1.00  0.00    -0.203 F 
ATOM     65  C   UNL A   1      44.218  34.953  32.431  1.00  0.00     0.198 A 
ATOM     66  C   UNL A   1      43.366  33.966  34.446  1.00  0.00     0.198 A 
ATOM     67  F   UNL A   1      42.888  31.664  34.520  1.00  0.00    -0.203 F 
ATOM     68  F   UNL A   1      44.684  36.021  31.769  1.00  0.00    -0.200 F 
ATOM     69  C   UNL A   1      43.822  35.078  33.755  1.00  0.00     0.200 A 
ATOM     70  F   UNL A   1      42.970  34.087  35.721  1.00  0.00    -0.200 F 
ATOM     71  F   UNL A   1      43.887  36.269  34.365  1.00  0.00    -0.200 F 
ENDBRANCH  47  61
BRANCH  48  72
ATOM     72  C   UNL A   1      42.807  23.957  27.545  1.00  0.00     0.064 A 
ATOM     73  C   UNL A   1      43.088  23.926  26.172  1.00  0.00     0.173 A 
ATOM     74  C   UNL A   1      42.422  22.757  28.160  1.00  0.00     0.173 A 
ATOM     75  F   UNL A   1      43.439  25.054  25.535  1.00  0.00    -0.203 F 
ATOM     76  C   UNL A   1      42.975  22.746  25.441  1.00  0.00     0.198 A 
ATOM     77  C   UNL A   1      42.334  21.572  27.433  1.00  0.00     0.198 A 
ATOM     78  F   UNL A   1      42.146  22.734  29.471  1.00  0.00    -0.203 F 
ATOM     79  F   UNL A   1      43.212  22.753  24.121  1.00  0.00    -0.200 F 
ATOM     80  C   UNL A   1      42.604  21.568  26.072  1.00  0.00     0.200 A 
ATOM     81  F   UNL A   1      41.989  20.434  28.049  1.00  0.00    -0.200 F 
ATOM     82  F   UNL A   1      42.501  20.433  25.370  1.00  0.00    -0.200 F 
ENDBRANCH  48  72
BRANCH  60  83
ATOM     83  C   UNL A   1      48.000  26.947  31.098  1.00  0.00     0.064 A 
ATOM     84  C   UNL A   1      48.306  26.126  32.192  1.00  0.00     0.173 A 
ATOM     85  C   UNL A   1      49.050  27.333  30.250  1.00  0.00     0.173 A 
ATOM     86  F   UNL A   1      47.342  25.744  33.041  1.00  0.00    -0.203 F 
ATOM     87  C   UNL A   1      49.617  25.726  32.441  1.00  0.00     0.198 A 
ATOM     88  C   UNL A   1      50.354  26.908  30.486  1.00  0.00     0.198 A 
ATOM     89  F   UNL A   1      48.808  28.114  29.186  1.00  0.00    -0.203 F 
ATOM     90  F   UNL A   1      49.895  24.978  33.518  1.00  0.00    -0.200 F 
ATOM     91  C   UNL A   1      50.638  26.111  31.584  1.00  0.00     0.200 A 
ATOM     92  F   UNL A   1      51.337  27.271  29.650  1.00  0.00    -0.200 F 
ATOM     93  F   UNL A   1      51.897  25.719  31.821  1.00  0.00    -0.200 F 
ENDBRANCH  60  83
ENDBRANCH  34  35
ENDBRANCH  26  29
ENDBRANCH  24  25
ENDBRANCH  23  24
ENDBRANCH   1  23
TORSDOF 15
ENDMDL
MODEL 2
REMARK VINA RESULT:     -11.3      0.998      1.913
REMARK SMILES COCc1cc(SCC(=O)NCCCNC(=O)c2ccc(-c3c4nc(c(-c5c(F)c(F)c(F)c(F)c5F)c5ccc([nH]5)c(-c5c(F)c(F)c(F)c(F)c5F)c5nc(c(-c6c(F)c(F)c(F)c(F)c6F)c6ccc3[nH]6)C=C5)C=C4)cc2)nc(-c2cccnc2)n1
REMARK SMILES IDX 12 1 11 2 9 3 10 4 8 6 7 7 6 8 4 9 5 10 89 11 82 12 81 13
REMARK SMILES IDX 3 14 2 15 1 16 83 17 84 18 88 19 85 20 87 21 86 22 13 23
REMARK SMILES IDX 14 24 15 25 16 26 17 28 18 29 19 30 80 31 20 32 79 33 21 34
REMARK SMILES IDX 22 35 23 36 73 37 24 38 78 39 72 40 74 41 25 42 77 43 71 44
REMARK SMILES IDX 70 45 26 47 58 48 38 49 57 50 39 51 42 52 56 53 75 54 40 55
REMARK SMILES IDX 41 56 55 58 76 59 43 60 27 61 28 62 36 63 29 64 30 65 34 66
REMARK SMILES IDX 37 67 31 68 32 69 35 70 33 71 59 72 60 73 68 74 61 75 62 76
REMARK SMILES IDX 66 77 69 78 63 79 64 80 67 81 65 82 44 83 45 84 53 85 46 86
REMARK SMILES IDX 47 87 51 88 54 89 48 90 49 91 52 92 50 93
REMARK H PARENT 11 5 15 27 74 46 42 57
REMARK Flexibility Score: inf
ROOT
ATOM      1  C   UNL A   1      33.120  27.237  24.877  1.00  0.00     0.117 C 
ENDROOT
BRANCH   1   2
ATOM      2  N   UNL A   1      31.852  27.060  25.560  1.00  0.00    -0.355 N 
ATOM      3  C   UNL A   1      31.308  25.946  26.117  1.00  0.00     0.230 C 
ATOM      4  O   UNL A   1      30.167  26.039  26.579  1.00  0.00    -0.274 OA
ATOM      5  H   UNL A   1      31.300  27.872  25.629  1.00  0.00     0.163 HD
BRANCH   3   6
ATOM      6  C   UNL A   1      32.091  24.652  26.235  1.00  0.00     0.176 C 
BRANCH   6   7
ATOM      7  S   UNL A   1      31.189  23.163  25.713  1.00  0.00    -0.096 SA
BRANCH   7   8
ATOM      8  C   UNL A   1      32.432  21.926  25.404  1.00  0.00     0.101 A 
ATOM      9  C   UNL A   1      33.279  19.846  24.691  1.00  0.00     0.071 A 
ATOM     10  C   UNL A   1      32.184  20.630  25.012  1.00  0.00     0.062 A 
ATOM     11  N   UNL A   1      34.536  20.318  24.794  1.00  0.00    -0.230 NA
ATOM     12  C   UNL A   1      34.692  21.555  25.282  1.00  0.00     0.162 A 
ATOM     13  N   UNL A   1      33.685  22.389  25.580  1.00  0.00    -0.222 NA
BRANCH   9  14
ATOM     14  C   UNL A   1      33.058  18.459  24.116  1.00  0.00     0.215 C 
BRANCH  14  15
ATOM     15  O   UNL A   1      32.124  17.650  24.836  1.00  0.00    -0.378 OA
ATOM     16  C   UNL A   1      32.743  16.736  25.732  1.00  0.00     0.195 C 
ENDBRANCH  14  15
ENDBRANCH   9  14
BRANCH  12  17
ATOM     17  C   UNL A   1      36.057  22.008  25.511  1.00  0.00     0.038 A 
ATOM     18  C   UNL A   1      36.358  23.315  25.916  1.00  0.00     0.015 A 
ATOM     19  C   UNL A   1      37.137  21.139  25.376  1.00  0.00     0.123 A 
ATOM     20  C   UNL A   1      37.677  23.685  26.172  1.00  0.00     0.021 A 
ATOM     21  N   UNL A   1      38.435  21.472  25.596  1.00  0.00    -0.264 NA
ATOM     22  C   UNL A   1      38.672  22.738  25.996  1.00  0.00     0.111 A 
ENDBRANCH  12  17
ENDBRANCH   7   8
ENDBRANCH   6   7
ENDBRANCH   3   6
ENDBRANCH   1   2
BRANCH   1  23
ATOM     23  C   UNL A   1      34.022  28.229  25.610  1.00  0.00     0.042 C 
BRANCH  23  24
ATOM     24  C   UNL A   1      33.672  28.438  27.084  1.00  0.00     0.118 C 
BRANCH  24  25
ATOM     25  N   UNL A   1      33.607  29.843  27.462  1.00  0.00    -0.352 N 
ATOM     26  C   UNL A   1      34.514  30.624  28.131  1.00  0.00     0.251 C 
ATOM     27  H   UNL A   1      32.780  30.306  27.194  1.00  0.00     0.163 HD
ATOM     28  O   UNL A   1      34.188  31.759  28.487  1.00  0.00    -0.269 OA
BRANCH  26  29
ATOM     29  C   UNL A   1      35.867  30.123  28.453  1.00  0.00     0.039 A 
ATOM     30  C   UNL A   1      36.855  30.178  27.465  1.00  0.00     0.014 A 
ATOM     31  C   UNL A   1      36.163  29.567  29.700  1.00  0.00     0.014 A 
ATOM     32  C   UNL A   1      38.151  29.739  27.745  1.00  0.00     0.010 A 
ATOM     33  C   UNL A   1      37.472  29.190  30.002  1.00  0.00     0.010 A 
ATOM     34  C   UNL A   1      38.479  29.274  29.029  1.00  0.00    -0.014 A 
BRANCH  34  35
ATOM     35  C   UNL A   1      39.873  28.890  29.375  1.00  0.00     0.031 A 
ATOM     36  C   UNL A   1      40.747  29.821  30.165  1.00  0.00     0.074 A 
ATOM     37  C   UNL A   1      40.375  27.730  28.909  1.00  0.00     0.049 A 
ATOM     38  N   UNL A   1      42.010  29.697  30.491  1.00  0.00    -0.248 NA
ATOM     39  C   UNL A   1      40.127  31.070  30.634  1.00  0.00     0.031 C 
ATOM     40  C   UNL A   1      39.646  26.762  28.089  1.00  0.00     0.029 A 
ATOM     41  N   UNL A   1      41.625  27.177  29.043  1.00  0.00    -0.354 N 
ATOM     42  C   UNL A   1      42.340  30.856  31.180  1.00  0.00     0.074 A 
ATOM     43  C   UNL A   1      41.157  31.690  31.193  1.00  0.00     0.031 C 
ATOM     44  C   UNL A   1      40.455  25.730  27.803  1.00  0.00     0.029 A 
ATOM     45  C   UNL A   1      41.769  25.979  28.387  1.00  0.00     0.049 A 
ATOM     46  H   UNL A   1      42.348  27.598  29.561  1.00  0.00     0.167 HD
ATOM     47  C   UNL A   1      43.517  31.186  31.764  1.00  0.00     0.037 A 
ATOM     48  C   UNL A   1      42.844  25.178  28.258  1.00  0.00     0.037 A 
ATOM     49  C   UNL A   1      44.685  30.344  31.775  1.00  0.00     0.049 A 
ATOM     50  C   UNL A   1      44.137  25.564  28.920  1.00  0.00     0.074 A 
ATOM     51  C   UNL A   1      45.898  30.557  32.406  1.00  0.00     0.029 A 
ATOM     52  N   UNL A   1      44.785  29.125  31.119  1.00  0.00    -0.354 N 
ATOM     53  N   UNL A   1      44.415  26.628  29.634  1.00  0.00    -0.248 NA
ATOM     54  C   UNL A   1      45.265  24.634  28.765  1.00  0.00     0.031 C 
ATOM     55  C   UNL A   1      46.748  29.490  32.095  1.00  0.00     0.029 A 
ATOM     56  C   UNL A   1      46.049  28.587  31.310  1.00  0.00     0.049 A 
ATOM     57  H   UNL A   1      44.065  28.704  30.596  1.00  0.00     0.167 HD
ATOM     58  C   UNL A   1      45.738  26.487  30.029  1.00  0.00     0.074 A 
ATOM     59  C   UNL A   1      46.203  25.226  29.491  1.00  0.00     0.031 C 
ATOM     60  C   UNL A   1      46.498  27.330  30.771  1.00  0.00     0.037 A 
BRANCH  47  61
ATOM     61  C   UNL A   1      43.604  32.523  32.443  1.00  0.00     0.064 A 
ATOM     62  C   UNL A   1      43.998  33.677  31.749  1.00  0.00     0.173 A 
ATOM     63  C   UNL A   1      43.252  32.658  33.794  1.00  0.00     0.173 A 
ATOM     64  F   UNL A   1      44.353  33.600  30.458  1.00  0.00    -0.203 F 
ATOM     65  C   UNL A   1      44.066  34.911  32.391  1.00  0.00     0.198 A 
ATOM     66  C   UNL A   1      43.294  33.899  34.425  1.00  0.00     0.198 A 
ATOM     67  F   UNL A   1      42.861  31.588  34.502  1.00  0.00    -0.203 F 
ATOM     68  F   UNL A   1      44.491  35.990  31.720  1.00  0.00    -0.200 F 
ATOM     69  C   UNL A   1      43.707  35.022  33.726  1.00  0.00     0.200 A 
ATOM     70  F   UNL A   1      42.935  34.007  35.712  1.00  0.00    -0.200 F 
ATOM     71  F   UNL A   1      43.769  36.211  34.340  1.00  0.00    -0.200 F 
ENDBRANCH  47  61
BRANCH  48  72
ATOM     72  C   UNL A   1      42.733  23.916  27.482  1.00  0.00     0.064 A 
ATOM     73  C   UNL A   1      42.276  22.738  28.089  1.00  0.00     0.173 A 
ATOM     74  C   UNL A   1      43.071  23.862  26.123  1.00  0.00     0.173 A 
ATOM     75  F   UNL A   1      41.961  22.735  29.393  1.00  0.00    -0.203 F 
ATOM     76  C   UNL A   1      42.176  21.550  27.368  1.00  0.00     0.198 A 
ATOM     77  C   UNL A   1      42.947  22.680  25.397  1.00  0.00     0.198 A 
ATOM     78  F   UNL A   1      43.510  24.963  25.496  1.00  0.00    -0.203 F 
ATOM     79  F   UNL A   1      41.774  20.428  27.982  1.00  0.00    -0.200 F 
ATOM     80  C   UNL A   1      42.506  21.523  26.022  1.00  0.00     0.200 A 
ATOM     81  F   UNL A   1      43.253  22.661  24.093  1.00  0.00    -0.200 F 
ATOM     82  F   UNL A   1      42.404  20.381  25.328  1.00  0.00    -0.200 F 
ENDBRANCH  48  72
BRANCH  60  83
ATOM     83  C   UNL A   1      47.906  26.902  31.068  1.00  0.00     0.064 A 
ATOM     84  C   UNL A   1      48.985  27.330  30.281  1.00  0.00     0.173 A 
ATOM     85  C   UNL A   1      48.181  26.086  32.176  1.00  0.00     0.173 A 
ATOM     86  F   UNL A   1      48.772  28.097  29.202  1.00  0.00    -0.203 F 
ATOM     87  C   UNL A   1      50.287  26.936  30.580  1.00  0.00     0.198 A 
ATOM     88  C   UNL A   1      49.487  25.717  32.487  1.00  0.00     0.198 A 
ATOM     89  F   UNL A   1      47.184  25.655  32.963  1.00  0.00    -0.203 F 
ATOM     90  F   UNL A   1      51.299  27.319  29.789  1.00  0.00    -0.200 F 
ATOM     91  C   UNL A   1      50.537  26.137  31.686  1.00  0.00     0.200 A 
ATOM     92  F   UNL A   1      49.728  24.955  33.563  1.00  0.00    -0.200 F 
ATOM     93  F   UNL A   1      51.792  25.765  31.975  1.00  0.00    -0.200 F 
ENDBRANCH  60  83
ENDBRANCH  34  35
ENDBRANCH  26  29
ENDBRANCH  24  25
ENDBRANCH  23  24
ENDBRANCH   1  23
TORSDOF 15
ENDMDL
MODEL 3
REMARK VINA RESULT:     -11.2      1.240      2.350
REMARK SMILES COCc1cc(SCC(=O)NCCCNC(=O)c2ccc(-c3c4nc(c(-c5c(F)c(F)c(F)c(F)c5F)c5ccc([nH]5)c(-c5c(F)c(F)c(F)c(F)c5F)c5nc(c(-c6c(F)c(F)c(F)c(F)c6F)c6ccc3[nH]6)C=C5)C=C4)cc2)nc(-c2cccnc2)n1
REMARK SMILES IDX 12 1 11 2 9 3 10 4 8 6 7 7 6 8 4 9 5 10 89 11 82 12 81 13
REMARK SMILES IDX 3 14 2 15 1 16 83 17 84 18 88 19 85 20 87 21 86 22 13 23
REMARK SMILES IDX 14 24 15 25 16 26 17 28 18 29 19 30 80 31 20 32 79 33 21 34
REMARK SMILES IDX 22 35 23 36 73 37 24 38 78 39 72 40 74 41 25 42 77 43 71 44
REMARK SMILES IDX 70 45 26 47 58 48 38 49 57 50 39 51 42 52 56 53 75 54 40 55
REMARK SMILES IDX 41 56 55 58 76 59 43 60 27 61 28 62 36 63 29 64 30 65 34 66
REMARK SMILES IDX 37 67 31 68 32 69 35 70 33 71 59 72 60 73 68 74 61 75 62 76
REMARK SMILES IDX 66 77 69 78 63 79 64 80 67 81 65 82 44 83 45 84 53 85 46 86
REMARK SMILES IDX 47 87 51 88 54 89 48 90 49 91 52 92 50 93
REMARK H PARENT 11 5 15 27 74 46 42 57
REMARK Flexibility Score: inf
ROOT
ATOM      1  C   UNL A   1      31.868  27.415  26.333  1.00  0.00     0.117 C 
ENDROOT
BRANCH   1   2
ATOM      2  N   UNL A   1      31.404  26.158  26.889  1.00  0.00    -0.355 N 
ATOM      3  C   UNL A   1      31.480  24.898  26.384  1.00  0.00     0.230 C 
ATOM      4  O   UNL A   1      30.937  23.994  27.026  1.00  0.00    -0.274 OA
ATOM      5  H   UNL A   1      30.966  26.229  27.768  1.00  0.00     0.163 HD
BRANCH   3   6
ATOM      6  C   UNL A   1      32.259  24.593  25.118  1.00  0.00     0.176 C 
BRANCH   6   7
ATOM      7  S   UNL A   1      31.711  23.109  24.223  1.00  0.00    -0.096 SA
BRANCH   7   8
ATOM      8  C   UNL A   1      32.939  21.863  24.553  1.00  0.00     0.101 A 
ATOM      9  C   UNL A   1      33.829  19.685  24.663  1.00  0.00     0.071 A 
ATOM     10  C   UNL A   1      32.726  20.504  24.506  1.00  0.00     0.062 A 
ATOM     11  N   UNL A   1      35.056  20.193  24.890  1.00  0.00    -0.230 NA
ATOM     12  C   UNL A   1      35.157  21.521  25.026  1.00  0.00     0.162 A 
ATOM     13  N   UNL A   1      34.146  22.384  24.851  1.00  0.00    -0.222 NA
BRANCH   9  14
ATOM     14  C   UNL A   1      33.677  18.186  24.476  1.00  0.00     0.215 C 
BRANCH  14  15
ATOM     15  O   UNL A   1      34.904  17.453  24.457  1.00  0.00    -0.378 OA
ATOM     16  C   UNL A   1      34.793  16.152  25.022  1.00  0.00     0.195 C 
ENDBRANCH  14  15
ENDBRANCH   9  14
BRANCH  12  17
ATOM     17  C   UNL A   1      36.461  22.050  25.400  1.00  0.00     0.038 A 
ATOM     18  C   UNL A   1      36.651  23.386  25.778  1.00  0.00     0.015 A 
ATOM     19  C   UNL A   1      37.587  21.231  25.438  1.00  0.00     0.123 A 
ATOM     20  C   UNL A   1      37.910  23.831  26.177  1.00  0.00     0.021 A 
ATOM     21  N   UNL A   1      38.831  21.637  25.800  1.00  0.00    -0.264 NA
ATOM     22  C   UNL A   1      38.960  22.928  26.168  1.00  0.00     0.111 A 
ENDBRANCH  12  17
ENDBRANCH   7   8
ENDBRANCH   6   7
ENDBRANCH   3   6
ENDBRANCH   1   2
BRANCH   1  23
ATOM     23  C   UNL A   1      33.229  27.816  26.900  1.00  0.00     0.042 C 
BRANCH  23  24
ATOM     24  C   UNL A   1      33.945  28.916  26.118  1.00  0.00     0.118 C 
BRANCH  24  25
ATOM     25  N   UNL A   1      33.781  30.237  26.708  1.00  0.00    -0.352 N 
ATOM     26  C   UNL A   1      34.537  30.888  27.650  1.00  0.00     0.251 C 
ATOM     27  H   UNL A   1      33.004  30.744  26.378  1.00  0.00     0.163 HD
ATOM     28  O   UNL A   1      34.125  31.948  28.127  1.00  0.00    -0.269 OA
BRANCH  26  29
ATOM     29  C   UNL A   1      35.823  30.331  28.120  1.00  0.00     0.039 A 
ATOM     30  C   UNL A   1      36.935  30.406  27.274  1.00  0.00     0.014 A 
ATOM     31  C   UNL A   1      35.938  29.703  29.362  1.00  0.00     0.014 A 
ATOM     32  C   UNL A   1      38.172  29.915  27.698  1.00  0.00     0.010 A 
ATOM     33  C   UNL A   1      37.186  29.273  29.813  1.00  0.00     0.010 A 
ATOM     34  C   UNL A   1      38.315  29.376  28.987  1.00  0.00    -0.014 A 
BRANCH  34  35
ATOM     35  C   UNL A   1      39.642  28.933  29.491  1.00  0.00     0.031 A 
ATOM     36  C   UNL A   1      40.418  29.790  30.451  1.00  0.00     0.074 A 
ATOM     37  C   UNL A   1      40.181  27.791  29.024  1.00  0.00     0.049 A 
ATOM     38  N   UNL A   1      41.622  29.612  30.935  1.00  0.00    -0.248 NA
ATOM     39  C   UNL A   1      39.763  31.024  30.912  1.00  0.00     0.031 C 
ATOM     40  C   UNL A   1      39.552  26.896  28.052  1.00  0.00     0.029 A 
ATOM     41  N   UNL A   1      41.389  27.196  29.289  1.00  0.00    -0.354 N 
ATOM     42  C   UNL A   1      41.877  30.716  31.735  1.00  0.00     0.074 A 
ATOM     43  C   UNL A   1      40.718  31.580  31.643  1.00  0.00     0.031 C 
ATOM     44  C   UNL A   1      40.372  25.861  27.812  1.00  0.00     0.029 A 
ATOM     45  C   UNL A   1      41.600  26.038  28.583  1.00  0.00     0.049 A 
ATOM     46  H   UNL A   1      42.044  27.565  29.926  1.00  0.00     0.167 HD
ATOM     47  C   UNL A   1      42.970  30.978  32.493  1.00  0.00     0.037 A 
ATOM     48  C   UNL A   1      42.666  25.217  28.548  1.00  0.00     0.037 A 
ATOM     49  C   UNL A   1      44.109  30.105  32.606  1.00  0.00     0.049 A 
ATOM     50  C   UNL A   1      43.864  25.526  29.401  1.00  0.00     0.074 A 
ATOM     51  C   UNL A   1      45.228  30.246  33.407  1.00  0.00     0.029 A 
ATOM     52  N   UNL A   1      44.274  28.927  31.893  1.00  0.00    -0.354 N 
ATOM     53  N   UNL A   1      44.063  26.536  30.213  1.00  0.00    -0.248 NA
ATOM     54  C   UNL A   1      44.985  24.577  29.340  1.00  0.00     0.031 C 
ATOM     55  C   UNL A   1      46.092  29.177  33.145  1.00  0.00     0.029 A 
ATOM     56  C   UNL A   1      45.490  28.343  32.217  1.00  0.00     0.049 A 
ATOM     57  H   UNL A   1      43.624  28.559  31.251  1.00  0.00     0.167 HD
ATOM     58  C   UNL A   1      45.317  26.335  30.773  1.00  0.00     0.074 A 
ATOM     59  C   UNL A   1      45.827  25.098  30.222  1.00  0.00     0.031 C 
ATOM     60  C   UNL A   1      45.984  27.110  31.663  1.00  0.00     0.037 A 
BRANCH  47  61
ATOM     61  C   UNL A   1      42.988  32.268  33.262  1.00  0.00     0.064 A 
ATOM     62  C   UNL A   1      42.403  32.375  34.533  1.00  0.00     0.173 A 
ATOM     63  C   UNL A   1      43.630  33.399  32.738  1.00  0.00     0.173 A 
ATOM     64  F   UNL A   1      41.769  31.324  35.075  1.00  0.00    -0.203 F 
ATOM     65  C   UNL A   1      42.435  33.575  35.238  1.00  0.00     0.198 A 
ATOM     66  C   UNL A   1      43.685  34.590  33.458  1.00  0.00     0.198 A 
ATOM     67  F   UNL A   1      44.212  33.349  31.531  1.00  0.00    -0.203 F 
ATOM     68  F   UNL A   1      41.827  33.667  36.429  1.00  0.00    -0.200 F 
ATOM     69  C   UNL A   1      43.081  34.680  34.703  1.00  0.00     0.200 A 
ATOM     70  F   UNL A   1      44.321  35.652  32.946  1.00  0.00    -0.200 F 
ATOM     71  F   UNL A   1      43.115  35.832  35.385  1.00  0.00    -0.200 F 
ENDBRANCH  47  61
BRANCH  48  72
ATOM     72  C   UNL A   1      42.638  24.009  27.684  1.00  0.00     0.064 A 
ATOM     73  C   UNL A   1      42.268  22.761  28.206  1.00  0.00     0.173 A 
ATOM     74  C   UNL A   1      42.971  24.075  26.324  1.00  0.00     0.173 A 
ATOM     75  F   UNL A   1      41.963  22.644  29.507  1.00  0.00    -0.203 F 
ATOM     76  C   UNL A   1      42.246  21.623  27.403  1.00  0.00     0.198 A 
ATOM     77  C   UNL A   1      42.924  22.941  25.516  1.00  0.00     0.198 A 
ATOM     78  F   UNL A   1      43.328  25.245  25.777  1.00  0.00    -0.203 F 
ATOM     79  F   UNL A   1      41.927  20.436  27.936  1.00  0.00    -0.200 F 
ATOM     80  C   UNL A   1      42.568  21.715  26.057  1.00  0.00     0.200 A 
ATOM     81  F   UNL A   1      43.223  23.036  24.213  1.00  0.00    -0.200 F 
ATOM     82  F   UNL A   1      42.541  20.621  25.284  1.00  0.00    -0.200 F 
ENDBRANCH  48  72
BRANCH  60  83
ATOM     83  C   UNL A   1      47.331  26.626  32.119  1.00  0.00     0.064 A 
ATOM     84  C   UNL A   1      48.513  27.048  31.494  1.00  0.00     0.173 A 
ATOM     85  C   UNL A   1      47.439  25.760  33.218  1.00  0.00     0.173 A 
ATOM     86  F   UNL A   1      48.461  27.863  30.430  1.00  0.00    -0.203 F 
ATOM     87  C   UNL A   1      49.755  26.602  31.939  1.00  0.00     0.198 A 
ATOM     88  C   UNL A   1      48.684  25.338  33.676  1.00  0.00     0.198 A 
ATOM     89  F   UNL A   1      46.338  25.332  33.853  1.00  0.00    -0.203 F 
ATOM     90  F   UNL A   1      50.870  26.982  31.300  1.00  0.00    -0.200 F 
ATOM     91  C   UNL A   1      49.840  25.754  33.033  1.00  0.00     0.200 A 
ATOM     92  F   UNL A   1      48.765  24.529  34.741  1.00  0.00    -0.200 F 
ATOM     93  F   UNL A   1      51.036  25.331  33.464  1.00  0.00    -0.200 F 
ENDBRANCH  60  83
ENDBRANCH  34  35
ENDBRANCH  26  29
ENDBRANCH  24  25
ENDBRANCH  23  24
ENDBRANCH   1  23
TORSDOF 15
ENDMDL
