MODEL 1
REMARK VINA RESULT:     -11.3      0.000      0.000
REMARK SMILES CN(CC(=O)NCCCNC(=O)c1ccc(-c2c3nc(c(-c4c(F)c(F)c(F)c(F)c4F)c4ccc([nH]4)c(-c4c(F)c(F)c(F)c(F)c4F)c4nc(c(-c5c(F)c(F)c(F)c(F)c5F)c5ccc2[nH]5)C=C4)C=C3)cc1)c1nc2cc(N)ccc2[nH]1
REMARK SMILES IDX 7 1 6 2 4 3 5 4 3 6 2 7 1 8 76 9 77 10 85 11 78 12 84 13
REMARK SMILES IDX 79 15 83 16 80 17 82 18 81 19 8 22 9 23 10 24 11 25 12 27
REMARK SMILES IDX 13 28 14 29 75 30 15 31 74 32 16 33 17 34 18 35 68 36 19 37
REMARK SMILES IDX 73 38 67 39 69 40 20 41 72 42 66 43 65 44 21 46 53 47 33 48
REMARK SMILES IDX 52 49 34 50 37 51 51 52 70 53 35 54 36 55 50 57 71 58 38 59
REMARK SMILES IDX 22 60 23 61 31 62 24 63 25 64 29 65 32 66 26 67 27 68 30 69
REMARK SMILES IDX 28 70 54 71 55 72 63 73 56 74 57 75 61 76 64 77 58 78 59 79
REMARK SMILES IDX 62 80 60 81 39 82 40 83 48 84 41 85 42 86 46 87 49 88 43 89
REMARK SMILES IDX 44 90 47 91 45 92
REMARK H PARENT 6 5 85 14 81 20 81 21 10 26 69 45 37 56
REMARK Flexibility Score: inf
ROOT
ATOM      1  C   UNL A   1      41.025  19.649  26.276  1.00  0.00     0.117 C 
ENDROOT
BRANCH   1   2
ATOM      2  N   UNL A   1      41.894  18.568  26.681  1.00  0.00    -0.354 N 
ATOM      3  C   UNL A   1      43.115  18.218  26.168  1.00  0.00     0.239 C 
ATOM      4  O   UNL A   1      43.776  17.380  26.787  1.00  0.00    -0.273 OA
ATOM      5  H   UNL A   1      41.566  18.011  27.423  1.00  0.00     0.163 HD
BRANCH   3   6
ATOM      6  C   UNL A   1      43.677  18.960  24.947  1.00  0.00     0.219 C 
BRANCH   6   7
ATOM      7  N   UNL A   1      44.827  19.844  25.233  1.00  0.00    -0.336 N 
ATOM      8  C   UNL A   1      46.163  19.337  25.003  1.00  0.00     0.147 C 
BRANCH   7   9
ATOM      9  C   UNL A   1      44.564  21.164  25.408  1.00  0.00     0.204 A 
ATOM     10  N   UNL A   1      43.987  21.974  24.553  1.00  0.00    -0.213 NA
ATOM     11  N   UNL A   1      44.930  21.851  26.542  1.00  0.00    -0.324 N 
ATOM     12  C   UNL A   1      44.011  23.219  25.125  1.00  0.00     0.093 A 
ATOM     13  C   UNL A   1      44.623  23.177  26.370  1.00  0.00     0.067 A 
ATOM     14  H   UNL A   1      45.345  21.457  27.343  1.00  0.00     0.170 HD
ATOM     15  C   UNL A   1      43.535  24.441  24.630  1.00  0.00     0.056 A 
ATOM     16  C   UNL A   1      44.817  24.309  27.160  1.00  0.00     0.030 A 
ATOM     17  C   UNL A   1      43.730  25.607  25.380  1.00  0.00     0.034 A 
ATOM     18  C   UNL A   1      44.345  25.523  26.636  1.00  0.00     0.028 A 
BRANCH  17  19
ATOM     19  N   UNL A   1      43.208  26.815  24.935  1.00  0.00    -0.399 N 
ATOM     20  H   UNL A   1      42.773  26.868  24.054  1.00  0.00     0.156 HD
ATOM     21  H   UNL A   1      43.273  27.618  25.501  1.00  0.00     0.156 HD
ENDBRANCH  17  19
ENDBRANCH   7   9
ENDBRANCH   6   7
ENDBRANCH   3   6
ENDBRANCH   1   2
BRANCH   1  22
ATOM     22  C   UNL A   1      41.027  20.824  27.246  1.00  0.00     0.042 C 
BRANCH  22  23
ATOM     23  C   UNL A   1      41.018  22.197  26.582  1.00  0.00     0.118 C 
BRANCH  23  24
ATOM     24  N   UNL A   1      39.733  22.527  25.980  1.00  0.00    -0.352 N 
ATOM     25  C   UNL A   1      38.877  23.580  26.187  1.00  0.00     0.251 C 
ATOM     26  H   UNL A   1      39.423  21.882  25.306  1.00  0.00     0.163 HD
ATOM     27  O   UNL A   1      37.761  23.549  25.678  1.00  0.00    -0.269 OA
BRANCH  25  28
ATOM     28  C   UNL A   1      39.261  24.743  27.022  1.00  0.00     0.039 A 
ATOM     29  C   UNL A   1      40.039  25.750  26.439  1.00  0.00     0.014 A 
ATOM     30  C   UNL A   1      38.936  24.824  28.378  1.00  0.00     0.014 A 
ATOM     31  C   UNL A   1      40.446  26.850  27.196  1.00  0.00     0.010 A 
ATOM     32  C   UNL A   1      39.278  25.957  29.114  1.00  0.00     0.010 A 
ATOM     33  C   UNL A   1      40.047  26.977  28.535  1.00  0.00    -0.014 A 
BRANCH  33  34
ATOM     34  C   UNL A   1      40.447  28.159  29.344  1.00  0.00     0.031 A 
ATOM     35  C   UNL A   1      41.823  28.234  29.949  1.00  0.00     0.074 A 
ATOM     36  C   UNL A   1      39.558  29.144  29.573  1.00  0.00     0.049 A 
ATOM     37  N   UNL A   1      42.339  29.158  30.722  1.00  0.00    -0.248 NA
ATOM     38  C   UNL A   1      42.731  27.112  29.669  1.00  0.00     0.031 C 
ATOM     39  C   UNL A   1      38.180  29.170  29.081  1.00  0.00     0.029 A 
ATOM     40  N   UNL A   1      39.678  30.312  30.285  1.00  0.00    -0.354 N 
ATOM     41  C   UNL A   1      43.621  28.721  31.030  1.00  0.00     0.074 A 
ATOM     42  C   UNL A   1      43.788  27.427  30.404  1.00  0.00     0.031 C 
ATOM     43  C   UNL A   1      37.590  30.306  29.485  1.00  0.00     0.029 A 
ATOM     44  C   UNL A   1      38.534  31.071  30.292  1.00  0.00     0.049 A 
ATOM     45  H   UNL A   1      40.505  30.579  30.745  1.00  0.00     0.167 HD
ATOM     46  C   UNL A   1      44.580  29.351  31.750  1.00  0.00     0.037 A 
ATOM     47  C   UNL A   1      38.276  32.253  30.887  1.00  0.00     0.037 A 
ATOM     48  C   UNL A   1      44.425  30.651  32.347  1.00  0.00     0.049 A 
ATOM     49  C   UNL A   1      39.361  32.932  31.678  1.00  0.00     0.074 A 
ATOM     50  C   UNL A   1      45.359  31.399  33.043  1.00  0.00     0.029 A 
ATOM     51  N   UNL A   1      43.257  31.397  32.319  1.00  0.00    -0.354 N 
ATOM     52  N   UNL A   1      40.589  32.539  31.905  1.00  0.00    -0.248 NA
ATOM     53  C   UNL A   1      39.022  34.225  32.288  1.00  0.00     0.031 C 
ATOM     54  C   UNL A   1      44.744  32.581  33.470  1.00  0.00     0.029 A 
ATOM     55  C   UNL A   1      43.440  32.589  33.002  1.00  0.00     0.049 A 
ATOM     56  H   UNL A   1      42.420  31.121  31.879  1.00  0.00     0.167 HD
ATOM     57  C   UNL A   1      41.178  33.544  32.661  1.00  0.00     0.074 A 
ATOM     58  C   UNL A   1      40.176  34.574  32.838  1.00  0.00     0.031 C 
ATOM     59  C   UNL A   1      42.434  33.607  33.166  1.00  0.00     0.037 A 
BRANCH  46  60
ATOM     60  C   UNL A   1      45.893  28.642  31.926  1.00  0.00     0.064 A 
ATOM     61  C   UNL A   1      46.124  27.786  33.013  1.00  0.00     0.173 A 
ATOM     62  C   UNL A   1      46.915  28.790  30.977  1.00  0.00     0.173 A 
ATOM     63  F   UNL A   1      45.183  27.617  33.953  1.00  0.00    -0.203 F 
ATOM     64  C   UNL A   1      47.343  27.128  33.159  1.00  0.00     0.198 A 
ATOM     65  C   UNL A   1      48.122  28.107  31.111  1.00  0.00     0.198 A 
ATOM     66  F   UNL A   1      46.742  29.590  29.914  1.00  0.00    -0.203 F 
ATOM     67  F   UNL A   1      47.560  26.351  34.230  1.00  0.00    -0.200 F 
ATOM     68  C   UNL A   1      48.337  27.283  32.205  1.00  0.00     0.200 A 
ATOM     69  F   UNL A   1      49.076  28.247  30.181  1.00  0.00    -0.200 F 
ATOM     70  F   UNL A   1      49.507  26.642  32.343  1.00  0.00    -0.200 F 
ENDBRANCH  46  60
BRANCH  47  71
ATOM     71  C   UNL A   1      36.939  32.883  30.734  1.00  0.00     0.064 A 
ATOM     72  C   UNL A   1      35.960  32.739  31.727  1.00  0.00     0.173 A 
ATOM     73  C   UNL A   1      36.609  33.630  29.594  1.00  0.00     0.173 A 
ATOM     74  F   UNL A   1      36.221  32.015  32.825  1.00  0.00    -0.203 F 
ATOM     75  C   UNL A   1      34.694  33.300  31.575  1.00  0.00     0.198 A 
ATOM     76  C   UNL A   1      35.353  34.213  29.456  1.00  0.00     0.198 A 
ATOM     77  F   UNL A   1      37.513  33.800  28.618  1.00  0.00    -0.203 F 
ATOM     78  F   UNL A   1      33.761  33.107  32.518  1.00  0.00    -0.200 F 
ATOM     79  C   UNL A   1      34.392  34.042  30.442  1.00  0.00     0.200 A 
ATOM     80  F   UNL A   1      35.069  34.941  28.367  1.00  0.00    -0.200 F 
ATOM     81  F   UNL A   1      33.175  34.583  30.298  1.00  0.00    -0.200 F 
ENDBRANCH  47  71
BRANCH  59  82
ATOM     82  C   UNL A   1      42.804  34.842  33.933  1.00  0.00     0.064 A 
ATOM     83  C   UNL A   1      43.180  36.027  33.283  1.00  0.00     0.173 A 
ATOM     84  C   UNL A   1      42.753  34.849  35.335  1.00  0.00     0.173 A 
ATOM     85  F   UNL A   1      43.260  36.065  31.944  1.00  0.00    -0.203 F 
ATOM     86  C   UNL A   1      43.518  37.165  34.010  1.00  0.00     0.198 A 
ATOM     87  C   UNL A   1      43.064  35.998  36.058  1.00  0.00     0.198 A 
ATOM     88  F   UNL A   1      42.394  33.744  36.006  1.00  0.00    -0.203 F 
ATOM     89  F   UNL A   1      43.922  38.270  33.368  1.00  0.00    -0.200 F 
ATOM     90  C   UNL A   1      43.452  37.152  35.395  1.00  0.00     0.200 A 
ATOM     91  F   UNL A   1      42.989  35.988  37.396  1.00  0.00    -0.200 F 
ATOM     92  F   UNL A   1      43.775  38.250  36.091  1.00  0.00    -0.200 F 
ENDBRANCH  59  82
ENDBRANCH  33  34
ENDBRANCH  25  28
ENDBRANCH  23  24
ENDBRANCH  22  23
ENDBRANCH   1  22
TORSDOF 13
ENDMDL
MODEL 2
REMARK VINA RESULT:     -11.2      3.749     11.470
REMARK SMILES CN(CC(=O)NCCCNC(=O)c1ccc(-c2c3nc(c(-c4c(F)c(F)c(F)c(F)c4F)c4ccc([nH]4)c(-c4c(F)c(F)c(F)c(F)c4F)c4nc(c(-c5c(F)c(F)c(F)c(F)c5F)c5ccc2[nH]5)C=C4)C=C3)cc1)c1nc2cc(N)ccc2[nH]1
REMARK SMILES IDX 7 1 6 2 4 3 5 4 3 6 2 7 1 8 76 9 77 10 85 11 78 12 84 13
REMARK SMILES IDX 79 15 83 16 80 17 82 18 81 19 8 22 9 23 10 24 11 25 12 27
REMARK SMILES IDX 13 28 14 29 75 30 15 31 74 32 16 33 17 34 18 35 68 36 19 37
REMARK SMILES IDX 73 38 67 39 69 40 20 41 72 42 66 43 65 44 21 46 53 47 33 48
REMARK SMILES IDX 52 49 34 50 37 51 51 52 70 53 35 54 36 55 50 57 71 58 38 59
REMARK SMILES IDX 22 60 23 61 31 62 24 63 25 64 29 65 32 66 26 67 27 68 30 69
REMARK SMILES IDX 28 70 54 71 55 72 63 73 56 74 57 75 61 76 64 77 58 78 59 79
REMARK SMILES IDX 62 80 60 81 39 82 40 83 48 84 41 85 42 86 46 87 49 88 43 89
REMARK SMILES IDX 44 90 47 91 45 92
REMARK H PARENT 6 5 85 14 81 20 81 21 10 26 69 45 37 56
REMARK Flexibility Score: inf
ROOT
ATOM      1  C   UNL A   1      34.821  34.849  28.133  1.00  0.00     0.117 C 
ENDROOT
BRANCH   1   2
ATOM      2  N   UNL A   1      34.249  36.176  28.168  1.00  0.00    -0.354 N 
ATOM      3  C   UNL A   1      33.409  36.717  29.104  1.00  0.00     0.239 C 
ATOM      4  O   UNL A   1      33.192  37.931  29.044  1.00  0.00    -0.273 OA
ATOM      5  H   UNL A   1      34.495  36.767  27.421  1.00  0.00     0.163 HD
BRANCH   3   6
ATOM      6  C   UNL A   1      32.885  35.852  30.260  1.00  0.00     0.219 C 
BRANCH   6   7
ATOM      7  N   UNL A   1      33.627  35.998  31.531  1.00  0.00    -0.336 N 
ATOM      8  C   UNL A   1      33.181  36.996  32.480  1.00  0.00     0.147 C 
BRANCH   7   9
ATOM      9  C   UNL A   1      34.488  35.004  31.863  1.00  0.00     0.204 A 
ATOM     10  N   UNL A   1      34.280  33.712  31.761  1.00  0.00    -0.213 NA
ATOM     11  N   UNL A   1      35.725  35.243  32.414  1.00  0.00    -0.324 N 
ATOM     12  C   UNL A   1      35.386  33.100  32.290  1.00  0.00     0.093 A 
ATOM     13  C   UNL A   1      36.304  34.041  32.733  1.00  0.00     0.067 A 
ATOM     14  H   UNL A   1      36.128  36.130  32.557  1.00  0.00     0.170 HD
ATOM     15  C   UNL A   1      35.670  31.735  32.434  1.00  0.00     0.056 A 
ATOM     16  C   UNL A   1      37.507  33.698  33.349  1.00  0.00     0.030 A 
ATOM     17  C   UNL A   1      36.856  31.346  33.069  1.00  0.00     0.034 A 
ATOM     18  C   UNL A   1      37.762  32.326  33.496  1.00  0.00     0.028 A 
BRANCH  17  19
ATOM     19  N   UNL A   1      37.185  29.999  33.162  1.00  0.00    -0.399 N 
ATOM     20  H   UNL A   1      37.934  29.639  32.636  1.00  0.00     0.156 HD
ATOM     21  H   UNL A   1      36.668  29.406  33.754  1.00  0.00     0.156 HD
ENDBRANCH  17  19
ENDBRANCH   7   9
ENDBRANCH   6   7
ENDBRANCH   3   6
ENDBRANCH   1   2
BRANCH   1  22
ATOM     22  C   UNL A   1      33.778  33.743  28.024  1.00  0.00     0.042 C 
BRANCH  22  23
ATOM     23  C   UNL A   1      34.147  32.449  28.742  1.00  0.00     0.118 C 
BRANCH  23  24
ATOM     24  N   UNL A   1      33.637  31.262  28.068  1.00  0.00    -0.352 N 
ATOM     25  C   UNL A   1      34.265  30.115  27.654  1.00  0.00     0.251 C 
ATOM     26  H   UNL A   1      32.673  31.287  27.877  1.00  0.00     0.163 HD
ATOM     27  O   UNL A   1      33.649  29.321  26.948  1.00  0.00    -0.269 OA
BRANCH  25  28
ATOM     28  C   UNL A   1      35.669  29.818  28.023  1.00  0.00     0.039 A 
ATOM     29  C   UNL A   1      35.932  29.365  29.321  1.00  0.00     0.014 A 
ATOM     30  C   UNL A   1      36.732  30.047  27.146  1.00  0.00     0.014 A 
ATOM     31  C   UNL A   1      37.244  29.100  29.720  1.00  0.00     0.010 A 
ATOM     32  C   UNL A   1      38.033  29.711  27.519  1.00  0.00     0.010 A 
ATOM     33  C   UNL A   1      38.305  29.245  28.813  1.00  0.00    -0.014 A 
BRANCH  33  34
ATOM     34  C   UNL A   1      39.703  28.936  29.215  1.00  0.00     0.031 A 
ATOM     35  C   UNL A   1      40.471  29.891  30.088  1.00  0.00     0.074 A 
ATOM     36  C   UNL A   1      40.297  27.817  28.759  1.00  0.00     0.049 A 
ATOM     37  N   UNL A   1      41.711  29.819  30.504  1.00  0.00    -0.248 NA
ATOM     38  C   UNL A   1      39.760  31.100  30.531  1.00  0.00     0.031 C 
ATOM     39  C   UNL A   1      39.677  26.832  27.872  1.00  0.00     0.029 A 
ATOM     40  N   UNL A   1      41.560  27.322  28.972  1.00  0.00    -0.354 N 
ATOM     41  C   UNL A   1      41.931  30.975  31.242  1.00  0.00     0.074 A 
ATOM     42  C   UNL A   1      40.713  31.756  31.176  1.00  0.00     0.031 C 
ATOM     43  C   UNL A   1      40.551  25.841  27.635  1.00  0.00     0.029 A 
ATOM     44  C   UNL A   1      41.803  26.137  28.325  1.00  0.00     0.049 A 
ATOM     45  H   UNL A   1      42.228  27.775  29.536  1.00  0.00     0.167 HD
ATOM     46  C   UNL A   1      43.038  31.343  31.931  1.00  0.00     0.037 A 
ATOM     47  C   UNL A   1      42.914  25.374  28.288  1.00  0.00     0.037 A 
ATOM     48  C   UNL A   1      44.237  30.553  32.022  1.00  0.00     0.049 A 
ATOM     49  C   UNL A   1      44.127  25.804  29.067  1.00  0.00     0.074 A 
ATOM     50  C   UNL A   1      45.388  30.811  32.746  1.00  0.00     0.029 A 
ATOM     51  N   UNL A   1      44.440  29.348  31.366  1.00  0.00    -0.354 N 
ATOM     52  N   UNL A   1      44.299  26.865  29.814  1.00  0.00    -0.248 NA
ATOM     53  C   UNL A   1      45.301  24.922  29.000  1.00  0.00     0.031 C 
ATOM     54  C   UNL A   1      46.303  29.781  32.496  1.00  0.00     0.029 A 
ATOM     55  C   UNL A   1      45.704  28.860  31.652  1.00  0.00     0.049 A 
ATOM     56  H   UNL A   1      43.782  28.905  30.782  1.00  0.00     0.167 HD
ATOM     57  C   UNL A   1      45.585  26.768  30.327  1.00  0.00     0.074 A 
ATOM     58  C   UNL A   1      46.145  25.533  29.819  1.00  0.00     0.031 C 
ATOM     59  C   UNL A   1      46.245  27.626  31.143  1.00  0.00     0.037 A 
BRANCH  46  60
ATOM     60  C   UNL A   1      42.999  32.660  32.652  1.00  0.00     0.064 A 
ATOM     61  C   UNL A   1      43.401  33.850  32.028  1.00  0.00     0.173 A 
ATOM     62  C   UNL A   1      42.521  32.738  33.969  1.00  0.00     0.173 A 
ATOM     63  F   UNL A   1      43.876  33.829  30.774  1.00  0.00    -0.203 F 
ATOM     64  C   UNL A   1      43.352  35.066  32.705  1.00  0.00     0.198 A 
ATOM     65  C   UNL A   1      42.446  33.960  34.633  1.00  0.00     0.198 A 
ATOM     66  F   UNL A   1      42.117  31.631  34.609  1.00  0.00    -0.203 F 
ATOM     67  F   UNL A   1      43.785  36.184  32.105  1.00  0.00    -0.200 F 
ATOM     68  C   UNL A   1      42.869  35.121  34.003  1.00  0.00     0.200 A 
ATOM     69  F   UNL A   1      41.965  34.014  35.882  1.00  0.00    -0.200 F 
ATOM     70  F   UNL A   1      42.815  36.294  34.651  1.00  0.00    -0.200 F 
ENDBRANCH  46  60
BRANCH  47  71
ATOM     71  C   UNL A   1      42.920  24.109  27.508  1.00  0.00     0.064 A 
ATOM     72  C   UNL A   1      42.571  22.893  28.110  1.00  0.00     0.173 A 
ATOM     73  C   UNL A   1      43.285  24.088  26.155  1.00  0.00     0.173 A 
ATOM     74  F   UNL A   1      42.237  22.860  29.409  1.00  0.00    -0.203 F 
ATOM     75  C   UNL A   1      42.607  21.699  27.393  1.00  0.00     0.198 A 
ATOM     76  C   UNL A   1      43.294  22.898  25.431  1.00  0.00     0.198 A 
ATOM     77  F   UNL A   1      43.624  25.227  25.532  1.00  0.00    -0.203 F 
ATOM     78  F   UNL A   1      42.314  20.544  28.006  1.00  0.00    -0.200 F 
ATOM     79  C   UNL A   1      42.963  21.703  26.052  1.00  0.00     0.200 A 
ATOM     80  F   UNL A   1      43.626  22.907  24.133  1.00  0.00    -0.200 F 
ATOM     81  F   UNL A   1      42.996  20.555  25.363  1.00  0.00    -0.200 F 
ENDBRANCH  47  71
BRANCH  59  82
ATOM     82  C   UNL A   1      47.635  27.244  31.558  1.00  0.00     0.064 A 
ATOM     83  C   UNL A   1      48.761  27.670  30.839  1.00  0.00     0.173 A 
ATOM     84  C   UNL A   1      47.845  26.466  32.707  1.00  0.00     0.173 A 
ATOM     85  F   UNL A   1      48.611  28.402  29.724  1.00  0.00    -0.203 F 
ATOM     86  C   UNL A   1      50.045  27.310  31.239  1.00  0.00     0.198 A 
ATOM     87  C   UNL A   1      49.132  26.132  33.121  1.00  0.00     0.198 A 
ATOM     88  F   UNL A   1      46.802  26.038  33.435  1.00  0.00    -0.203 F 
ATOM     89  F   UNL A   1      51.103  27.687  30.508  1.00  0.00    -0.200 F 
ATOM     90  C   UNL A   1      50.230  26.547  32.383  1.00  0.00     0.200 A 
ATOM     91  F   UNL A   1      49.309  25.405  34.233  1.00  0.00    -0.200 F 
ATOM     92  F   UNL A   1      51.466  26.204  32.768  1.00  0.00    -0.200 F 
ENDBRANCH  59  82
ENDBRANCH  33  34
ENDBRANCH  25  28
ENDBRANCH  23  24
ENDBRANCH  22  23
ENDBRANCH   1  22
TORSDOF 13
ENDMDL
MODEL 3
REMARK VINA RESULT:     -10.9      4.536     10.348
REMARK SMILES CN(CC(=O)NCCCNC(=O)c1ccc(-c2c3nc(c(-c4c(F)c(F)c(F)c(F)c4F)c4ccc([nH]4)c(-c4c(F)c(F)c(F)c(F)c4F)c4nc(c(-c5c(F)c(F)c(F)c(F)c5F)c5ccc2[nH]5)C=C4)C=C3)cc1)c1nc2cc(N)ccc2[nH]1
REMARK SMILES IDX 7 1 6 2 4 3 5 4 3 6 2 7 1 8 76 9 77 10 85 11 78 12 84 13
REMARK SMILES IDX 79 15 83 16 80 17 82 18 81 19 8 22 9 23 10 24 11 25 12 27
REMARK SMILES IDX 13 28 14 29 75 30 15 31 74 32 16 33 17 34 18 35 68 36 19 37
REMARK SMILES IDX 73 38 67 39 69 40 20 41 72 42 66 43 65 44 21 46 53 47 33 48
REMARK SMILES IDX 52 49 34 50 37 51 51 52 70 53 35 54 36 55 50 57 71 58 38 59
REMARK SMILES IDX 22 60 23 61 31 62 24 63 25 64 29 65 32 66 26 67 27 68 30 69
REMARK SMILES IDX 28 70 54 71 55 72 63 73 56 74 57 75 61 76 64 77 58 78 59 79
REMARK SMILES IDX 62 80 60 81 39 82 40 83 48 84 41 85 42 86 46 87 49 88 43 89
REMARK SMILES IDX 44 90 47 91 45 92
REMARK H PARENT 6 5 85 14 81 20 81 21 10 26 69 45 37 56
REMARK Flexibility Score: inf
ROOT
ATOM      1  C   UNL A   1      37.299  21.308  24.650  1.00  0.00     0.117 C 
ENDROOT
BRANCH   1   2
ATOM      2  N   UNL A   1      36.620  21.742  25.849  1.00  0.00    -0.354 N 
ATOM      3  C   UNL A   1      35.316  22.132  25.997  1.00  0.00     0.239 C 
ATOM      4  O   UNL A   1      34.889  22.281  27.145  1.00  0.00    -0.273 OA
ATOM      5  H   UNL A   1      37.166  21.759  26.668  1.00  0.00     0.163 HD
BRANCH   3   6
ATOM      6  C   UNL A   1      34.400  22.235  24.768  1.00  0.00     0.219 C 
BRANCH   6   7
ATOM      7  N   UNL A   1      33.123  21.499  24.883  1.00  0.00    -0.336 N 
ATOM      8  C   UNL A   1      31.887  22.223  24.676  1.00  0.00     0.147 C 
BRANCH   7   9
ATOM      9  C   UNL A   1      33.187  20.143  24.879  1.00  0.00     0.204 A 
ATOM     10  N   UNL A   1      32.271  19.308  25.307  1.00  0.00    -0.213 NA
ATOM     11  N   UNL A   1      34.295  19.453  24.447  1.00  0.00    -0.324 N 
ATOM     12  C   UNL A   1      32.806  18.053  25.185  1.00  0.00     0.093 A 
ATOM     13  C   UNL A   1      34.092  18.114  24.669  1.00  0.00     0.067 A 
ATOM     14  H   UNL A   1      35.101  19.852  24.046  1.00  0.00     0.170 HD
ATOM     15  C   UNL A   1      32.249  16.807  25.508  1.00  0.00     0.056 A 
ATOM     16  C   UNL A   1      34.887  16.985  24.473  1.00  0.00     0.030 A 
ATOM     17  C   UNL A   1      33.021  15.650  25.351  1.00  0.00     0.034 A 
ATOM     18  C   UNL A   1      34.314  15.752  24.819  1.00  0.00     0.028 A 
BRANCH  17  19
ATOM     19  N   UNL A   1      32.464  14.403  25.605  1.00  0.00    -0.399 N 
ATOM     20  H   UNL A   1      31.835  14.005  24.960  1.00  0.00     0.156 HD
ATOM     21  H   UNL A   1      32.698  13.917  26.428  1.00  0.00     0.156 HD
ENDBRANCH  17  19
ENDBRANCH   7   9
ENDBRANCH   6   7
ENDBRANCH   3   6
ENDBRANCH   1   2
BRANCH   1  22
ATOM     22  C   UNL A   1      38.131  20.046  24.849  1.00  0.00     0.042 C 
BRANCH  22  23
ATOM     23  C   UNL A   1      38.982  20.037  26.114  1.00  0.00     0.118 C 
BRANCH  23  24
ATOM     24  N   UNL A   1      40.155  19.180  26.003  1.00  0.00    -0.352 N 
ATOM     25  C   UNL A   1      41.495  19.468  26.041  1.00  0.00     0.251 C 
ATOM     26  H   UNL A   1      39.949  18.226  25.879  1.00  0.00     0.163 HD
ATOM     27  O   UNL A   1      42.302  18.589  25.750  1.00  0.00    -0.269 OA
BRANCH  25  28
ATOM     28  C   UNL A   1      41.993  20.815  26.408  1.00  0.00     0.039 A 
ATOM     29  C   UNL A   1      42.160  21.761  25.389  1.00  0.00     0.014 A 
ATOM     30  C   UNL A   1      42.369  21.138  27.714  1.00  0.00     0.014 A 
ATOM     31  C   UNL A   1      42.652  23.034  25.686  1.00  0.00     0.010 A 
ATOM     32  C   UNL A   1      42.789  22.431  28.023  1.00  0.00     0.010 A 
ATOM     33  C   UNL A   1      42.947  23.390  27.011  1.00  0.00    -0.014 A 
BRANCH  33  34
ATOM     34  C   UNL A   1      43.442  24.751  27.346  1.00  0.00     0.031 A 
ATOM     35  C   UNL A   1      42.512  25.771  27.945  1.00  0.00     0.074 A 
ATOM     36  C   UNL A   1      44.716  25.085  27.069  1.00  0.00     0.049 A 
ATOM     37  N   UNL A   1      42.745  27.021  28.261  1.00  0.00    -0.248 NA
ATOM     38  C   UNL A   1      41.130  25.336  28.202  1.00  0.00     0.031 C 
ATOM     39  C   UNL A   1      45.706  24.204  26.449  1.00  0.00     0.029 A 
ATOM     40  N   UNL A   1      45.398  26.261  27.268  1.00  0.00    -0.354 N 
ATOM     41  C   UNL A   1      41.540  27.522  28.736  1.00  0.00     0.074 A 
ATOM     42  C   UNL A   1      40.565  26.458  28.621  1.00  0.00     0.031 C 
ATOM     43  C   UNL A   1      46.872  24.860  26.338  1.00  0.00     0.029 A 
ATOM     44  C   UNL A   1      46.704  26.217  26.847  1.00  0.00     0.049 A 
ATOM     45  H   UNL A   1      44.989  27.059  27.673  1.00  0.00     0.167 HD
ATOM     46  C   UNL A   1      41.274  28.750  29.244  1.00  0.00     0.037 A 
ATOM     47  C   UNL A   1      47.659  27.168  26.867  1.00  0.00     0.037 A 
ATOM     48  C   UNL A   1      42.251  29.798  29.386  1.00  0.00     0.049 A 
ATOM     49  C   UNL A   1      47.338  28.522  27.440  1.00  0.00     0.074 A 
ATOM     50  C   UNL A   1      42.093  31.054  29.945  1.00  0.00     0.029 A 
ATOM     51  N   UNL A   1      43.568  29.711  28.964  1.00  0.00    -0.354 N 
ATOM     52  N   UNL A   1      46.214  28.961  27.948  1.00  0.00    -0.248 NA
ATOM     53  C   UNL A   1      48.426  29.510  27.449  1.00  0.00     0.031 C 
ATOM     54  C   UNL A   1      43.307  31.742  29.825  1.00  0.00     0.029 A 
ATOM     55  C   UNL A   1      44.232  30.898  29.232  1.00  0.00     0.049 A 
ATOM     56  H   UNL A   1      43.974  28.922  28.537  1.00  0.00     0.167 HD
ATOM     57  C   UNL A   1      46.463  30.263  28.358  1.00  0.00     0.074 A 
ATOM     58  C   UNL A   1      47.852  30.537  28.057  1.00  0.00     0.031 C 
ATOM     59  C   UNL A   1      45.616  31.154  28.931  1.00  0.00     0.037 A 
BRANCH  46  60
ATOM     60  C   UNL A   1      39.868  29.025  29.693  1.00  0.00     0.064 A 
ATOM     61  C   UNL A   1      38.891  29.490  28.800  1.00  0.00     0.173 A 
ATOM     62  C   UNL A   1      39.484  28.786  31.021  1.00  0.00     0.173 A 
ATOM     63  F   UNL A   1      39.208  29.745  27.522  1.00  0.00    -0.203 F 
ATOM     64  C   UNL A   1      37.588  29.733  29.228  1.00  0.00     0.198 A 
ATOM     65  C   UNL A   1      38.172  29.002  31.438  1.00  0.00     0.198 A 
ATOM     66  F   UNL A   1      40.378  28.333  31.913  1.00  0.00    -0.203 F 
ATOM     67  F   UNL A   1      36.682  30.222  28.369  1.00  0.00    -0.200 F 
ATOM     68  C   UNL A   1      37.229  29.482  30.543  1.00  0.00     0.200 A 
ATOM     69  F   UNL A   1      37.824  28.745  32.706  1.00  0.00    -0.200 F 
ATOM     70  F   UNL A   1      35.971  29.709  30.951  1.00  0.00    -0.200 F 
ENDBRANCH  46  60
BRANCH  47  71
ATOM     71  C   UNL A   1      49.020  26.864  26.353  1.00  0.00     0.064 A 
ATOM     72  C   UNL A   1      49.347  27.096  25.009  1.00  0.00     0.173 A 
ATOM     73  C   UNL A   1      50.012  26.327  27.184  1.00  0.00     0.173 A 
ATOM     74  F   UNL A   1      48.424  27.587  24.170  1.00  0.00    -0.203 F 
ATOM     75  C   UNL A   1      50.610  26.782  24.513  1.00  0.00     0.198 A 
ATOM     76  C   UNL A   1      51.283  26.040  26.694  1.00  0.00     0.198 A 
ATOM     77  F   UNL A   1      49.749  26.091  28.479  1.00  0.00    -0.203 F 
ATOM     78  F   UNL A   1      50.882  26.971  23.215  1.00  0.00    -0.200 F 
ATOM     79  C   UNL A   1      51.580  26.260  25.357  1.00  0.00     0.200 A 
ATOM     80  F   UNL A   1      52.222  25.548  27.514  1.00  0.00    -0.200 F 
ATOM     81  F   UNL A   1      52.795  25.960  24.879  1.00  0.00    -0.200 F 
ENDBRANCH  47  71
BRANCH  59  82
ATOM     82  C   UNL A   1      46.177  32.497  29.294  1.00  0.00     0.064 A 
ATOM     83  C   UNL A   1      46.777  32.731  30.541  1.00  0.00     0.173 A 
ATOM     84  C   UNL A   1      46.140  33.555  28.374  1.00  0.00     0.173 A 
ATOM     85  F   UNL A   1      46.822  31.755  31.461  1.00  0.00    -0.203 F 
ATOM     86  C   UNL A   1      47.295  33.983  30.861  1.00  0.00     0.198 A 
ATOM     87  C   UNL A   1      46.685  34.798  28.688  1.00  0.00     0.198 A 
ATOM     88  F   UNL A   1      45.583  33.383  27.166  1.00  0.00    -0.203 F 
ATOM     89  F   UNL A   1      47.819  34.196  32.076  1.00  0.00    -0.200 F 
ATOM     90  C   UNL A   1      47.255  35.012  29.933  1.00  0.00     0.200 A 
ATOM     91  F   UNL A   1      46.656  35.788  27.785  1.00  0.00    -0.200 F 
ATOM     92  F   UNL A   1      47.757  36.215  30.243  1.00  0.00    -0.200 F 
ENDBRANCH  59  82
ENDBRANCH  33  34
ENDBRANCH  25  28
ENDBRANCH  23  24
ENDBRANCH  22  23
ENDBRANCH   1  22
TORSDOF 13
ENDMDL
