MODEL 1
REMARK VINA RESULT:     -14.1      0.000      0.000
REMARK SMILES Cc1ccc(N2CCC[C@@H](Cn3cc(C(=O)NCCCNC(=O)c4ccc(-c5c6nc(c(-c7c(F)c(F)c(F)c(F)c7F)c7ccc([nH]7)c(-c7c(F)c(F)c(F)c(F)c7F)c7nc(c(-c8c(F)c(F)c(F)c(F)c8F)c8ccc5[nH]8)C=C7)C=C6)cc4)nn3)C2)nn1
REMARK SMILES IDX 18 1 17 2 15 3 16 4 14 6 12 7 13 8 88 9 87 10 11 11 10 12
REMARK SMILES IDX 6 13 7 14 89 15 8 16 9 17 5 18 1 19 2 20 3 21 91 22 4 23
REMARK SMILES IDX 90 24 19 25 20 26 21 27 22 28 23 30 24 31 25 32 86 33 26 34
REMARK SMILES IDX 85 35 27 36 28 37 29 38 79 39 30 40 84 41 78 42 80 43 31 44
REMARK SMILES IDX 83 45 77 46 76 47 32 49 64 50 44 51 63 52 45 53 48 54 62 55
REMARK SMILES IDX 81 56 46 57 47 58 61 60 82 61 49 62 33 63 34 64 42 65 35 66
REMARK SMILES IDX 36 67 40 68 43 69 37 70 38 71 41 72 39 73 65 74 66 75 74 76
REMARK SMILES IDX 67 77 68 78 72 79 75 80 69 81 70 82 73 83 71 84 50 85 51 86
REMARK SMILES IDX 59 87 52 88 53 89 57 90 60 91 54 92 55 93 58 94 56 95
REMARK H PARENT 17 5 21 29 80 48 48 59
REMARK Flexibility Score: inf
ROOT
ATOM      1  C   UNL A   1      35.882  22.041  25.980  1.00  0.00     0.118 C 
ENDROOT
BRANCH   1   2
ATOM      2  N   UNL A   1      34.896  20.974  25.933  1.00  0.00    -0.351 N 
ATOM      3  C   UNL A   1      33.515  21.026  25.963  1.00  0.00     0.273 C 
ATOM      4  O   UNL A   1      32.909  19.987  25.728  1.00  0.00    -0.267 OA
ATOM      5  H   UNL A   1      35.273  20.066  25.868  1.00  0.00     0.163 HD
BRANCH   3   6
ATOM      6  C   UNL A   1      32.833  22.293  26.215  1.00  0.00     0.170 A 
ATOM      7  N   UNL A   1      31.662  24.102  26.081  1.00  0.00    -0.251 N 
ATOM      8  C   UNL A   1      32.505  23.319  25.352  1.00  0.00     0.145 A 
ATOM      9  N   UNL A   1      31.675  23.756  27.374  1.00  0.00    -0.067 NA
ATOM     10  N   UNL A   1      32.378  22.634  27.471  1.00  0.00    -0.125 NA
BRANCH   7  11
ATOM     11  C   UNL A   1      30.692  25.051  25.577  1.00  0.00     0.151 C 
BRANCH  11  12
ATOM     12  C   UNL A   1      31.297  26.395  25.122  1.00  0.00     0.030 C 
ATOM     13  N   UNL A   1      30.884  28.613  24.229  1.00  0.00    -0.355 N 
ATOM     14  C   UNL A   1      31.633  29.322  25.264  1.00  0.00     0.118 C 
ATOM     15  C   UNL A   1      30.220  27.399  24.672  1.00  0.00     0.123 C 
ATOM     16  C   UNL A   1      32.757  28.400  25.740  1.00  0.00     0.022 C 
ATOM     17  C   UNL A   1      32.217  27.036  26.183  1.00  0.00     0.009 C 
BRANCH  13  18
ATOM     18  C   UNL A   1      30.158  29.433  23.370  1.00  0.00     0.151 A 
ATOM     19  C   UNL A   1      28.037  32.049  20.802  1.00  0.00     0.069 C 
ATOM     20  C   UNL A   1      28.761  31.131  21.735  1.00  0.00     0.060 A 
ATOM     21  C   UNL A   1      28.878  31.444  23.077  1.00  0.00     0.029 A 
ATOM     22  N   UNL A   1      29.344  30.023  21.225  1.00  0.00    -0.154 NA
ATOM     23  C   UNL A   1      29.572  30.572  23.904  1.00  0.00     0.051 A 
ATOM     24  N   UNL A   1      30.056  29.174  22.049  1.00  0.00    -0.133 NA
ENDBRANCH  13  18
ENDBRANCH  11  12
ENDBRANCH   7  11
ENDBRANCH   3   6
ENDBRANCH   1   2
BRANCH   1  25
ATOM     25  C   UNL A   1      37.185  21.671  25.264  1.00  0.00     0.042 C 
BRANCH  25  26
ATOM     26  C   UNL A   1      38.346  22.536  25.722  1.00  0.00     0.118 C 
BRANCH  26  27
ATOM     27  N   UNL A   1      39.242  21.813  26.618  1.00  0.00    -0.352 N 
ATOM     28  C   UNL A   1      40.272  22.284  27.400  1.00  0.00     0.251 C 
ATOM     29  H   UNL A   1      39.086  20.842  26.674  1.00  0.00     0.163 HD
ATOM     30  O   UNL A   1      41.132  21.511  27.807  1.00  0.00    -0.269 OA
BRANCH  28  31
ATOM     31  C   UNL A   1      40.351  23.714  27.750  1.00  0.00     0.039 A 
ATOM     32  C   UNL A   1      39.224  24.527  27.589  1.00  0.00     0.014 A 
ATOM     33  C   UNL A   1      41.559  24.270  28.175  1.00  0.00     0.014 A 
ATOM     34  C   UNL A   1      39.314  25.878  27.901  1.00  0.00     0.010 A 
ATOM     35  C   UNL A   1      41.619  25.574  28.606  1.00  0.00     0.010 A 
ATOM     36  C   UNL A   1      40.515  26.388  28.418  1.00  0.00    -0.014 A 
BRANCH  36  37
ATOM     37  C   UNL A   1      40.588  27.767  28.864  1.00  0.00     0.031 A 
ATOM     38  C   UNL A   1      41.703  28.529  28.258  1.00  0.00     0.074 A 
ATOM     39  C   UNL A   1      39.660  28.367  29.634  1.00  0.00     0.049 A 
ATOM     40  N   UNL A   1      42.814  28.852  28.824  1.00  0.00    -0.248 NA
ATOM     41  C   UNL A   1      41.651  28.824  26.821  1.00  0.00     0.031 C 
ATOM     42  C   UNL A   1      38.348  27.864  30.050  1.00  0.00     0.029 A 
ATOM     43  N   UNL A   1      39.692  29.618  30.169  1.00  0.00    -0.354 N 
ATOM     44  C   UNL A   1      43.534  29.571  27.876  1.00  0.00     0.074 A 
ATOM     45  C   UNL A   1      42.861  29.354  26.623  1.00  0.00     0.031 C 
ATOM     46  C   UNL A   1      37.637  28.868  30.616  1.00  0.00     0.029 A 
ATOM     47  C   UNL A   1      38.501  30.027  30.753  1.00  0.00     0.049 A 
ATOM     48  H   UNL A   1      40.495  30.186  30.143  1.00  0.00     0.167 HD
ATOM     49  C   UNL A   1      44.471  30.477  28.271  1.00  0.00     0.037 A 
ATOM     50  C   UNL A   1      38.258  31.240  31.308  1.00  0.00     0.037 A 
ATOM     51  C   UNL A   1      44.806  30.274  29.663  1.00  0.00     0.049 A 
ATOM     52  C   UNL A   1      39.577  31.815  31.670  1.00  0.00     0.074 A 
ATOM     53  C   UNL A   1      45.376  29.251  30.396  1.00  0.00     0.029 A 
ATOM     54  N   UNL A   1      44.174  31.086  30.572  1.00  0.00    -0.354 N 
ATOM     55  N   UNL A   1      40.349  31.335  32.604  1.00  0.00    -0.248 NA
ATOM     56  C   UNL A   1      40.225  32.700  30.716  1.00  0.00     0.031 C 
ATOM     57  C   UNL A   1      44.699  29.267  31.652  1.00  0.00     0.029 A 
ATOM     58  C   UNL A   1      43.796  30.332  31.650  1.00  0.00     0.049 A 
ATOM     59  H   UNL A   1      44.018  32.052  30.465  1.00  0.00     0.167 HD
ATOM     60  C   UNL A   1      41.633  31.490  32.107  1.00  0.00     0.074 A 
ATOM     61  C   UNL A   1      41.502  32.451  31.016  1.00  0.00     0.031 C 
ATOM     62  C   UNL A   1      42.620  30.610  32.446  1.00  0.00     0.037 A 
BRANCH  49  63
ATOM     63  C   UNL A   1      44.768  31.787  27.567  1.00  0.00     0.064 A 
ATOM     64  C   UNL A   1      46.005  31.926  26.900  1.00  0.00     0.173 A 
ATOM     65  C   UNL A   1      44.059  32.990  27.768  1.00  0.00     0.173 A 
ATOM     66  F   UNL A   1      46.774  30.855  26.648  1.00  0.00    -0.203 F 
ATOM     67  C   UNL A   1      46.533  33.175  26.564  1.00  0.00     0.198 A 
ATOM     68  C   UNL A   1      44.567  34.231  27.385  1.00  0.00     0.198 A 
ATOM     69  F   UNL A   1      42.901  33.043  28.432  1.00  0.00    -0.203 F 
ATOM     70  F   UNL A   1      47.772  33.259  26.061  1.00  0.00    -0.200 F 
ATOM     71  C   UNL A   1      45.817  34.328  26.817  1.00  0.00     0.200 A 
ATOM     72  F   UNL A   1      43.861  35.339  27.652  1.00  0.00    -0.200 F 
ATOM     73  F   UNL A   1      46.347  35.531  26.559  1.00  0.00    -0.200 F 
ENDBRANCH  49  63
BRANCH  50  74
ATOM     74  C   UNL A   1      37.022  32.058  31.302  1.00  0.00     0.064 A 
ATOM     75  C   UNL A   1      36.374  32.383  32.507  1.00  0.00     0.173 A 
ATOM     76  C   UNL A   1      36.642  32.799  30.167  1.00  0.00     0.173 A 
ATOM     77  F   UNL A   1      36.699  31.747  33.642  1.00  0.00    -0.203 F 
ATOM     78  C   UNL A   1      35.448  33.429  32.586  1.00  0.00     0.198 A 
ATOM     79  C   UNL A   1      35.712  33.838  30.246  1.00  0.00     0.198 A 
ATOM     80  F   UNL A   1      37.240  32.600  28.985  1.00  0.00    -0.203 F 
ATOM     81  F   UNL A   1      34.919  33.764  33.770  1.00  0.00    -0.200 F 
ATOM     82  C   UNL A   1      35.132  34.167  31.459  1.00  0.00     0.200 A 
ATOM     83  F   UNL A   1      35.438  34.569  29.156  1.00  0.00    -0.200 F 
ATOM     84  F   UNL A   1      34.306  35.219  31.548  1.00  0.00    -0.200 F 
ENDBRANCH  50  74
BRANCH  62  85
ATOM     85  C   UNL A   1      42.374  29.701  33.621  1.00  0.00     0.064 A 
ATOM     86  C   UNL A   1      41.798  28.422  33.532  1.00  0.00     0.173 A 
ATOM     87  C   UNL A   1      42.885  30.090  34.867  1.00  0.00     0.173 A 
ATOM     88  F   UNL A   1      41.357  27.941  32.363  1.00  0.00    -0.203 F 
ATOM     89  C   UNL A   1      41.720  27.585  34.646  1.00  0.00     0.198 A 
ATOM     90  C   UNL A   1      42.841  29.239  35.967  1.00  0.00     0.198 A 
ATOM     91  F   UNL A   1      43.483  31.284  35.002  1.00  0.00    -0.203 F 
ATOM     92  F   UNL A   1      41.162  26.370  34.536  1.00  0.00    -0.200 F 
ATOM     93  C   UNL A   1      42.254  27.989  35.857  1.00  0.00     0.200 A 
ATOM     94  F   UNL A   1      43.400  29.618  37.124  1.00  0.00    -0.200 F 
ATOM     95  F   UNL A   1      42.227  27.166  36.914  1.00  0.00    -0.200 F 
ENDBRANCH  62  85
ENDBRANCH  36  37
ENDBRANCH  28  31
ENDBRANCH  26  27
ENDBRANCH  25  26
ENDBRANCH   1  25
TORSDOF 13
ENDMDL
MODEL 2
REMARK VINA RESULT:     -14.0      1.399      1.636
REMARK SMILES Cc1ccc(N2CCC[C@@H](Cn3cc(C(=O)NCCCNC(=O)c4ccc(-c5c6nc(c(-c7c(F)c(F)c(F)c(F)c7F)c7ccc([nH]7)c(-c7c(F)c(F)c(F)c(F)c7F)c7nc(c(-c8c(F)c(F)c(F)c(F)c8F)c8ccc5[nH]8)C=C7)C=C6)cc4)nn3)C2)nn1
REMARK SMILES IDX 18 1 17 2 15 3 16 4 14 6 12 7 13 8 88 9 87 10 11 11 10 12
REMARK SMILES IDX 6 13 7 14 89 15 8 16 9 17 5 18 1 19 2 20 3 21 91 22 4 23
REMARK SMILES IDX 90 24 19 25 20 26 21 27 22 28 23 30 24 31 25 32 86 33 26 34
REMARK SMILES IDX 85 35 27 36 28 37 29 38 79 39 30 40 84 41 78 42 80 43 31 44
REMARK SMILES IDX 83 45 77 46 76 47 32 49 64 50 44 51 63 52 45 53 48 54 62 55
REMARK SMILES IDX 81 56 46 57 47 58 61 60 82 61 49 62 33 63 34 64 42 65 35 66
REMARK SMILES IDX 36 67 40 68 43 69 37 70 38 71 41 72 39 73 65 74 66 75 74 76
REMARK SMILES IDX 67 77 68 78 72 79 75 80 69 81 70 82 73 83 71 84 50 85 51 86
REMARK SMILES IDX 59 87 52 88 53 89 57 90 60 91 54 92 55 93 58 94 56 95
REMARK H PARENT 17 5 21 29 80 48 48 59
REMARK Flexibility Score: inf
ROOT
ATOM      1  C   UNL A   1      37.888  22.666  25.761  1.00  0.00     0.118 C 
ENDROOT
BRANCH   1   2
ATOM      2  N   UNL A   1      37.482  22.627  24.365  1.00  0.00    -0.351 N 
ATOM      3  C   UNL A   1      36.275  22.949  23.773  1.00  0.00     0.273 C 
ATOM      4  O   UNL A   1      36.246  22.999  22.549  1.00  0.00    -0.267 OA
ATOM      5  H   UNL A   1      38.179  22.322  23.741  1.00  0.00     0.163 HD
BRANCH   3   6
ATOM      6  C   UNL A   1      35.111  23.263  24.598  1.00  0.00     0.170 A 
ATOM      7  N   UNL A   1      33.520  24.231  25.691  1.00  0.00    -0.251 N 
ATOM      8  C   UNL A   1      34.837  24.373  25.372  1.00  0.00     0.145 A 
ATOM      9  N   UNL A   1      33.075  23.007  25.383  1.00  0.00    -0.067 NA
ATOM     10  N   UNL A   1      34.037  22.404  24.695  1.00  0.00    -0.125 NA
BRANCH   7  11
ATOM     11  C   UNL A   1      32.603  25.272  26.105  1.00  0.00     0.151 C 
BRANCH  11  12
ATOM     12  C   UNL A   1      32.863  26.645  25.450  1.00  0.00     0.030 C 
ATOM     13  N   UNL A   1      31.904  28.618  24.415  1.00  0.00    -0.355 N 
ATOM     14  C   UNL A   1      32.599  29.576  25.270  1.00  0.00     0.118 C 
ATOM     15  C   UNL A   1      31.558  27.359  25.055  1.00  0.00     0.123 C 
ATOM     16  C   UNL A   1      33.935  28.954  25.678  1.00  0.00     0.022 C 
ATOM     17  C   UNL A   1      33.742  27.573  26.315  1.00  0.00     0.009 C 
BRANCH  13  18
ATOM     18  C   UNL A   1      30.933  29.174  23.586  1.00  0.00     0.151 A 
ATOM     19  C   UNL A   1      28.027  31.006  21.109  1.00  0.00     0.069 C 
ATOM     20  C   UNL A   1      29.029  30.357  22.010  1.00  0.00     0.060 A 
ATOM     21  C   UNL A   1      29.083  30.688  23.353  1.00  0.00     0.029 A 
ATOM     22  N   UNL A   1      29.911  29.486  21.472  1.00  0.00    -0.154 NA
ATOM     23  C   UNL A   1      30.039  30.073  24.149  1.00  0.00     0.051 A 
ATOM     24  N   UNL A   1      30.875  28.898  22.265  1.00  0.00    -0.133 NA
ENDBRANCH  13  18
ENDBRANCH  11  12
ENDBRANCH   7  11
ENDBRANCH   3   6
ENDBRANCH   1   2
BRANCH   1  25
ATOM     25  C   UNL A   1      38.931  21.596  26.100  1.00  0.00     0.042 C 
BRANCH  25  26
ATOM     26  C   UNL A   1      39.950  22.101  27.106  1.00  0.00     0.118 C 
BRANCH  26  27
ATOM     27  N   UNL A   1      41.297  22.133  26.546  1.00  0.00    -0.352 N 
ATOM     28  C   UNL A   1      42.102  23.208  26.250  1.00  0.00     0.251 C 
ATOM     29  H   UNL A   1      41.691  21.251  26.352  1.00  0.00     0.163 HD
ATOM     30  O   UNL A   1      43.040  23.074  25.471  1.00  0.00    -0.269 OA
BRANCH  28  31
ATOM     31  C   UNL A   1      41.843  24.526  26.860  1.00  0.00     0.039 A 
ATOM     32  C   UNL A   1      42.397  24.827  28.109  1.00  0.00     0.014 A 
ATOM     33  C   UNL A   1      40.999  25.442  26.230  1.00  0.00     0.014 A 
ATOM     34  C   UNL A   1      42.131  26.063  28.686  1.00  0.00     0.010 A 
ATOM     35  C   UNL A   1      40.837  26.710  26.734  1.00  0.00     0.010 A 
ATOM     36  C   UNL A   1      41.357  27.000  27.984  1.00  0.00    -0.014 A 
BRANCH  36  37
ATOM     37  C   UNL A   1      41.172  28.338  28.517  1.00  0.00     0.031 A 
ATOM     38  C   UNL A   1      42.239  29.286  28.126  1.00  0.00     0.074 A 
ATOM     39  C   UNL A   1      40.071  28.746  29.176  1.00  0.00     0.049 A 
ATOM     40  N   UNL A   1      43.205  29.709  28.867  1.00  0.00    -0.248 NA
ATOM     41  C   UNL A   1      42.343  29.684  26.716  1.00  0.00     0.031 C 
ATOM     42  C   UNL A   1      38.799  28.043  29.365  1.00  0.00     0.029 A 
ATOM     43  N   UNL A   1      39.852  29.945  29.783  1.00  0.00    -0.354 N 
ATOM     44  C   UNL A   1      43.937  30.588  28.077  1.00  0.00     0.074 A 
ATOM     45  C   UNL A   1      43.480  30.384  26.729  1.00  0.00     0.031 C 
ATOM     46  C   UNL A   1      37.883  28.897  29.879  1.00  0.00     0.029 A 
ATOM     47  C   UNL A   1      38.545  30.146  30.209  1.00  0.00     0.049 A 
ATOM     48  H   UNL A   1      40.561  30.615  29.908  1.00  0.00     0.167 HD
ATOM     49  C   UNL A   1      44.673  31.577  28.658  1.00  0.00     0.037 A 
ATOM     50  C   UNL A   1      38.058  31.268  30.793  1.00  0.00     0.037 A 
ATOM     51  C   UNL A   1      44.841  31.311  30.070  1.00  0.00     0.049 A 
ATOM     52  C   UNL A   1      39.220  31.983  31.378  1.00  0.00     0.074 A 
ATOM     53  C   UNL A   1      45.445  30.319  30.816  1.00  0.00     0.029 A 
ATOM     54  N   UNL A   1      43.981  31.958  30.923  1.00  0.00    -0.354 N 
ATOM     55  N   UNL A   1      39.918  31.537  32.385  1.00  0.00    -0.248 NA
ATOM     56  C   UNL A   1      39.860  33.018  30.582  1.00  0.00     0.031 C 
ATOM     57  C   UNL A   1      44.607  30.145  31.959  1.00  0.00     0.029 A 
ATOM     58  C   UNL A   1      43.570  31.078  31.887  1.00  0.00     0.049 A 
ATOM     59  H   UNL A   1      43.705  32.900  30.851  1.00  0.00     0.167 HD
ATOM     60  C   UNL A   1      41.223  31.900  32.091  1.00  0.00     0.074 A 
ATOM     61  C   UNL A   1      41.107  32.918  31.051  1.00  0.00     0.031 C 
ATOM     62  C   UNL A   1      42.269  31.135  32.518  1.00  0.00     0.037 A 
BRANCH  49  63
ATOM     63  C   UNL A   1      44.874  32.966  28.084  1.00  0.00     0.064 A 
ATOM     64  C   UNL A   1      46.183  33.366  27.734  1.00  0.00     0.173 A 
ATOM     65  C   UNL A   1      43.927  34.009  28.145  1.00  0.00     0.173 A 
ATOM     66  F   UNL A   1      47.175  32.466  27.641  1.00  0.00    -0.203 F 
ATOM     67  C   UNL A   1      46.531  34.708  27.570  1.00  0.00     0.198 A 
ATOM     68  C   UNL A   1      44.268  35.344  27.930  1.00  0.00     0.198 A 
ATOM     69  F   UNL A   1      42.659  33.812  28.516  1.00  0.00    -0.203 F 
ATOM     70  F   UNL A   1      47.815  35.043  27.379  1.00  0.00    -0.200 F 
ATOM     71  C   UNL A   1      45.575  35.698  27.679  1.00  0.00     0.200 A 
ATOM     72  F   UNL A   1      43.327  36.291  28.054  1.00  0.00    -0.200 F 
ATOM     73  F   UNL A   1      45.916  36.991  27.590  1.00  0.00    -0.200 F 
ENDBRANCH  49  63
BRANCH  50  74
ATOM     74  C   UNL A   1      36.731  31.913  30.655  1.00  0.00     0.064 A 
ATOM     75  C   UNL A   1      35.910  32.109  31.780  1.00  0.00     0.173 A 
ATOM     76  C   UNL A   1      36.387  32.633  29.496  1.00  0.00     0.173 A 
ATOM     77  F   UNL A   1      36.187  31.484  32.934  1.00  0.00    -0.203 F 
ATOM     78  C   UNL A   1      34.847  33.017  31.766  1.00  0.00     0.198 A 
ATOM     79  C   UNL A   1      35.320  33.535  29.482  1.00  0.00     0.198 A 
ATOM     80  F   UNL A   1      37.139  32.556  28.389  1.00  0.00    -0.203 F 
ATOM     81  F   UNL A   1      34.145  33.240  32.885  1.00  0.00    -0.200 F 
ATOM     82  C   UNL A   1      34.565  33.743  30.623  1.00  0.00     0.200 A 
ATOM     83  F   UNL A   1      35.076  34.259  28.380  1.00  0.00    -0.200 F 
ATOM     84  F   UNL A   1      33.598  34.672  30.632  1.00  0.00    -0.200 F 
ENDBRANCH  50  74
BRANCH  62  85
ATOM     85  C   UNL A   1      41.997  30.111  33.589  1.00  0.00     0.064 A 
ATOM     86  C   UNL A   1      41.643  28.773  33.341  1.00  0.00     0.173 A 
ATOM     87  C   UNL A   1      42.255  30.473  34.918  1.00  0.00     0.173 A 
ATOM     88  F   UNL A   1      41.457  28.326  32.093  1.00  0.00    -0.203 F 
ATOM     89  C   UNL A   1      41.533  27.851  34.382  1.00  0.00     0.198 A 
ATOM     90  C   UNL A   1      42.182  29.541  35.950  1.00  0.00     0.198 A 
ATOM     91  F   UNL A   1      42.635  31.726  35.211  1.00  0.00    -0.203 F 
ATOM     92  F   UNL A   1      41.191  26.580  34.120  1.00  0.00    -0.200 F 
ATOM     93  C   UNL A   1      41.816  28.233  35.682  1.00  0.00     0.200 A 
ATOM     94  F   UNL A   1      42.500  29.906  37.199  1.00  0.00    -0.200 F 
ATOM     95  F   UNL A   1      41.762  27.334  36.675  1.00  0.00    -0.200 F 
ENDBRANCH  62  85
ENDBRANCH  36  37
ENDBRANCH  28  31
ENDBRANCH  26  27
ENDBRANCH  25  26
ENDBRANCH   1  25
TORSDOF 13
ENDMDL
MODEL 3
REMARK VINA RESULT:     -13.9      1.309      2.350
REMARK SMILES Cc1ccc(N2CCC[C@@H](Cn3cc(C(=O)NCCCNC(=O)c4ccc(-c5c6nc(c(-c7c(F)c(F)c(F)c(F)c7F)c7ccc([nH]7)c(-c7c(F)c(F)c(F)c(F)c7F)c7nc(c(-c8c(F)c(F)c(F)c(F)c8F)c8ccc5[nH]8)C=C7)C=C6)cc4)nn3)C2)nn1
REMARK SMILES IDX 18 1 17 2 15 3 16 4 14 6 12 7 13 8 88 9 87 10 11 11 10 12
REMARK SMILES IDX 6 13 7 14 89 15 8 16 9 17 5 18 1 19 2 20 3 21 91 22 4 23
REMARK SMILES IDX 90 24 19 25 20 26 21 27 22 28 23 30 24 31 25 32 86 33 26 34
REMARK SMILES IDX 85 35 27 36 28 37 29 38 79 39 30 40 84 41 78 42 80 43 31 44
REMARK SMILES IDX 83 45 77 46 76 47 32 49 64 50 44 51 63 52 45 53 48 54 62 55
REMARK SMILES IDX 81 56 46 57 47 58 61 60 82 61 49 62 33 63 34 64 42 65 35 66
REMARK SMILES IDX 36 67 40 68 43 69 37 70 38 71 41 72 39 73 65 74 66 75 74 76
REMARK SMILES IDX 67 77 68 78 72 79 75 80 69 81 70 82 73 83 71 84 50 85 51 86
REMARK SMILES IDX 59 87 52 88 53 89 57 90 60 91 54 92 55 93 58 94 56 95
REMARK H PARENT 17 5 21 29 80 48 48 59
REMARK Flexibility Score: inf
ROOT
ATOM      1  C   UNL A   1      35.642  22.292  25.919  1.00  0.00     0.118 C 
ENDROOT
BRANCH   1   2
ATOM      2  N   UNL A   1      34.787  21.116  25.886  1.00  0.00    -0.351 N 
ATOM      3  C   UNL A   1      33.413  21.002  25.986  1.00  0.00     0.273 C 
ATOM      4  O   UNL A   1      32.923  19.904  25.748  1.00  0.00    -0.267 OA
ATOM      5  H   UNL A   1      35.265  20.262  25.775  1.00  0.00     0.163 HD
BRANCH   3   6
ATOM      6  C   UNL A   1      32.600  22.171  26.310  1.00  0.00     0.170 A 
ATOM      7  N   UNL A   1      31.098  23.720  26.385  1.00  0.00    -0.251 N 
ATOM      8  C   UNL A   1      31.803  22.958  25.503  1.00  0.00     0.145 A 
ATOM      9  N   UNL A   1      31.601  23.623  27.622  1.00  0.00    -0.067 NA
ATOM     10  N   UNL A   1      32.516  22.662  27.596  1.00  0.00    -0.125 NA
BRANCH   7  11
ATOM     11  C   UNL A   1      29.840  24.397  26.147  1.00  0.00     0.151 C 
BRANCH  11  12
ATOM     12  C   UNL A   1      29.986  25.859  25.677  1.00  0.00     0.030 C 
ATOM     13  N   UNL A   1      31.411  27.819  25.538  1.00  0.00    -0.355 N 
ATOM     14  C   UNL A   1      31.242  28.012  24.100  1.00  0.00     0.118 C 
ATOM     15  C   UNL A   1      31.382  26.434  25.981  1.00  0.00     0.123 C 
ATOM     16  C   UNL A   1      29.853  27.499  23.720  1.00  0.00     0.022 C 
ATOM     17  C   UNL A   1      29.639  26.054  24.185  1.00  0.00     0.009 C 
BRANCH  13  18
ATOM     18  C   UNL A   1      32.374  28.632  26.127  1.00  0.00     0.151 A 
ATOM     19  C   UNL A   1      35.412  31.047  27.824  1.00  0.00     0.069 C 
ATOM     20  C   UNL A   1      34.346  30.169  27.250  1.00  0.00     0.060 A 
ATOM     21  C   UNL A   1      34.526  28.799  27.181  1.00  0.00     0.029 A 
ATOM     22  N   UNL A   1      33.231  30.750  26.753  1.00  0.00    -0.154 NA
ATOM     23  C   UNL A   1      33.517  28.024  26.626  1.00  0.00     0.051 A 
ATOM     24  N   UNL A   1      32.244  29.975  26.179  1.00  0.00    -0.133 NA
ENDBRANCH  13  18
ENDBRANCH  11  12
ENDBRANCH   7  11
ENDBRANCH   3   6
ENDBRANCH   1   2
BRANCH   1  25
ATOM     25  C   UNL A   1      36.901  22.128  25.062  1.00  0.00     0.042 C 
BRANCH  25  26
ATOM     26  C   UNL A   1      38.058  22.953  25.597  1.00  0.00     0.118 C 
BRANCH  26  27
ATOM     27  N   UNL A   1      38.909  22.178  26.495  1.00  0.00    -0.352 N 
ATOM     28  C   UNL A   1      39.972  22.584  27.268  1.00  0.00     0.251 C 
ATOM     29  H   UNL A   1      38.688  21.220  26.558  1.00  0.00     0.163 HD
ATOM     30  O   UNL A   1      40.781  21.759  27.677  1.00  0.00    -0.269 OA
BRANCH  28  31
ATOM     31  C   UNL A   1      40.149  24.009  27.607  1.00  0.00     0.039 A 
ATOM     32  C   UNL A   1      39.135  24.922  27.297  1.00  0.00     0.014 A 
ATOM     33  C   UNL A   1      41.344  24.456  28.173  1.00  0.00     0.014 A 
ATOM     34  C   UNL A   1      39.319  26.265  27.600  1.00  0.00     0.010 A 
ATOM     35  C   UNL A   1      41.479  25.758  28.592  1.00  0.00     0.010 A 
ATOM     36  C   UNL A   1      40.491  26.670  28.258  1.00  0.00    -0.014 A 
BRANCH  36  37
ATOM     37  C   UNL A   1      40.646  28.046  28.692  1.00  0.00     0.031 A 
ATOM     38  C   UNL A   1      41.818  28.729  28.101  1.00  0.00     0.074 A 
ATOM     39  C   UNL A   1      39.743  28.712  29.438  1.00  0.00     0.049 A 
ATOM     40  N   UNL A   1      42.937  28.986  28.685  1.00  0.00    -0.248 NA
ATOM     41  C   UNL A   1      41.812  29.011  26.660  1.00  0.00     0.031 C 
ATOM     42  C   UNL A   1      38.394  28.299  29.833  1.00  0.00     0.029 A 
ATOM     43  N   UNL A   1      39.846  29.964  29.962  1.00  0.00    -0.354 N 
ATOM     44  C   UNL A   1      43.719  29.646  27.744  1.00  0.00     0.074 A 
ATOM     45  C   UNL A   1      43.057  29.460  26.480  1.00  0.00     0.031 C 
ATOM     46  C   UNL A   1      37.739  29.353  30.375  1.00  0.00     0.029 A 
ATOM     47  C   UNL A   1      38.673  30.456  30.518  1.00  0.00     0.049 A 
ATOM     48  H   UNL A   1      40.685  30.480  29.946  1.00  0.00     0.167 HD
ATOM     49  C   UNL A   1      44.705  30.494  28.149  1.00  0.00     0.037 A 
ATOM     50  C   UNL A   1      38.498  31.687  31.058  1.00  0.00     0.037 A 
ATOM     51  C   UNL A   1      45.001  30.285  29.549  1.00  0.00     0.049 A 
ATOM     52  C   UNL A   1      39.845  32.180  31.440  1.00  0.00     0.074 A 
ATOM     53  C   UNL A   1      45.490  29.235  30.302  1.00  0.00     0.029 A 
ATOM     54  N   UNL A   1      44.405  31.145  30.438  1.00  0.00    -0.354 N 
ATOM     55  N   UNL A   1      40.567  31.661  32.393  1.00  0.00    -0.248 NA
ATOM     56  C   UNL A   1      40.567  33.011  30.490  1.00  0.00     0.031 C 
ATOM     57  C   UNL A   1      44.791  29.308  31.545  1.00  0.00     0.029 A 
ATOM     58  C   UNL A   1      43.959  30.429  31.515  1.00  0.00     0.049 A 
ATOM     59  H   UNL A   1      44.314  32.118  30.319  1.00  0.00     0.167 HD
ATOM     60  C   UNL A   1      41.867  31.728  31.920  1.00  0.00     0.074 A 
ATOM     61  C   UNL A   1      41.819  32.684  30.818  1.00  0.00     0.031 C 
ATOM     62  C   UNL A   1      42.789  30.790  32.286  1.00  0.00     0.037 A 
BRANCH  49  63
ATOM     63  C   UNL A   1      45.099  31.775  27.439  1.00  0.00     0.064 A 
ATOM     64  C   UNL A   1      46.386  31.855  26.863  1.00  0.00     0.173 A 
ATOM     65  C   UNL A   1      44.420  33.006  27.557  1.00  0.00     0.173 A 
ATOM     66  F   UNL A   1      47.134  30.753  26.694  1.00  0.00    -0.203 F 
ATOM     67  C   UNL A   1      46.981  33.077  26.538  1.00  0.00     0.198 A 
ATOM     68  C   UNL A   1      44.998  34.219  27.185  1.00  0.00     0.198 A 
ATOM     69  F   UNL A   1      43.219  33.115  28.132  1.00  0.00    -0.203 F 
ATOM     70  F   UNL A   1      48.256  33.107  26.127  1.00  0.00    -0.200 F 
ATOM     71  C   UNL A   1      46.290  34.260  26.710  1.00  0.00     0.200 A 
ATOM     72  F   UNL A   1      44.314  35.357  27.372  1.00  0.00    -0.200 F 
ATOM     73  F   UNL A   1      46.879  35.437  26.464  1.00  0.00    -0.200 F 
ENDBRANCH  49  63
BRANCH  50  74
ATOM     74  C   UNL A   1      37.318  32.583  31.020  1.00  0.00     0.064 A 
ATOM     75  C   UNL A   1      37.042  33.353  29.876  1.00  0.00     0.173 A 
ATOM     76  C   UNL A   1      36.275  32.456  31.956  1.00  0.00     0.173 A 
ATOM     77  F   UNL A   1      37.971  33.499  28.919  1.00  0.00    -0.203 F 
ATOM     78  C   UNL A   1      35.779  33.912  29.652  1.00  0.00     0.198 A 
ATOM     79  C   UNL A   1      35.016  33.021  31.734  1.00  0.00     0.198 A 
ATOM     80  F   UNL A   1      36.422  31.698  33.051  1.00  0.00    -0.203 F 
ATOM     81  F   UNL A   1      35.531  34.565  28.509  1.00  0.00    -0.200 F 
ATOM     82  C   UNL A   1      34.762  33.729  30.572  1.00  0.00     0.200 A 
ATOM     83  F   UNL A   1      34.028  32.808  32.615  1.00  0.00    -0.200 F 
ATOM     84  F   UNL A   1      33.530  34.194  30.322  1.00  0.00    -0.200 F 
ENDBRANCH  50  74
BRANCH  62  85
ATOM     85  C   UNL A   1      42.462  29.911  33.465  1.00  0.00     0.064 A 
ATOM     86  C   UNL A   1      41.837  28.655  33.373  1.00  0.00     0.173 A 
ATOM     87  C   UNL A   1      42.944  30.299  34.722  1.00  0.00     0.173 A 
ATOM     88  F   UNL A   1      41.419  28.174  32.196  1.00  0.00    -0.203 F 
ATOM     89  C   UNL A   1      41.684  27.841  34.495  1.00  0.00     0.198 A 
ATOM     90  C   UNL A   1      42.825  29.468  35.832  1.00  0.00     0.198 A 
ATOM     91  F   UNL A   1      43.586  31.470  34.862  1.00  0.00    -0.203 F 
ATOM     92  F   UNL A   1      41.080  26.648  34.383  1.00  0.00    -0.200 F 
ATOM     93  C   UNL A   1      42.190  28.243  35.719  1.00  0.00     0.200 A 
ATOM     94  F   UNL A   1      43.357  29.843  37.003  1.00  0.00    -0.200 F 
ATOM     95  F   UNL A   1      42.091  27.438  36.787  1.00  0.00    -0.200 F 
ENDBRANCH  62  85
ENDBRANCH  36  37
ENDBRANCH  28  31
ENDBRANCH  26  27
ENDBRANCH  25  26
ENDBRANCH   1  25
TORSDOF 13
ENDMDL
