MODEL 1
REMARK VINA RESULT:     -11.5      0.000      0.000
REMARK SMILES CC(=O)N1CCC[C@H]([N@@H+](CC(=O)NCCCNC(=O)c2ccc(-c3c4nc(c(-c5c(F)c(F)c(F)c(F)c5F)c5ccc([nH]5)c(-c5c(F)c(F)c(F)c(F)c5F)c5nc(c(-c6c(F)c(F)c(F)c(F)c6F)c6ccc3[nH]6)C=C5)C=C4)cc2)C(C)C)C1
REMARK SMILES IDX 14 1 13 2 11 3 12 4 10 6 9 7 8 9 4 10 5 11 86 12 6 13 7 14
REMARK SMILES IDX 2 15 1 16 3 17 83 18 84 19 85 20 15 21 16 22 17 23 18 24
REMARK SMILES IDX 19 26 20 27 21 28 82 29 22 30 81 31 23 32 24 33 25 34 75 35
REMARK SMILES IDX 26 36 80 37 74 38 76 39 27 40 79 41 73 42 72 43 28 45 60 46
REMARK SMILES IDX 40 47 59 48 41 49 44 50 58 51 77 52 42 53 43 54 57 56 78 57
REMARK SMILES IDX 45 58 29 59 30 60 38 61 31 62 32 63 36 64 39 65 33 66 34 67
REMARK SMILES IDX 37 68 35 69 61 70 62 71 70 72 63 73 64 74 68 75 71 76 65 77
REMARK SMILES IDX 66 78 69 79 67 80 46 81 47 82 55 83 48 84 49 85 53 86 56 87
REMARK SMILES IDX 50 88 51 89 54 90 52 91
REMARK H PARENT 13 5 9 8 17 25 76 44 44 55
REMARK Flexibility Score: inf
ROOT
ATOM      1  C   UNL A   1      31.173  31.223  26.086  1.00  0.00     0.118 C 
ENDROOT
BRANCH   1   2
ATOM      2  N   UNL A   1      32.000  30.269  26.816  1.00  0.00    -0.351 N 
ATOM      3  C   UNL A   1      32.361  28.972  26.555  1.00  0.00     0.275 C 
ATOM      4  O   UNL A   1      33.243  28.486  27.269  1.00  0.00    -0.269 OA
ATOM      5  H   UNL A   1      32.371  30.624  27.655  1.00  0.00     0.163 HD
BRANCH   3   6
ATOM      6  C   UNL A   1      31.650  28.138  25.482  1.00  0.00     0.364 C 
BRANCH   6   7
ATOM      7  N   UNL A   1      32.076  28.432  24.083  1.00  0.00    -0.321 N 
ATOM      8  H   UNL A   1      32.375  29.406  24.033  1.00  0.00     0.349 HD
BRANCH   7   9
ATOM      9  C   UNL A   1      30.960  28.544  23.125  1.00  0.00     0.204 C 
ATOM     10  N   UNL A   1      28.755  29.914  23.233  1.00  0.00    -0.337 N 
ATOM     11  C   UNL A   1      28.021  28.699  22.913  1.00  0.00     0.120 C 
ATOM     12  C   UNL A   1      30.200  29.897  23.099  1.00  0.00     0.184 C 
ATOM     13  C   UNL A   1      28.674  27.462  23.501  1.00  0.00     0.028 C 
ATOM     14  C   UNL A   1      30.083  27.296  22.966  1.00  0.00     0.069 C 
BRANCH  10  15
ATOM     15  C   UNL A   1      28.032  31.096  23.367  1.00  0.00     0.219 C 
ATOM     16  C   UNL A   1      28.631  32.393  22.859  1.00  0.00     0.114 C 
ATOM     17  O   UNL A   1      26.905  31.123  23.866  1.00  0.00    -0.275 OA
ENDBRANCH  10  15
ENDBRANCH   7   9
BRANCH   7  18
ATOM     18  C   UNL A   1      33.385  27.882  23.697  1.00  0.00     0.178 C 
ATOM     19  C   UNL A   1      33.653  26.405  23.996  1.00  0.00     0.075 C 
ATOM     20  C   UNL A   1      33.704  28.164  22.221  1.00  0.00     0.075 C 
ENDBRANCH   7  18
ENDBRANCH   6   7
ENDBRANCH   3   6
ENDBRANCH   1   2
BRANCH   1  21
ATOM     21  C   UNL A   1      31.303  32.699  26.503  1.00  0.00     0.042 C 
BRANCH  21  22
ATOM     22  C   UNL A   1      32.580  33.099  27.250  1.00  0.00     0.118 C 
BRANCH  22  23
ATOM     23  N   UNL A   1      32.521  34.451  27.771  1.00  0.00    -0.352 N 
ATOM     24  C   UNL A   1      33.192  35.045  28.808  1.00  0.00     0.251 C 
ATOM     25  H   UNL A   1      31.891  35.043  27.300  1.00  0.00     0.163 HD
ATOM     26  O   UNL A   1      32.829  36.171  29.167  1.00  0.00    -0.269 OA
BRANCH  24  27
ATOM     27  C   UNL A   1      34.320  34.402  29.531  1.00  0.00     0.039 A 
ATOM     28  C   UNL A   1      35.602  34.541  28.982  1.00  0.00     0.014 A 
ATOM     29  C   UNL A   1      34.144  33.562  30.637  1.00  0.00     0.014 A 
ATOM     30  C   UNL A   1      36.695  33.860  29.534  1.00  0.00     0.010 A 
ATOM     31  C   UNL A   1      35.248  32.909  31.213  1.00  0.00     0.010 A 
ATOM     32  C   UNL A   1      36.532  33.037  30.658  1.00  0.00    -0.014 A 
BRANCH  32  33
ATOM     33  C   UNL A   1      37.700  32.295  31.215  1.00  0.00     0.031 A 
ATOM     34  C   UNL A   1      38.208  32.583  32.604  1.00  0.00     0.074 A 
ATOM     35  C   UNL A   1      38.303  31.336  30.484  1.00  0.00     0.049 A 
ATOM     36  N   UNL A   1      39.190  32.014  33.264  1.00  0.00    -0.248 NA
ATOM     37  C   UNL A   1      37.527  33.651  33.350  1.00  0.00     0.031 C 
ATOM     38  C   UNL A   1      37.927  30.954  29.124  1.00  0.00     0.029 A 
ATOM     39  N   UNL A   1      39.358  30.508  30.784  1.00  0.00    -0.354 N 
ATOM     40  C   UNL A   1      39.245  32.656  34.495  1.00  0.00     0.074 A 
ATOM     41  C   UNL A   1      38.222  33.680  34.480  1.00  0.00     0.031 C 
ATOM     42  C   UNL A   1      38.730  29.960  28.711  1.00  0.00     0.029 A 
ATOM     43  C   UNL A   1      39.692  29.649  29.765  1.00  0.00     0.049 A 
ATOM     44  H   UNL A   1      39.829  30.529  31.648  1.00  0.00     0.167 HD
ATOM     45  C   UNL A   1      40.062  32.406  35.549  1.00  0.00     0.037 A 
ATOM     46  C   UNL A   1      40.663  28.719  29.686  1.00  0.00     0.037 A 
ATOM     47  C   UNL A   1      41.073  31.380  35.584  1.00  0.00     0.049 A 
ATOM     48  C   UNL A   1      41.572  28.478  30.862  1.00  0.00     0.074 A 
ATOM     49  C   UNL A   1      41.913  31.032  36.630  1.00  0.00     0.029 A 
ATOM     50  N   UNL A   1      41.386  30.541  34.528  1.00  0.00    -0.354 N 
ATOM     51  N   UNL A   1      41.572  29.051  32.039  1.00  0.00    -0.248 NA
ATOM     52  C   UNL A   1      42.612  27.450  30.698  1.00  0.00     0.031 C 
ATOM     53  C   UNL A   1      42.759  30.007  36.194  1.00  0.00     0.029 A 
ATOM     54  C   UNL A   1      42.419  29.689  34.890  1.00  0.00     0.049 A 
ATOM     55  H   UNL A   1      40.941  30.547  33.649  1.00  0.00     0.167 HD
ATOM     56  C   UNL A   1      42.588  28.440  32.762  1.00  0.00     0.074 A 
ATOM     57  C   UNL A   1      43.177  27.441  31.897  1.00  0.00     0.031 C 
ATOM     58  C   UNL A   1      42.995  28.688  34.031  1.00  0.00     0.037 A 
BRANCH  45  59
ATOM     59  C   UNL A   1      39.898  33.258  36.773  1.00  0.00     0.064 A 
ATOM     60  C   UNL A   1      38.955  32.943  37.762  1.00  0.00     0.173 A 
ATOM     61  C   UNL A   1      40.738  34.360  36.992  1.00  0.00     0.173 A 
ATOM     62  F   UNL A   1      38.126  31.901  37.595  1.00  0.00    -0.203 F 
ATOM     63  C   UNL A   1      38.846  33.711  38.918  1.00  0.00     0.198 A 
ATOM     64  C   UNL A   1      40.642  35.113  38.160  1.00  0.00     0.198 A 
ATOM     65  F   UNL A   1      41.666  34.695  36.083  1.00  0.00    -0.203 F 
ATOM     66  F   UNL A   1      37.917  33.410  39.835  1.00  0.00    -0.200 F 
ATOM     67  C   UNL A   1      39.694  34.791  39.119  1.00  0.00     0.200 A 
ATOM     68  F   UNL A   1      41.472  36.146  38.360  1.00  0.00    -0.200 F 
ATOM     69  F   UNL A   1      39.595  35.522  40.238  1.00  0.00    -0.200 F 
ENDBRANCH  45  59
BRANCH  46  70
ATOM     70  C   UNL A   1      40.825  27.924  28.441  1.00  0.00     0.064 A 
ATOM     71  C   UNL A   1      40.213  26.671  28.301  1.00  0.00     0.173 A 
ATOM     72  C   UNL A   1      41.612  28.391  27.379  1.00  0.00     0.173 A 
ATOM     73  F   UNL A   1      39.473  26.171  29.302  1.00  0.00    -0.203 F 
ATOM     74  C   UNL A   1      40.395  25.907  27.151  1.00  0.00     0.198 A 
ATOM     75  C   UNL A   1      41.773  27.637  26.219  1.00  0.00     0.198 A 
ATOM     76  F   UNL A   1      42.219  29.583  27.466  1.00  0.00    -0.203 F 
ATOM     77  F   UNL A   1      39.836  24.693  27.059  1.00  0.00    -0.200 F 
ATOM     78  C   UNL A   1      41.172  26.392  26.108  1.00  0.00     0.200 A 
ATOM     79  F   UNL A   1      42.515  28.114  25.210  1.00  0.00    -0.200 F 
ATOM     80  F   UNL A   1      41.347  25.658  25.003  1.00  0.00    -0.200 F 
ENDBRANCH  46  70
BRANCH  58  81
ATOM     81  C   UNL A   1      44.109  27.845  34.577  1.00  0.00     0.064 A 
ATOM     82  C   UNL A   1      45.450  28.243  34.476  1.00  0.00     0.173 A 
ATOM     83  C   UNL A   1      43.830  26.641  35.242  1.00  0.00     0.173 A 
ATOM     84  F   UNL A   1      45.769  29.377  33.835  1.00  0.00    -0.203 F 
ATOM     85  C   UNL A   1      46.472  27.457  35.001  1.00  0.00     0.198 A 
ATOM     86  C   UNL A   1      44.851  25.869  35.787  1.00  0.00     0.198 A 
ATOM     87  F   UNL A   1      42.563  26.218  35.370  1.00  0.00    -0.203 F 
ATOM     88  F   UNL A   1      47.749  27.837  34.856  1.00  0.00    -0.200 F 
ATOM     89  C   UNL A   1      46.172  26.274  35.662  1.00  0.00     0.200 A 
ATOM     90  F   UNL A   1      44.560  24.731  36.432  1.00  0.00    -0.200 F 
ATOM     91  F   UNL A   1      47.157  25.521  36.170  1.00  0.00    -0.200 F 
ENDBRANCH  58  81
ENDBRANCH  32  33
ENDBRANCH  24  27
ENDBRANCH  22  23
ENDBRANCH  21  22
ENDBRANCH   1  21
TORSDOF 14
ENDMDL
MODEL 2
REMARK VINA RESULT:     -11.5      6.363     11.383
REMARK SMILES CC(=O)N1CCC[C@H]([N@@H+](CC(=O)NCCCNC(=O)c2ccc(-c3c4nc(c(-c5c(F)c(F)c(F)c(F)c5F)c5ccc([nH]5)c(-c5c(F)c(F)c(F)c(F)c5F)c5nc(c(-c6c(F)c(F)c(F)c(F)c6F)c6ccc3[nH]6)C=C5)C=C4)cc2)C(C)C)C1
REMARK SMILES IDX 14 1 13 2 11 3 12 4 10 6 9 7 8 9 4 10 5 11 86 12 6 13 7 14
REMARK SMILES IDX 2 15 1 16 3 17 83 18 84 19 85 20 15 21 16 22 17 23 18 24
REMARK SMILES IDX 19 26 20 27 21 28 82 29 22 30 81 31 23 32 24 33 25 34 75 35
REMARK SMILES IDX 26 36 80 37 74 38 76 39 27 40 79 41 73 42 72 43 28 45 60 46
REMARK SMILES IDX 40 47 59 48 41 49 44 50 58 51 77 52 42 53 43 54 57 56 78 57
REMARK SMILES IDX 45 58 29 59 30 60 38 61 31 62 32 63 36 64 39 65 33 66 34 67
REMARK SMILES IDX 37 68 35 69 61 70 62 71 70 72 63 73 64 74 68 75 71 76 65 77
REMARK SMILES IDX 66 78 69 79 67 80 46 81 47 82 55 83 48 84 49 85 53 86 56 87
REMARK SMILES IDX 50 88 51 89 54 90 52 91
REMARK H PARENT 13 5 9 8 17 25 76 44 44 55
REMARK Flexibility Score: inf
ROOT
ATOM      1  C   UNL A   1      37.065  20.032  24.846  1.00  0.00     0.118 C 
ENDROOT
BRANCH   1   2
ATOM      2  N   UNL A   1      37.312  21.454  24.636  1.00  0.00    -0.351 N 
ATOM      3  C   UNL A   1      36.470  22.530  24.524  1.00  0.00     0.275 C 
ATOM      4  O   UNL A   1      36.991  23.648  24.549  1.00  0.00    -0.269 OA
ATOM      5  H   UNL A   1      38.266  21.686  24.561  1.00  0.00     0.163 HD
BRANCH   3   6
ATOM      6  C   UNL A   1      34.963  22.353  24.298  1.00  0.00     0.364 C 
BRANCH   6   7
ATOM      7  N   UNL A   1      34.211  21.859  25.488  1.00  0.00    -0.321 N 
ATOM      8  H   UNL A   1      34.825  21.253  26.032  1.00  0.00     0.349 HD
BRANCH   7   9
ATOM      9  C   UNL A   1      33.194  20.838  25.174  1.00  0.00     0.204 C 
ATOM     10  N   UNL A   1      33.387  18.574  23.914  1.00  0.00    -0.337 N 
ATOM     11  C   UNL A   1      32.265  18.977  23.080  1.00  0.00     0.120 C 
ATOM     12  C   UNL A   1      33.686  19.369  25.091  1.00  0.00     0.184 C 
ATOM     13  C   UNL A   1      32.248  20.473  22.827  1.00  0.00     0.028 C 
ATOM     14  C   UNL A   1      32.140  21.236  24.133  1.00  0.00     0.069 C 
BRANCH  10  15
ATOM     15  C   UNL A   1      33.925  17.305  23.715  1.00  0.00     0.219 C 
ATOM     16  C   UNL A   1      34.497  16.547  24.897  1.00  0.00     0.114 C 
ATOM     17  O   UNL A   1      33.932  16.763  22.608  1.00  0.00    -0.275 OA
ENDBRANCH  10  15
ENDBRANCH   7   9
BRANCH   7  18
ATOM     18  C   UNL A   1      34.024  22.843  26.565  1.00  0.00     0.178 C 
ATOM     19  C   UNL A   1      33.323  24.158  26.216  1.00  0.00     0.075 C 
ATOM     20  C   UNL A   1      33.340  22.218  27.790  1.00  0.00     0.075 C 
ENDBRANCH   7  18
ENDBRANCH   6   7
ENDBRANCH   3   6
ENDBRANCH   1   2
BRANCH   1  21
ATOM     21  C   UNL A   1      38.307  19.145  25.050  1.00  0.00     0.042 C 
BRANCH  21  22
ATOM     22  C   UNL A   1      39.478  19.758  25.827  1.00  0.00     0.118 C 
BRANCH  22  23
ATOM     23  N   UNL A   1      40.624  18.873  25.898  1.00  0.00    -0.352 N 
ATOM     24  C   UNL A   1      41.957  19.141  26.068  1.00  0.00     0.251 C 
ATOM     25  H   UNL A   1      40.408  17.917  25.809  1.00  0.00     0.163 HD
ATOM     26  O   UNL A   1      42.761  18.214  25.914  1.00  0.00    -0.269 OA
BRANCH  24  27
ATOM     27  C   UNL A   1      42.487  20.486  26.411  1.00  0.00     0.039 A 
ATOM     28  C   UNL A   1      42.344  20.919  27.736  1.00  0.00     0.014 A 
ATOM     29  C   UNL A   1      42.986  21.381  25.457  1.00  0.00     0.014 A 
ATOM     30  C   UNL A   1      42.702  22.221  28.108  1.00  0.00     0.010 A 
ATOM     31  C   UNL A   1      43.381  22.676  25.838  1.00  0.00     0.010 A 
ATOM     32  C   UNL A   1      43.228  23.115  27.164  1.00  0.00    -0.014 A 
BRANCH  32  33
ATOM     33  C   UNL A   1      43.577  24.508  27.569  1.00  0.00     0.031 A 
ATOM     34  C   UNL A   1      45.012  24.961  27.623  1.00  0.00     0.074 A 
ATOM     35  C   UNL A   1      42.601  25.388  27.871  1.00  0.00     0.049 A 
ATOM     36  N   UNL A   1      45.500  26.143  27.921  1.00  0.00    -0.248 NA
ATOM     37  C   UNL A   1      46.036  23.956  27.304  1.00  0.00     0.031 C 
ATOM     38  C   UNL A   1      41.169  25.091  27.870  1.00  0.00     0.029 A 
ATOM     39  N   UNL A   1      42.666  26.712  28.235  1.00  0.00    -0.354 N 
ATOM     40  C   UNL A   1      46.881  26.021  27.829  1.00  0.00     0.074 A 
ATOM     41  C   UNL A   1      47.158  24.643  27.481  1.00  0.00     0.031 C 
ATOM     42  C   UNL A   1      40.491  26.201  28.205  1.00  0.00     0.029 A 
ATOM     43  C   UNL A   1      41.439  27.282  28.468  1.00  0.00     0.049 A 
ATOM     44  H   UNL A   1      43.515  27.204  28.322  1.00  0.00     0.167 HD
ATOM     45  C   UNL A   1      47.832  26.972  28.002  1.00  0.00     0.037 A 
ATOM     46  C   UNL A   1      41.110  28.531  28.851  1.00  0.00     0.037 A 
ATOM     47  C   UNL A   1      47.571  28.350  28.333  1.00  0.00     0.049 A 
ATOM     48  C   UNL A   1      42.188  29.562  29.060  1.00  0.00     0.074 A 
ATOM     49  C   UNL A   1      48.477  29.388  28.482  1.00  0.00     0.029 A 
ATOM     50  N   UNL A   1      46.314  28.882  28.570  1.00  0.00    -0.354 N 
ATOM     51  N   UNL A   1      43.484  29.446  28.910  1.00  0.00    -0.248 NA
ATOM     52  C   UNL A   1      41.752  30.901  29.484  1.00  0.00     0.031 C 
ATOM     53  C   UNL A   1      47.771  30.540  28.846  1.00  0.00     0.029 A 
ATOM     54  C   UNL A   1      46.422  30.229  28.884  1.00  0.00     0.049 A 
ATOM     55  H   UNL A   1      45.469  28.380  28.524  1.00  0.00     0.167 HD
ATOM     56  C   UNL A   1      44.013  30.698  29.193  1.00  0.00     0.074 A 
ATOM     57  C   UNL A   1      42.900  31.564  29.513  1.00  0.00     0.031 C 
ATOM     58  C   UNL A   1      45.311  31.091  29.190  1.00  0.00     0.037 A 
BRANCH  45  59
ATOM     59  C   UNL A   1      49.265  26.561  27.832  1.00  0.00     0.064 A 
ATOM     60  C   UNL A   1      49.841  26.429  26.560  1.00  0.00     0.173 A 
ATOM     61  C   UNL A   1      50.088  26.365  28.951  1.00  0.00     0.173 A 
ATOM     62  F   UNL A   1      49.094  26.602  25.460  1.00  0.00    -0.203 F 
ATOM     63  C   UNL A   1      51.186  26.097  26.415  1.00  0.00     0.198 A 
ATOM     64  C   UNL A   1      51.438  26.055  28.802  1.00  0.00     0.198 A 
ATOM     65  F   UNL A   1      49.588  26.494  30.190  1.00  0.00    -0.203 F 
ATOM     66  F   UNL A   1      51.708  25.945  25.190  1.00  0.00    -0.200 F 
ATOM     67  C   UNL A   1      51.983  25.917  27.535  1.00  0.00     0.200 A 
ATOM     68  F   UNL A   1      52.211  25.897  29.885  1.00  0.00    -0.200 F 
ATOM     69  F   UNL A   1      53.280  25.609  27.392  1.00  0.00    -0.200 F 
ENDBRANCH  45  59
BRANCH  46  70
ATOM     70  C   UNL A   1      39.683  28.891  29.054  1.00  0.00     0.064 A 
ATOM     71  C   UNL A   1      39.078  28.760  30.312  1.00  0.00     0.173 A 
ATOM     72  C   UNL A   1      38.892  29.349  27.992  1.00  0.00     0.173 A 
ATOM     73  F   UNL A   1      39.789  28.299  31.352  1.00  0.00    -0.203 F 
ATOM     74  C   UNL A   1      37.730  29.059  30.496  1.00  0.00     0.198 A 
ATOM     75  C   UNL A   1      37.550  29.672  28.182  1.00  0.00     0.198 A 
ATOM     76  F   UNL A   1      39.424  29.490  26.770  1.00  0.00    -0.203 F 
ATOM     77  F   UNL A   1      37.165  28.883  31.697  1.00  0.00    -0.200 F 
ATOM     78  C   UNL A   1      36.968  29.519  29.431  1.00  0.00     0.200 A 
ATOM     79  F   UNL A   1      36.820  30.126  27.154  1.00  0.00    -0.200 F 
ATOM     80  F   UNL A   1      35.672  29.807  29.609  1.00  0.00    -0.200 F 
ENDBRANCH  46  70
BRANCH  58  81
ATOM     81  C   UNL A   1      45.598  32.529  29.508  1.00  0.00     0.064 A 
ATOM     82  C   UNL A   1      45.604  33.515  28.511  1.00  0.00     0.173 A 
ATOM     83  C   UNL A   1      45.836  32.931  30.831  1.00  0.00     0.173 A 
ATOM     84  F   UNL A   1      45.400  33.179  27.229  1.00  0.00    -0.203 F 
ATOM     85  C   UNL A   1      45.858  34.848  28.824  1.00  0.00     0.198 A 
ATOM     86  C   UNL A   1      46.065  34.267  31.145  1.00  0.00     0.198 A 
ATOM     87  F   UNL A   1      45.836  32.026  31.822  1.00  0.00    -0.203 F 
ATOM     88  F   UNL A   1      45.900  35.767  27.850  1.00  0.00    -0.200 F 
ATOM     89  C   UNL A   1      46.082  35.225  30.141  1.00  0.00     0.200 A 
ATOM     90  F   UNL A   1      46.273  34.630  32.418  1.00  0.00    -0.200 F 
ATOM     91  F   UNL A   1      46.322  36.508  30.441  1.00  0.00    -0.200 F 
ENDBRANCH  58  81
ENDBRANCH  32  33
ENDBRANCH  24  27
ENDBRANCH  22  23
ENDBRANCH  21  22
ENDBRANCH   1  21
TORSDOF 14
ENDMDL
MODEL 3
REMARK VINA RESULT:     -11.4      2.866      4.695
REMARK SMILES CC(=O)N1CCC[C@H]([N@@H+](CC(=O)NCCCNC(=O)c2ccc(-c3c4nc(c(-c5c(F)c(F)c(F)c(F)c5F)c5ccc([nH]5)c(-c5c(F)c(F)c(F)c(F)c5F)c5nc(c(-c6c(F)c(F)c(F)c(F)c6F)c6ccc3[nH]6)C=C5)C=C4)cc2)C(C)C)C1
REMARK SMILES IDX 14 1 13 2 11 3 12 4 10 6 9 7 8 9 4 10 5 11 86 12 6 13 7 14
REMARK SMILES IDX 2 15 1 16 3 17 83 18 84 19 85 20 15 21 16 22 17 23 18 24
REMARK SMILES IDX 19 26 20 27 21 28 82 29 22 30 81 31 23 32 24 33 25 34 75 35
REMARK SMILES IDX 26 36 80 37 74 38 76 39 27 40 79 41 73 42 72 43 28 45 60 46
REMARK SMILES IDX 40 47 59 48 41 49 44 50 58 51 77 52 42 53 43 54 57 56 78 57
REMARK SMILES IDX 45 58 29 59 30 60 38 61 31 62 32 63 36 64 39 65 33 66 34 67
REMARK SMILES IDX 37 68 35 69 61 70 62 71 70 72 63 73 64 74 68 75 71 76 65 77
REMARK SMILES IDX 66 78 69 79 67 80 46 81 47 82 55 83 48 84 49 85 53 86 56 87
REMARK SMILES IDX 50 88 51 89 54 90 52 91
REMARK H PARENT 13 5 9 8 17 25 76 44 44 55
REMARK Flexibility Score: inf
ROOT
ATOM      1  C   UNL A   1      31.015  27.139  26.151  1.00  0.00     0.118 C 
ENDROOT
BRANCH   1   2
ATOM      2  N   UNL A   1      30.999  25.781  26.681  1.00  0.00    -0.351 N 
ATOM      3  C   UNL A   1      31.871  24.730  26.554  1.00  0.00     0.275 C 
ATOM      4  O   UNL A   1      31.682  23.759  27.292  1.00  0.00    -0.269 OA
ATOM      5  H   UNL A   1      30.214  25.580  27.239  1.00  0.00     0.163 HD
BRANCH   3   6
ATOM      6  C   UNL A   1      32.978  24.726  25.492  1.00  0.00     0.364 C 
BRANCH   6   7
ATOM      7  N   UNL A   1      32.683  23.891  24.292  1.00  0.00    -0.321 N 
ATOM      8  H   UNL A   1      31.931  23.243  24.523  1.00  0.00     0.349 HD
BRANCH   7   9
ATOM      9  C   UNL A   1      33.708  22.870  24.003  1.00  0.00     0.204 C 
ATOM     10  N   UNL A   1      33.894  20.388  24.747  1.00  0.00    -0.337 N 
ATOM     11  C   UNL A   1      35.253  20.655  25.193  1.00  0.00     0.120 C 
ATOM     12  C   UNL A   1      33.225  21.397  23.947  1.00  0.00     0.184 C 
ATOM     13  C   UNL A   1      35.413  22.065  25.730  1.00  0.00     0.028 C 
ATOM     14  C   UNL A   1      35.077  23.087  24.661  1.00  0.00     0.069 C 
BRANCH  10  15
ATOM     15  C   UNL A   1      33.417  19.084  24.855  1.00  0.00     0.219 C 
ATOM     16  C   UNL A   1      34.290  17.934  24.393  1.00  0.00     0.114 C 
ATOM     17  O   UNL A   1      32.312  18.829  25.338  1.00  0.00    -0.275 OA
ENDBRANCH  10  15
ENDBRANCH   7   9
BRANCH   7  18
ATOM     18  C   UNL A   1      31.935  24.571  23.223  1.00  0.00     0.178 C 
ATOM     19  C   UNL A   1      30.408  24.587  23.321  1.00  0.00     0.075 C 
ATOM     20  C   UNL A   1      32.442  26.004  23.001  1.00  0.00     0.075 C 
ENDBRANCH   7  18
ENDBRANCH   6   7
ENDBRANCH   3   6
ENDBRANCH   1   2
BRANCH   1  21
ATOM     21  C   UNL A   1      31.990  28.123  26.819  1.00  0.00     0.042 C 
BRANCH  21  22
ATOM     22  C   UNL A   1      32.722  29.109  25.900  1.00  0.00     0.118 C 
BRANCH  22  23
ATOM     23  N   UNL A   1      32.457  30.492  26.243  1.00  0.00    -0.352 N 
ATOM     24  C   UNL A   1      33.138  31.363  27.054  1.00  0.00     0.251 C 
ATOM     25  H   UNL A   1      31.651  30.871  25.822  1.00  0.00     0.163 HD
ATOM     26  O   UNL A   1      32.602  32.445  27.324  1.00  0.00    -0.269 OA
BRANCH  24  27
ATOM     27  C   UNL A   1      34.473  31.071  27.635  1.00  0.00     0.039 A 
ATOM     28  C   UNL A   1      34.711  29.766  28.087  1.00  0.00     0.014 A 
ATOM     29  C   UNL A   1      35.438  32.057  27.876  1.00  0.00     0.014 A 
ATOM     30  C   UNL A   1      35.897  29.446  28.760  1.00  0.00     0.010 A 
ATOM     31  C   UNL A   1      36.644  31.727  28.518  1.00  0.00     0.010 A 
ATOM     32  C   UNL A   1      36.879  30.422  28.983  1.00  0.00    -0.014 A 
BRANCH  32  33
ATOM     33  C   UNL A   1      38.123  30.071  29.728  1.00  0.00     0.031 A 
ATOM     34  C   UNL A   1      38.360  30.587  31.124  1.00  0.00     0.074 A 
ATOM     35  C   UNL A   1      39.044  29.265  29.164  1.00  0.00     0.049 A 
ATOM     36  N   UNL A   1      39.367  30.358  31.934  1.00  0.00    -0.248 NA
ATOM     37  C   UNL A   1      37.333  31.477  31.684  1.00  0.00     0.031 C 
ATOM     38  C   UNL A   1      38.956  28.697  27.819  1.00  0.00     0.029 A 
ATOM     39  N   UNL A   1      40.235  28.782  29.651  1.00  0.00    -0.354 N 
ATOM     40  C   UNL A   1      39.097  31.078  33.092  1.00  0.00     0.074 A 
ATOM     41  C   UNL A   1      37.849  31.777  32.869  1.00  0.00     0.031 C 
ATOM     42  C   UNL A   1      40.039  27.935  27.593  1.00  0.00     0.029 A 
ATOM     43  C   UNL A   1      40.909  27.977  28.765  1.00  0.00     0.049 A 
ATOM     44  H   UNL A   1      40.573  28.994  30.552  1.00  0.00     0.167 HD
ATOM     45  C   UNL A   1      39.812  31.137  34.242  1.00  0.00     0.037 A 
ATOM     46  C   UNL A   1      42.094  27.346  28.880  1.00  0.00     0.037 A 
ATOM     47  C   UNL A   1      41.047  30.434  34.484  1.00  0.00     0.049 A 
ATOM     48  C   UNL A   1      42.881  27.450  30.160  1.00  0.00     0.074 A 
ATOM     49  C   UNL A   1      41.811  30.407  35.639  1.00  0.00     0.029 A 
ATOM     50  N   UNL A   1      41.699  29.640  33.557  1.00  0.00    -0.354 N 
ATOM     51  N   UNL A   1      42.582  28.084  31.266  1.00  0.00    -0.248 NA
ATOM     52  C   UNL A   1      44.167  26.738  30.208  1.00  0.00     0.031 C 
ATOM     53  C   UNL A   1      42.946  29.624  35.398  1.00  0.00     0.029 A 
ATOM     54  C   UNL A   1      42.868  29.132  34.106  1.00  0.00     0.049 A 
ATOM     55  H   UNL A   1      41.382  29.461  32.642  1.00  0.00     0.167 HD
ATOM     56  C   UNL A   1      43.625  27.828  32.146  1.00  0.00     0.074 A 
ATOM     57  C   UNL A   1      44.560  26.970  31.452  1.00  0.00     0.031 C 
ATOM     58  C   UNL A   1      43.790  28.269  33.417  1.00  0.00     0.037 A 
BRANCH  45  59
ATOM     59  C   UNL A   1      39.277  31.998  35.349  1.00  0.00     0.064 A 
ATOM     60  C   UNL A   1      38.463  31.466  36.359  1.00  0.00     0.173 A 
ATOM     61  C   UNL A   1      39.639  33.350  35.440  1.00  0.00     0.173 A 
ATOM     62  F   UNL A   1      38.086  30.179  36.314  1.00  0.00    -0.203 F 
ATOM     63  C   UNL A   1      38.013  32.262  37.410  1.00  0.00     0.198 A 
ATOM     64  C   UNL A   1      39.207  34.138  36.504  1.00  0.00     0.198 A 
ATOM     65  F   UNL A   1      40.429  33.903  34.506  1.00  0.00    -0.203 F 
ATOM     66  F   UNL A   1      37.211  31.740  38.347  1.00  0.00    -0.200 F 
ATOM     67  C   UNL A   1      38.392  33.594  37.485  1.00  0.00     0.200 A 
ATOM     68  F   UNL A   1      39.586  35.421  36.584  1.00  0.00    -0.200 F 
ATOM     69  F   UNL A   1      37.968  34.355  38.504  1.00  0.00    -0.200 F 
ENDBRANCH  45  59
BRANCH  46  70
ATOM     70  C   UNL A   1      42.614  26.539  27.746  1.00  0.00     0.064 A 
ATOM     71  C   UNL A   1      43.503  27.094  26.815  1.00  0.00     0.173 A 
ATOM     72  C   UNL A   1      42.217  25.208  27.559  1.00  0.00     0.173 A 
ATOM     73  F   UNL A   1      43.890  28.372  26.938  1.00  0.00    -0.203 F 
ATOM     74  C   UNL A   1      43.962  26.352  25.729  1.00  0.00     0.198 A 
ATOM     75  C   UNL A   1      42.696  24.459  26.487  1.00  0.00     0.198 A 
ATOM     76  F   UNL A   1      41.367  24.634  28.422  1.00  0.00    -0.203 F 
ATOM     77  F   UNL A   1      44.775  26.919  24.828  1.00  0.00    -0.200 F 
ATOM     78  C   UNL A   1      43.561  25.033  25.568  1.00  0.00     0.200 A 
ATOM     79  F   UNL A   1      42.314  23.183  26.341  1.00  0.00    -0.200 F 
ATOM     80  F   UNL A   1      44.002  24.320  24.524  1.00  0.00    -0.200 F 
ENDBRANCH  46  70
BRANCH  58  81
ATOM     81  C   UNL A   1      45.011  27.806  34.156  1.00  0.00     0.064 A 
ATOM     82  C   UNL A   1      45.015  26.612  34.893  1.00  0.00     0.173 A 
ATOM     83  C   UNL A   1      46.202  28.546  34.097  1.00  0.00     0.173 A 
ATOM     84  F   UNL A   1      43.897  25.879  34.994  1.00  0.00    -0.203 F 
ATOM     85  C   UNL A   1      46.161  26.188  35.562  1.00  0.00     0.198 A 
ATOM     86  C   UNL A   1      47.352  28.107  34.747  1.00  0.00     0.198 A 
ATOM     87  F   UNL A   1      46.251  29.693  33.402  1.00  0.00    -0.203 F 
ATOM     88  F   UNL A   1      46.130  25.066  36.294  1.00  0.00    -0.200 F 
ATOM     89  C   UNL A   1      47.330  26.932  35.483  1.00  0.00     0.200 A 
ATOM     90  F   UNL A   1      48.482  28.822  34.663  1.00  0.00    -0.200 F 
ATOM     91  F   UNL A   1      48.431  26.519  36.124  1.00  0.00    -0.200 F 
ENDBRANCH  58  81
ENDBRANCH  32  33
ENDBRANCH  24  27
ENDBRANCH  22  23
ENDBRANCH  21  22
ENDBRANCH   1  21
TORSDOF 14
ENDMDL
