MODEL 1
REMARK VINA RESULT:     -11.9      0.000      0.000
REMARK SMILES O=C(CNC(=O)OCC1=Cc2ccccc2S1(=O)=O)NCCCNC(=O)c1ccc(-c2c3nc(c(-c4c(F)c(F)c(F)c(F)c4F)c4ccc([nH]4)c(-c4c(F)c(F)c(F)c(F)c4F)c4nc(c(-c5c(F)c(F)c(F)c(F)c5F)c5ccc2[nH]5)C=C4)C=C3)cc1
REMARK SMILES IDX 21 1 20 2 1 3 2 4 3 6 4 7 5 8 6 10 7 11 8 12 9 13 10 14
REMARK SMILES IDX 17 15 11 16 16 17 18 18 19 19 12 20 15 21 13 22 14 23 22 24
REMARK SMILES IDX 23 25 24 26 25 27 26 29 27 30 28 31 89 32 29 33 88 34 30 35
REMARK SMILES IDX 31 36 32 37 82 38 33 39 87 40 81 41 83 42 34 43 86 44 80 45
REMARK SMILES IDX 79 46 35 48 67 49 47 50 66 51 48 52 51 53 65 54 84 55 49 56
REMARK SMILES IDX 50 57 64 59 85 60 52 61 36 62 37 63 45 64 38 65 39 66 43 67
REMARK SMILES IDX 46 68 40 69 41 70 44 71 42 72 68 73 69 74 77 75 70 76 71 77
REMARK SMILES IDX 75 78 78 79 72 80 73 81 76 82 74 83 53 84 54 85 62 86 55 87
REMARK SMILES IDX 56 88 60 89 63 90 57 91 58 92 61 93 59 94
REMARK H PARENT 20 5 4 9 24 28 83 47 51 58
REMARK Flexibility Score: inf
ROOT
ATOM      1  C   UNL A   1      41.984  19.959  27.628  1.00  0.00     0.117 C 
ENDROOT
BRANCH   1   2
ATOM      2  N   UNL A   1      42.874  19.870  26.493  1.00  0.00    -0.354 N 
ATOM      3  O   UNL A   1      42.618  17.621  26.110  1.00  0.00    -0.273 OA
ATOM      4  C   UNL A   1      43.063  18.710  25.763  1.00  0.00     0.239 C 
ATOM      5  H   UNL A   1      43.371  20.676  26.225  1.00  0.00     0.163 HD
BRANCH   4   6
ATOM      6  C   UNL A   1      43.999  18.877  24.557  1.00  0.00     0.219 C 
BRANCH   6   7
ATOM      7  N   UNL A   1      45.357  18.517  24.941  1.00  0.00    -0.312 N 
ATOM      8  C   UNL A   1      46.361  19.359  25.290  1.00  0.00     0.407 C 
ATOM      9  H   UNL A   1      45.570  17.556  24.947  1.00  0.00     0.167 HD
ATOM     10  O   UNL A   1      47.520  18.975  25.373  1.00  0.00    -0.225 OA
BRANCH   8  11
ATOM     11  O   UNL A   1      45.940  20.623  25.529  1.00  0.00    -0.444 OA
BRANCH  11  12
ATOM     12  C   UNL A   1      45.970  21.501  24.400  1.00  0.00     0.283 C 
BRANCH  12  13
ATOM     13  C   UNL A   1      45.533  22.889  24.704  1.00  0.00     0.087 C 
ATOM     14  C   UNL A   1      44.265  23.348  24.681  1.00  0.00     0.029 C 
ATOM     15  S   UNL A   1      46.659  24.137  25.158  1.00  0.00     0.206 S 
ATOM     16  C   UNL A   1      44.169  24.770  24.995  1.00  0.00    -0.005 A 
ATOM     17  C   UNL A   1      45.405  25.350  25.260  1.00  0.00     0.079 A 
ATOM     18  O   UNL A   1      47.155  23.907  26.499  1.00  0.00    -0.219 OA
ATOM     19  O   UNL A   1      47.523  24.506  24.057  1.00  0.00    -0.219 OA
ATOM     20  C   UNL A   1      43.033  25.561  25.019  1.00  0.00     0.009 A 
ATOM     21  C   UNL A   1      45.584  26.697  25.516  1.00  0.00     0.021 A 
ATOM     22  C   UNL A   1      43.175  26.930  25.288  1.00  0.00     0.001 A 
ATOM     23  C   UNL A   1      44.441  27.495  25.526  1.00  0.00     0.001 A 
ENDBRANCH  12  13
ENDBRANCH  11  12
ENDBRANCH   8  11
ENDBRANCH   6   7
ENDBRANCH   4   6
ENDBRANCH   1   2
BRANCH   1  24
ATOM     24  C   UNL A   1      41.099  21.199  27.600  1.00  0.00     0.042 C 
BRANCH  24  25
ATOM     25  C   UNL A   1      40.948  21.847  26.226  1.00  0.00     0.118 C 
BRANCH  25  26
ATOM     26  N   UNL A   1      39.562  22.054  25.833  1.00  0.00    -0.352 N 
ATOM     27  C   UNL A   1      38.684  23.069  26.122  1.00  0.00     0.251 C 
ATOM     28  H   UNL A   1      39.190  21.345  25.262  1.00  0.00     0.163 HD
ATOM     29  O   UNL A   1      37.508  22.952  25.785  1.00  0.00    -0.269 OA
BRANCH  27  30
ATOM     30  C   UNL A   1      39.111  24.292  26.842  1.00  0.00     0.039 A 
ATOM     31  C   UNL A   1      39.719  25.317  26.107  1.00  0.00     0.014 A 
ATOM     32  C   UNL A   1      38.992  24.424  28.228  1.00  0.00     0.014 A 
ATOM     33  C   UNL A   1      40.169  26.473  26.750  1.00  0.00     0.010 A 
ATOM     34  C   UNL A   1      39.359  25.615  28.857  1.00  0.00     0.010 A 
ATOM     35  C   UNL A   1      39.974  26.644  28.129  1.00  0.00    -0.014 A 
BRANCH  35  36
ATOM     36  C   UNL A   1      40.447  27.876  28.817  1.00  0.00     0.031 A 
ATOM     37  C   UNL A   1      41.896  28.027  29.202  1.00  0.00     0.074 A 
ATOM     38  C   UNL A   1      39.572  28.858  29.113  1.00  0.00     0.049 A 
ATOM     39  N   UNL A   1      42.496  29.025  29.803  1.00  0.00    -0.248 NA
ATOM     40  C   UNL A   1      42.785  26.896  28.893  1.00  0.00     0.031 C 
ATOM     41  C   UNL A   1      38.136  28.821  28.837  1.00  0.00     0.029 A 
ATOM     42  N   UNL A   1      39.763  30.079  29.712  1.00  0.00    -0.354 N 
ATOM     43  C   UNL A   1      43.823  28.638  29.949  1.00  0.00     0.074 A 
ATOM     44  C   UNL A   1      43.926  27.290  29.436  1.00  0.00     0.031 C 
ATOM     45  C   UNL A   1      37.582  29.978  29.232  1.00  0.00     0.029 A 
ATOM     46  C   UNL A   1      38.613  30.824  29.825  1.00  0.00     0.049 A 
ATOM     47  H   UNL A   1      40.640  30.392  30.030  1.00  0.00     0.167 HD
ATOM     48  C   UNL A   1      44.867  29.351  30.438  1.00  0.00     0.037 A 
ATOM     49  C   UNL A   1      38.414  32.050  30.346  1.00  0.00     0.037 A 
ATOM     50  C   UNL A   1      44.767  30.698  30.935  1.00  0.00     0.049 A 
ATOM     51  C   UNL A   1      39.588  32.816  30.895  1.00  0.00     0.074 A 
ATOM     52  C   UNL A   1      45.772  31.521  31.411  1.00  0.00     0.029 A 
ATOM     53  N   UNL A   1      43.585  31.421  31.026  1.00  0.00    -0.354 N 
ATOM     54  N   UNL A   1      40.850  32.465  30.963  1.00  0.00    -0.248 NA
ATOM     55  C   UNL A   1      39.311  34.158  31.427  1.00  0.00     0.031 C 
ATOM     56  C   UNL A   1      45.192  32.718  31.845  1.00  0.00     0.029 A 
ATOM     57  C   UNL A   1      43.836  32.671  31.570  1.00  0.00     0.049 A 
ATOM     58  H   UNL A   1      42.700  31.094  30.745  1.00  0.00     0.167 HD
ATOM     59  C   UNL A   1      41.521  33.556  31.504  1.00  0.00     0.074 A 
ATOM     60  C   UNL A   1      40.527  34.583  31.732  1.00  0.00     0.031 C 
ATOM     61  C   UNL A   1      42.842  33.694  31.781  1.00  0.00     0.037 A 
BRANCH  48  62
ATOM     62  C   UNL A   1      46.214  28.683  30.463  1.00  0.00     0.064 A 
ATOM     63  C   UNL A   1      46.680  27.999  31.598  1.00  0.00     0.173 A 
ATOM     64  C   UNL A   1      47.039  28.698  29.327  1.00  0.00     0.173 A 
ATOM     65  F   UNL A   1      45.939  27.961  32.716  1.00  0.00    -0.203 F 
ATOM     66  C   UNL A   1      47.932  27.388  31.606  1.00  0.00     0.198 A 
ATOM     67  C   UNL A   1      48.274  28.055  29.326  1.00  0.00     0.198 A 
ATOM     68  F   UNL A   1      46.643  29.330  28.212  1.00  0.00    -0.203 F 
ATOM     69  F   UNL A   1      48.380  26.795  32.722  1.00  0.00    -0.200 F 
ATOM     70  C   UNL A   1      48.724  27.409  30.468  1.00  0.00     0.200 A 
ATOM     71  F   UNL A   1      49.031  28.062  28.221  1.00  0.00    -0.200 F 
ATOM     72  F   UNL A   1      49.926  26.817  30.476  1.00  0.00    -0.200 F 
ENDBRANCH  48  62
BRANCH  49  73
ATOM     73  C   UNL A   1      37.051  32.646  30.348  1.00  0.00     0.064 A 
ATOM     74  C   UNL A   1      36.631  33.494  29.312  1.00  0.00     0.173 A 
ATOM     75  C   UNL A   1      36.149  32.402  31.393  1.00  0.00     0.173 A 
ATOM     76  F   UNL A   1      37.463  33.777  28.299  1.00  0.00    -0.203 F 
ATOM     77  C   UNL A   1      35.374  34.096  29.338  1.00  0.00     0.198 A 
ATOM     78  C   UNL A   1      34.880  32.976  31.401  1.00  0.00     0.198 A 
ATOM     79  F   UNL A   1      36.497  31.595  32.407  1.00  0.00    -0.203 F 
ATOM     80  F   UNL A   1      35.022  34.948  28.365  1.00  0.00    -0.200 F 
ATOM     81  C   UNL A   1      34.498  33.833  30.379  1.00  0.00     0.200 A 
ATOM     82  F   UNL A   1      34.029  32.706  32.401  1.00  0.00    -0.200 F 
ATOM     83  F   UNL A   1      33.290  34.411  30.403  1.00  0.00    -0.200 F 
ENDBRANCH  49  73
BRANCH  61  84
ATOM     84  C   UNL A   1      43.303  35.027  32.302  1.00  0.00     0.064 A 
ATOM     85  C   UNL A   1      43.698  36.067  31.448  1.00  0.00     0.173 A 
ATOM     86  C   UNL A   1      43.331  35.271  33.685  1.00  0.00     0.173 A 
ATOM     87  F   UNL A   1      43.700  35.885  30.119  1.00  0.00    -0.203 F 
ATOM     88  C   UNL A   1      44.144  37.284  31.959  1.00  0.00     0.198 A 
ATOM     89  C   UNL A   1      43.740  36.501  34.190  1.00  0.00     0.198 A 
ATOM     90  F   UNL A   1      42.954  34.316  34.549  1.00  0.00    -0.203 F 
ATOM     91  F   UNL A   1      44.580  38.239  31.124  1.00  0.00    -0.200 F 
ATOM     92  C   UNL A   1      44.158  37.503  33.327  1.00  0.00     0.200 A 
ATOM     93  F   UNL A   1      43.734  36.717  35.513  1.00  0.00    -0.200 F 
ATOM     94  F   UNL A   1      44.585  38.675  33.816  1.00  0.00    -0.200 F 
ENDBRANCH  61  84
ENDBRANCH  35  36
ENDBRANCH  27  30
ENDBRANCH  25  26
ENDBRANCH  24  25
ENDBRANCH   1  24
TORSDOF 14
ENDMDL
MODEL 2
REMARK VINA RESULT:     -11.4      4.100      7.368
REMARK SMILES O=C(CNC(=O)OCC1=Cc2ccccc2S1(=O)=O)NCCCNC(=O)c1ccc(-c2c3nc(c(-c4c(F)c(F)c(F)c(F)c4F)c4ccc([nH]4)c(-c4c(F)c(F)c(F)c(F)c4F)c4nc(c(-c5c(F)c(F)c(F)c(F)c5F)c5ccc2[nH]5)C=C4)C=C3)cc1
REMARK SMILES IDX 21 1 20 2 1 3 2 4 3 6 4 7 5 8 6 10 7 11 8 12 9 13 10 14
REMARK SMILES IDX 17 15 11 16 16 17 18 18 19 19 12 20 15 21 13 22 14 23 22 24
REMARK SMILES IDX 23 25 24 26 25 27 26 29 27 30 28 31 89 32 29 33 88 34 30 35
REMARK SMILES IDX 31 36 32 37 82 38 33 39 87 40 81 41 83 42 34 43 86 44 80 45
REMARK SMILES IDX 79 46 35 48 67 49 47 50 66 51 48 52 51 53 65 54 84 55 49 56
REMARK SMILES IDX 50 57 64 59 85 60 52 61 36 62 37 63 45 64 38 65 39 66 43 67
REMARK SMILES IDX 46 68 40 69 41 70 44 71 42 72 68 73 69 74 77 75 70 76 71 77
REMARK SMILES IDX 75 78 78 79 72 80 73 81 76 82 74 83 53 84 54 85 62 86 55 87
REMARK SMILES IDX 56 88 60 89 63 90 57 91 58 92 61 93 59 94
REMARK H PARENT 20 5 4 9 24 28 83 47 51 58
REMARK Flexibility Score: inf
ROOT
ATOM      1  C   UNL A   1      34.811  23.867  23.357  1.00  0.00     0.117 C 
ENDROOT
BRANCH   1   2
ATOM      2  N   UNL A   1      34.354  25.194  23.704  1.00  0.00    -0.354 N 
ATOM      3  O   UNL A   1      33.709  25.830  21.595  1.00  0.00    -0.273 OA
ATOM      4  C   UNL A   1      33.757  26.053  22.801  1.00  0.00     0.239 C 
ATOM      5  H   UNL A   1      34.473  25.500  24.632  1.00  0.00     0.163 HD
BRANCH   4   6
ATOM      6  C   UNL A   1      33.287  27.379  23.418  1.00  0.00     0.219 C 
BRANCH   6   7
ATOM      7  N   UNL A   1      32.250  27.966  22.580  1.00  0.00    -0.312 N 
ATOM      8  C   UNL A   1      30.911  27.944  22.798  1.00  0.00     0.407 C 
ATOM      9  H   UNL A   1      32.553  28.430  21.767  1.00  0.00     0.167 HD
ATOM     10  O   UNL A   1      30.115  28.264  21.925  1.00  0.00    -0.225 OA
BRANCH   8  11
ATOM     11  O   UNL A   1      30.579  27.544  24.047  1.00  0.00    -0.444 OA
BRANCH  11  12
ATOM     12  C   UNL A   1      29.717  26.404  24.116  1.00  0.00     0.283 C 
BRANCH  12  13
ATOM     13  C   UNL A   1      30.437  25.112  24.264  1.00  0.00     0.087 C 
ATOM     14  C   UNL A   1      30.671  24.213  23.287  1.00  0.00     0.029 C 
ATOM     15  S   UNL A   1      31.105  24.592  25.786  1.00  0.00     0.206 S 
ATOM     16  C   UNL A   1      31.376  23.026  23.761  1.00  0.00    -0.005 A 
ATOM     17  C   UNL A   1      31.665  23.078  25.121  1.00  0.00     0.079 A 
ATOM     18  O   UNL A   1      32.272  25.381  26.122  1.00  0.00    -0.219 OA
ATOM     19  O   UNL A   1      30.069  24.280  26.747  1.00  0.00    -0.219 OA
ATOM     20  C   UNL A   1      31.733  21.902  23.036  1.00  0.00     0.009 A 
ATOM     21  C   UNL A   1      32.266  22.046  25.818  1.00  0.00     0.021 A 
ATOM     22  C   UNL A   1      32.356  20.842  23.708  1.00  0.00     0.001 A 
ATOM     23  C   UNL A   1      32.613  20.909  25.090  1.00  0.00     0.001 A 
ENDBRANCH  12  13
ENDBRANCH  11  12
ENDBRANCH   8  11
ENDBRANCH   6   7
ENDBRANCH   4   6
ENDBRANCH   1   2
BRANCH   1  24
ATOM     24  C   UNL A   1      35.504  23.151  24.509  1.00  0.00     0.042 C 
BRANCH  24  25
ATOM     25  C   UNL A   1      36.862  23.728  24.898  1.00  0.00     0.118 C 
BRANCH  25  26
ATOM     26  N   UNL A   1      37.805  22.724  25.369  1.00  0.00    -0.352 N 
ATOM     27  C   UNL A   1      38.936  22.838  26.137  1.00  0.00     0.251 C 
ATOM     28  H   UNL A   1      37.594  21.804  25.089  1.00  0.00     0.163 HD
ATOM     29  O   UNL A   1      39.653  21.851  26.289  1.00  0.00    -0.269 OA
BRANCH  27  30
ATOM     30  C   UNL A   1      39.326  24.118  26.772  1.00  0.00     0.039 A 
ATOM     31  C   UNL A   1      40.048  25.044  26.011  1.00  0.00     0.014 A 
ATOM     32  C   UNL A   1      39.061  24.397  28.116  1.00  0.00     0.014 A 
ATOM     33  C   UNL A   1      40.467  26.250  26.579  1.00  0.00     0.010 A 
ATOM     34  C   UNL A   1      39.401  25.638  28.658  1.00  0.00     0.010 A 
ATOM     35  C   UNL A   1      40.128  26.570  27.904  1.00  0.00    -0.014 A 
BRANCH  35  36
ATOM     36  C   UNL A   1      40.568  27.855  28.513  1.00  0.00     0.031 A 
ATOM     37  C   UNL A   1      42.017  28.077  28.861  1.00  0.00     0.074 A 
ATOM     38  C   UNL A   1      39.664  28.820  28.769  1.00  0.00     0.049 A 
ATOM     39  N   UNL A   1      42.591  29.129  29.394  1.00  0.00    -0.248 NA
ATOM     40  C   UNL A   1      42.940  26.963  28.600  1.00  0.00     0.031 C 
ATOM     41  C   UNL A   1      38.225  28.718  28.522  1.00  0.00     0.029 A 
ATOM     42  N   UNL A   1      39.820  30.080  29.294  1.00  0.00    -0.354 N 
ATOM     43  C   UNL A   1      43.933  28.798  29.536  1.00  0.00     0.074 A 
ATOM     44  C   UNL A   1      44.076  27.427  29.098  1.00  0.00     0.031 C 
ATOM     45  C   UNL A   1      37.636  29.875  28.862  1.00  0.00     0.029 A 
ATOM     46  C   UNL A   1      38.646  30.789  29.387  1.00  0.00     0.049 A 
ATOM     47  H   UNL A   1      40.690  30.441  29.578  1.00  0.00     0.167 HD
ATOM     48  C   UNL A   1      44.958  29.574  29.965  1.00  0.00     0.037 A 
ATOM     49  C   UNL A   1      38.411  32.035  29.842  1.00  0.00     0.037 A 
ATOM     50  C   UNL A   1      44.818  30.943  30.387  1.00  0.00     0.049 A 
ATOM     51  C   UNL A   1      39.566  32.871  30.325  1.00  0.00     0.074 A 
ATOM     52  C   UNL A   1      45.801  31.826  30.797  1.00  0.00     0.029 A 
ATOM     53  N   UNL A   1      43.612  31.627  30.459  1.00  0.00    -0.354 N 
ATOM     54  N   UNL A   1      40.841  32.570  30.389  1.00  0.00    -0.248 NA
ATOM     55  C   UNL A   1      39.250  34.231  30.785  1.00  0.00     0.031 C 
ATOM     56  C   UNL A   1      45.185  33.025  31.174  1.00  0.00     0.029 A 
ATOM     57  C   UNL A   1      43.827  32.914  30.927  1.00  0.00     0.049 A 
ATOM     58  H   UNL A   1      42.735  31.254  30.213  1.00  0.00     0.167 HD
ATOM     59  C   UNL A   1      41.481  33.712  30.855  1.00  0.00     0.074 A 
ATOM     60  C   UNL A   1      40.455  34.716  31.043  1.00  0.00     0.031 C 
ATOM     61  C   UNL A   1      42.801  33.912  31.099  1.00  0.00     0.037 A 
BRANCH  48  62
ATOM     62  C   UNL A   1      46.329  28.955  30.002  1.00  0.00     0.064 A 
ATOM     63  C   UNL A   1      47.193  29.005  28.896  1.00  0.00     0.173 A 
ATOM     64  C   UNL A   1      46.800  28.334  31.169  1.00  0.00     0.173 A 
ATOM     65  F   UNL A   1      46.792  29.577  27.750  1.00  0.00    -0.203 F 
ATOM     66  C   UNL A   1      48.459  28.425  28.945  1.00  0.00     0.198 A 
ATOM     67  C   UNL A   1      48.079  27.787  31.227  1.00  0.00     0.198 A 
ATOM     68  F   UNL A   1      46.021  28.263  32.259  1.00  0.00    -0.203 F 
ATOM     69  F   UNL A   1      49.240  28.431  27.856  1.00  0.00    -0.200 F 
ATOM     70  C   UNL A   1      48.904  27.824  30.113  1.00  0.00     0.200 A 
ATOM     71  F   UNL A   1      48.514  27.221  32.361  1.00  0.00    -0.200 F 
ATOM     72  F   UNL A   1      50.123  27.271  30.160  1.00  0.00    -0.200 F 
ENDBRANCH  48  62
BRANCH  49  73
ATOM     73  C   UNL A   1      37.028  32.582  29.835  1.00  0.00     0.064 A 
ATOM     74  C   UNL A   1      36.537  33.294  28.731  1.00  0.00     0.173 A 
ATOM     75  C   UNL A   1      36.177  32.426  30.939  1.00  0.00     0.173 A 
ATOM     76  F   UNL A   1      37.318  33.489  27.659  1.00  0.00    -0.203 F 
ATOM     77  C   UNL A   1      35.260  33.853  28.743  1.00  0.00     0.198 A 
ATOM     78  C   UNL A   1      34.888  32.955  30.936  1.00  0.00     0.198 A 
ATOM     79  F   UNL A   1      36.594  31.750  32.019  1.00  0.00    -0.203 F 
ATOM     80  F   UNL A   1      34.839  34.579  27.698  1.00  0.00    -0.200 F 
ATOM     81  C   UNL A   1      34.435  33.679  29.843  1.00  0.00     0.200 A 
ATOM     82  F   UNL A   1      34.088  32.771  31.995  1.00  0.00    -0.200 F 
ATOM     83  F   UNL A   1      33.208  34.216  29.855  1.00  0.00    -0.200 F 
ENDBRANCH  49  73
BRANCH  61  84
ATOM     84  C   UNL A   1      43.222  35.288  31.535  1.00  0.00     0.064 A 
ATOM     85  C   UNL A   1      43.229  35.675  32.884  1.00  0.00     0.173 A 
ATOM     86  C   UNL A   1      43.644  36.230  30.584  1.00  0.00     0.173 A 
ATOM     87  F   UNL A   1      42.825  34.818  33.834  1.00  0.00    -0.203 F 
ATOM     88  C   UNL A   1      43.599  36.965  33.258  1.00  0.00     0.198 A 
ATOM     89  C   UNL A   1      44.052  37.505  30.964  1.00  0.00     0.198 A 
ATOM     90  F   UNL A   1      43.668  35.912  29.280  1.00  0.00    -0.203 F 
ATOM     91  F   UNL A   1      43.533  37.331  34.546  1.00  0.00    -0.200 F 
ATOM     92  C   UNL A   1      44.017  37.876  32.300  1.00  0.00     0.200 A 
ATOM     93  F   UNL A   1      44.474  38.378  30.038  1.00  0.00    -0.200 F 
ATOM     94  F   UNL A   1      44.377  39.114  32.663  1.00  0.00    -0.200 F 
ENDBRANCH  61  84
ENDBRANCH  35  36
ENDBRANCH  27  30
ENDBRANCH  25  26
ENDBRANCH  24  25
ENDBRANCH   1  24
TORSDOF 14
ENDMDL
MODEL 3
REMARK VINA RESULT:     -11.2      7.830     10.964
REMARK SMILES O=C(CNC(=O)OCC1=Cc2ccccc2S1(=O)=O)NCCCNC(=O)c1ccc(-c2c3nc(c(-c4c(F)c(F)c(F)c(F)c4F)c4ccc([nH]4)c(-c4c(F)c(F)c(F)c(F)c4F)c4nc(c(-c5c(F)c(F)c(F)c(F)c5F)c5ccc2[nH]5)C=C4)C=C3)cc1
REMARK SMILES IDX 21 1 20 2 1 3 2 4 3 6 4 7 5 8 6 10 7 11 8 12 9 13 10 14
REMARK SMILES IDX 17 15 11 16 16 17 18 18 19 19 12 20 15 21 13 22 14 23 22 24
REMARK SMILES IDX 23 25 24 26 25 27 26 29 27 30 28 31 89 32 29 33 88 34 30 35
REMARK SMILES IDX 31 36 32 37 82 38 33 39 87 40 81 41 83 42 34 43 86 44 80 45
REMARK SMILES IDX 79 46 35 48 67 49 47 50 66 51 48 52 51 53 65 54 84 55 49 56
REMARK SMILES IDX 50 57 64 59 85 60 52 61 36 62 37 63 45 64 38 65 39 66 43 67
REMARK SMILES IDX 46 68 40 69 41 70 44 71 42 72 68 73 69 74 77 75 70 76 71 77
REMARK SMILES IDX 75 78 78 79 72 80 73 81 76 82 74 83 53 84 54 85 62 86 55 87
REMARK SMILES IDX 56 88 60 89 63 90 57 91 58 92 61 93 59 94
REMARK H PARENT 20 5 4 9 24 28 83 47 51 58
REMARK Flexibility Score: inf
ROOT
ATOM      1  C   UNL A   1      46.222  20.508  36.188  1.00  0.00     0.117 C 
ENDROOT
BRANCH   1   2
ATOM      2  N   UNL A   1      46.668  19.939  37.440  1.00  0.00    -0.354 N 
ATOM      3  O   UNL A   1      45.040  18.331  37.615  1.00  0.00    -0.273 OA
ATOM      4  C   UNL A   1      46.083  18.831  38.023  1.00  0.00     0.239 C 
ATOM      5  H   UNL A   1      47.428  20.364  37.901  1.00  0.00     0.163 HD
BRANCH   4   6
ATOM      6  C   UNL A   1      46.776  18.366  39.312  1.00  0.00     0.219 C 
BRANCH   6   7
ATOM      7  N   UNL A   1      46.709  19.425  40.311  1.00  0.00    -0.312 N 
ATOM      8  C   UNL A   1      45.650  19.746  41.095  1.00  0.00     0.407 C 
ATOM      9  H   UNL A   1      47.522  19.966  40.431  1.00  0.00     0.167 HD
ATOM     10  O   UNL A   1      45.619  20.790  41.734  1.00  0.00    -0.225 OA
BRANCH   8  11
ATOM     11  O   UNL A   1      44.673  18.810  41.085  1.00  0.00    -0.444 OA
BRANCH  11  12
ATOM     12  C   UNL A   1      44.828  17.753  42.037  1.00  0.00     0.283 C 
BRANCH  12  13
ATOM     13  C   UNL A   1      43.919  16.599  41.810  1.00  0.00     0.087 C 
ATOM     14  C   UNL A   1      43.399  15.795  42.759  1.00  0.00     0.029 C 
ATOM     15  S   UNL A   1      43.386  16.138  40.217  1.00  0.00     0.206 S 
ATOM     16  C   UNL A   1      42.569  14.728  42.209  1.00  0.00    -0.005 A 
ATOM     17  C   UNL A   1      42.483  14.771  40.822  1.00  0.00     0.079 A 
ATOM     18  O   UNL A   1      42.434  17.101  39.705  1.00  0.00    -0.219 OA
ATOM     19  O   UNL A   1      44.474  15.613  39.419  1.00  0.00    -0.219 OA
ATOM     20  C   UNL A   1      41.924  13.713  42.896  1.00  0.00     0.009 A 
ATOM     21  C   UNL A   1      41.811  13.829  40.063  1.00  0.00     0.021 A 
ATOM     22  C   UNL A   1      41.222  12.748  42.159  1.00  0.00     0.001 A 
ATOM     23  C   UNL A   1      41.173  12.800  40.754  1.00  0.00     0.001 A 
ENDBRANCH  12  13
ENDBRANCH  11  12
ENDBRANCH   8  11
ENDBRANCH   6   7
ENDBRANCH   4   6
ENDBRANCH   1   2
BRANCH   1  24
ATOM     24  C   UNL A   1      45.845  21.979  36.298  1.00  0.00     0.042 C 
BRANCH  24  25
ATOM     25  C   UNL A   1      46.871  22.949  35.719  1.00  0.00     0.118 C 
BRANCH  25  26
ATOM     26  N   UNL A   1      47.343  23.935  36.680  1.00  0.00    -0.352 N 
ATOM     27  C   UNL A   1      47.040  25.265  36.831  1.00  0.00     0.251 C 
ATOM     28  H   UNL A   1      47.992  23.588  37.334  1.00  0.00     0.163 HD
ATOM     29  O   UNL A   1      47.681  25.932  37.642  1.00  0.00    -0.269 OA
BRANCH  27  30
ATOM     30  C   UNL A   1      45.976  25.921  36.036  1.00  0.00     0.039 A 
ATOM     31  C   UNL A   1      46.318  27.039  35.266  1.00  0.00     0.014 A 
ATOM     32  C   UNL A   1      44.643  25.507  36.086  1.00  0.00     0.014 A 
ATOM     33  C   UNL A   1      45.340  27.712  34.528  1.00  0.00     0.010 A 
ATOM     34  C   UNL A   1      43.683  26.124  35.280  1.00  0.00     0.010 A 
ATOM     35  C   UNL A   1      44.016  27.247  34.510  1.00  0.00    -0.014 A 
BRANCH  35  36
ATOM     36  C   UNL A   1      42.971  27.957  33.721  1.00  0.00     0.031 A 
ATOM     37  C   UNL A   1      42.806  27.677  32.249  1.00  0.00     0.074 A 
ATOM     38  C   UNL A   1      42.179  28.866  34.321  1.00  0.00     0.049 A 
ATOM     39  N   UNL A   1      41.952  28.191  31.397  1.00  0.00    -0.248 NA
ATOM     40  C   UNL A   1      43.737  26.709  31.650  1.00  0.00     0.031 C 
ATOM     41  C   UNL A   1      42.262  29.263  35.727  1.00  0.00     0.029 A 
ATOM     42  N   UNL A   1      41.145  29.622  33.825  1.00  0.00    -0.354 N 
ATOM     43  C   UNL A   1      42.251  27.617  30.167  1.00  0.00     0.074 A 
ATOM     44  C   UNL A   1      43.404  26.768  30.369  1.00  0.00     0.031 C 
ATOM     45  C   UNL A   1      41.300  30.162  35.988  1.00  0.00     0.029 A 
ATOM     46  C   UNL A   1      40.556  30.435  34.763  1.00  0.00     0.049 A 
ATOM     47  H   UNL A   1      40.854  29.586  32.885  1.00  0.00     0.167 HD
ATOM     48  C   UNL A   1      41.606  27.761  28.984  1.00  0.00     0.037 A 
ATOM     49  C   UNL A   1      39.530  31.301  34.649  1.00  0.00     0.037 A 
ATOM     50  C   UNL A   1      40.450  28.594  28.787  1.00  0.00     0.049 A 
ATOM     51  C   UNL A   1      38.838  31.451  33.320  1.00  0.00     0.074 A 
ATOM     52  C   UNL A   1      39.698  28.773  27.639  1.00  0.00     0.029 A 
ATOM     53  N   UNL A   1      39.878  29.396  29.765  1.00  0.00    -0.354 N 
ATOM     54  N   UNL A   1      39.087  30.849  32.181  1.00  0.00    -0.248 NA
ATOM     55  C   UNL A   1      37.711  32.392  33.265  1.00  0.00     0.031 C 
ATOM     56  C   UNL A   1      38.710  29.727  27.904  1.00  0.00     0.029 A 
ATOM     57  C   UNL A   1      38.797  30.087  29.238  1.00  0.00     0.049 A 
ATOM     58  H   UNL A   1      40.193  29.464  30.695  1.00  0.00     0.167 HD
ATOM     59  C   UNL A   1      38.124  31.306  31.289  1.00  0.00     0.074 A 
ATOM     60  C   UNL A   1      37.279  32.224  32.024  1.00  0.00     0.031 C 
ATOM     61  C   UNL A   1      37.953  30.989  29.981  1.00  0.00     0.037 A 
BRANCH  48  62
ATOM     62  C   UNL A   1      42.142  26.998  27.803  1.00  0.00     0.064 A 
ATOM     63  C   UNL A   1      41.709  25.695  27.507  1.00  0.00     0.173 A 
ATOM     64  C   UNL A   1      43.076  27.587  26.938  1.00  0.00     0.173 A 
ATOM     65  F   UNL A   1      40.826  25.077  28.306  1.00  0.00    -0.203 F 
ATOM     66  C   UNL A   1      42.218  25.000  26.411  1.00  0.00     0.198 A 
ATOM     67  C   UNL A   1      43.554  26.904  25.822  1.00  0.00     0.198 A 
ATOM     68  F   UNL A   1      43.520  28.832  27.167  1.00  0.00    -0.203 F 
ATOM     69  F   UNL A   1      41.835  23.735  26.185  1.00  0.00    -0.200 F 
ATOM     70  C   UNL A   1      43.133  25.608  25.566  1.00  0.00     0.200 A 
ATOM     71  F   UNL A   1      44.427  27.498  24.997  1.00  0.00    -0.200 F 
ATOM     72  F   UNL A   1      43.617  24.940  24.510  1.00  0.00    -0.200 F 
ENDBRANCH  48  62
BRANCH  49  73
ATOM     73  C   UNL A   1      39.072  32.074  35.834  1.00  0.00     0.064 A 
ATOM     74  C   UNL A   1      39.511  33.387  36.056  1.00  0.00     0.173 A 
ATOM     75  C   UNL A   1      38.205  31.510  36.782  1.00  0.00     0.173 A 
ATOM     76  F   UNL A   1      40.357  33.965  35.190  1.00  0.00    -0.203 F 
ATOM     77  C   UNL A   1      39.124  34.095  37.193  1.00  0.00     0.198 A 
ATOM     78  C   UNL A   1      37.791  32.230  37.900  1.00  0.00     0.198 A 
ATOM     79  F   UNL A   1      37.750  30.259  36.617  1.00  0.00    -0.203 F 
ATOM     80  F   UNL A   1      39.607  35.327  37.408  1.00  0.00    -0.200 F 
ATOM     81  C   UNL A   1      38.261  33.518  38.111  1.00  0.00     0.200 A 
ATOM     82  F   UNL A   1      36.944  31.675  38.777  1.00  0.00    -0.200 F 
ATOM     83  F   UNL A   1      37.890  34.199  39.204  1.00  0.00    -0.200 F 
ENDBRANCH  49  73
BRANCH  61  84
ATOM     84  C   UNL A   1      36.769  31.588  29.275  1.00  0.00     0.064 A 
ATOM     85  C   UNL A   1      36.720  32.944  28.916  1.00  0.00     0.173 A 
ATOM     86  C   UNL A   1      35.670  30.783  28.934  1.00  0.00     0.173 A 
ATOM     87  F   UNL A   1      37.738  33.761  29.226  1.00  0.00    -0.203 F 
ATOM     88  C   UNL A   1      35.599  33.478  28.284  1.00  0.00     0.198 A 
ATOM     89  C   UNL A   1      34.569  31.312  28.267  1.00  0.00     0.198 A 
ATOM     90  F   UNL A   1      35.666  29.476  29.242  1.00  0.00    -0.203 F 
ATOM     91  F   UNL A   1      35.549  34.790  28.012  1.00  0.00    -0.200 F 
ATOM     92  C   UNL A   1      34.529  32.662  27.954  1.00  0.00     0.200 A 
ATOM     93  F   UNL A   1      33.544  30.516  27.931  1.00  0.00    -0.200 F 
ATOM     94  F   UNL A   1      33.454  33.177  27.343  1.00  0.00    -0.200 F 
ENDBRANCH  61  84
ENDBRANCH  35  36
ENDBRANCH  27  30
ENDBRANCH  25  26
ENDBRANCH  24  25
ENDBRANCH   1  24
TORSDOF 14
ENDMDL
