MODEL 1
REMARK VINA RESULT:     -12.5      0.000      0.000
REMARK SMILES C=CCn1c(=S)[nH]c2cc(C(=O)NCCCNC(=O)c3ccc(-c4c5nc(c(-c6c(F)c(F)c(F)c(F)c6F)c6ccc([nH]6)c(-c6c(F)c(F)c(F)c(F)c6F)c6nc(c(-c7c(F)c(F)c(F)c(F)c7F)c7ccc4[nH]7)C=C6)C=C5)cc3)ccc2c1=O
REMARK SMILES IDX 15 1 14 2 13 3 11 4 12 5 10 7 4 8 5 9 86 10 6 11 7 12 85 13
REMARK SMILES IDX 87 14 8 15 84 17 9 18 83 19 3 20 2 21 1 22 16 23 17 24 18 25
REMARK SMILES IDX 19 27 20 28 21 29 82 30 22 31 81 32 23 33 24 34 25 35 75 36
REMARK SMILES IDX 26 37 80 38 74 39 76 40 27 41 79 42 73 43 72 44 28 46 60 47
REMARK SMILES IDX 40 48 59 49 41 50 44 51 58 52 77 53 42 54 43 55 57 57 78 58
REMARK SMILES IDX 45 59 29 60 30 61 38 62 31 63 32 64 36 65 39 66 33 67 34 68
REMARK SMILES IDX 37 69 35 70 61 71 62 72 70 73 63 74 64 75 68 76 71 77 65 78
REMARK SMILES IDX 66 79 69 80 67 81 46 82 47 83 55 84 48 85 49 86 53 87 56 88
REMARK SMILES IDX 50 89 51 90 54 91 52 92
REMARK H PARENT 13 6 7 16 17 26 76 45 44 56
REMARK Flexibility Score: inf
ROOT
ATOM      1  C   UNL A   1      31.578  32.225  26.836  1.00  0.00     0.042 C 
ENDROOT
BRANCH   1   2
ATOM      2  C   UNL A   1      31.859  30.734  26.661  1.00  0.00     0.118 C 
BRANCH   2   3
ATOM      3  N   UNL A   1      33.185  30.402  27.149  1.00  0.00    -0.352 N 
ATOM      4  C   UNL A   1      34.033  29.354  26.902  1.00  0.00     0.251 C 
ATOM      5  O   UNL A   1      35.115  29.358  27.490  1.00  0.00    -0.269 OA
ATOM      6  H   UNL A   1      33.548  31.061  27.784  1.00  0.00     0.163 HD
BRANCH   4   7
ATOM      7  C   UNL A   1      33.741  28.252  25.940  1.00  0.00     0.041 A 
ATOM      8  N   UNL A   1      32.171  23.852  24.024  1.00  0.00    -0.281 N 
ATOM      9  C   UNL A   1      31.754  23.850  25.354  1.00  0.00     0.180 A 
ATOM     10  C   UNL A   1      33.006  24.840  23.488  1.00  0.00     0.262 A 
ATOM     11  S   UNL A   1      30.784  22.710  26.112  1.00  0.00    -0.040 S 
ATOM     12  N   UNL A   1      32.175  24.897  26.136  1.00  0.00    -0.332 N 
ATOM     13  C   UNL A   1      33.228  26.034  24.310  1.00  0.00     0.064 A 
ATOM     14  O   UNL A   1      33.565  24.776  22.394  1.00  0.00    -0.269 OA
ATOM     15  C   UNL A   1      32.866  26.002  25.644  1.00  0.00     0.054 A 
ATOM     16  H   UNL A   1      31.977  24.865  27.100  1.00  0.00     0.169 HD
ATOM     17  C   UNL A   1      33.768  27.190  23.755  1.00  0.00     0.017 A 
ATOM     18  C   UNL A   1      33.150  27.089  26.470  1.00  0.00     0.040 A 
ATOM     19  C   UNL A   1      33.979  28.308  24.563  1.00  0.00     0.015 A 
BRANCH   8  20
ATOM     20  C   UNL A   1      31.792  22.802  23.077  1.00  0.00     0.155 C 
BRANCH  20  21
ATOM     21  C   UNL A   1      32.757  21.654  23.233  1.00  0.00    -0.013 C 
ATOM     22  C   UNL A   1      32.393  20.412  23.587  1.00  0.00     0.006 C 
ENDBRANCH  20  21
ENDBRANCH   8  20
ENDBRANCH   4   7
ENDBRANCH   2   3
ENDBRANCH   1   2
BRANCH   1  23
ATOM     23  C   UNL A   1      32.832  33.022  27.176  1.00  0.00     0.118 C 
BRANCH  23  24
ATOM     24  N   UNL A   1      32.513  34.356  27.669  1.00  0.00    -0.352 N 
ATOM     25  C   UNL A   1      33.020  35.041  28.748  1.00  0.00     0.251 C 
ATOM     26  H   UNL A   1      31.830  34.840  27.150  1.00  0.00     0.163 HD
ATOM     27  O   UNL A   1      32.478  36.068  29.131  1.00  0.00    -0.269 OA
BRANCH  25  28
ATOM     28  C   UNL A   1      34.206  34.518  29.458  1.00  0.00     0.039 A 
ATOM     29  C   UNL A   1      35.487  34.707  28.936  1.00  0.00     0.014 A 
ATOM     30  C   UNL A   1      34.031  33.826  30.659  1.00  0.00     0.014 A 
ATOM     31  C   UNL A   1      36.568  34.057  29.517  1.00  0.00     0.010 A 
ATOM     32  C   UNL A   1      35.135  33.252  31.294  1.00  0.00     0.010 A 
ATOM     33  C   UNL A   1      36.404  33.320  30.701  1.00  0.00    -0.014 A 
BRANCH  33  34
ATOM     34  C   UNL A   1      37.575  32.621  31.289  1.00  0.00     0.031 A 
ATOM     35  C   UNL A   1      38.054  32.961  32.674  1.00  0.00     0.074 A 
ATOM     36  C   UNL A   1      38.168  31.631  30.592  1.00  0.00     0.049 A 
ATOM     37  N   UNL A   1      39.048  32.447  33.354  1.00  0.00    -0.248 NA
ATOM     38  C   UNL A   1      37.323  34.018  33.393  1.00  0.00     0.031 C 
ATOM     39  C   UNL A   1      37.778  31.201  29.248  1.00  0.00     0.029 A 
ATOM     40  N   UNL A   1      39.200  30.792  30.923  1.00  0.00    -0.354 N 
ATOM     41  C   UNL A   1      39.071  33.124  34.567  1.00  0.00     0.074 A 
ATOM     42  C   UNL A   1      38.015  34.112  34.520  1.00  0.00     0.031 C 
ATOM     43  C   UNL A   1      38.522  30.145  28.893  1.00  0.00     0.029 A 
ATOM     44  C   UNL A   1      39.488  29.867  29.950  1.00  0.00     0.049 A 
ATOM     45  H   UNL A   1      39.689  30.848  31.776  1.00  0.00     0.167 HD
ATOM     46  C   UNL A   1      39.889  32.924  35.628  1.00  0.00     0.037 A 
ATOM     47  C   UNL A   1      40.435  28.911  29.906  1.00  0.00     0.037 A 
ATOM     48  C   UNL A   1      40.922  31.923  35.676  1.00  0.00     0.049 A 
ATOM     49  C   UNL A   1      41.366  28.753  31.074  1.00  0.00     0.074 A 
ATOM     50  C   UNL A   1      41.792  31.633  36.712  1.00  0.00     0.029 A 
ATOM     51  N   UNL A   1      41.225  31.047  34.643  1.00  0.00    -0.354 N 
ATOM     52  N   UNL A   1      41.373  29.395  32.217  1.00  0.00    -0.248 NA
ATOM     53  C   UNL A   1      42.426  27.746  30.944  1.00  0.00     0.031 C 
ATOM     54  C   UNL A   1      42.653  30.616  36.290  1.00  0.00     0.029 A 
ATOM     55  C   UNL A   1      42.284  30.233  35.010  1.00  0.00     0.049 A 
ATOM     56  H   UNL A   1      40.756  31.010  33.778  1.00  0.00     0.167 HD
ATOM     57  C   UNL A   1      42.426  28.862  32.946  1.00  0.00     0.074 A 
ATOM     58  C   UNL A   1      43.021  27.827  32.126  1.00  0.00     0.031 C 
ATOM     59  C   UNL A   1      42.863  29.205  34.182  1.00  0.00     0.037 A 
BRANCH  46  60
ATOM     60  C   UNL A   1      39.708  33.804  36.832  1.00  0.00     0.064 A 
ATOM     61  C   UNL A   1      40.296  35.076  36.907  1.00  0.00     0.173 A 
ATOM     62  C   UNL A   1      38.874  33.403  37.887  1.00  0.00     0.173 A 
ATOM     63  F   UNL A   1      41.111  35.502  35.932  1.00  0.00    -0.203 F 
ATOM     64  C   UNL A   1      40.065  35.907  38.001  1.00  0.00     0.198 A 
ATOM     65  C   UNL A   1      38.622  34.249  38.965  1.00  0.00     0.198 A 
ATOM     66  F   UNL A   1      38.282  32.199  37.862  1.00  0.00    -0.203 F 
ATOM     67  F   UNL A   1      40.663  37.105  38.068  1.00  0.00    -0.200 F 
ATOM     68  C   UNL A   1      39.220  35.498  39.023  1.00  0.00     0.200 A 
ATOM     69  F   UNL A   1      37.794  33.857  39.943  1.00  0.00    -0.200 F 
ATOM     70  F   UNL A   1      38.985  36.309  40.064  1.00  0.00    -0.200 F 
ENDBRANCH  46  60
BRANCH  47  71
ATOM     71  C   UNL A   1      40.538  28.033  28.711  1.00  0.00     0.064 A 
ATOM     72  C   UNL A   1      39.854  26.813  28.652  1.00  0.00     0.173 A 
ATOM     73  C   UNL A   1      41.298  28.411  27.592  1.00  0.00     0.173 A 
ATOM     74  F   UNL A   1      39.130  26.399  29.703  1.00  0.00    -0.203 F 
ATOM     75  C   UNL A   1      39.928  26.000  27.522  1.00  0.00     0.198 A 
ATOM     76  C   UNL A   1      41.345  27.613  26.452  1.00  0.00     0.198 A 
ATOM     77  F   UNL A   1      41.969  29.571  27.597  1.00  0.00    -0.203 F 
ATOM     78  F   UNL A   1      39.290  24.821  27.505  1.00  0.00    -0.200 F 
ATOM     79  C   UNL A   1      40.666  26.405  26.420  1.00  0.00     0.200 A 
ATOM     80  F   UNL A   1      42.044  28.017  25.383  1.00  0.00    -0.200 F 
ATOM     81  F   UNL A   1      40.723  25.631  25.328  1.00  0.00    -0.200 F 
ENDBRANCH  47  71
BRANCH  59  82
ATOM     82  C   UNL A   1      44.035  28.449  34.737  1.00  0.00     0.064 A 
ATOM     83  C   UNL A   1      45.348  28.920  34.587  1.00  0.00     0.173 A 
ATOM     84  C   UNL A   1      43.837  27.280  35.489  1.00  0.00     0.173 A 
ATOM     85  F   UNL A   1      45.589  30.025  33.866  1.00  0.00    -0.203 F 
ATOM     86  C   UNL A   1      46.420  28.241  35.157  1.00  0.00     0.198 A 
ATOM     87  C   UNL A   1      44.909  26.621  36.083  1.00  0.00     0.198 A 
ATOM     88  F   UNL A   1      42.600  26.793  35.668  1.00  0.00    -0.203 F 
ATOM     89  F   UNL A   1      47.669  28.688  34.970  1.00  0.00    -0.200 F 
ATOM     90  C   UNL A   1      46.199  27.099  35.913  1.00  0.00     0.200 A 
ATOM     91  F   UNL A   1      44.692  25.528  36.828  1.00  0.00    -0.200 F 
ATOM     92  F   UNL A   1      47.232  26.457  36.477  1.00  0.00    -0.200 F 
ENDBRANCH  59  82
ENDBRANCH  33  34
ENDBRANCH  25  28
ENDBRANCH  23  24
ENDBRANCH   1  23
TORSDOF 12
ENDMDL
MODEL 2
REMARK VINA RESULT:     -12.5      1.130      1.736
REMARK SMILES C=CCn1c(=S)[nH]c2cc(C(=O)NCCCNC(=O)c3ccc(-c4c5nc(c(-c6c(F)c(F)c(F)c(F)c6F)c6ccc([nH]6)c(-c6c(F)c(F)c(F)c(F)c6F)c6nc(c(-c7c(F)c(F)c(F)c(F)c7F)c7ccc4[nH]7)C=C6)C=C5)cc3)ccc2c1=O
REMARK SMILES IDX 15 1 14 2 13 3 11 4 12 5 10 7 4 8 5 9 86 10 6 11 7 12 85 13
REMARK SMILES IDX 87 14 8 15 84 17 9 18 83 19 3 20 2 21 1 22 16 23 17 24 18 25
REMARK SMILES IDX 19 27 20 28 21 29 82 30 22 31 81 32 23 33 24 34 25 35 75 36
REMARK SMILES IDX 26 37 80 38 74 39 76 40 27 41 79 42 73 43 72 44 28 46 60 47
REMARK SMILES IDX 40 48 59 49 41 50 44 51 58 52 77 53 42 54 43 55 57 57 78 58
REMARK SMILES IDX 45 59 29 60 30 61 38 62 31 63 32 64 36 65 39 66 33 67 34 68
REMARK SMILES IDX 37 69 35 70 61 71 62 72 70 73 63 74 64 75 68 76 71 77 65 78
REMARK SMILES IDX 66 79 69 80 67 81 46 82 47 83 55 84 48 85 49 86 53 87 56 88
REMARK SMILES IDX 50 89 51 90 54 91 52 92
REMARK H PARENT 13 6 7 16 17 26 76 45 44 56
REMARK Flexibility Score: inf
ROOT
ATOM      1  C   UNL A   1      31.436  32.253  26.539  1.00  0.00     0.042 C 
ENDROOT
BRANCH   1   2
ATOM      2  C   UNL A   1      31.616  30.773  26.208  1.00  0.00     0.118 C 
BRANCH   2   3
ATOM      3  N   UNL A   1      31.088  30.475  24.890  1.00  0.00    -0.352 N 
ATOM      4  C   UNL A   1      31.121  29.352  24.105  1.00  0.00     0.251 C 
ATOM      5  O   UNL A   1      30.570  29.419  23.006  1.00  0.00    -0.269 OA
ATOM      6  H   UNL A   1      30.610  31.229  24.476  1.00  0.00     0.163 HD
BRANCH   4   7
ATOM      7  C   UNL A   1      31.736  28.058  24.522  1.00  0.00     0.041 A 
ATOM      8  N   UNL A   1      32.327  23.444  26.486  1.00  0.00    -0.281 N 
ATOM      9  C   UNL A   1      30.969  23.735  26.617  1.00  0.00     0.180 A 
ATOM     10  C   UNL A   1      33.270  24.385  26.054  1.00  0.00     0.262 A 
ATOM     11  S   UNL A   1      29.757  22.705  27.150  1.00  0.00    -0.040 S 
ATOM     12  N   UNL A   1      30.571  25.002  26.267  1.00  0.00    -0.332 N 
ATOM     13  C   UNL A   1      32.747  25.632  25.487  1.00  0.00     0.064 A 
ATOM     14  O   UNL A   1      34.490  24.244  26.121  1.00  0.00    -0.269 OA
ATOM     15  C   UNL A   1      31.412  25.942  25.674  1.00  0.00     0.054 A 
ATOM     16  H   UNL A   1      29.638  25.261  26.445  1.00  0.00     0.169 HD
ATOM     17  C   UNL A   1      33.569  26.480  24.751  1.00  0.00     0.017 A 
ATOM     18  C   UNL A   1      30.910  27.163  25.227  1.00  0.00     0.040 A 
ATOM     19  C   UNL A   1      33.048  27.666  24.233  1.00  0.00     0.015 A 
BRANCH   8  20
ATOM     20  C   UNL A   1      32.888  22.134  26.817  1.00  0.00     0.155 C 
BRANCH  20  21
ATOM     21  C   UNL A   1      32.877  21.286  25.570  1.00  0.00    -0.013 C 
ATOM     22  C   UNL A   1      33.938  20.602  25.119  1.00  0.00     0.006 C 
ENDBRANCH  20  21
ENDBRANCH   8  20
ENDBRANCH   4   7
ENDBRANCH   2   3
ENDBRANCH   1   2
BRANCH   1  23
ATOM     23  C   UNL A   1      32.624  32.833  27.295  1.00  0.00     0.118 C 
BRANCH  23  24
ATOM     24  N   UNL A   1      32.407  34.226  27.666  1.00  0.00    -0.352 N 
ATOM     25  C   UNL A   1      33.007  34.981  28.646  1.00  0.00     0.251 C 
ATOM     26  H   UNL A   1      31.727  34.698  27.133  1.00  0.00     0.163 HD
ATOM     27  O   UNL A   1      32.545  36.072  28.949  1.00  0.00    -0.269 OA
BRANCH  25  28
ATOM     28  C   UNL A   1      34.198  34.458  29.350  1.00  0.00     0.039 A 
ATOM     29  C   UNL A   1      35.475  34.640  28.817  1.00  0.00     0.014 A 
ATOM     30  C   UNL A   1      34.029  33.773  30.556  1.00  0.00     0.014 A 
ATOM     31  C   UNL A   1      36.558  33.990  29.392  1.00  0.00     0.010 A 
ATOM     32  C   UNL A   1      35.137  33.199  31.185  1.00  0.00     0.010 A 
ATOM     33  C   UNL A   1      36.402  33.260  30.582  1.00  0.00    -0.014 A 
BRANCH  33  34
ATOM     34  C   UNL A   1      37.575  32.560  31.164  1.00  0.00     0.031 A 
ATOM     35  C   UNL A   1      38.060  32.900  32.548  1.00  0.00     0.074 A 
ATOM     36  C   UNL A   1      38.165  31.572  30.464  1.00  0.00     0.049 A 
ATOM     37  N   UNL A   1      39.057  32.385  33.223  1.00  0.00    -0.248 NA
ATOM     38  C   UNL A   1      37.332  33.955  33.271  1.00  0.00     0.031 C 
ATOM     39  C   UNL A   1      37.770  31.143  29.121  1.00  0.00     0.029 A 
ATOM     40  N   UNL A   1      39.199  30.732  30.790  1.00  0.00    -0.354 N 
ATOM     41  C   UNL A   1      39.085  33.061  34.436  1.00  0.00     0.074 A 
ATOM     42  C   UNL A   1      38.029  34.048  34.395  1.00  0.00     0.031 C 
ATOM     43  C   UNL A   1      38.512  30.087  28.762  1.00  0.00     0.029 A 
ATOM     44  C   UNL A   1      39.483  29.808  29.814  1.00  0.00     0.049 A 
ATOM     45  H   UNL A   1      39.692  30.787  31.641  1.00  0.00     0.167 HD
ATOM     46  C   UNL A   1      39.907  32.860  35.493  1.00  0.00     0.037 A 
ATOM     47  C   UNL A   1      40.429  28.852  29.766  1.00  0.00     0.037 A 
ATOM     48  C   UNL A   1      40.940  31.859  35.537  1.00  0.00     0.049 A 
ATOM     49  C   UNL A   1      41.365  28.693  30.930  1.00  0.00     0.074 A 
ATOM     50  C   UNL A   1      41.815  31.568  36.569  1.00  0.00     0.029 A 
ATOM     51  N   UNL A   1      41.239  30.984  34.501  1.00  0.00    -0.354 N 
ATOM     52  N   UNL A   1      41.378  29.334  32.074  1.00  0.00    -0.248 NA
ATOM     53  C   UNL A   1      42.425  27.686  30.794  1.00  0.00     0.031 C 
ATOM     54  C   UNL A   1      42.674  30.552  36.142  1.00  0.00     0.029 A 
ATOM     55  C   UNL A   1      42.300  30.170  34.863  1.00  0.00     0.049 A 
ATOM     56  H   UNL A   1      40.767  30.947  33.638  1.00  0.00     0.167 HD
ATOM     57  C   UNL A   1      42.433  28.801  32.797  1.00  0.00     0.074 A 
ATOM     58  C   UNL A   1      43.024  27.766  31.974  1.00  0.00     0.031 C 
ATOM     59  C   UNL A   1      42.876  29.142  34.032  1.00  0.00     0.037 A 
BRANCH  46  60
ATOM     60  C   UNL A   1      39.731  33.738  36.699  1.00  0.00     0.064 A 
ATOM     61  C   UNL A   1      40.337  35.001  36.783  1.00  0.00     0.173 A 
ATOM     62  C   UNL A   1      38.884  33.347  37.748  1.00  0.00     0.173 A 
ATOM     63  F   UNL A   1      41.165  35.418  35.814  1.00  0.00    -0.203 F 
ATOM     64  C   UNL A   1      40.111  35.833  37.877  1.00  0.00     0.198 A 
ATOM     65  C   UNL A   1      38.638  34.194  38.826  1.00  0.00     0.198 A 
ATOM     66  F   UNL A   1      38.274  32.152  37.715  1.00  0.00    -0.203 F 
ATOM     67  F   UNL A   1      40.726  37.021  37.952  1.00  0.00    -0.200 F 
ATOM     68  C   UNL A   1      39.254  35.433  38.892  1.00  0.00     0.200 A 
ATOM     69  F   UNL A   1      37.797  33.811  39.797  1.00  0.00    -0.200 F 
ATOM     70  F   UNL A   1      39.023  36.244  39.934  1.00  0.00    -0.200 F 
ENDBRANCH  46  60
BRANCH  47  71
ATOM     71  C   UNL A   1      40.528  27.975  28.569  1.00  0.00     0.064 A 
ATOM     72  C   UNL A   1      41.289  28.357  27.457  1.00  0.00     0.173 A 
ATOM     73  C   UNL A   1      39.888  26.726  28.525  1.00  0.00     0.173 A 
ATOM     74  F   UNL A   1      41.903  29.550  27.443  1.00  0.00    -0.203 F 
ATOM     75  C   UNL A   1      41.404  27.527  26.344  1.00  0.00     0.198 A 
ATOM     76  C   UNL A   1      40.030  25.884  27.426  1.00  0.00     0.198 A 
ATOM     77  F   UNL A   1      39.150  26.313  29.565  1.00  0.00    -0.203 F 
ATOM     78  F   UNL A   1      42.111  27.930  25.280  1.00  0.00    -0.200 F 
ATOM     79  C   UNL A   1      40.782  26.287  26.334  1.00  0.00     0.200 A 
ATOM     80  F   UNL A   1      39.443  24.679  27.428  1.00  0.00    -0.200 F 
ATOM     81  F   UNL A   1      40.907  25.481  25.270  1.00  0.00    -0.200 F 
ENDBRANCH  47  71
BRANCH  59  82
ATOM     82  C   UNL A   1      44.050  28.386  34.581  1.00  0.00     0.064 A 
ATOM     83  C   UNL A   1      45.360  28.868  34.445  1.00  0.00     0.173 A 
ATOM     84  C   UNL A   1      43.856  27.205  35.315  1.00  0.00     0.173 A 
ATOM     85  F   UNL A   1      45.597  29.985  33.742  1.00  0.00    -0.203 F 
ATOM     86  C   UNL A   1      46.434  28.188  35.010  1.00  0.00     0.198 A 
ATOM     87  C   UNL A   1      44.930  26.544  35.904  1.00  0.00     0.198 A 
ATOM     88  F   UNL A   1      42.622  26.706  35.480  1.00  0.00    -0.203 F 
ATOM     89  F   UNL A   1      47.681  28.646  34.836  1.00  0.00    -0.200 F 
ATOM     90  C   UNL A   1      46.217  27.033  35.748  1.00  0.00     0.200 A 
ATOM     91  F   UNL A   1      44.716  25.439  36.631  1.00  0.00    -0.200 F 
ATOM     92  F   UNL A   1      47.252  26.389  36.307  1.00  0.00    -0.200 F 
ENDBRANCH  59  82
ENDBRANCH  33  34
ENDBRANCH  25  28
ENDBRANCH  23  24
ENDBRANCH   1  23
TORSDOF 12
ENDMDL
MODEL 3
REMARK VINA RESULT:     -12.4      1.138      1.746
REMARK SMILES C=CCn1c(=S)[nH]c2cc(C(=O)NCCCNC(=O)c3ccc(-c4c5nc(c(-c6c(F)c(F)c(F)c(F)c6F)c6ccc([nH]6)c(-c6c(F)c(F)c(F)c(F)c6F)c6nc(c(-c7c(F)c(F)c(F)c(F)c7F)c7ccc4[nH]7)C=C6)C=C5)cc3)ccc2c1=O
REMARK SMILES IDX 15 1 14 2 13 3 11 4 12 5 10 7 4 8 5 9 86 10 6 11 7 12 85 13
REMARK SMILES IDX 87 14 8 15 84 17 9 18 83 19 3 20 2 21 1 22 16 23 17 24 18 25
REMARK SMILES IDX 19 27 20 28 21 29 82 30 22 31 81 32 23 33 24 34 25 35 75 36
REMARK SMILES IDX 26 37 80 38 74 39 76 40 27 41 79 42 73 43 72 44 28 46 60 47
REMARK SMILES IDX 40 48 59 49 41 50 44 51 58 52 77 53 42 54 43 55 57 57 78 58
REMARK SMILES IDX 45 59 29 60 30 61 38 62 31 63 32 64 36 65 39 66 33 67 34 68
REMARK SMILES IDX 37 69 35 70 61 71 62 72 70 73 63 74 64 75 68 76 71 77 65 78
REMARK SMILES IDX 66 79 69 80 67 81 46 82 47 83 55 84 48 85 49 86 53 87 56 88
REMARK SMILES IDX 50 89 51 90 54 91 52 92
REMARK H PARENT 13 6 7 16 17 26 76 45 44 56
REMARK Flexibility Score: inf
ROOT
ATOM      1  C   UNL A   1      31.413  32.238  26.519  1.00  0.00     0.042 C 
ENDROOT
BRANCH   1   2
ATOM      2  C   UNL A   1      31.613  30.760  26.192  1.00  0.00     0.118 C 
BRANCH   2   3
ATOM      3  N   UNL A   1      31.059  30.444  24.889  1.00  0.00    -0.352 N 
ATOM      4  C   UNL A   1      31.073  29.309  24.121  1.00  0.00     0.251 C 
ATOM      5  O   UNL A   1      30.501  29.363  23.031  1.00  0.00    -0.269 OA
ATOM      6  H   UNL A   1      30.577  31.195  24.473  1.00  0.00     0.163 HD
BRANCH   4   7
ATOM      7  C   UNL A   1      31.691  28.020  24.546  1.00  0.00     0.041 A 
ATOM      8  N   UNL A   1      32.283  23.408  26.514  1.00  0.00    -0.281 N 
ATOM      9  C   UNL A   1      30.921  23.689  26.624  1.00  0.00     0.180 A 
ATOM     10  C   UNL A   1      33.226  24.355  26.097  1.00  0.00     0.262 A 
ATOM     11  S   UNL A   1      29.709  22.649  27.137  1.00  0.00    -0.040 S 
ATOM     12  N   UNL A   1      30.520  24.953  26.269  1.00  0.00    -0.332 N 
ATOM     13  C   UNL A   1      32.703  25.599  25.524  1.00  0.00     0.064 A 
ATOM     14  O   UNL A   1      34.446  24.223  26.184  1.00  0.00    -0.269 OA
ATOM     15  C   UNL A   1      31.363  25.900  25.691  1.00  0.00     0.054 A 
ATOM     16  H   UNL A   1      29.583  25.205  26.433  1.00  0.00     0.169 HD
ATOM     17  C   UNL A   1      33.531  26.454  24.802  1.00  0.00     0.017 A 
ATOM     18  C   UNL A   1      30.860  27.118  25.237  1.00  0.00     0.040 A 
ATOM     19  C   UNL A   1      33.009  27.637  24.278  1.00  0.00     0.015 A 
BRANCH   8  20
ATOM     20  C   UNL A   1      32.848  22.101  26.852  1.00  0.00     0.155 C 
BRANCH  20  21
ATOM     21  C   UNL A   1      32.890  21.265  25.598  1.00  0.00    -0.013 C 
ATOM     22  C   UNL A   1      34.009  20.723  25.096  1.00  0.00     0.006 C 
ENDBRANCH  20  21
ENDBRANCH   8  20
ENDBRANCH   4   7
ENDBRANCH   2   3
ENDBRANCH   1   2
BRANCH   1  23
ATOM     23  C   UNL A   1      32.570  32.823  27.320  1.00  0.00     0.118 C 
BRANCH  23  24
ATOM     24  N   UNL A   1      32.351  34.226  27.648  1.00  0.00    -0.352 N 
ATOM     25  C   UNL A   1      32.953  35.012  28.604  1.00  0.00     0.251 C 
ATOM     26  H   UNL A   1      31.669  34.681  27.104  1.00  0.00     0.163 HD
ATOM     27  O   UNL A   1      32.489  36.111  28.874  1.00  0.00    -0.269 OA
BRANCH  25  28
ATOM     28  C   UNL A   1      34.146  34.513  29.320  1.00  0.00     0.039 A 
ATOM     29  C   UNL A   1      35.416  34.631  28.753  1.00  0.00     0.014 A 
ATOM     30  C   UNL A   1      33.987  33.914  30.572  1.00  0.00     0.014 A 
ATOM     31  C   UNL A   1      36.497  33.999  29.352  1.00  0.00     0.010 A 
ATOM     32  C   UNL A   1      35.095  33.360  31.219  1.00  0.00     0.010 A 
ATOM     33  C   UNL A   1      36.349  33.354  30.590  1.00  0.00    -0.014 A 
BRANCH  33  34
ATOM     34  C   UNL A   1      37.519  32.671  31.198  1.00  0.00     0.031 A 
ATOM     35  C   UNL A   1      37.982  33.032  32.584  1.00  0.00     0.074 A 
ATOM     36  C   UNL A   1      38.126  31.677  30.519  1.00  0.00     0.049 A 
ATOM     37  N   UNL A   1      38.974  32.533  33.279  1.00  0.00    -0.248 NA
ATOM     38  C   UNL A   1      37.237  34.091  33.283  1.00  0.00     0.031 C 
ATOM     39  C   UNL A   1      37.752  31.228  29.177  1.00  0.00     0.029 A 
ATOM     40  N   UNL A   1      39.161  30.850  30.870  1.00  0.00    -0.354 N 
ATOM     41  C   UNL A   1      38.980  33.225  34.483  1.00  0.00     0.074 A 
ATOM     42  C   UNL A   1      37.918  34.204  34.415  1.00  0.00     0.031 C 
ATOM     43  C   UNL A   1      38.507  30.173  28.841  1.00  0.00     0.029 A 
ATOM     44  C   UNL A   1      39.465  29.915  29.911  1.00  0.00     0.049 A 
ATOM     45  H   UNL A   1      39.642  30.920  31.727  1.00  0.00     0.167 HD
ATOM     46  C   UNL A   1      39.789  33.043  35.554  1.00  0.00     0.037 A 
ATOM     47  C   UNL A   1      40.419  28.965  29.888  1.00  0.00     0.037 A 
ATOM     48  C   UNL A   1      40.830  32.051  35.625  1.00  0.00     0.049 A 
ATOM     49  C   UNL A   1      41.340  28.829  31.066  1.00  0.00     0.074 A 
ATOM     50  C   UNL A   1      41.692  31.780  36.672  1.00  0.00     0.029 A 
ATOM     51  N   UNL A   1      41.148  31.165  34.605  1.00  0.00    -0.354 N 
ATOM     52  N   UNL A   1      41.332  29.484  32.201  1.00  0.00    -0.248 NA
ATOM     53  C   UNL A   1      42.409  27.828  30.958  1.00  0.00     0.031 C 
ATOM     54  C   UNL A   1      42.564  30.765  36.270  1.00  0.00     0.029 A 
ATOM     55  C   UNL A   1      42.210  30.364  34.992  1.00  0.00     0.049 A 
ATOM     56  H   UNL A   1      40.688  31.114  33.736  1.00  0.00     0.167 HD
ATOM     57  C   UNL A   1      42.382  28.968  32.946  1.00  0.00     0.074 A 
ATOM     58  C   UNL A   1      42.991  27.928  32.145  1.00  0.00     0.031 C 
ATOM     59  C   UNL A   1      42.805  29.329  34.182  1.00  0.00     0.037 A 
BRANCH  46  60
ATOM     60  C   UNL A   1      39.591  33.936  36.746  1.00  0.00     0.064 A 
ATOM     61  C   UNL A   1      38.809  33.539  37.841  1.00  0.00     0.173 A 
ATOM     62  C   UNL A   1      40.255  35.171  36.828  1.00  0.00     0.173 A 
ATOM     63  F   UNL A   1      38.144  32.375  37.808  1.00  0.00    -0.203 F 
ATOM     64  C   UNL A   1      38.689  34.349  38.967  1.00  0.00     0.198 A 
ATOM     65  C   UNL A   1      40.155  35.965  37.968  1.00  0.00     0.198 A 
ATOM     66  F   UNL A   1      41.020  35.596  35.812  1.00  0.00    -0.203 F 
ATOM     67  F   UNL A   1      37.910  33.964  39.988  1.00  0.00    -0.200 F 
ATOM     68  C   UNL A   1      39.370  35.556  39.035  1.00  0.00     0.200 A 
ATOM     69  F   UNL A   1      40.827  37.123  38.036  1.00  0.00    -0.200 F 
ATOM     70  F   UNL A   1      39.268  36.325  40.128  1.00  0.00    -0.200 F 
ENDBRANCH  46  60
BRANCH  47  71
ATOM     71  C   UNL A   1      40.540  28.074  28.704  1.00  0.00     0.064 A 
ATOM     72  C   UNL A   1      39.873  26.844  28.657  1.00  0.00     0.173 A 
ATOM     73  C   UNL A   1      41.300  28.448  27.584  1.00  0.00     0.173 A 
ATOM     74  F   UNL A   1      39.150  26.433  29.710  1.00  0.00    -0.203 F 
ATOM     75  C   UNL A   1      39.963  26.017  27.539  1.00  0.00     0.198 A 
ATOM     76  C   UNL A   1      41.364  27.636  26.455  1.00  0.00     0.198 A 
ATOM     77  F   UNL A   1      41.955  29.617  27.577  1.00  0.00    -0.203 F 
ATOM     78  F   UNL A   1      39.342  24.830  27.533  1.00  0.00    -0.200 F 
ATOM     79  C   UNL A   1      40.701  26.419  26.435  1.00  0.00     0.200 A 
ATOM     80  F   UNL A   1      42.062  28.037  25.383  1.00  0.00    -0.200 F 
ATOM     81  F   UNL A   1      40.774  25.632  25.353  1.00  0.00    -0.200 F 
ENDBRANCH  47  71
BRANCH  59  82
ATOM     82  C   UNL A   1      43.977  28.589  34.757  1.00  0.00     0.064 A 
ATOM     83  C   UNL A   1      45.286  29.072  34.622  1.00  0.00     0.173 A 
ATOM     84  C   UNL A   1      43.781  27.423  35.514  1.00  0.00     0.173 A 
ATOM     85  F   UNL A   1      45.526  30.175  33.897  1.00  0.00    -0.203 F 
ATOM     86  C   UNL A   1      46.358  28.408  35.209  1.00  0.00     0.198 A 
ATOM     87  C   UNL A   1      44.851  26.779  36.126  1.00  0.00     0.198 A 
ATOM     88  F   UNL A   1      42.546  26.924  35.680  1.00  0.00    -0.203 F 
ATOM     89  F   UNL A   1      47.605  28.867  35.036  1.00  0.00    -0.200 F 
ATOM     90  C   UNL A   1      46.139  27.268  35.971  1.00  0.00     0.200 A 
ATOM     91  F   UNL A   1      44.635  25.689  36.875  1.00  0.00    -0.200 F 
ATOM     92  F   UNL A   1      47.171  26.641  36.552  1.00  0.00    -0.200 F 
ENDBRANCH  59  82
ENDBRANCH  33  34
ENDBRANCH  25  28
ENDBRANCH  23  24
ENDBRANCH   1  23
TORSDOF 12
ENDMDL
