MODEL 1
REMARK VINA RESULT:     -11.8      0.000      0.000
REMARK SMILES O=C(NCCCNC(=O)[C@@H]1C[C@@H]2CC(=O)[C@H]1C2)c1ccc(-c2c3nc(c(-c4c(F)c(F)c(F)c(F)c4F)c4ccc([nH]4)c(-c4c(F)c(F)c(F)c(F)c4F)c4nc(c(-c5c(F)c(F)c(F)c(F)c5F)c5ccc2[nH]5)C=C4)C=C3)cc1
REMARK SMILES IDX 4 1 3 2 1 3 2 4 18 6 19 7 80 8 20 9 79 10 21 11 22 12 23 13
REMARK SMILES IDX 73 14 24 15 78 16 72 17 74 18 25 19 77 20 71 21 70 22 26 24
REMARK SMILES IDX 58 25 38 26 57 27 39 28 42 29 56 30 75 31 40 32 41 33 55 35
REMARK SMILES IDX 76 36 43 37 27 38 28 39 36 40 29 41 30 42 34 43 37 44 31 45
REMARK SMILES IDX 32 46 35 47 33 48 59 49 60 50 68 51 61 52 62 53 66 54 69 55
REMARK SMILES IDX 63 56 64 57 67 58 65 59 44 60 45 61 53 62 46 63 47 64 51 65
REMARK SMILES IDX 54 66 48 67 49 68 52 69 50 70 5 71 6 72 7 73 8 74 9 76 10 77
REMARK SMILES IDX 11 78 16 79 12 80 14 81 17 82 13 83 15 84
REMARK H PARENT 3 5 74 23 42 34 7 75
REMARK Flexibility Score: inf
ROOT
ATOM      1  C   UNL A   1      32.807  32.958  27.129  1.00  0.00     0.118 C 
ENDROOT
BRANCH   1   2
ATOM      2  N   UNL A   1      32.563  34.305  27.627  1.00  0.00    -0.352 N 
ATOM      3  O   UNL A   1      32.519  35.991  29.109  1.00  0.00    -0.269 OA
ATOM      4  C   UNL A   1      33.053  34.949  28.736  1.00  0.00     0.251 C 
ATOM      5  H   UNL A   1      31.945  34.841  27.078  1.00  0.00     0.163 HD
BRANCH   4   6
ATOM      6  C   UNL A   1      34.206  34.411  29.496  1.00  0.00     0.039 A 
ATOM      7  C   UNL A   1      34.028  33.657  30.657  1.00  0.00     0.014 A 
ATOM      8  C   UNL A   1      35.497  34.577  28.978  1.00  0.00     0.014 A 
ATOM      9  C   UNL A   1      35.129  33.178  31.361  1.00  0.00     0.010 A 
ATOM     10  C   UNL A   1      36.597  34.009  29.630  1.00  0.00     0.010 A 
ATOM     11  C   UNL A   1      36.424  33.310  30.834  1.00  0.00    -0.014 A 
BRANCH  11  12
ATOM     12  C   UNL A   1      37.558  32.608  31.489  1.00  0.00     0.031 A 
ATOM     13  C   UNL A   1      38.247  31.448  30.832  1.00  0.00     0.074 A 
ATOM     14  C   UNL A   1      37.954  33.027  32.709  1.00  0.00     0.049 A 
ATOM     15  N   UNL A   1      39.225  30.704  31.286  1.00  0.00    -0.248 NA
ATOM     16  C   UNL A   1      37.774  31.062  29.494  1.00  0.00     0.031 C 
ATOM     17  C   UNL A   1      37.348  34.131  33.457  1.00  0.00     0.029 A 
ATOM     18  N   UNL A   1      38.956  32.581  33.534  1.00  0.00    -0.354 N 
ATOM     19  C   UNL A   1      39.472  29.753  30.304  1.00  0.00     0.074 A 
ATOM     20  C   UNL A   1      38.525  29.999  29.236  1.00  0.00     0.031 C 
ATOM     21  C   UNL A   1      38.008  34.299  34.610  1.00  0.00     0.029 A 
ATOM     22  C   UNL A   1      39.035  33.269  34.721  1.00  0.00     0.049 A 
ATOM     23  H   UNL A   1      39.560  31.840  33.299  1.00  0.00     0.167 HD
ATOM     24  C   UNL A   1      40.407  28.772  30.298  1.00  0.00     0.037 A 
ATOM     25  C   UNL A   1      39.820  33.076  35.796  1.00  0.00     0.037 A 
ATOM     26  C   UNL A   1      41.355  28.547  31.361  1.00  0.00     0.049 A 
ATOM     27  C   UNL A   1      40.820  31.956  35.773  1.00  0.00     0.074 A 
ATOM     28  C   UNL A   1      42.379  27.617  31.420  1.00  0.00     0.029 A 
ATOM     29  N   UNL A   1      41.387  29.250  32.557  1.00  0.00    -0.354 N 
ATOM     30  N   UNL A   1      41.081  31.100  34.816  1.00  0.00    -0.248 NA
ATOM     31  C   UNL A   1      41.632  31.769  36.984  1.00  0.00     0.031 C 
ATOM     32  C   UNL A   1      42.989  27.714  32.674  1.00  0.00     0.029 A 
ATOM     33  C   UNL A   1      42.389  28.748  33.375  1.00  0.00     0.049 A 
ATOM     34  H   UNL A   1      40.789  29.997  32.790  1.00  0.00     0.167 HD
ATOM     35  C   UNL A   1      42.094  30.286  35.298  1.00  0.00     0.074 A 
ATOM     36  C   UNL A   1      42.418  30.765  36.626  1.00  0.00     0.031 C 
ATOM     37  C   UNL A   1      42.700  29.234  34.695  1.00  0.00     0.037 A 
BRANCH  24  38
ATOM     38  C   UNL A   1      40.446  27.844  29.117  1.00  0.00     0.064 A 
ATOM     39  C   UNL A   1      39.666  26.681  29.062  1.00  0.00     0.173 A 
ATOM     40  C   UNL A   1      41.230  28.160  27.996  1.00  0.00     0.173 A 
ATOM     41  F   UNL A   1      38.904  26.327  30.109  1.00  0.00    -0.203 F 
ATOM     42  C   UNL A   1      39.683  25.857  27.938  1.00  0.00     0.198 A 
ATOM     43  C   UNL A   1      41.222  27.350  26.862  1.00  0.00     0.198 A 
ATOM     44  F   UNL A   1      41.989  29.265  27.990  1.00  0.00    -0.203 F 
ATOM     45  F   UNL A   1      38.959  24.729  27.924  1.00  0.00    -0.200 F 
ATOM     46  C   UNL A   1      40.454  26.197  26.836  1.00  0.00     0.200 A 
ATOM     47  F   UNL A   1      41.957  27.688  25.793  1.00  0.00    -0.200 F 
ATOM     48  F   UNL A   1      40.461  25.409  25.752  1.00  0.00    -0.200 F 
ENDBRANCH  24  38
BRANCH  25  49
ATOM     49  C   UNL A   1      39.669  33.950  36.990  1.00  0.00     0.064 A 
ATOM     50  C   UNL A   1      38.884  33.556  38.081  1.00  0.00     0.173 A 
ATOM     51  C   UNL A   1      40.311  35.196  37.064  1.00  0.00     0.173 A 
ATOM     52  F   UNL A   1      38.234  32.384  38.051  1.00  0.00    -0.203 F 
ATOM     53  C   UNL A   1      38.729  34.384  39.192  1.00  0.00     0.198 A 
ATOM     54  C   UNL A   1      40.184  36.006  38.188  1.00  0.00     0.198 A 
ATOM     55  F   UNL A   1      41.079  35.618  36.048  1.00  0.00    -0.203 F 
ATOM     56  F   UNL A   1      37.933  34.005  40.201  1.00  0.00    -0.200 F 
ATOM     57  C   UNL A   1      39.387  35.604  39.247  1.00  0.00     0.200 A 
ATOM     58  F   UNL A   1      40.836  37.176  38.245  1.00  0.00    -0.200 F 
ATOM     59  F   UNL A   1      39.242  36.397  40.318  1.00  0.00    -0.200 F 
ENDBRANCH  25  49
BRANCH  37  60
ATOM     60  C   UNL A   1      43.793  28.544  35.457  1.00  0.00     0.064 A 
ATOM     61  C   UNL A   1      45.138  28.907  35.304  1.00  0.00     0.173 A 
ATOM     62  C   UNL A   1      43.486  27.531  36.380  1.00  0.00     0.173 A 
ATOM     63  F   UNL A   1      45.486  29.855  34.420  1.00  0.00    -0.203 F 
ATOM     64  C   UNL A   1      46.139  28.268  36.031  1.00  0.00     0.198 A 
ATOM     65  C   UNL A   1      44.485  26.917  37.128  1.00  0.00     0.198 A 
ATOM     66  F   UNL A   1      42.213  27.150  36.566  1.00  0.00    -0.203 F 
ATOM     67  F   UNL A   1      47.423  28.599  35.834  1.00  0.00    -0.200 F 
ATOM     68  C   UNL A   1      45.811  27.280  36.948  1.00  0.00     0.200 A 
ATOM     69  F   UNL A   1      44.165  25.973  38.024  1.00  0.00    -0.200 F 
ATOM     70  F   UNL A   1      46.775  26.674  37.655  1.00  0.00    -0.200 F 
ENDBRANCH  37  60
ENDBRANCH  11  12
ENDBRANCH   4   6
ENDBRANCH   1   2
BRANCH   1  71
ATOM     71  C   UNL A   1      31.508  32.202  26.877  1.00  0.00     0.042 C 
BRANCH  71  72
ATOM     72  C   UNL A   1      31.678  30.694  26.742  1.00  0.00     0.117 C 
BRANCH  72  73
ATOM     73  N   UNL A   1      32.884  30.178  27.364  1.00  0.00    -0.356 N 
ATOM     74  C   UNL A   1      33.906  29.380  27.003  1.00  0.00     0.223 C 
ATOM     75  H   UNL A   1      32.979  30.494  28.291  1.00  0.00     0.163 HD
ATOM     76  O   UNL A   1      34.832  29.316  27.825  1.00  0.00    -0.275 OA
BRANCH  74  77
ATOM     77  C   UNL A   1      34.009  28.506  25.763  1.00  0.00     0.089 C 
ATOM     78  C   UNL A   1      33.380  28.780  24.386  1.00  0.00     0.018 C 
ATOM     79  C   UNL A   1      33.543  27.070  26.067  1.00  0.00     0.069 C 
ATOM     80  C   UNL A   1      32.710  27.429  24.017  1.00  0.00    -0.002 C 
ATOM     81  C   UNL A   1      32.033  27.110  26.202  1.00  0.00     0.137 C 
ATOM     82  C   UNL A   1      33.635  26.412  24.688  1.00  0.00     0.016 C 
ATOM     83  C   UNL A   1      31.414  27.256  24.827  1.00  0.00     0.079 C 
ATOM     84  O   UNL A   1      31.412  27.087  27.251  1.00  0.00    -0.299 OA
ENDBRANCH  74  77
ENDBRANCH  72  73
ENDBRANCH  71  72
ENDBRANCH   1  71
TORSDOF 10
ENDMDL
MODEL 2
REMARK VINA RESULT:     -11.7      6.307     11.357
REMARK SMILES O=C(NCCCNC(=O)[C@@H]1C[C@@H]2CC(=O)[C@H]1C2)c1ccc(-c2c3nc(c(-c4c(F)c(F)c(F)c(F)c4F)c4ccc([nH]4)c(-c4c(F)c(F)c(F)c(F)c4F)c4nc(c(-c5c(F)c(F)c(F)c(F)c5F)c5ccc2[nH]5)C=C4)C=C3)cc1
REMARK SMILES IDX 4 1 3 2 1 3 2 4 18 6 19 7 80 8 20 9 79 10 21 11 22 12 23 13
REMARK SMILES IDX 73 14 24 15 78 16 72 17 74 18 25 19 77 20 71 21 70 22 26 24
REMARK SMILES IDX 58 25 38 26 57 27 39 28 42 29 56 30 75 31 40 32 41 33 55 35
REMARK SMILES IDX 76 36 43 37 27 38 28 39 36 40 29 41 30 42 34 43 37 44 31 45
REMARK SMILES IDX 32 46 35 47 33 48 59 49 60 50 68 51 61 52 62 53 66 54 69 55
REMARK SMILES IDX 63 56 64 57 67 58 65 59 44 60 45 61 53 62 46 63 47 64 51 65
REMARK SMILES IDX 54 66 48 67 49 68 52 69 50 70 5 71 6 72 7 73 8 74 9 76 10 77
REMARK SMILES IDX 11 78 16 79 12 80 14 81 17 82 13 83 15 84
REMARK H PARENT 3 5 74 23 42 34 7 75
REMARK Flexibility Score: inf
ROOT
ATOM      1  C   UNL A   1      39.424  19.880  26.087  1.00  0.00     0.118 C 
ENDROOT
BRANCH   1   2
ATOM      2  N   UNL A   1      40.556  18.967  26.022  1.00  0.00    -0.352 N 
ATOM      3  O   UNL A   1      42.684  18.321  25.710  1.00  0.00    -0.269 OA
ATOM      4  C   UNL A   1      41.906  19.216  26.033  1.00  0.00     0.251 C 
ATOM      5  H   UNL A   1      40.314  18.014  25.961  1.00  0.00     0.163 HD
BRANCH   4   6
ATOM      6  C   UNL A   1      42.445  20.542  26.418  1.00  0.00     0.039 A 
ATOM      7  C   UNL A   1      42.914  21.445  25.462  1.00  0.00     0.014 A 
ATOM      8  C   UNL A   1      42.383  20.936  27.760  1.00  0.00     0.014 A 
ATOM      9  C   UNL A   1      43.430  22.678  25.852  1.00  0.00     0.010 A 
ATOM     10  C   UNL A   1      42.807  22.214  28.141  1.00  0.00     0.010 A 
ATOM     11  C   UNL A   1      43.344  23.095  27.190  1.00  0.00    -0.014 A 
BRANCH  11  12
ATOM     12  C   UNL A   1      43.701  24.493  27.547  1.00  0.00     0.031 A 
ATOM     13  C   UNL A   1      42.652  25.500  27.918  1.00  0.00     0.074 A 
ATOM     14  C   UNL A   1      45.002  24.850  27.518  1.00  0.00     0.049 A 
ATOM     15  N   UNL A   1      42.795  26.768  28.217  1.00  0.00    -0.248 NA
ATOM     16  C   UNL A   1      41.259  25.032  27.948  1.00  0.00     0.031 C 
ATOM     17  C   UNL A   1      46.110  23.964  27.153  1.00  0.00     0.029 A 
ATOM     18  N   UNL A   1      45.616  26.045  27.800  1.00  0.00    -0.354 N 
ATOM     19  C   UNL A   1      41.516  27.253  28.452  1.00  0.00     0.074 A 
ATOM     20  C   UNL A   1      40.603  26.149  28.238  1.00  0.00     0.031 C 
ATOM     21  C   UNL A   1      47.266  24.631  27.265  1.00  0.00     0.029 A 
ATOM     22  C   UNL A   1      46.979  26.012  27.635  1.00  0.00     0.049 A 
ATOM     23  H   UNL A   1      45.126  26.848  28.090  1.00  0.00     0.167 HD
ATOM     24  C   UNL A   1      41.143  28.504  28.818  1.00  0.00     0.037 A 
ATOM     25  C   UNL A   1      47.899  26.989  27.736  1.00  0.00     0.037 A 
ATOM     26  C   UNL A   1      42.063  29.592  29.042  1.00  0.00     0.049 A 
ATOM     27  C   UNL A   1      47.449  28.373  28.105  1.00  0.00     0.074 A 
ATOM     28  C   UNL A   1      41.786  30.879  29.472  1.00  0.00     0.029 A 
ATOM     29  N   UNL A   1      43.434  29.525  28.843  1.00  0.00    -0.354 N 
ATOM     30  N   UNL A   1      46.242  28.805  28.379  1.00  0.00    -0.248 NA
ATOM     31  C   UNL A   1      48.488  29.411  28.173  1.00  0.00     0.031 C 
ATOM     32  C   UNL A   1      42.980  31.607  29.472  1.00  0.00     0.029 A 
ATOM     33  C   UNL A   1      44.012  30.759  29.104  1.00  0.00     0.049 A 
ATOM     34  H   UNL A   1      43.926  28.720  28.560  1.00  0.00     0.167 HD
ATOM     35  C   UNL A   1      46.377  30.155  28.667  1.00  0.00     0.074 A 
ATOM     36  C   UNL A   1      47.787  30.467  28.557  1.00  0.00     0.031 C 
ATOM     37  C   UNL A   1      45.417  31.055  28.990  1.00  0.00     0.037 A 
BRANCH  24  38
ATOM     38  C   UNL A   1      39.676  28.783  28.978  1.00  0.00     0.064 A 
ATOM     39  C   UNL A   1      39.025  28.646  30.212  1.00  0.00     0.173 A 
ATOM     40  C   UNL A   1      38.924  29.259  27.892  1.00  0.00     0.173 A 
ATOM     41  F   UNL A   1      39.694  28.188  31.282  1.00  0.00    -0.203 F 
ATOM     42  C   UNL A   1      37.673  28.954  30.350  1.00  0.00     0.198 A 
ATOM     43  C   UNL A   1      37.580  29.594  28.039  1.00  0.00     0.198 A 
ATOM     44  F   UNL A   1      39.497  29.419  26.690  1.00  0.00    -0.203 F 
ATOM     45  F   UNL A   1      37.063  28.777  31.530  1.00  0.00    -0.200 F 
ATOM     46  C   UNL A   1      36.954  29.435  29.265  1.00  0.00     0.200 A 
ATOM     47  F   UNL A   1      36.891  30.073  26.994  1.00  0.00    -0.200 F 
ATOM     48  F   UNL A   1      35.656  29.742  29.402  1.00  0.00    -0.200 F 
ENDBRANCH  24  38
BRANCH  25  49
ATOM     49  C   UNL A   1      49.329  26.692  27.458  1.00  0.00     0.064 A 
ATOM     50  C   UNL A   1      49.836  26.729  26.153  1.00  0.00     0.173 A 
ATOM     51  C   UNL A   1      50.218  26.368  28.494  1.00  0.00     0.173 A 
ATOM     52  F   UNL A   1      49.022  27.014  25.126  1.00  0.00    -0.203 F 
ATOM     53  C   UNL A   1      51.173  26.434  25.892  1.00  0.00     0.198 A 
ATOM     54  C   UNL A   1      51.561  26.107  28.237  1.00  0.00     0.198 A 
ATOM     55  F   UNL A   1      49.785  26.324  29.763  1.00  0.00    -0.203 F 
ATOM     56  F   UNL A   1      51.621  26.427  24.629  1.00  0.00    -0.200 F 
ATOM     57  C   UNL A   1      52.036  26.131  26.935  1.00  0.00     0.200 A 
ATOM     58  F   UNL A   1      52.395  25.833  29.250  1.00  0.00    -0.200 F 
ATOM     59  F   UNL A   1      53.322  25.852  26.684  1.00  0.00    -0.200 F 
ENDBRANCH  25  49
BRANCH  37  60
ATOM     60  C   UNL A   1      45.863  32.460  29.274  1.00  0.00     0.064 A 
ATOM     61  C   UNL A   1      45.892  33.439  28.270  1.00  0.00     0.173 A 
ATOM     62  C   UNL A   1      46.230  32.840  30.574  1.00  0.00     0.173 A 
ATOM     63  F   UNL A   1      45.570  33.121  27.007  1.00  0.00    -0.203 F 
ATOM     64  C   UNL A   1      46.294  34.742  28.553  1.00  0.00     0.198 A 
ATOM     65  C   UNL A   1      46.600  34.151  30.859  1.00  0.00     0.198 A 
ATOM     66  F   UNL A   1      46.215  31.942  31.570  1.00  0.00    -0.203 F 
ATOM     67  F   UNL A   1      46.360  35.649  27.568  1.00  0.00    -0.200 F 
ATOM     68  C   UNL A   1      46.638  35.099  29.849  1.00  0.00     0.200 A 
ATOM     69  F   UNL A   1      46.918  34.497  32.114  1.00  0.00    -0.200 F 
ATOM     70  F   UNL A   1      47.013  36.356  30.121  1.00  0.00    -0.200 F 
ENDBRANCH  37  60
ENDBRANCH  11  12
ENDBRANCH   4   6
ENDBRANCH   1   2
BRANCH   1  71
ATOM     71  C   UNL A   1      38.437  19.643  24.950  1.00  0.00     0.042 C 
BRANCH  71  72
ATOM     72  C   UNL A   1      37.443  20.778  24.737  1.00  0.00     0.117 C 
BRANCH  72  73
ATOM     73  N   UNL A   1      37.948  22.084  25.119  1.00  0.00    -0.356 N 
ATOM     74  C   UNL A   1      37.465  23.175  25.743  1.00  0.00     0.223 C 
ATOM     75  H   UNL A   1      38.888  22.203  24.853  1.00  0.00     0.163 HD
ATOM     76  O   UNL A   1      38.311  24.044  26.001  1.00  0.00    -0.275 OA
BRANCH  74  77
ATOM     77  C   UNL A   1      36.016  23.485  26.085  1.00  0.00     0.089 C 
ATOM     78  C   UNL A   1      34.922  22.474  26.471  1.00  0.00     0.018 C 
ATOM     79  C   UNL A   1      35.348  24.289  24.954  1.00  0.00     0.069 C 
ATOM     80  C   UNL A   1      33.718  22.885  25.583  1.00  0.00    -0.002 C 
ATOM     81  C   UNL A   1      35.119  23.331  23.801  1.00  0.00     0.137 C 
ATOM     82  C   UNL A   1      33.907  24.398  25.456  1.00  0.00     0.016 C 
ATOM     83  C   UNL A   1      33.958  22.417  24.137  1.00  0.00     0.079 C 
ATOM     84  O   UNL A   1      35.793  23.264  22.788  1.00  0.00    -0.299 OA
ENDBRANCH  74  77
ENDBRANCH  72  73
ENDBRANCH  71  72
ENDBRANCH   1  71
TORSDOF 10
ENDMDL
MODEL 3
REMARK VINA RESULT:     -11.7      6.361     11.790
REMARK SMILES O=C(NCCCNC(=O)[C@@H]1C[C@@H]2CC(=O)[C@H]1C2)c1ccc(-c2c3nc(c(-c4c(F)c(F)c(F)c(F)c4F)c4ccc([nH]4)c(-c4c(F)c(F)c(F)c(F)c4F)c4nc(c(-c5c(F)c(F)c(F)c(F)c5F)c5ccc2[nH]5)C=C4)C=C3)cc1
REMARK SMILES IDX 4 1 3 2 1 3 2 4 18 6 19 7 80 8 20 9 79 10 21 11 22 12 23 13
REMARK SMILES IDX 73 14 24 15 78 16 72 17 74 18 25 19 77 20 71 21 70 22 26 24
REMARK SMILES IDX 58 25 38 26 57 27 39 28 42 29 56 30 75 31 40 32 41 33 55 35
REMARK SMILES IDX 76 36 43 37 27 38 28 39 36 40 29 41 30 42 34 43 37 44 31 45
REMARK SMILES IDX 32 46 35 47 33 48 59 49 60 50 68 51 61 52 62 53 66 54 69 55
REMARK SMILES IDX 63 56 64 57 67 58 65 59 44 60 45 61 53 62 46 63 47 64 51 65
REMARK SMILES IDX 54 66 48 67 49 68 52 69 50 70 5 71 6 72 7 73 8 74 9 76 10 77
REMARK SMILES IDX 11 78 16 79 12 80 14 81 17 82 13 83 15 84
REMARK H PARENT 3 5 74 23 42 34 7 75
REMARK Flexibility Score: inf
ROOT
ATOM      1  C   UNL A   1      39.275  20.026  26.094  1.00  0.00     0.118 C 
ENDROOT
BRANCH   1   2
ATOM      2  N   UNL A   1      40.376  19.073  26.126  1.00  0.00    -0.352 N 
ATOM      3  O   UNL A   1      42.482  18.330  25.895  1.00  0.00    -0.269 OA
ATOM      4  C   UNL A   1      41.734  19.277  26.124  1.00  0.00     0.251 C 
ATOM      5  H   UNL A   1      40.102  18.128  26.155  1.00  0.00     0.163 HD
BRANCH   4   6
ATOM      6  C   UNL A   1      42.316  20.615  26.383  1.00  0.00     0.039 A 
ATOM      7  C   UNL A   1      42.621  21.494  25.342  1.00  0.00     0.014 A 
ATOM      8  C   UNL A   1      42.463  21.045  27.708  1.00  0.00     0.014 A 
ATOM      9  C   UNL A   1      43.182  22.738  25.613  1.00  0.00     0.010 A 
ATOM     10  C   UNL A   1      42.932  22.335  27.983  1.00  0.00     0.010 A 
ATOM     11  C   UNL A   1      43.304  23.192  26.936  1.00  0.00    -0.014 A 
BRANCH  11  12
ATOM     12  C   UNL A   1      43.702  24.600  27.195  1.00  0.00     0.031 A 
ATOM     13  C   UNL A   1      42.721  25.609  27.719  1.00  0.00     0.074 A 
ATOM     14  C   UNL A   1      44.974  24.966  26.935  1.00  0.00     0.049 A 
ATOM     15  N   UNL A   1      42.900  26.884  27.962  1.00  0.00    -0.248 NA
ATOM     16  C   UNL A   1      41.360  25.131  28.000  1.00  0.00     0.031 C 
ATOM     17  C   UNL A   1      46.012  24.080  26.404  1.00  0.00     0.029 A 
ATOM     18  N   UNL A   1      45.613  26.172  27.079  1.00  0.00    -0.354 N 
ATOM     19  C   UNL A   1      41.674  27.365  28.403  1.00  0.00     0.074 A 
ATOM     20  C   UNL A   1      40.751  26.250  28.374  1.00  0.00     0.031 C 
ATOM     21  C   UNL A   1      47.163  24.758  26.299  1.00  0.00     0.029 A 
ATOM     22  C   UNL A   1      46.929  26.145  26.683  1.00  0.00     0.049 A 
ATOM     23  H   UNL A   1      45.173  26.978  27.432  1.00  0.00     0.167 HD
ATOM     24  C   UNL A   1      41.356  28.621  28.800  1.00  0.00     0.037 A 
ATOM     25  C   UNL A   1      47.841  27.131  26.602  1.00  0.00     0.037 A 
ATOM     26  C   UNL A   1      42.288  29.721  28.838  1.00  0.00     0.049 A 
ATOM     27  C   UNL A   1      47.446  28.520  27.012  1.00  0.00     0.074 A 
ATOM     28  C   UNL A   1      42.076  31.016  29.281  1.00  0.00     0.029 A 
ATOM     29  N   UNL A   1      43.605  29.660  28.407  1.00  0.00    -0.354 N 
ATOM     30  N   UNL A   1      46.299  28.950  27.481  1.00  0.00    -0.248 NA
ATOM     31  C   UNL A   1      48.470  29.566  26.877  1.00  0.00     0.031 C 
ATOM     32  C   UNL A   1      43.243  31.753  29.059  1.00  0.00     0.029 A 
ATOM     33  C   UNL A   1      44.205  30.904  28.537  1.00  0.00     0.049 A 
ATOM     34  H   UNL A   1      44.050  28.852  28.061  1.00  0.00     0.167 HD
ATOM     35  C   UNL A   1      46.467  30.306  27.712  1.00  0.00     0.074 A 
ATOM     36  C   UNL A   1      47.833  30.626  27.353  1.00  0.00     0.031 C 
ATOM     37  C   UNL A   1      45.567  31.208  28.175  1.00  0.00     0.037 A 
BRANCH  24  38
ATOM     38  C   UNL A   1      39.935  28.894  29.204  1.00  0.00     0.064 A 
ATOM     39  C   UNL A   1      38.954  29.255  28.270  1.00  0.00     0.173 A 
ATOM     40  C   UNL A   1      39.537  28.727  30.540  1.00  0.00     0.173 A 
ATOM     41  F   UNL A   1      39.281  29.436  26.981  1.00  0.00    -0.203 F 
ATOM     42  C   UNL A   1      37.632  29.460  28.660  1.00  0.00     0.198 A 
ATOM     43  C   UNL A   1      38.208  28.904  30.922  1.00  0.00     0.198 A 
ATOM     44  F   UNL A   1      40.431  28.373  31.475  1.00  0.00    -0.203 F 
ATOM     45  F   UNL A   1      36.720  29.843  27.756  1.00  0.00    -0.200 F 
ATOM     46  C   UNL A   1      37.259  29.275  29.983  1.00  0.00     0.200 A 
ATOM     47  F   UNL A   1      37.847  28.710  32.198  1.00  0.00    -0.200 F 
ATOM     48  F   UNL A   1      35.984  29.461  30.355  1.00  0.00    -0.200 F 
ENDBRANCH  24  38
BRANCH  25  49
ATOM     49  C   UNL A   1      49.205  26.838  26.088  1.00  0.00     0.064 A 
ATOM     50  C   UNL A   1      49.524  27.021  24.736  1.00  0.00     0.173 A 
ATOM     51  C   UNL A   1      50.217  26.372  26.940  1.00  0.00     0.173 A 
ATOM     52  F   UNL A   1      48.586  27.446  23.878  1.00  0.00    -0.203 F 
ATOM     53  C   UNL A   1      50.798  26.729  24.252  1.00  0.00     0.198 A 
ATOM     54  C   UNL A   1      51.500  26.114  26.463  1.00  0.00     0.198 A 
ATOM     55  F   UNL A   1      49.966  26.184  28.244  1.00  0.00    -0.203 F 
ATOM     56  F   UNL A   1      51.064  26.866  22.946  1.00  0.00    -0.200 F 
ATOM     57  C   UNL A   1      51.787  26.284  25.118  1.00  0.00     0.200 A 
ATOM     58  F   UNL A   1      52.456  25.701  27.306  1.00  0.00    -0.200 F 
ATOM     59  F   UNL A   1      53.013  26.009  24.653  1.00  0.00    -0.200 F 
ENDBRANCH  25  49
BRANCH  37  60
ATOM     60  C   UNL A   1      46.039  32.622  28.347  1.00  0.00     0.064 A 
ATOM     61  C   UNL A   1      46.611  33.066  29.547  1.00  0.00     0.173 A 
ATOM     62  C   UNL A   1      45.952  33.534  27.283  1.00  0.00     0.173 A 
ATOM     63  F   UNL A   1      46.699  32.238  30.600  1.00  0.00    -0.203 F 
ATOM     64  C   UNL A   1      47.059  34.377  29.685  1.00  0.00     0.198 A 
ATOM     65  C   UNL A   1      46.430  34.834  27.414  1.00  0.00     0.198 A 
ATOM     66  F   UNL A   1      45.416  33.157  26.112  1.00  0.00    -0.203 F 
ATOM     67  F   UNL A   1      47.559  34.792  30.857  1.00  0.00    -0.200 F 
ATOM     68  C   UNL A   1      46.977  35.257  28.615  1.00  0.00     0.200 A 
ATOM     69  F   UNL A   1      46.363  35.678  26.375  1.00  0.00    -0.200 F 
ATOM     70  F   UNL A   1      47.419  36.515  28.746  1.00  0.00    -0.200 F 
ENDBRANCH  37  60
ENDBRANCH  11  12
ENDBRANCH   4   6
ENDBRANCH   1   2
BRANCH   1  71
ATOM     71  C   UNL A   1      38.266  19.692  25.001  1.00  0.00     0.042 C 
BRANCH  71  72
ATOM     72  C   UNL A   1      37.345  20.845  24.626  1.00  0.00     0.117 C 
BRANCH  72  73
ATOM     73  N   UNL A   1      37.824  22.147  25.054  1.00  0.00    -0.356 N 
ATOM     74  C   UNL A   1      37.324  23.199  25.727  1.00  0.00     0.223 C 
ATOM     75  H   UNL A   1      38.757  22.299  24.781  1.00  0.00     0.163 HD
ATOM     76  O   UNL A   1      38.153  24.078  26.009  1.00  0.00    -0.275 OA
BRANCH  74  77
ATOM     77  C   UNL A   1      35.873  23.460  26.100  1.00  0.00     0.089 C 
ATOM     78  C   UNL A   1      34.813  22.409  26.473  1.00  0.00     0.018 C 
ATOM     79  C   UNL A   1      35.166  24.278  25.004  1.00  0.00     0.069 C 
ATOM     80  C   UNL A   1      33.584  22.814  25.616  1.00  0.00    -0.002 C 
ATOM     81  C   UNL A   1      34.943  23.348  23.827  1.00  0.00     0.137 C 
ATOM     82  C   UNL A   1      33.731  24.334  25.531  1.00  0.00     0.016 C 
ATOM     83  C   UNL A   1      33.813  22.394  24.154  1.00  0.00     0.079 C 
ATOM     84  O   UNL A   1      35.603  23.328  22.802  1.00  0.00    -0.299 OA
ENDBRANCH  74  77
ENDBRANCH  72  73
ENDBRANCH  71  72
ENDBRANCH   1  71
TORSDOF 10
ENDMDL
