MODEL 1
REMARK VINA RESULT:     -12.5      0.000      0.000
REMARK SMILES O=C(CC[NH+]1CC[NH+]([C@@H]2CCO[C@@]3(CCOC3)C2)CC1)NCCCNC(=O)c1ccc(-c2c3nc(c(-c4c(F)c(F)c(F)c(F)c4F)c4ccc([nH]4)c(-c4c(F)c(F)c(F)c(F)c4F)c4nc(c(-c5c(F)c(F)c(F)c(F)c5F)c5ccc2[nH]5)C=C4)C=C3)cc1
REMARK SMILES IDX 22 1 21 2 1 3 2 4 3 6 4 7 5 8 6 9 20 10 7 12 19 13 8 14 9 16
REMARK SMILES IDX 10 17 18 18 11 19 13 20 12 21 14 22 17 23 15 24 16 25 23 26
REMARK SMILES IDX 24 27 25 28 26 29 27 31 28 32 29 33 90 34 30 35 89 36 31 37
REMARK SMILES IDX 32 38 33 39 83 40 34 41 88 42 82 43 84 44 35 45 87 46 81 47
REMARK SMILES IDX 80 48 36 50 68 51 48 52 67 53 49 54 52 55 66 56 85 57 50 58
REMARK SMILES IDX 51 59 65 61 86 62 53 63 37 64 38 65 46 66 39 67 40 68 44 69
REMARK SMILES IDX 47 70 41 71 42 72 45 73 43 74 69 75 70 76 78 77 71 78 72 79
REMARK SMILES IDX 76 80 79 81 73 82 74 83 77 84 75 85 54 86 55 87 63 88 56 89
REMARK SMILES IDX 57 90 61 91 64 92 58 93 59 94 62 95 60 96
REMARK H PARENT 21 5 5 11 8 15 25 30 84 49 52 60
REMARK Flexibility Score: inf
ROOT
ATOM      1  C   UNL A   1      31.420  30.663  26.422  1.00  0.00     0.117 C 
ENDROOT
BRANCH   1   2
ATOM      2  N   UNL A   1      31.785  30.075  25.137  1.00  0.00    -0.356 N 
ATOM      3  O   UNL A   1      33.829  29.324  25.869  1.00  0.00    -0.275 OA
ATOM      4  C   UNL A   1      32.961  29.344  25.000  1.00  0.00     0.225 C 
ATOM      5  H   UNL A   1      31.194  30.196  24.359  1.00  0.00     0.163 HD
BRANCH   4   6
ATOM      6  C   UNL A   1      33.092  28.515  23.715  1.00  0.00     0.161 C 
BRANCH   6   7
ATOM      7  C   UNL A   1      32.893  26.976  23.905  1.00  0.00     0.272 C 
BRANCH   7   8
ATOM      8  N   UNL A   1      32.804  26.494  25.311  1.00  0.00    -0.325 N 
ATOM      9  C   UNL A   1      31.702  25.516  25.559  1.00  0.00     0.324 C 
ATOM     10  C   UNL A   1      34.018  25.806  25.722  1.00  0.00     0.324 C 
ATOM     11  H   UNL A   1      32.637  27.350  25.839  1.00  0.00     0.348 HD
ATOM     12  C   UNL A   1      31.928  23.972  25.248  1.00  0.00     0.324 C 
ATOM     13  C   UNL A   1      34.194  24.541  24.875  1.00  0.00     0.324 C 
ATOM     14  N   UNL A   1      33.308  23.425  25.185  1.00  0.00    -0.323 N 
ATOM     15  H   UNL A   1      33.394  22.751  24.424  1.00  0.00     0.348 HD
BRANCH  14  16
ATOM     16  C   UNL A   1      33.693  22.456  26.237  1.00  0.00     0.189 C 
ATOM     17  C   UNL A   1      35.188  22.264  26.432  1.00  0.00     0.093 C 
ATOM     18  C   UNL A   1      33.109  21.002  26.114  1.00  0.00     0.103 C 
ATOM     19  C   UNL A   1      35.729  21.190  25.500  1.00  0.00     0.167 C 
ATOM     20  C   UNL A   1      33.533  20.295  24.820  1.00  0.00     0.099 C 
ATOM     21  O   UNL A   1      34.831  20.806  24.435  1.00  0.00    -0.372 OA
ATOM     22  C   UNL A   1      33.654  18.764  24.797  1.00  0.00     0.066 C 
ATOM     23  C   UNL A   1      32.405  20.505  23.755  1.00  0.00     0.195 C 
ATOM     24  C   UNL A   1      32.532  18.249  23.921  1.00  0.00     0.163 C 
ATOM     25  O   UNL A   1      32.289  19.297  22.989  1.00  0.00    -0.378 OA
ENDBRANCH  14  16
ENDBRANCH   7   8
ENDBRANCH   6   7
ENDBRANCH   4   6
ENDBRANCH   1   2
BRANCH   1  26
ATOM     26  C   UNL A   1      31.402  32.190  26.496  1.00  0.00     0.042 C 
BRANCH  26  27
ATOM     27  C   UNL A   1      32.638  32.880  27.073  1.00  0.00     0.118 C 
BRANCH  27  28
ATOM     28  N   UNL A   1      32.378  34.140  27.755  1.00  0.00    -0.352 N 
ATOM     29  C   UNL A   1      33.086  34.826  28.704  1.00  0.00     0.251 C 
ATOM     30  H   UNL A   1      31.538  34.578  27.485  1.00  0.00     0.163 HD
ATOM     31  O   UNL A   1      32.777  35.953  29.114  1.00  0.00    -0.269 OA
BRANCH  29  32
ATOM     32  C   UNL A   1      34.253  34.273  29.345  1.00  0.00     0.039 A 
ATOM     33  C   UNL A   1      34.041  33.557  30.532  1.00  0.00     0.014 A 
ATOM     34  C   UNL A   1      35.522  34.546  28.852  1.00  0.00     0.014 A 
ATOM     35  C   UNL A   1      35.125  33.051  31.211  1.00  0.00     0.010 A 
ATOM     36  C   UNL A   1      36.596  33.957  29.474  1.00  0.00     0.010 A 
ATOM     37  C   UNL A   1      36.395  33.219  30.653  1.00  0.00    -0.014 A 
BRANCH  37  38
ATOM     38  C   UNL A   1      37.569  32.635  31.298  1.00  0.00     0.031 A 
ATOM     39  C   UNL A   1      38.270  31.519  30.603  1.00  0.00     0.074 A 
ATOM     40  C   UNL A   1      37.871  33.057  32.535  1.00  0.00     0.049 A 
ATOM     41  N   UNL A   1      39.192  30.718  31.058  1.00  0.00    -0.248 NA
ATOM     42  C   UNL A   1      37.832  31.221  29.227  1.00  0.00     0.031 C 
ATOM     43  C   UNL A   1      37.169  34.120  33.263  1.00  0.00     0.029 A 
ATOM     44  N   UNL A   1      38.826  32.628  33.407  1.00  0.00    -0.354 N 
ATOM     45  C   UNL A   1      39.417  29.803  30.041  1.00  0.00     0.074 A 
ATOM     46  C   UNL A   1      38.497  30.107  28.969  1.00  0.00     0.031 C 
ATOM     47  C   UNL A   1      37.731  34.268  34.471  1.00  0.00     0.029 A 
ATOM     48  C   UNL A   1      38.793  33.283  34.611  1.00  0.00     0.049 A 
ATOM     49  H   UNL A   1      39.476  31.919  33.194  1.00  0.00     0.167 HD
ATOM     50  C   UNL A   1      40.335  28.812  30.018  1.00  0.00     0.037 A 
ATOM     51  C   UNL A   1      39.545  33.081  35.705  1.00  0.00     0.037 A 
ATOM     52  C   UNL A   1      41.245  28.579  31.108  1.00  0.00     0.049 A 
ATOM     53  C   UNL A   1      40.587  32.002  35.631  1.00  0.00     0.074 A 
ATOM     54  C   UNL A   1      42.262  27.650  31.207  1.00  0.00     0.029 A 
ATOM     55  N   UNL A   1      41.241  29.305  32.296  1.00  0.00    -0.354 N 
ATOM     56  N   UNL A   1      40.839  31.163  34.653  1.00  0.00    -0.248 NA
ATOM     57  C   UNL A   1      41.458  31.851  36.797  1.00  0.00     0.031 C 
ATOM     58  C   UNL A   1      42.849  27.790  32.470  1.00  0.00     0.029 A 
ATOM     59  C   UNL A   1      42.234  28.841  33.139  1.00  0.00     0.049 A 
ATOM     60  H   UNL A   1      40.622  30.041  32.505  1.00  0.00     0.167 HD
ATOM     61  C   UNL A   1      41.915  30.398  35.072  1.00  0.00     0.074 A 
ATOM     62  C   UNL A   1      42.279  30.895  36.388  1.00  0.00     0.031 C 
ATOM     63  C   UNL A   1      42.549  29.377  34.441  1.00  0.00     0.037 A 
BRANCH  50  64
ATOM     64  C   UNL A   1      40.383  27.938  28.800  1.00  0.00     0.064 A 
ATOM     65  C   UNL A   1      41.138  28.284  27.668  1.00  0.00     0.173 A 
ATOM     66  C   UNL A   1      39.656  26.738  28.756  1.00  0.00     0.173 A 
ATOM     67  F   UNL A   1      41.834  29.432  27.645  1.00  0.00    -0.203 F 
ATOM     68  C   UNL A   1      41.134  27.485  26.527  1.00  0.00     0.198 A 
ATOM     69  C   UNL A   1      39.684  25.923  27.626  1.00  0.00     0.198 A 
ATOM     70  F   UNL A   1      38.910  26.359  29.804  1.00  0.00    -0.203 F 
ATOM     71  F   UNL A   1      41.810  27.874  25.437  1.00  0.00    -0.200 F 
ATOM     72  C   UNL A   1      40.415  26.301  26.510  1.00  0.00     0.200 A 
ATOM     73  F   UNL A   1      38.992  24.775  27.614  1.00  0.00    -0.200 F 
ATOM     74  F   UNL A   1      40.414  25.531  25.413  1.00  0.00    -0.200 F 
ENDBRANCH  50  64
BRANCH  51  75
ATOM     75  C   UNL A   1      39.366  33.942  36.900  1.00  0.00     0.064 A 
ATOM     76  C   UNL A   1      38.646  33.480  38.010  1.00  0.00     0.173 A 
ATOM     77  C   UNL A   1      39.939  35.219  36.981  1.00  0.00     0.173 A 
ATOM     78  F   UNL A   1      38.079  32.265  37.981  1.00  0.00    -0.203 F 
ATOM     79  C   UNL A   1      38.486  34.271  39.145  1.00  0.00     0.198 A 
ATOM     80  C   UNL A   1      39.803  35.999  38.128  1.00  0.00     0.198 A 
ATOM     81  F   UNL A   1      40.659  35.701  35.955  1.00  0.00    -0.203 F 
ATOM     82  F   UNL A   1      37.759  33.818  40.176  1.00  0.00    -0.200 F 
ATOM     83  C   UNL A   1      39.067  35.528  39.205  1.00  0.00     0.200 A 
ATOM     84  F   UNL A   1      40.387  37.203  38.192  1.00  0.00    -0.200 F 
ATOM     85  F   UNL A   1      38.919  36.285  40.301  1.00  0.00    -0.200 F 
ENDBRANCH  51  75
BRANCH  63  86
ATOM     86  C   UNL A   1      43.710  28.770  35.166  1.00  0.00     0.064 A 
ATOM     87  C   UNL A   1      45.024  29.202  34.940  1.00  0.00     0.173 A 
ATOM     88  C   UNL A   1      43.497  27.757  36.113  1.00  0.00     0.173 A 
ATOM     89  F   UNL A   1      45.274  30.157  34.030  1.00  0.00    -0.203 F 
ATOM     90  C   UNL A   1      46.091  28.612  35.608  1.00  0.00     0.198 A 
ATOM     91  C   UNL A   1      44.564  27.197  36.807  1.00  0.00     0.198 A 
ATOM     92  F   UNL A   1      42.256  27.319  36.370  1.00  0.00    -0.203 F 
ATOM     93  F   UNL A   1      47.345  28.995  35.330  1.00  0.00    -0.200 F 
ATOM     94  C   UNL A   1      45.860  27.617  36.546  1.00  0.00     0.200 A 
ATOM     95  F   UNL A   1      44.338  26.247  37.724  1.00  0.00    -0.200 F 
ATOM     96  F   UNL A   1      46.889  27.053  37.191  1.00  0.00    -0.200 F 
ENDBRANCH  63  86
ENDBRANCH  37  38
ENDBRANCH  29  32
ENDBRANCH  27  28
ENDBRANCH  26  27
ENDBRANCH   1  26
TORSDOF 13
ENDMDL
MODEL 2
REMARK VINA RESULT:     -12.2      5.545     11.482
REMARK SMILES O=C(CC[NH+]1CC[NH+]([C@@H]2CCO[C@@]3(CCOC3)C2)CC1)NCCCNC(=O)c1ccc(-c2c3nc(c(-c4c(F)c(F)c(F)c(F)c4F)c4ccc([nH]4)c(-c4c(F)c(F)c(F)c(F)c4F)c4nc(c(-c5c(F)c(F)c(F)c(F)c5F)c5ccc2[nH]5)C=C4)C=C3)cc1
REMARK SMILES IDX 22 1 21 2 1 3 2 4 3 6 4 7 5 8 6 9 20 10 7 12 19 13 8 14 9 16
REMARK SMILES IDX 10 17 18 18 11 19 13 20 12 21 14 22 17 23 15 24 16 25 23 26
REMARK SMILES IDX 24 27 25 28 26 29 27 31 28 32 29 33 90 34 30 35 89 36 31 37
REMARK SMILES IDX 32 38 33 39 83 40 34 41 88 42 82 43 84 44 35 45 87 46 81 47
REMARK SMILES IDX 80 48 36 50 68 51 48 52 67 53 49 54 52 55 66 56 85 57 50 58
REMARK SMILES IDX 51 59 65 61 86 62 53 63 37 64 38 65 46 66 39 67 40 68 44 69
REMARK SMILES IDX 47 70 41 71 42 72 45 73 43 74 69 75 70 76 78 77 71 78 72 79
REMARK SMILES IDX 76 80 79 81 73 82 74 83 77 84 75 85 54 86 55 87 63 88 56 89
REMARK SMILES IDX 57 90 61 91 64 92 58 93 59 94 62 95 60 96
REMARK H PARENT 21 5 5 11 8 15 25 30 84 49 52 60
REMARK Flexibility Score: inf
ROOT
ATOM      1  C   UNL A   1      37.018  20.437  24.614  1.00  0.00     0.117 C 
ENDROOT
BRANCH   1   2
ATOM      2  N   UNL A   1      35.781  20.634  25.362  1.00  0.00    -0.356 N 
ATOM      3  O   UNL A   1      36.397  22.695  26.170  1.00  0.00    -0.275 OA
ATOM      4  C   UNL A   1      35.532  21.835  26.018  1.00  0.00     0.225 C 
ATOM      5  H   UNL A   1      35.115  19.910  25.404  1.00  0.00     0.163 HD
BRANCH   4   6
ATOM      6  C   UNL A   1      34.091  22.054  26.499  1.00  0.00     0.161 C 
BRANCH   6   7
ATOM      7  C   UNL A   1      33.365  23.283  25.861  1.00  0.00     0.272 C 
BRANCH   7   8
ATOM      8  N   UNL A   1      34.162  24.086  24.894  1.00  0.00    -0.325 N 
ATOM      9  C   UNL A   1      33.520  24.253  23.556  1.00  0.00     0.324 C 
ATOM     10  C   UNL A   1      34.388  25.441  25.376  1.00  0.00     0.324 C 
ATOM     11  H   UNL A   1      35.026  23.551  24.804  1.00  0.00     0.348 HD
ATOM     12  C   UNL A   1      32.446  25.404  23.331  1.00  0.00     0.324 C 
ATOM     13  C   UNL A   1      33.043  26.167  25.489  1.00  0.00     0.324 C 
ATOM     14  N   UNL A   1      32.424  26.582  24.236  1.00  0.00    -0.323 N 
ATOM     15  H   UNL A   1      31.464  26.854  24.449  1.00  0.00     0.348 HD
BRANCH  14  16
ATOM     16  C   UNL A   1      32.782  27.891  23.641  1.00  0.00     0.189 C 
ATOM     17  C   UNL A   1      33.209  28.962  24.631  1.00  0.00     0.093 C 
ATOM     18  C   UNL A   1      31.698  28.583  22.736  1.00  0.00     0.103 C 
ATOM     19  C   UNL A   1      32.007  29.735  25.156  1.00  0.00     0.167 C 
ATOM     20  C   UNL A   1      30.397  28.888  23.490  1.00  0.00     0.099 C 
ATOM     21  O   UNL A   1      30.728  29.123  24.879  1.00  0.00    -0.372 OA
ATOM     22  C   UNL A   1      29.529  30.078  23.053  1.00  0.00     0.066 C 
ATOM     23  C   UNL A   1      29.400  27.707  23.245  1.00  0.00     0.195 C 
ATOM     24  C   UNL A   1      28.264  29.501  22.457  1.00  0.00     0.163 C 
ATOM     25  O   UNL A   1      28.081  28.259  23.126  1.00  0.00    -0.378 OA
ENDBRANCH  14  16
ENDBRANCH   7   8
ENDBRANCH   6   7
ENDBRANCH   4   6
ENDBRANCH   1   2
BRANCH   1  26
ATOM     26  C   UNL A   1      38.029  19.455  25.207  1.00  0.00     0.042 C 
BRANCH  26  27
ATOM     27  C   UNL A   1      39.287  20.042  25.847  1.00  0.00     0.118 C 
BRANCH  27  28
ATOM     28  N   UNL A   1      40.460  19.180  25.803  1.00  0.00    -0.352 N 
ATOM     29  C   UNL A   1      41.770  19.407  26.123  1.00  0.00     0.251 C 
ATOM     30  H   UNL A   1      40.276  18.266  25.485  1.00  0.00     0.163 HD
ATOM     31  O   UNL A   1      42.641  18.527  26.130  1.00  0.00    -0.269 OA
BRANCH  29  32
ATOM     32  C   UNL A   1      42.268  20.720  26.451  1.00  0.00     0.039 A 
ATOM     33  C   UNL A   1      42.499  21.594  25.378  1.00  0.00     0.014 A 
ATOM     34  C   UNL A   1      42.600  21.040  27.761  1.00  0.00     0.014 A 
ATOM     35  C   UNL A   1      43.021  22.841  25.630  1.00  0.00     0.010 A 
ATOM     36  C   UNL A   1      43.026  22.320  28.024  1.00  0.00     0.010 A 
ATOM     37  C   UNL A   1      43.241  23.211  26.960  1.00  0.00    -0.014 A 
BRANCH  37  38
ATOM     38  C   UNL A   1      43.723  24.552  27.282  1.00  0.00     0.031 A 
ATOM     39  C   UNL A   1      42.741  25.546  27.801  1.00  0.00     0.074 A 
ATOM     40  C   UNL A   1      44.997  24.844  26.977  1.00  0.00     0.049 A 
ATOM     41  N   UNL A   1      42.881  26.831  27.961  1.00  0.00    -0.248 NA
ATOM     42  C   UNL A   1      41.396  25.036  28.124  1.00  0.00     0.031 C 
ATOM     43  C   UNL A   1      45.973  23.899  26.422  1.00  0.00     0.029 A 
ATOM     44  N   UNL A   1      45.680  26.020  27.065  1.00  0.00    -0.354 N 
ATOM     45  C   UNL A   1      41.637  27.287  28.370  1.00  0.00     0.074 A 
ATOM     46  C   UNL A   1      40.738  26.156  28.374  1.00  0.00     0.031 C 
ATOM     47  C   UNL A   1      47.138  24.535  26.231  1.00  0.00     0.029 A 
ATOM     48  C   UNL A   1      46.970  25.931  26.607  1.00  0.00     0.049 A 
ATOM     49  H   UNL A   1      45.288  26.849  27.422  1.00  0.00     0.167 HD
ATOM     50  C   UNL A   1      41.300  28.546  28.725  1.00  0.00     0.037 A 
ATOM     51  C   UNL A   1      47.896  26.896  26.499  1.00  0.00     0.037 A 
ATOM     52  C   UNL A   1      42.251  29.626  28.727  1.00  0.00     0.049 A 
ATOM     53  C   UNL A   1      47.505  28.276  26.945  1.00  0.00     0.074 A 
ATOM     54  C   UNL A   1      42.072  30.940  29.112  1.00  0.00     0.029 A 
ATOM     55  N   UNL A   1      43.577  29.498  28.325  1.00  0.00    -0.354 N 
ATOM     56  N   UNL A   1      46.342  28.705  27.378  1.00  0.00    -0.248 NA
ATOM     57  C   UNL A   1      48.551  29.299  26.905  1.00  0.00     0.031 C 
ATOM     58  C   UNL A   1      43.280  31.615  28.907  1.00  0.00     0.029 A 
ATOM     59  C   UNL A   1      44.229  30.712  28.446  1.00  0.00     0.049 A 
ATOM     60  H   UNL A   1      43.991  28.665  28.003  1.00  0.00     0.167 HD
ATOM     61  C   UNL A   1      46.519  30.044  27.688  1.00  0.00     0.074 A 
ATOM     62  C   UNL A   1      47.913  30.344  27.412  1.00  0.00     0.031 C 
ATOM     63  C   UNL A   1      45.622  30.949  28.154  1.00  0.00     0.037 A 
BRANCH  50  64
ATOM     64  C   UNL A   1      39.877  28.799  29.123  1.00  0.00     0.064 A 
ATOM     65  C   UNL A   1      39.441  28.654  30.451  1.00  0.00     0.173 A 
ATOM     66  C   UNL A   1      38.926  29.182  28.165  1.00  0.00     0.173 A 
ATOM     67  F   UNL A   1      40.302  28.266  31.405  1.00  0.00    -0.203 F 
ATOM     68  C   UNL A   1      38.106  28.847  30.796  1.00  0.00     0.198 A 
ATOM     69  C   UNL A   1      37.598  29.409  28.521  1.00  0.00     0.198 A 
ATOM     70  F   UNL A   1      39.280  29.328  26.880  1.00  0.00    -0.203 F 
ATOM     71  F   UNL A   1      37.706  28.636  32.059  1.00  0.00    -0.200 F 
ATOM     72  C   UNL A   1      37.187  29.232  29.833  1.00  0.00     0.200 A 
ATOM     73  F   UNL A   1      36.712  29.788  27.590  1.00  0.00    -0.200 F 
ATOM     74  F   UNL A   1      35.903  29.420  30.168  1.00  0.00    -0.200 F 
ENDBRANCH  50  64
BRANCH  51  75
ATOM     75  C   UNL A   1      49.258  26.568  26.009  1.00  0.00     0.064 A 
ATOM     76  C   UNL A   1      49.634  26.870  24.694  1.00  0.00     0.173 A 
ATOM     77  C   UNL A   1      50.224  25.989  26.846  1.00  0.00     0.173 A 
ATOM     78  F   UNL A   1      48.746  27.424  23.854  1.00  0.00    -0.203 F 
ATOM     79  C   UNL A   1      50.915  26.583  24.226  1.00  0.00     0.198 A 
ATOM     80  C   UNL A   1      51.514  25.729  26.386  1.00  0.00     0.198 A 
ATOM     81  F   UNL A   1      49.923  25.702  28.122  1.00  0.00    -0.203 F 
ATOM     82  F   UNL A   1      51.234  26.848  22.951  1.00  0.00    -0.200 F 
ATOM     83  C   UNL A   1      51.855  26.018  25.073  1.00  0.00     0.200 A 
ATOM     84  F   UNL A   1      52.426  25.205  27.216  1.00  0.00    -0.200 F 
ATOM     85  F   UNL A   1      53.088  25.749  24.625  1.00  0.00    -0.200 F 
ENDBRANCH  51  75
BRANCH  63  86
ATOM     86  C   UNL A   1      46.148  32.327  28.416  1.00  0.00     0.064 A 
ATOM     87  C   UNL A   1      46.694  32.681  29.657  1.00  0.00     0.173 A 
ATOM     88  C   UNL A   1      46.122  33.295  27.401  1.00  0.00     0.173 A 
ATOM     89  F   UNL A   1      46.723  31.791  30.661  1.00  0.00    -0.203 F 
ATOM     90  C   UNL A   1      47.159  33.971  29.887  1.00  0.00     0.198 A 
ATOM     91  C   UNL A   1      46.624  34.572  27.623  1.00  0.00     0.198 A 
ATOM     92  F   UNL A   1      45.619  32.999  26.193  1.00  0.00    -0.203 F 
ATOM     93  F   UNL A   1      47.617  34.308  31.100  1.00  0.00    -0.200 F 
ATOM     94  C   UNL A   1      47.131  34.913  28.869  1.00  0.00     0.200 A 
ATOM     95  F   UNL A   1      46.611  35.476  26.634  1.00  0.00    -0.200 F 
ATOM     96  F   UNL A   1      47.582  36.153  29.091  1.00  0.00    -0.200 F 
ENDBRANCH  63  86
ENDBRANCH  37  38
ENDBRANCH  29  32
ENDBRANCH  27  28
ENDBRANCH  26  27
ENDBRANCH   1  26
TORSDOF 13
ENDMDL
MODEL 3
REMARK VINA RESULT:     -12.2      1.096      1.986
REMARK SMILES O=C(CC[NH+]1CC[NH+]([C@@H]2CCO[C@@]3(CCOC3)C2)CC1)NCCCNC(=O)c1ccc(-c2c3nc(c(-c4c(F)c(F)c(F)c(F)c4F)c4ccc([nH]4)c(-c4c(F)c(F)c(F)c(F)c4F)c4nc(c(-c5c(F)c(F)c(F)c(F)c5F)c5ccc2[nH]5)C=C4)C=C3)cc1
REMARK SMILES IDX 22 1 21 2 1 3 2 4 3 6 4 7 5 8 6 9 20 10 7 12 19 13 8 14 9 16
REMARK SMILES IDX 10 17 18 18 11 19 13 20 12 21 14 22 17 23 15 24 16 25 23 26
REMARK SMILES IDX 24 27 25 28 26 29 27 31 28 32 29 33 90 34 30 35 89 36 31 37
REMARK SMILES IDX 32 38 33 39 83 40 34 41 88 42 82 43 84 44 35 45 87 46 81 47
REMARK SMILES IDX 80 48 36 50 68 51 48 52 67 53 49 54 52 55 66 56 85 57 50 58
REMARK SMILES IDX 51 59 65 61 86 62 53 63 37 64 38 65 46 66 39 67 40 68 44 69
REMARK SMILES IDX 47 70 41 71 42 72 45 73 43 74 69 75 70 76 78 77 71 78 72 79
REMARK SMILES IDX 76 80 79 81 73 82 74 83 77 84 75 85 54 86 55 87 63 88 56 89
REMARK SMILES IDX 57 90 61 91 64 92 58 93 59 94 62 95 60 96
REMARK H PARENT 21 5 5 11 8 15 25 30 84 49 52 60
REMARK Flexibility Score: inf
ROOT
ATOM      1  C   UNL A   1      31.679  30.821  26.494  1.00  0.00     0.117 C 
ENDROOT
BRANCH   1   2
ATOM      2  N   UNL A   1      31.333  30.424  25.133  1.00  0.00    -0.356 N 
ATOM      3  O   UNL A   1      32.892  28.738  25.046  1.00  0.00    -0.275 OA
ATOM      4  C   UNL A   1      31.926  29.311  24.547  1.00  0.00     0.225 C 
ATOM      5  H   UNL A   1      30.672  30.948  24.625  1.00  0.00     0.163 HD
BRANCH   4   6
ATOM      6  C   UNL A   1      31.271  28.800  23.256  1.00  0.00     0.161 C 
BRANCH   6   7
ATOM      7  C   UNL A   1      32.122  27.761  22.455  1.00  0.00     0.272 C 
BRANCH   7   8
ATOM      8  N   UNL A   1      31.446  26.476  22.123  1.00  0.00    -0.325 N 
ATOM      9  C   UNL A   1      32.314  25.490  21.414  1.00  0.00     0.324 C 
ATOM     10  C   UNL A   1      30.989  25.784  23.320  1.00  0.00     0.324 C 
ATOM     11  H   UNL A   1      30.679  26.767  21.518  1.00  0.00     0.348 HD
ATOM     12  C   UNL A   1      33.284  24.543  22.247  1.00  0.00     0.324 C 
ATOM     13  C   UNL A   1      32.201  25.393  24.172  1.00  0.00     0.324 C 
ATOM     14  N   UNL A   1      33.005  24.279  23.682  1.00  0.00    -0.323 N 
ATOM     15  H   UNL A   1      33.870  24.271  24.222  1.00  0.00     0.348 HD
BRANCH  14  16
ATOM     16  C   UNL A   1      32.631  22.893  24.049  1.00  0.00     0.189 C 
ATOM     17  C   UNL A   1      32.035  22.722  25.436  1.00  0.00     0.093 C 
ATOM     18  C   UNL A   1      33.761  21.803  23.955  1.00  0.00     0.103 C 
ATOM     19  C   UNL A   1      33.123  22.511  26.479  1.00  0.00     0.167 C 
ATOM     20  C   UNL A   1      34.952  22.097  24.877  1.00  0.00     0.099 C 
ATOM     21  O   UNL A   1      34.460  22.821  26.029  1.00  0.00    -0.372 OA
ATOM     22  C   UNL A   1      35.786  20.932  25.432  1.00  0.00     0.066 C 
ATOM     23  C   UNL A   1      36.041  22.852  24.044  1.00  0.00     0.195 C 
ATOM     24  C   UNL A   1      37.141  21.007  24.764  1.00  0.00     0.163 C 
ATOM     25  O   UNL A   1      37.329  22.388  24.476  1.00  0.00    -0.378 OA
ENDBRANCH  14  16
ENDBRANCH   7   8
ENDBRANCH   6   7
ENDBRANCH   4   6
ENDBRANCH   1   2
BRANCH   1  26
ATOM     26  C   UNL A   1      31.518  32.302  26.837  1.00  0.00     0.042 C 
BRANCH  26  27
ATOM     27  C   UNL A   1      32.782  33.080  27.204  1.00  0.00     0.118 C 
BRANCH  27  28
ATOM     28  N   UNL A   1      32.553  34.322  27.928  1.00  0.00    -0.352 N 
ATOM     29  C   UNL A   1      33.272  34.954  28.905  1.00  0.00     0.251 C 
ATOM     30  H   UNL A   1      31.728  34.793  27.667  1.00  0.00     0.163 HD
ATOM     31  O   UNL A   1      32.992  36.074  29.352  1.00  0.00    -0.269 OA
BRANCH  29  32
ATOM     32  C   UNL A   1      34.418  34.346  29.534  1.00  0.00     0.039 A 
ATOM     33  C   UNL A   1      35.673  34.639  28.978  1.00  0.00     0.014 A 
ATOM     34  C   UNL A   1      34.252  33.433  30.567  1.00  0.00     0.014 A 
ATOM     35  C   UNL A   1      36.795  34.045  29.509  1.00  0.00     0.010 A 
ATOM     36  C   UNL A   1      35.379  32.919  31.161  1.00  0.00     0.010 A 
ATOM     37  C   UNL A   1      36.643  33.221  30.627  1.00  0.00    -0.014 A 
BRANCH  37  38
ATOM     38  C   UNL A   1      37.813  32.629  31.271  1.00  0.00     0.031 A 
ATOM     39  C   UNL A   1      38.517  31.519  30.569  1.00  0.00     0.074 A 
ATOM     40  C   UNL A   1      38.111  33.039  32.514  1.00  0.00     0.049 A 
ATOM     41  N   UNL A   1      39.436  30.714  31.021  1.00  0.00    -0.248 NA
ATOM     42  C   UNL A   1      38.085  31.235  29.188  1.00  0.00     0.031 C 
ATOM     43  C   UNL A   1      37.406  34.096  33.249  1.00  0.00     0.029 A 
ATOM     44  N   UNL A   1      39.062  32.601  33.386  1.00  0.00    -0.354 N 
ATOM     45  C   UNL A   1      39.666  29.809  29.996  1.00  0.00     0.074 A 
ATOM     46  C   UNL A   1      38.751  30.123  28.923  1.00  0.00     0.031 C 
ATOM     47  C   UNL A   1      37.962  34.232  34.461  1.00  0.00     0.029 A 
ATOM     48  C   UNL A   1      39.024  33.245  34.596  1.00  0.00     0.049 A 
ATOM     49  H   UNL A   1      39.712  31.894  33.169  1.00  0.00     0.167 HD
ATOM     50  C   UNL A   1      40.583  28.817  29.968  1.00  0.00     0.037 A 
ATOM     51  C   UNL A   1      39.770  33.032  35.691  1.00  0.00     0.037 A 
ATOM     52  C   UNL A   1      41.488  28.573  31.060  1.00  0.00     0.049 A 
ATOM     53  C   UNL A   1      40.813  31.953  35.611  1.00  0.00     0.074 A 
ATOM     54  C   UNL A   1      42.504  27.643  31.154  1.00  0.00     0.029 A 
ATOM     55  N   UNL A   1      41.479  29.287  32.254  1.00  0.00    -0.354 N 
ATOM     56  N   UNL A   1      41.068  31.123  34.626  1.00  0.00    -0.248 NA
ATOM     57  C   UNL A   1      41.678  31.790  36.780  1.00  0.00     0.031 C 
ATOM     58  C   UNL A   1      43.085  27.770  32.420  1.00  0.00     0.029 A 
ATOM     59  C   UNL A   1      42.469  28.815  33.097  1.00  0.00     0.049 A 
ATOM     60  H   UNL A   1      40.860  30.022  32.467  1.00  0.00     0.167 HD
ATOM     61  C   UNL A   1      42.142  30.353  35.043  1.00  0.00     0.074 A 
ATOM     62  C   UNL A   1      42.500  30.837  36.365  1.00  0.00     0.031 C 
ATOM     63  C   UNL A   1      42.777  29.339  34.405  1.00  0.00     0.037 A 
BRANCH  50  64
ATOM     64  C   UNL A   1      40.635  27.954  28.742  1.00  0.00     0.064 A 
ATOM     65  C   UNL A   1      41.413  28.300  27.624  1.00  0.00     0.173 A 
ATOM     66  C   UNL A   1      39.891  26.767  28.674  1.00  0.00     0.173 A 
ATOM     67  F   UNL A   1      42.126  29.437  27.623  1.00  0.00    -0.203 F 
ATOM     68  C   UNL A   1      41.414  27.512  26.475  1.00  0.00     0.198 A 
ATOM     69  C   UNL A   1      39.923  25.962  27.537  1.00  0.00     0.198 A 
ATOM     70  F   UNL A   1      39.123  26.389  29.707  1.00  0.00    -0.203 F 
ATOM     71  F   UNL A   1      42.112  27.902  25.399  1.00  0.00    -0.200 F 
ATOM     72  C   UNL A   1      40.676  26.340  26.436  1.00  0.00     0.200 A 
ATOM     73  F   UNL A   1      39.214  24.826  27.503  1.00  0.00    -0.200 F 
ATOM     74  F   UNL A   1      40.681  25.581  25.331  1.00  0.00    -0.200 F 
ENDBRANCH  50  64
BRANCH  51  75
ATOM     75  C   UNL A   1      39.587  33.882  36.893  1.00  0.00     0.064 A 
ATOM     76  C   UNL A   1      40.185  35.147  36.970  1.00  0.00     0.173 A 
ATOM     77  C   UNL A   1      38.781  33.477  37.967  1.00  0.00     0.173 A 
ATOM     78  F   UNL A   1      40.964  35.580  35.968  1.00  0.00    -0.203 F 
ATOM     79  C   UNL A   1      40.006  35.963  38.085  1.00  0.00     0.198 A 
ATOM     80  C   UNL A   1      38.578  34.305  39.070  1.00  0.00     0.198 A 
ATOM     81  F   UNL A   1      38.165  32.285  37.934  1.00  0.00    -0.203 F 
ATOM     82  F   UNL A   1      40.622  37.151  38.148  1.00  0.00    -0.200 F 
ATOM     83  C   UNL A   1      39.200  35.543  39.132  1.00  0.00     0.200 A 
ATOM     84  F   UNL A   1      37.779  33.906  40.068  1.00  0.00    -0.200 F 
ATOM     85  F   UNL A   1      39.022  36.332  40.200  1.00  0.00    -0.200 F 
ENDBRANCH  51  75
BRANCH  63  86
ATOM     86  C   UNL A   1      43.935  28.724  35.129  1.00  0.00     0.064 A 
ATOM     87  C   UNL A   1      45.242  29.204  34.967  1.00  0.00     0.173 A 
ATOM     88  C   UNL A   1      43.726  27.654  36.012  1.00  0.00     0.173 A 
ATOM     89  F   UNL A   1      45.490  30.215  34.120  1.00  0.00    -0.203 F 
ATOM     90  C   UNL A   1      46.306  28.607  35.633  1.00  0.00     0.198 A 
ATOM     91  C   UNL A   1      44.788  27.085  36.705  1.00  0.00     0.198 A 
ATOM     92  F   UNL A   1      42.491  27.167  36.207  1.00  0.00    -0.203 F 
ATOM     93  F   UNL A   1      47.556  29.039  35.414  1.00  0.00    -0.200 F 
ATOM     94  C   UNL A   1      46.078  27.554  36.506  1.00  0.00     0.200 A 
ATOM     95  F   UNL A   1      44.564  26.079  37.561  1.00  0.00    -0.200 F 
ATOM     96  F   UNL A   1      47.105  26.984  37.149  1.00  0.00    -0.200 F 
ENDBRANCH  63  86
ENDBRANCH  37  38
ENDBRANCH  29  32
ENDBRANCH  27  28
ENDBRANCH  26  27
ENDBRANCH   1  26
TORSDOF 13
ENDMDL
