MODEL 1
REMARK VINA RESULT:     -11.7      0.000      0.000
REMARK SMILES CC[NH2+][C@]1(C(=O)NCCCNC(=O)c2ccc(-c3c4nc(c(-c5c(F)c(F)c(F)c(F)c5F)c5ccc([nH]5)c(-c5c(F)c(F)c(F)c(F)c5F)c5nc(c(-c6c(F)c(F)c(F)c(F)c6F)c6ccc3[nH]6)C=C5)C=C4)cc2)CC[C@H]([N@H+](C)CC[NH+]2CCCC2)C1
REMARK SMILES IDX 8 1 7 2 5 3 6 4 4 6 77 7 89 8 78 9 79 10 3 11 2 14 1 15
REMARK SMILES IDX 80 16 81 17 82 19 83 20 84 21 85 22 88 23 86 25 87 26 9 27
REMARK SMILES IDX 10 28 11 29 12 30 13 32 14 33 15 34 76 35 16 36 75 37 17 38
REMARK SMILES IDX 18 39 19 40 69 41 20 42 74 43 68 44 70 45 21 46 73 47 67 48
REMARK SMILES IDX 66 49 22 51 54 52 34 53 53 54 35 55 38 56 52 57 71 58 36 59
REMARK SMILES IDX 37 60 51 62 72 63 39 64 23 65 24 66 32 67 25 68 26 69 30 70
REMARK SMILES IDX 33 71 27 72 28 73 31 74 29 75 55 76 56 77 64 78 57 79 58 80
REMARK SMILES IDX 62 81 65 82 59 83 60 84 63 85 61 86 40 87 41 88 49 89 42 90
REMARK SMILES IDX 43 91 47 92 50 93 44 94 45 95 48 96 46 97
REMARK H PARENT 7 5 3 12 3 13 80 18 84 24 11 31 70 50 38 61
REMARK Flexibility Score: inf
ROOT
ATOM      1  C   UNL A   1      31.760  30.685  26.271  1.00  0.00     0.118 C 
ENDROOT
BRANCH   1   2
ATOM      2  N   UNL A   1      32.919  30.113  26.926  1.00  0.00    -0.351 N 
ATOM      3  C   UNL A   1      33.566  28.926  26.726  1.00  0.00     0.281 C 
ATOM      4  O   UNL A   1      34.618  28.768  27.357  1.00  0.00    -0.268 OA
ATOM      5  H   UNL A   1      33.305  30.675  27.636  1.00  0.00     0.163 HD
BRANCH   3   6
ATOM      6  C   UNL A   1      33.008  27.846  25.760  1.00  0.00     0.181 C 
ATOM      7  C   UNL A   1      33.233  26.440  26.379  1.00  0.00     0.085 C 
ATOM      8  C   UNL A   1      31.469  27.802  25.752  1.00  0.00     0.144 C 
ATOM      9  C   UNL A   1      32.202  25.513  25.716  1.00  0.00     0.072 C 
ATOM     10  C   UNL A   1      31.058  26.423  25.196  1.00  0.00     0.191 C 
BRANCH   6  11
ATOM     11  N   UNL A   1      33.733  27.815  24.458  1.00  0.00    -0.334 N 
ATOM     12  H   UNL A   1      34.731  27.825  24.673  1.00  0.00     0.347 HD
ATOM     13  H   UNL A   1      33.372  26.980  23.998  1.00  0.00     0.347 HD
BRANCH  11  14
ATOM     14  C   UNL A   1      33.497  28.872  23.489  1.00  0.00     0.257 C 
ATOM     15  C   UNL A   1      34.008  28.489  22.106  1.00  0.00     0.071 C 
ENDBRANCH  11  14
ENDBRANCH   6  11
BRANCH  10  16
ATOM     16  N   UNL A   1      30.672  26.346  23.764  1.00  0.00    -0.330 N 
ATOM     17  C   UNL A   1      31.498  25.524  22.903  1.00  0.00     0.333 C 
ATOM     18  H   UNL A   1      29.825  25.782  23.833  1.00  0.00     0.348 HD
BRANCH  16  19
ATOM     19  C   UNL A   1      30.187  27.595  23.160  1.00  0.00     0.324 C 
BRANCH  19  20
ATOM     20  C   UNL A   1      28.692  27.980  23.192  1.00  0.00     0.324 C 
BRANCH  20  21
ATOM     21  N   UNL A   1      28.469  29.279  22.552  1.00  0.00    -0.330 N 
ATOM     22  C   UNL A   1      29.594  30.203  22.736  1.00  0.00     0.262 C 
ATOM     23  C   UNL A   1      27.245  29.956  23.011  1.00  0.00     0.262 C 
ATOM     24  H   UNL A   1      28.372  29.051  21.562  1.00  0.00     0.348 HD
ATOM     25  C   UNL A   1      29.127  31.186  23.788  1.00  0.00     0.067 C 
ATOM     26  C   UNL A   1      27.664  31.352  23.444  1.00  0.00     0.067 C 
ENDBRANCH  20  21
ENDBRANCH  19  20
ENDBRANCH  16  19
ENDBRANCH  10  16
ENDBRANCH   3   6
ENDBRANCH   1   2
BRANCH   1  27
ATOM     27  C   UNL A   1      31.490  32.119  26.668  1.00  0.00     0.042 C 
BRANCH  27  28
ATOM     28  C   UNL A   1      32.706  32.791  27.273  1.00  0.00     0.118 C 
BRANCH  28  29
ATOM     29  N   UNL A   1      32.457  34.187  27.621  1.00  0.00    -0.352 N 
ATOM     30  C   UNL A   1      32.979  34.965  28.625  1.00  0.00     0.251 C 
ATOM     31  H   UNL A   1      31.808  34.646  27.041  1.00  0.00     0.163 HD
ATOM     32  O   UNL A   1      32.470  36.048  28.885  1.00  0.00    -0.269 OA
BRANCH  30  33
ATOM     33  C   UNL A   1      34.136  34.482  29.404  1.00  0.00     0.039 A 
ATOM     34  C   UNL A   1      33.920  33.925  30.666  1.00  0.00     0.014 A 
ATOM     35  C   UNL A   1      35.430  34.567  28.890  1.00  0.00     0.014 A 
ATOM     36  C   UNL A   1      34.994  33.379  31.367  1.00  0.00     0.010 A 
ATOM     37  C   UNL A   1      36.471  33.906  29.525  1.00  0.00     0.010 A 
ATOM     38  C   UNL A   1      36.269  33.317  30.779  1.00  0.00    -0.014 A 
BRANCH  38  39
ATOM     39  C   UNL A   1      37.393  32.631  31.458  1.00  0.00     0.031 A 
ATOM     40  C   UNL A   1      38.084  31.467  30.804  1.00  0.00     0.074 A 
ATOM     41  C   UNL A   1      37.748  33.023  32.697  1.00  0.00     0.049 A 
ATOM     42  N   UNL A   1      39.079  30.740  31.247  1.00  0.00    -0.248 NA
ATOM     43  C   UNL A   1      37.569  31.037  29.493  1.00  0.00     0.031 C 
ATOM     44  C   UNL A   1      37.092  34.081  33.469  1.00  0.00     0.029 A 
ATOM     45  N   UNL A   1      38.745  32.578  33.526  1.00  0.00    -0.354 N 
ATOM     46  C   UNL A   1      39.294  29.766  30.281  1.00  0.00     0.074 A 
ATOM     47  C   UNL A   1      38.284  29.947  29.264  1.00  0.00     0.031 C 
ATOM     48  C   UNL A   1      37.731  34.233  34.638  1.00  0.00     0.029 A 
ATOM     49  C   UNL A   1      38.812  33.258  34.718  1.00  0.00     0.049 A 
ATOM     50  H   UNL A   1      39.355  31.843  33.290  1.00  0.00     0.167 HD
ATOM     51  C   UNL A   1      40.265  28.823  30.235  1.00  0.00     0.037 A 
ATOM     52  C   UNL A   1      39.652  33.109  35.758  1.00  0.00     0.037 A 
ATOM     53  C   UNL A   1      41.279  28.666  31.244  1.00  0.00     0.049 A 
ATOM     54  C   UNL A   1      40.738  32.073  35.671  1.00  0.00     0.074 A 
ATOM     55  C   UNL A   1      42.357  27.800  31.257  1.00  0.00     0.029 A 
ATOM     56  N   UNL A   1      41.331  29.386  32.431  1.00  0.00    -0.354 N 
ATOM     57  N   UNL A   1      40.998  31.224  34.706  1.00  0.00    -0.248 NA
ATOM     58  C   UNL A   1      41.657  31.984  36.813  1.00  0.00     0.031 C 
ATOM     59  C   UNL A   1      43.024  27.950  32.478  1.00  0.00     0.029 A 
ATOM     60  C   UNL A   1      42.402  28.959  33.198  1.00  0.00     0.049 A 
ATOM     61  H   UNL A   1      40.699  30.096  32.687  1.00  0.00     0.167 HD
ATOM     62  C   UNL A   1      42.116  30.511  35.115  1.00  0.00     0.074 A 
ATOM     63  C   UNL A   1      42.503  31.052  36.403  1.00  0.00     0.031 C 
ATOM     64  C   UNL A   1      42.762  29.496  34.487  1.00  0.00     0.037 A 
BRANCH  51  65
ATOM     65  C   UNL A   1      40.272  27.891  29.056  1.00  0.00     0.064 A 
ATOM     66  C   UNL A   1      41.002  28.173  27.890  1.00  0.00     0.173 A 
ATOM     67  C   UNL A   1      39.554  26.686  29.101  1.00  0.00     0.173 A 
ATOM     68  F   UNL A   1      41.696  29.316  27.787  1.00  0.00    -0.203 F 
ATOM     69  C   UNL A   1      40.981  27.304  26.801  1.00  0.00     0.198 A 
ATOM     70  C   UNL A   1      39.565  25.802  28.024  1.00  0.00     0.198 A 
ATOM     71  F   UNL A   1      38.840  26.363  30.190  1.00  0.00    -0.203 F 
ATOM     72  F   UNL A   1      41.635  27.626  25.677  1.00  0.00    -0.200 F 
ATOM     73  C   UNL A   1      40.269  26.116  26.872  1.00  0.00     0.200 A 
ATOM     74  F   UNL A   1      38.889  24.647  28.100  1.00  0.00    -0.200 F 
ATOM     75  F   UNL A   1      40.256  25.278  25.826  1.00  0.00    -0.200 F 
ENDBRANCH  51  65
BRANCH  52  76
ATOM     76  C   UNL A   1      39.514  33.986  36.951  1.00  0.00     0.064 A 
ATOM     77  C   UNL A   1      40.077  35.269  36.977  1.00  0.00     0.173 A 
ATOM     78  C   UNL A   1      38.802  33.564  38.083  1.00  0.00     0.173 A 
ATOM     79  F   UNL A   1      40.781  35.713  35.924  1.00  0.00    -0.203 F 
ATOM     80  C   UNL A   1      39.951  36.089  38.097  1.00  0.00     0.198 A 
ATOM     81  C   UNL A   1      38.649  34.397  39.190  1.00  0.00     0.198 A 
ATOM     82  F   UNL A   1      38.234  32.349  38.107  1.00  0.00    -0.203 F 
ATOM     83  F   UNL A   1      40.538  37.293  38.111  1.00  0.00    -0.200 F 
ATOM     84  C   UNL A   1      39.231  35.655  39.199  1.00  0.00     0.200 A 
ATOM     85  F   UNL A   1      37.934  33.981  40.244  1.00  0.00    -0.200 F 
ATOM     86  F   UNL A   1      39.101  36.447  40.271  1.00  0.00    -0.200 F 
ENDBRANCH  52  76
BRANCH  64  87
ATOM     87  C   UNL A   1      43.963  28.920  35.183  1.00  0.00     0.064 A 
ATOM     88  C   UNL A   1      45.254  29.425  34.965  1.00  0.00     0.173 A 
ATOM     89  C   UNL A   1      43.820  27.854  36.085  1.00  0.00     0.173 A 
ATOM     90  F   UNL A   1      45.447  30.435  34.102  1.00  0.00    -0.203 F 
ATOM     91  C   UNL A   1      46.361  28.854  35.586  1.00  0.00     0.198 A 
ATOM     92  C   UNL A   1      44.925  27.313  36.735  1.00  0.00     0.198 A 
ATOM     93  F   UNL A   1      42.607  27.340  36.339  1.00  0.00    -0.203 F 
ATOM     94  F   UNL A   1      47.591  29.307  35.306  1.00  0.00    -0.200 F 
ATOM     95  C   UNL A   1      46.195  27.803  36.475  1.00  0.00     0.200 A 
ATOM     96  F   UNL A   1      44.761  26.308  37.607  1.00  0.00    -0.200 F 
ATOM     97  F   UNL A   1      47.262  27.254  37.071  1.00  0.00    -0.200 F 
ENDBRANCH  64  87
ENDBRANCH  38  39
ENDBRANCH  30  33
ENDBRANCH  28  29
ENDBRANCH  27  28
ENDBRANCH   1  27
TORSDOF 16
ENDMDL
MODEL 2
REMARK VINA RESULT:     -11.6      1.232      2.262
REMARK SMILES CC[NH2+][C@]1(C(=O)NCCCNC(=O)c2ccc(-c3c4nc(c(-c5c(F)c(F)c(F)c(F)c5F)c5ccc([nH]5)c(-c5c(F)c(F)c(F)c(F)c5F)c5nc(c(-c6c(F)c(F)c(F)c(F)c6F)c6ccc3[nH]6)C=C5)C=C4)cc2)CC[C@H]([N@H+](C)CC[NH+]2CCCC2)C1
REMARK SMILES IDX 8 1 7 2 5 3 6 4 4 6 77 7 89 8 78 9 79 10 3 11 2 14 1 15
REMARK SMILES IDX 80 16 81 17 82 19 83 20 84 21 85 22 88 23 86 25 87 26 9 27
REMARK SMILES IDX 10 28 11 29 12 30 13 32 14 33 15 34 76 35 16 36 75 37 17 38
REMARK SMILES IDX 18 39 19 40 69 41 20 42 74 43 68 44 70 45 21 46 73 47 67 48
REMARK SMILES IDX 66 49 22 51 54 52 34 53 53 54 35 55 38 56 52 57 71 58 36 59
REMARK SMILES IDX 37 60 51 62 72 63 39 64 23 65 24 66 32 67 25 68 26 69 30 70
REMARK SMILES IDX 33 71 27 72 28 73 31 74 29 75 55 76 56 77 64 78 57 79 58 80
REMARK SMILES IDX 62 81 65 82 59 83 60 84 63 85 61 86 40 87 41 88 49 89 42 90
REMARK SMILES IDX 43 91 47 92 50 93 44 94 45 95 48 96 46 97
REMARK H PARENT 7 5 3 12 3 13 80 18 84 24 11 31 70 50 38 61
REMARK Flexibility Score: inf
ROOT
ATOM      1  C   UNL A   1      31.684  30.847  26.589  1.00  0.00     0.118 C 
ENDROOT
BRANCH   1   2
ATOM      2  N   UNL A   1      32.940  30.352  27.115  1.00  0.00    -0.351 N 
ATOM      3  C   UNL A   1      33.633  29.204  26.849  1.00  0.00     0.281 C 
ATOM      4  O   UNL A   1      34.754  29.116  27.363  1.00  0.00    -0.268 OA
ATOM      5  H   UNL A   1      33.366  30.944  27.777  1.00  0.00     0.163 HD
BRANCH   3   6
ATOM      6  C   UNL A   1      33.039  28.084  25.954  1.00  0.00     0.181 C 
ATOM      7  C   UNL A   1      33.994  26.859  25.967  1.00  0.00     0.085 C 
ATOM      8  C   UNL A   1      31.831  27.386  26.605  1.00  0.00     0.144 C 
ATOM      9  C   UNL A   1      33.133  25.645  25.580  1.00  0.00     0.072 C 
ATOM     10  C   UNL A   1      31.663  26.022  25.906  1.00  0.00     0.191 C 
BRANCH   6  11
ATOM     11  N   UNL A   1      32.948  28.486  24.522  1.00  0.00    -0.334 N 
ATOM     12  H   UNL A   1      32.270  27.864  24.080  1.00  0.00     0.347 HD
ATOM     13  H   UNL A   1      32.704  29.475  24.561  1.00  0.00     0.347 HD
BRANCH  11  14
ATOM     14  C   UNL A   1      34.147  28.459  23.700  1.00  0.00     0.257 C 
ATOM     15  C   UNL A   1      33.817  28.200  22.235  1.00  0.00     0.071 C 
ENDBRANCH  11  14
ENDBRANCH   6  11
BRANCH  10  16
ATOM     16  N   UNL A   1      30.641  25.920  24.834  1.00  0.00    -0.330 N 
ATOM     17  C   UNL A   1      29.274  25.674  25.249  1.00  0.00     0.333 C 
ATOM     18  H   UNL A   1      30.591  26.895  24.536  1.00  0.00     0.348 HD
BRANCH  16  19
ATOM     19  C   UNL A   1      31.058  25.223  23.609  1.00  0.00     0.324 C 
BRANCH  19  20
ATOM     20  C   UNL A   1      30.722  23.734  23.373  1.00  0.00     0.324 C 
BRANCH  20  21
ATOM     21  N   UNL A   1      31.781  23.071  22.609  1.00  0.00    -0.330 N 
ATOM     22  C   UNL A   1      32.251  21.836  23.244  1.00  0.00     0.262 C 
ATOM     23  C   UNL A   1      32.952  23.931  22.364  1.00  0.00     0.262 C 
ATOM     24  H   UNL A   1      31.339  22.850  21.716  1.00  0.00     0.348 HD
ATOM     25  C   UNL A   1      33.587  22.194  23.859  1.00  0.00     0.067 C 
ATOM     26  C   UNL A   1      34.165  23.147  22.838  1.00  0.00     0.067 C 
ENDBRANCH  20  21
ENDBRANCH  19  20
ENDBRANCH  16  19
ENDBRANCH  10  16
ENDBRANCH   3   6
ENDBRANCH   1   2
BRANCH   1  27
ATOM     27  C   UNL A   1      31.520  32.344  26.730  1.00  0.00     0.042 C 
BRANCH  27  28
ATOM     28  C   UNL A   1      32.747  33.009  27.320  1.00  0.00     0.118 C 
BRANCH  28  29
ATOM     29  N   UNL A   1      32.502  34.397  27.699  1.00  0.00    -0.352 N 
ATOM     30  C   UNL A   1      33.023  35.150  28.723  1.00  0.00     0.251 C 
ATOM     31  H   UNL A   1      31.857  34.872  27.127  1.00  0.00     0.163 HD
ATOM     32  O   UNL A   1      32.518  36.229  29.005  1.00  0.00    -0.269 OA
BRANCH  30  33
ATOM     33  C   UNL A   1      34.176  34.645  29.495  1.00  0.00     0.039 A 
ATOM     34  C   UNL A   1      33.962  34.135  30.777  1.00  0.00     0.014 A 
ATOM     35  C   UNL A   1      35.462  34.662  28.955  1.00  0.00     0.014 A 
ATOM     36  C   UNL A   1      35.027  33.568  31.476  1.00  0.00     0.010 A 
ATOM     37  C   UNL A   1      36.487  33.979  29.591  1.00  0.00     0.010 A 
ATOM     38  C   UNL A   1      36.286  33.436  30.866  1.00  0.00    -0.014 A 
BRANCH  38  39
ATOM     39  C   UNL A   1      37.396  32.726  31.546  1.00  0.00     0.031 A 
ATOM     40  C   UNL A   1      38.079  31.565  30.880  1.00  0.00     0.074 A 
ATOM     41  C   UNL A   1      37.743  33.095  32.794  1.00  0.00     0.049 A 
ATOM     42  N   UNL A   1      39.061  30.819  31.321  1.00  0.00    -0.248 NA
ATOM     43  C   UNL A   1      37.573  31.161  29.558  1.00  0.00     0.031 C 
ATOM     44  C   UNL A   1      37.091  34.149  33.576  1.00  0.00     0.029 A 
ATOM     45  N   UNL A   1      38.726  32.625  33.626  1.00  0.00    -0.354 N 
ATOM     46  C   UNL A   1      39.274  29.857  30.343  1.00  0.00     0.074 A 
ATOM     47  C   UNL A   1      38.276  30.066  29.318  1.00  0.00     0.031 C 
ATOM     48  C   UNL A   1      37.721  34.275  34.754  1.00  0.00     0.029 A 
ATOM     49  C   UNL A   1      38.789  33.286  34.829  1.00  0.00     0.049 A 
ATOM     50  H   UNL A   1      39.329  31.887  33.384  1.00  0.00     0.167 HD
ATOM     51  C   UNL A   1      40.234  28.904  30.292  1.00  0.00     0.037 A 
ATOM     52  C   UNL A   1      39.617  33.111  35.874  1.00  0.00     0.037 A 
ATOM     53  C   UNL A   1      41.236  28.719  31.308  1.00  0.00     0.049 A 
ATOM     54  C   UNL A   1      40.691  32.063  35.782  1.00  0.00     0.074 A 
ATOM     55  C   UNL A   1      42.304  27.840  31.318  1.00  0.00     0.029 A 
ATOM     56  N   UNL A   1      41.284  29.419  32.506  1.00  0.00    -0.354 N 
ATOM     57  N   UNL A   1      40.951  31.226  34.806  1.00  0.00    -0.248 NA
ATOM     58  C   UNL A   1      41.597  31.945  36.932  1.00  0.00     0.031 C 
ATOM     59  C   UNL A   1      42.960  27.963  32.547  1.00  0.00     0.029 A 
ATOM     60  C   UNL A   1      42.343  28.968  33.277  1.00  0.00     0.049 A 
ATOM     61  H   UNL A   1      40.659  30.133  32.768  1.00  0.00     0.167 HD
ATOM     62  C   UNL A   1      42.056  30.493  35.216  1.00  0.00     0.074 A 
ATOM     63  C   UNL A   1      42.437  31.010  36.515  1.00  0.00     0.031 C 
ATOM     64  C   UNL A   1      42.696  29.481  34.578  1.00  0.00     0.037 A 
BRANCH  51  65
ATOM     65  C   UNL A   1      40.242  27.990  29.098  1.00  0.00     0.064 A 
ATOM     66  C   UNL A   1      40.959  28.298  27.931  1.00  0.00     0.173 A 
ATOM     67  C   UNL A   1      39.538  26.777  29.130  1.00  0.00     0.173 A 
ATOM     68  F   UNL A   1      41.639  29.450  27.840  1.00  0.00    -0.203 F 
ATOM     69  C   UNL A   1      40.939  27.446  26.829  1.00  0.00     0.198 A 
ATOM     70  C   UNL A   1      39.550  25.909  28.039  1.00  0.00     0.198 A 
ATOM     71  F   UNL A   1      38.837  26.428  30.220  1.00  0.00    -0.203 F 
ATOM     72  F   UNL A   1      41.580  27.793  25.705  1.00  0.00    -0.200 F 
ATOM     73  C   UNL A   1      40.241  26.249  26.887  1.00  0.00     0.200 A 
ATOM     74  F   UNL A   1      38.888  24.746  28.103  1.00  0.00    -0.200 F 
ATOM     75  F   UNL A   1      40.229  25.427  25.828  1.00  0.00    -0.200 F 
ENDBRANCH  51  65
BRANCH  52  76
ATOM     76  C   UNL A   1      39.477  33.970  37.080  1.00  0.00     0.064 A 
ATOM     77  C   UNL A   1      40.034  35.256  37.122  1.00  0.00     0.173 A 
ATOM     78  C   UNL A   1      38.769  33.529  38.208  1.00  0.00     0.173 A 
ATOM     79  F   UNL A   1      40.733  35.717  36.074  1.00  0.00    -0.203 F 
ATOM     80  C   UNL A   1      39.907  36.059  38.253  1.00  0.00     0.198 A 
ATOM     81  C   UNL A   1      38.615  34.346  39.326  1.00  0.00     0.198 A 
ATOM     82  F   UNL A   1      38.208  32.311  38.216  1.00  0.00    -0.203 F 
ATOM     83  F   UNL A   1      40.488  37.266  38.283  1.00  0.00    -0.200 F 
ATOM     84  C   UNL A   1      39.191  35.608  39.351  1.00  0.00     0.200 A 
ATOM     85  F   UNL A   1      37.905  33.913  40.376  1.00  0.00    -0.200 F 
ATOM     86  F   UNL A   1      39.059  36.384  40.434  1.00  0.00    -0.200 F 
ENDBRANCH  52  76
BRANCH  64  87
ATOM     87  C   UNL A   1      43.883  28.880  35.277  1.00  0.00     0.064 A 
ATOM     88  C   UNL A   1      45.184  29.361  35.066  1.00  0.00     0.173 A 
ATOM     89  C   UNL A   1      43.717  27.813  36.173  1.00  0.00     0.173 A 
ATOM     90  F   UNL A   1      45.400  30.371  34.208  1.00  0.00    -0.203 F 
ATOM     91  C   UNL A   1      46.278  28.767  35.690  1.00  0.00     0.198 A 
ATOM     92  C   UNL A   1      44.808  27.248  36.826  1.00  0.00     0.198 A 
ATOM     93  F   UNL A   1      42.493  27.320  36.420  1.00  0.00    -0.203 F 
ATOM     94  F   UNL A   1      47.518  29.198  35.417  1.00  0.00    -0.200 F 
ATOM     95  C   UNL A   1      46.089  27.716  36.573  1.00  0.00     0.200 A 
ATOM     96  F   UNL A   1      44.622  26.243  37.693  1.00  0.00    -0.200 F 
ATOM     97  F   UNL A   1      47.143  27.144  37.172  1.00  0.00    -0.200 F 
ENDBRANCH  64  87
ENDBRANCH  38  39
ENDBRANCH  30  33
ENDBRANCH  28  29
ENDBRANCH  27  28
ENDBRANCH   1  27
TORSDOF 16
ENDMDL
MODEL 3
REMARK VINA RESULT:     -11.6      6.291     11.606
REMARK SMILES CC[NH2+][C@]1(C(=O)NCCCNC(=O)c2ccc(-c3c4nc(c(-c5c(F)c(F)c(F)c(F)c5F)c5ccc([nH]5)c(-c5c(F)c(F)c(F)c(F)c5F)c5nc(c(-c6c(F)c(F)c(F)c(F)c6F)c6ccc3[nH]6)C=C5)C=C4)cc2)CC[C@H]([N@H+](C)CC[NH+]2CCCC2)C1
REMARK SMILES IDX 8 1 7 2 5 3 6 4 4 6 77 7 89 8 78 9 79 10 3 11 2 14 1 15
REMARK SMILES IDX 80 16 81 17 82 19 83 20 84 21 85 22 88 23 86 25 87 26 9 27
REMARK SMILES IDX 10 28 11 29 12 30 13 32 14 33 15 34 76 35 16 36 75 37 17 38
REMARK SMILES IDX 18 39 19 40 69 41 20 42 74 43 68 44 70 45 21 46 73 47 67 48
REMARK SMILES IDX 66 49 22 51 54 52 34 53 53 54 35 55 38 56 52 57 71 58 36 59
REMARK SMILES IDX 37 60 51 62 72 63 39 64 23 65 24 66 32 67 25 68 26 69 30 70
REMARK SMILES IDX 33 71 27 72 28 73 31 74 29 75 55 76 56 77 64 78 57 79 58 80
REMARK SMILES IDX 62 81 65 82 59 83 60 84 63 85 61 86 40 87 41 88 49 89 42 90
REMARK SMILES IDX 43 91 47 92 50 93 44 94 45 95 48 96 46 97
REMARK H PARENT 7 5 3 12 3 13 80 18 84 24 11 31 70 50 38 61
REMARK Flexibility Score: inf
ROOT
ATOM      1  C   UNL A   1      36.942  20.772  24.945  1.00  0.00     0.118 C 
ENDROOT
BRANCH   1   2
ATOM      2  N   UNL A   1      37.406  22.096  25.305  1.00  0.00    -0.351 N 
ATOM      3  C   UNL A   1      36.722  23.265  25.489  1.00  0.00     0.281 C 
ATOM      4  O   UNL A   1      37.381  24.216  25.925  1.00  0.00    -0.268 OA
ATOM      5  H   UNL A   1      38.379  22.164  25.439  1.00  0.00     0.163 HD
BRANCH   3   6
ATOM      6  C   UNL A   1      35.208  23.383  25.168  1.00  0.00     0.181 C 
ATOM      7  C   UNL A   1      34.937  24.744  24.472  1.00  0.00     0.085 C 
ATOM      8  C   UNL A   1      34.783  22.484  23.992  1.00  0.00     0.144 C 
ATOM      9  C   UNL A   1      33.624  24.569  23.691  1.00  0.00     0.072 C 
ATOM     10  C   UNL A   1      33.453  23.046  23.449  1.00  0.00     0.191 C 
BRANCH   6  11
ATOM     11  N   UNL A   1      34.364  23.403  26.396  1.00  0.00    -0.334 N 
ATOM     12  H   UNL A   1      34.766  24.100  27.023  1.00  0.00     0.347 HD
ATOM     13  H   UNL A   1      33.426  23.590  26.044  1.00  0.00     0.347 HD
BRANCH  11  14
ATOM     14  C   UNL A   1      34.205  22.181  27.167  1.00  0.00     0.257 C 
ATOM     15  C   UNL A   1      32.927  22.202  27.995  1.00  0.00     0.071 C 
ENDBRANCH  11  14
ENDBRANCH   6  11
BRANCH  10  16
ATOM     16  N   UNL A   1      32.198  22.385  23.890  1.00  0.00    -0.330 N 
ATOM     17  C   UNL A   1      31.296  23.166  24.713  1.00  0.00     0.333 C 
ATOM     18  H   UNL A   1      31.689  22.351  23.006  1.00  0.00     0.348 HD
BRANCH  16  19
ATOM     19  C   UNL A   1      32.312  20.966  24.258  1.00  0.00     0.324 C 
BRANCH  19  20
ATOM     20  C   UNL A   1      32.395  19.858  23.186  1.00  0.00     0.324 C 
BRANCH  20  21
ATOM     21  N   UNL A   1      32.530  18.537  23.804  1.00  0.00    -0.330 N 
ATOM     22  C   UNL A   1      33.542  18.507  24.865  1.00  0.00     0.262 C 
ATOM     23  C   UNL A   1      32.848  17.470  22.841  1.00  0.00     0.262 C 
ATOM     24  H   UNL A   1      31.609  18.359  24.205  1.00  0.00     0.348 HD
ATOM     25  C   UNL A   1      34.735  17.805  24.251  1.00  0.00     0.067 C 
ATOM     26  C   UNL A   1      34.076  16.756  23.384  1.00  0.00     0.067 C 
ENDBRANCH  20  21
ENDBRANCH  19  20
ENDBRANCH  16  19
ENDBRANCH  10  16
ENDBRANCH   3   6
ENDBRANCH   1   2
BRANCH   1  27
ATOM     27  C   UNL A   1      38.017  19.712  25.033  1.00  0.00     0.042 C 
BRANCH  27  28
ATOM     28  C   UNL A   1      39.244  20.192  25.781  1.00  0.00     0.118 C 
BRANCH  28  29
ATOM     29  N   UNL A   1      40.238  19.138  25.959  1.00  0.00    -0.352 N 
ATOM     30  C   UNL A   1      41.599  19.210  26.126  1.00  0.00     0.251 C 
ATOM     31  H   UNL A   1      39.872  18.224  25.961  1.00  0.00     0.163 HD
ATOM     32  O   UNL A   1      42.280  18.197  26.034  1.00  0.00    -0.269 OA
BRANCH  30  33
ATOM     33  C   UNL A   1      42.240  20.514  26.391  1.00  0.00     0.039 A 
ATOM     34  C   UNL A   1      42.785  21.232  25.325  1.00  0.00     0.014 A 
ATOM     35  C   UNL A   1      42.294  21.034  27.684  1.00  0.00     0.014 A 
ATOM     36  C   UNL A   1      43.305  22.506  25.550  1.00  0.00     0.010 A 
ATOM     37  C   UNL A   1      42.685  22.350  27.884  1.00  0.00     0.010 A 
ATOM     38  C   UNL A   1      43.210  23.096  26.822  1.00  0.00    -0.014 A 
BRANCH  38  39
ATOM     39  C   UNL A   1      43.645  24.494  27.052  1.00  0.00     0.031 A 
ATOM     40  C   UNL A   1      42.669  25.526  27.543  1.00  0.00     0.074 A 
ATOM     41  C   UNL A   1      44.912  24.844  26.754  1.00  0.00     0.049 A 
ATOM     42  N   UNL A   1      42.865  26.796  27.794  1.00  0.00    -0.248 NA
ATOM     43  C   UNL A   1      41.279  25.086  27.748  1.00  0.00     0.031 C 
ATOM     44  C   UNL A   1      45.924  23.950  26.186  1.00  0.00     0.029 A 
ATOM     45  N   UNL A   1      45.564  26.042  26.885  1.00  0.00    -0.354 N 
ATOM     46  C   UNL A   1      41.626  27.302  28.168  1.00  0.00     0.074 A 
ATOM     47  C   UNL A   1      40.673  26.224  28.043  1.00  0.00     0.031 C 
ATOM     48  C   UNL A   1      47.080  24.619  26.059  1.00  0.00     0.029 A 
ATOM     49  C   UNL A   1      46.881  25.996  26.495  1.00  0.00     0.049 A 
ATOM     50  H   UNL A   1      45.132  26.857  27.226  1.00  0.00     0.167 HD
ATOM     51  C   UNL A   1      41.321  28.548  28.603  1.00  0.00     0.037 A 
ATOM     52  C   UNL A   1      47.821  26.958  26.491  1.00  0.00     0.037 A 
ATOM     53  C   UNL A   1      42.283  29.608  28.744  1.00  0.00     0.049 A 
ATOM     54  C   UNL A   1      47.462  28.325  27.003  1.00  0.00     0.074 A 
ATOM     55  C   UNL A   1      42.098  30.880  29.252  1.00  0.00     0.029 A 
ATOM     56  N   UNL A   1      43.615  29.521  28.359  1.00  0.00    -0.354 N 
ATOM     57  N   UNL A   1      46.312  28.766  27.453  1.00  0.00    -0.248 NA
ATOM     58  C   UNL A   1      48.538  29.325  27.020  1.00  0.00     0.031 C 
ATOM     59  C   UNL A   1      43.300  31.584  29.117  1.00  0.00     0.029 A 
ATOM     60  C   UNL A   1      44.254  30.729  28.587  1.00  0.00     0.049 A 
ATOM     61  H   UNL A   1      44.042  28.719  27.981  1.00  0.00     0.167 HD
ATOM     62  C   UNL A   1      46.527  30.087  27.820  1.00  0.00     0.074 A 
ATOM     63  C   UNL A   1      47.927  30.363  27.571  1.00  0.00     0.031 C 
ATOM     64  C   UNL A   1      45.645  30.992  28.314  1.00  0.00     0.037 A 
BRANCH  51  65
ATOM     65  C   UNL A   1      39.886  28.827  28.955  1.00  0.00     0.064 A 
ATOM     66  C   UNL A   1      38.966  29.299  28.004  1.00  0.00     0.173 A 
ATOM     67  C   UNL A   1      39.418  28.599  30.257  1.00  0.00     0.173 A 
ATOM     68  F   UNL A   1      39.361  29.547  26.747  1.00  0.00    -0.203 F 
ATOM     69  C   UNL A   1      37.645  29.568  28.354  1.00  0.00     0.198 A 
ATOM     70  C   UNL A   1      38.086  28.834  30.595  1.00  0.00     0.198 A 
ATOM     71  F   UNL A   1      40.250  28.146  31.207  1.00  0.00    -0.203 F 
ATOM     72  F   UNL A   1      36.803  30.077  27.444  1.00  0.00    -0.200 F 
ATOM     73  C   UNL A   1      37.204  29.328  29.647  1.00  0.00     0.200 A 
ATOM     74  F   UNL A   1      37.659  28.588  31.841  1.00  0.00    -0.200 F 
ATOM     75  F   UNL A   1      35.931  29.582  29.980  1.00  0.00    -0.200 F 
ENDBRANCH  51  65
BRANCH  52  76
ATOM     76  C   UNL A   1      49.194  26.647  26.013  1.00  0.00     0.064 A 
ATOM     77  C   UNL A   1      50.134  26.037  26.855  1.00  0.00     0.173 A 
ATOM     78  C   UNL A   1      49.589  26.939  24.699  1.00  0.00     0.173 A 
ATOM     79  F   UNL A   1      49.809  25.752  28.125  1.00  0.00    -0.203 F 
ATOM     80  C   UNL A   1      51.422  25.750  26.409  1.00  0.00     0.198 A 
ATOM     81  C   UNL A   1      50.868  26.622  24.244  1.00  0.00     0.198 A 
ATOM     82  F   UNL A   1      48.725  27.513  23.849  1.00  0.00    -0.203 F 
ATOM     83  F   UNL A   1      52.314  25.208  27.249  1.00  0.00    -0.200 F 
ATOM     84  C   UNL A   1      51.786  26.035  25.102  1.00  0.00     0.200 A 
ATOM     85  F   UNL A   1      51.207  26.881  22.974  1.00  0.00    -0.200 F 
ATOM     86  F   UNL A   1      53.021  25.749  24.669  1.00  0.00    -0.200 F 
ENDBRANCH  52  76
BRANCH  64  87
ATOM     87  C   UNL A   1      46.181  32.361  28.629  1.00  0.00     0.064 A 
ATOM     88  C   UNL A   1      46.161  33.396  27.680  1.00  0.00     0.173 A 
ATOM     89  C   UNL A   1      46.714  32.644  29.896  1.00  0.00     0.173 A 
ATOM     90  F   UNL A   1      45.675  33.175  26.449  1.00  0.00    -0.203 F 
ATOM     91  C   UNL A   1      46.699  34.646  27.973  1.00  0.00     0.198 A 
ATOM     92  C   UNL A   1      47.213  33.907  30.198  1.00  0.00     0.198 A 
ATOM     93  F   UNL A   1      46.748  31.695  30.844  1.00  0.00    -0.203 F 
ATOM     94  F   UNL A   1      46.735  35.596  27.028  1.00  0.00    -0.200 F 
ATOM     95  C   UNL A   1      47.219  34.903  29.233  1.00  0.00     0.200 A 
ATOM     96  F   UNL A   1      47.699  34.158  31.421  1.00  0.00    -0.200 F 
ATOM     97  F   UNL A   1      47.736  36.106  29.513  1.00  0.00    -0.200 F 
ENDBRANCH  64  87
ENDBRANCH  38  39
ENDBRANCH  30  33
ENDBRANCH  28  29
ENDBRANCH  27  28
ENDBRANCH   1  27
TORSDOF 16
ENDMDL
