MODEL 1
REMARK VINA RESULT:     -13.0      0.000      0.000
REMARK SMILES CC[C@H](C(=O)NCCCNC(=O)c1ccc(-c2c3nc(c(-c4c(F)c(F)c(F)c(F)c4F)c4ccc([nH]4)c(-c4c(F)c(F)c(F)c(F)c4F)c4nc(c(-c5c(F)c(F)c(F)c(F)c5F)c5ccc2[nH]5)C=C4)C=C3)cc1)N1C(=O)c2ccc([N+](=O)[O-])cc2C1=O
REMARK SMILES IDX 8 1 7 2 6 3 4 4 5 5 3 7 2 8 1 9 76 10 77 11 88 12 78 13
REMARK SMILES IDX 79 14 87 15 89 16 80 17 86 18 81 19 82 20 83 21 84 22 85 23
REMARK SMILES IDX 9 24 10 25 11 26 12 28 13 29 14 30 75 31 15 32 74 33 16 34
REMARK SMILES IDX 17 35 18 36 68 37 19 38 73 39 67 40 69 41 20 42 72 43 66 44
REMARK SMILES IDX 65 45 21 47 53 48 33 49 52 50 34 51 37 52 51 53 70 54 35 55
REMARK SMILES IDX 36 56 50 58 71 59 38 60 22 61 23 62 31 63 24 64 25 65 29 66
REMARK SMILES IDX 32 67 26 68 27 69 30 70 28 71 54 72 55 73 63 74 56 75 57 76
REMARK SMILES IDX 61 77 64 78 58 79 59 80 62 81 60 82 39 83 40 84 48 85 41 86
REMARK SMILES IDX 42 87 46 88 49 89 43 90 44 91 47 92 45 93
REMARK H PARENT 6 6 10 27 69 46 37 57
REMARK Flexibility Score: inf
ROOT
ATOM      1  C   UNL A   1      31.845  28.486  26.779  1.00  0.00     0.042 C 
ENDROOT
BRANCH   1   2
ATOM      2  C   UNL A   1      31.339  27.326  25.929  1.00  0.00     0.117 C 
BRANCH   2   3
ATOM      3  N   UNL A   1      31.034  26.161  26.738  1.00  0.00    -0.354 N 
ATOM      4  C   UNL A   1      31.311  24.845  26.519  1.00  0.00     0.243 C 
ATOM      5  O   UNL A   1      30.526  24.041  27.029  1.00  0.00    -0.273 OA
ATOM      6  H   UNL A   1      30.552  26.350  27.575  1.00  0.00     0.163 HD
BRANCH   4   7
ATOM      7  C   UNL A   1      32.471  24.411  25.591  1.00  0.00     0.183 C 
BRANCH   7   8
ATOM      8  C   UNL A   1      33.894  24.865  25.986  1.00  0.00     0.032 C 
ATOM      9  C   UNL A   1      35.000  24.637  24.968  1.00  0.00     0.006 C 
ENDBRANCH   7   8
BRANCH   7  10
ATOM     10  N   UNL A   1      32.406  22.971  25.321  1.00  0.00    -0.262 N 
ATOM     11  C   UNL A   1      32.802  21.995  26.199  1.00  0.00     0.262 C 
ATOM     12  C   UNL A   1      32.198  22.456  24.069  1.00  0.00     0.262 C 
ATOM     13  O   UNL A   1      33.249  22.080  27.328  1.00  0.00    -0.269 OA
ATOM     14  C   UNL A   1      32.730  20.728  25.483  1.00  0.00     0.053 A 
ATOM     15  C   UNL A   1      32.400  21.009  24.170  1.00  0.00     0.060 A 
ATOM     16  O   UNL A   1      31.960  23.036  23.032  1.00  0.00    -0.269 OA
ATOM     17  C   UNL A   1      33.024  19.451  25.920  1.00  0.00     0.022 A 
ATOM     18  C   UNL A   1      32.386  20.028  23.196  1.00  0.00     0.100 A 
ATOM     19  C   UNL A   1      33.005  18.430  24.966  1.00  0.00     0.086 A 
ATOM     20  C   UNL A   1      32.705  18.724  23.611  1.00  0.00     0.270 A 
BRANCH  20  21
ATOM     21  N   UNL A   1      32.771  17.645  22.615  1.00  0.00     0.062 N 
ATOM     22  O   UNL A   1      32.044  17.740  21.616  1.00  0.00    -0.258 OA
ATOM     23  O   UNL A   1      33.539  16.702  22.843  1.00  0.00    -0.258 OA
ENDBRANCH  20  21
ENDBRANCH   7  10
ENDBRANCH   4   7
ENDBRANCH   2   3
ENDBRANCH   1   2
BRANCH   1  24
ATOM     24  C   UNL A   1      32.827  29.421  26.081  1.00  0.00     0.118 C 
BRANCH  24  25
ATOM     25  N   UNL A   1      32.581  30.828  26.356  1.00  0.00    -0.352 N 
ATOM     26  C   UNL A   1      33.289  31.703  27.145  1.00  0.00     0.251 C 
ATOM     27  H   UNL A   1      31.790  31.211  25.911  1.00  0.00     0.163 HD
ATOM     28  O   UNL A   1      32.850  32.831  27.353  1.00  0.00    -0.269 OA
BRANCH  26  29
ATOM     29  C   UNL A   1      34.559  31.284  27.777  1.00  0.00     0.039 A 
ATOM     30  C   UNL A   1      35.563  32.239  27.964  1.00  0.00     0.014 A 
ATOM     31  C   UNL A   1      34.770  29.963  28.180  1.00  0.00     0.014 A 
ATOM     32  C   UNL A   1      36.744  31.889  28.623  1.00  0.00     0.010 A 
ATOM     33  C   UNL A   1      35.917  29.630  28.898  1.00  0.00     0.010 A 
ATOM     34  C   UNL A   1      36.914  30.591  29.131  1.00  0.00    -0.014 A 
BRANCH  34  35
ATOM     35  C   UNL A   1      38.119  30.222  29.917  1.00  0.00     0.031 A 
ATOM     36  C   UNL A   1      39.133  29.270  29.350  1.00  0.00     0.074 A 
ATOM     37  C   UNL A   1      38.266  30.694  31.170  1.00  0.00     0.049 A 
ATOM     38  N   UNL A   1      40.206  28.772  29.911  1.00  0.00    -0.248 NA
ATOM     39  C   UNL A   1      38.897  28.798  27.978  1.00  0.00     0.031 C 
ATOM     40  C   UNL A   1      37.337  31.598  31.849  1.00  0.00     0.029 A 
ATOM     41  N   UNL A   1      39.251  30.471  32.100  1.00  0.00    -0.354 N 
ATOM     42  C   UNL A   1      40.762  27.917  28.968  1.00  0.00     0.074 A 
ATOM     43  C   UNL A   1      39.883  27.928  27.818  1.00  0.00     0.031 C 
ATOM     44  C   UNL A   1      37.809  31.875  33.075  1.00  0.00     0.029 A 
ATOM     45  C   UNL A   1      39.053  31.138  33.283  1.00  0.00     0.049 A 
ATOM     46  H   UNL A   1      40.026  29.887  31.933  1.00  0.00     0.167 HD
ATOM     47  C   UNL A   1      41.913  27.206  29.045  1.00  0.00     0.037 A 
ATOM     48  C   UNL A   1      39.789  31.152  34.409  1.00  0.00     0.037 A 
ATOM     49  C   UNL A   1      42.799  27.213  30.179  1.00  0.00     0.049 A 
ATOM     50  C   UNL A   1      41.048  30.334  34.480  1.00  0.00     0.074 A 
ATOM     51  C   UNL A   1      44.015  26.571  30.329  1.00  0.00     0.029 A 
ATOM     52  N   UNL A   1      42.560  27.898  31.362  1.00  0.00    -0.354 N 
ATOM     53  N   UNL A   1      41.593  29.575  33.562  1.00  0.00    -0.248 NA
ATOM     54  C   UNL A   1      41.793  30.375  35.747  1.00  0.00     0.031 C 
ATOM     55  C   UNL A   1      44.495  26.835  31.617  1.00  0.00     0.029 A 
ATOM     56  C   UNL A   1      43.597  27.676  32.255  1.00  0.00     0.049 A 
ATOM     57  H   UNL A   1      41.771  28.459  31.541  1.00  0.00     0.167 HD
ATOM     58  C   UNL A   1      42.758  29.071  34.126  1.00  0.00     0.074 A 
ATOM     59  C   UNL A   1      42.844  29.617  35.464  1.00  0.00     0.031 C 
ATOM     60  C   UNL A   1      43.673  28.233  33.581  1.00  0.00     0.037 A 
BRANCH  47  61
ATOM     61  C   UNL A   1      42.275  26.359  27.861  1.00  0.00     0.064 A 
ATOM     62  C   UNL A   1      43.190  26.802  26.893  1.00  0.00     0.173 A 
ATOM     63  C   UNL A   1      41.714  25.084  27.698  1.00  0.00     0.173 A 
ATOM     64  F   UNL A   1      43.745  28.019  26.996  1.00  0.00    -0.203 F 
ATOM     65  C   UNL A   1      43.501  26.015  25.787  1.00  0.00     0.198 A 
ATOM     66  C   UNL A   1      42.050  24.287  26.605  1.00  0.00     0.198 A 
ATOM     67  F   UNL A   1      40.840  24.609  28.598  1.00  0.00    -0.203 F 
ATOM     68  F   UNL A   1      44.333  26.483  24.847  1.00  0.00    -0.200 F 
ATOM     69  C   UNL A   1      42.934  24.757  25.646  1.00  0.00     0.200 A 
ATOM     70  F   UNL A   1      41.510  23.067  26.476  1.00  0.00    -0.200 F 
ATOM     71  F   UNL A   1      43.235  24.002  24.582  1.00  0.00    -0.200 F 
ENDBRANCH  47  61
BRANCH  48  72
ATOM     72  C   UNL A   1      39.373  32.003  35.553  1.00  0.00     0.064 A 
ATOM     73  C   UNL A   1      39.849  33.316  35.674  1.00  0.00     0.173 A 
ATOM     74  C   UNL A   1      38.496  31.532  36.539  1.00  0.00     0.173 A 
ATOM     75  F   UNL A   1      40.708  33.802  34.766  1.00  0.00    -0.203 F 
ATOM     76  C   UNL A   1      39.472  34.123  36.745  1.00  0.00     0.198 A 
ATOM     77  C   UNL A   1      38.100  32.347  37.598  1.00  0.00     0.198 A 
ATOM     78  F   UNL A   1      38.012  30.283  36.467  1.00  0.00    -0.203 F 
ATOM     79  F   UNL A   1      39.969  35.362  36.855  1.00  0.00    -0.200 F 
ATOM     80  C   UNL A   1      38.592  33.640  37.702  1.00  0.00     0.200 A 
ATOM     81  F   UNL A   1      37.242  31.882  38.516  1.00  0.00    -0.200 F 
ATOM     82  F   UNL A   1      38.225  34.419  38.730  1.00  0.00    -0.200 F 
ENDBRANCH  48  72
BRANCH  60  83
ATOM     83  C   UNL A   1      44.867  27.884  34.420  1.00  0.00     0.064 A 
ATOM     84  C   UNL A   1      46.041  28.651  34.383  1.00  0.00     0.173 A 
ATOM     85  C   UNL A   1      44.823  26.789  35.296  1.00  0.00     0.173 A 
ATOM     86  F   UNL A   1      46.138  29.696  33.549  1.00  0.00    -0.203 F 
ATOM     87  C   UNL A   1      47.135  28.321  35.178  1.00  0.00     0.198 A 
ATOM     88  C   UNL A   1      45.909  26.477  36.107  1.00  0.00     0.198 A 
ATOM     89  F   UNL A   1      43.721  26.027  35.370  1.00  0.00    -0.203 F 
ATOM     90  F   UNL A   1      48.262  29.041  35.096  1.00  0.00    -0.200 F 
ATOM     91  C   UNL A   1      47.066  27.239  36.044  1.00  0.00     0.200 A 
ATOM     92  F   UNL A   1      45.837  25.438  36.952  1.00  0.00    -0.200 F 
ATOM     93  F   UNL A   1      48.119  26.926  36.813  1.00  0.00    -0.200 F 
ENDBRANCH  60  83
ENDBRANCH  34  35
ENDBRANCH  26  29
ENDBRANCH  24  25
ENDBRANCH   1  24
TORSDOF 13
ENDMDL
MODEL 2
REMARK VINA RESULT:     -12.9      2.098      3.194
REMARK SMILES CC[C@H](C(=O)NCCCNC(=O)c1ccc(-c2c3nc(c(-c4c(F)c(F)c(F)c(F)c4F)c4ccc([nH]4)c(-c4c(F)c(F)c(F)c(F)c4F)c4nc(c(-c5c(F)c(F)c(F)c(F)c5F)c5ccc2[nH]5)C=C4)C=C3)cc1)N1C(=O)c2ccc([N+](=O)[O-])cc2C1=O
REMARK SMILES IDX 8 1 7 2 6 3 4 4 5 5 3 7 2 8 1 9 76 10 77 11 88 12 78 13
REMARK SMILES IDX 79 14 87 15 89 16 80 17 86 18 81 19 82 20 83 21 84 22 85 23
REMARK SMILES IDX 9 24 10 25 11 26 12 28 13 29 14 30 75 31 15 32 74 33 16 34
REMARK SMILES IDX 17 35 18 36 68 37 19 38 73 39 67 40 69 41 20 42 72 43 66 44
REMARK SMILES IDX 65 45 21 47 53 48 33 49 52 50 34 51 37 52 51 53 70 54 35 55
REMARK SMILES IDX 36 56 50 58 71 59 38 60 22 61 23 62 31 63 24 64 25 65 29 66
REMARK SMILES IDX 32 67 26 68 27 69 30 70 28 71 54 72 55 73 63 74 56 75 57 76
REMARK SMILES IDX 61 77 64 78 58 79 59 80 62 81 60 82 39 83 40 84 48 85 41 86
REMARK SMILES IDX 42 87 46 88 49 89 43 90 44 91 47 92 45 93
REMARK H PARENT 6 6 10 27 69 46 37 57
REMARK Flexibility Score: inf
ROOT
ATOM      1  C   UNL A   1      31.475  31.941  26.503  1.00  0.00     0.042 C 
ENDROOT
BRANCH   1   2
ATOM      2  C   UNL A   1      31.611  30.431  26.340  1.00  0.00     0.117 C 
BRANCH   2   3
ATOM      3  N   UNL A   1      32.227  30.080  25.074  1.00  0.00    -0.354 N 
ATOM      4  C   UNL A   1      31.983  29.030  24.241  1.00  0.00     0.243 C 
ATOM      5  O   UNL A   1      32.939  28.659  23.554  1.00  0.00    -0.273 OA
ATOM      6  H   UNL A   1      32.931  30.698  24.770  1.00  0.00     0.163 HD
BRANCH   4   7
ATOM      7  C   UNL A   1      30.624  28.289  24.258  1.00  0.00     0.183 C 
BRANCH   7   8
ATOM      8  C   UNL A   1      29.728  28.438  23.008  1.00  0.00     0.032 C 
ATOM      9  C   UNL A   1      29.930  29.682  22.158  1.00  0.00     0.006 C 
ENDBRANCH   7   8
BRANCH   7  10
ATOM     10  N   UNL A   1      30.805  26.886  24.643  1.00  0.00    -0.262 N 
ATOM     11  C   UNL A   1      30.971  26.447  25.932  1.00  0.00     0.262 C 
ATOM     12  C   UNL A   1      31.097  25.897  23.742  1.00  0.00     0.262 C 
ATOM     13  O   UNL A   1      30.989  27.062  26.982  1.00  0.00    -0.269 OA
ATOM     14  C   UNL A   1      31.281  25.025  25.857  1.00  0.00     0.053 A 
ATOM     15  C   UNL A   1      31.399  24.694  24.520  1.00  0.00     0.060 A 
ATOM     16  O   UNL A   1      31.174  25.961  22.534  1.00  0.00    -0.269 OA
ATOM     17  C   UNL A   1      31.537  24.124  26.872  1.00  0.00     0.022 A 
ATOM     18  C   UNL A   1      31.824  23.443  24.113  1.00  0.00     0.100 A 
ATOM     19  C   UNL A   1      31.954  22.843  26.499  1.00  0.00     0.086 A 
ATOM     20  C   UNL A   1      32.112  22.514  25.128  1.00  0.00     0.270 A 
BRANCH  20  21
ATOM     21  N   UNL A   1      32.629  21.187  24.767  1.00  0.00     0.062 N 
ATOM     22  O   UNL A   1      33.747  21.130  24.239  1.00  0.00    -0.258 OA
ATOM     23  O   UNL A   1      31.907  20.209  25.003  1.00  0.00    -0.258 OA
ENDBRANCH  20  21
ENDBRANCH   7  10
ENDBRANCH   4   7
ENDBRANCH   2   3
ENDBRANCH   1   2
BRANCH   1  24
ATOM     24  C   UNL A   1      32.629  32.620  27.232  1.00  0.00     0.118 C 
BRANCH  24  25
ATOM     25  N   UNL A   1      32.355  34.006  27.582  1.00  0.00    -0.352 N 
ATOM     26  C   UNL A   1      32.970  34.812  28.511  1.00  0.00     0.251 C 
ATOM     27  H   UNL A   1      31.622  34.429  27.080  1.00  0.00     0.163 HD
ATOM     28  O   UNL A   1      32.513  35.925  28.751  1.00  0.00    -0.269 OA
BRANCH  26  29
ATOM     29  C   UNL A   1      34.160  34.333  29.250  1.00  0.00     0.039 A 
ATOM     30  C   UNL A   1      33.973  33.698  30.481  1.00  0.00     0.014 A 
ATOM     31  C   UNL A   1      35.450  34.510  28.744  1.00  0.00     0.014 A 
ATOM     32  C   UNL A   1      35.071  33.172  31.166  1.00  0.00     0.010 A 
ATOM     33  C   UNL A   1      36.536  33.925  29.393  1.00  0.00     0.010 A 
ATOM     34  C   UNL A   1      36.357  33.246  30.608  1.00  0.00    -0.014 A 
BRANCH  34  35
ATOM     35  C   UNL A   1      37.524  32.611  31.272  1.00  0.00     0.031 A 
ATOM     36  C   UNL A   1      38.270  31.498  30.593  1.00  0.00     0.074 A 
ATOM     37  C   UNL A   1      37.872  32.993  32.516  1.00  0.00     0.049 A 
ATOM     38  N   UNL A   1      39.264  30.771  31.042  1.00  0.00    -0.248 NA
ATOM     39  C   UNL A   1      37.826  31.139  29.238  1.00  0.00     0.031 C 
ATOM     40  C   UNL A   1      37.208  34.037  33.297  1.00  0.00     0.029 A 
ATOM     41  N   UNL A   1      38.866  32.539  33.346  1.00  0.00    -0.354 N 
ATOM     42  C   UNL A   1      39.551  29.861  30.033  1.00  0.00     0.074 A 
ATOM     43  C   UNL A   1      38.597  30.095  28.970  1.00  0.00     0.031 C 
ATOM     44  C   UNL A   1      37.830  34.164  34.480  1.00  0.00     0.029 A 
ATOM     45  C   UNL A   1      38.910  33.184  34.556  1.00  0.00     0.049 A 
ATOM     46  H   UNL A   1      39.489  31.818  33.096  1.00  0.00     0.167 HD
ATOM     47  C   UNL A   1      40.535  28.931  29.989  1.00  0.00     0.037 A 
ATOM     48  C   UNL A   1      39.727  33.004  35.611  1.00  0.00     0.037 A 
ATOM     49  C   UNL A   1      41.497  28.713  31.036  1.00  0.00     0.049 A 
ATOM     50  C   UNL A   1      40.794  31.947  35.548  1.00  0.00     0.074 A 
ATOM     51  C   UNL A   1      42.565  27.834  31.060  1.00  0.00     0.029 A 
ATOM     52  N   UNL A   1      41.505  29.384  32.251  1.00  0.00    -0.354 N 
ATOM     53  N   UNL A   1      41.093  31.131  34.567  1.00  0.00    -0.248 NA
ATOM     54  C   UNL A   1      41.637  31.787  36.741  1.00  0.00     0.031 C 
ATOM     55  C   UNL A   1      43.197  27.945  32.304  1.00  0.00     0.029 A 
ATOM     56  C   UNL A   1      42.547  28.922  33.039  1.00  0.00     0.049 A 
ATOM     57  H   UNL A   1      40.866  30.085  32.513  1.00  0.00     0.167 HD
ATOM     58  C   UNL A   1      42.174  30.382  35.010  1.00  0.00     0.074 A 
ATOM     59  C   UNL A   1      42.483  30.845  36.347  1.00  0.00     0.031 C 
ATOM     60  C   UNL A   1      42.849  29.399  34.365  1.00  0.00     0.037 A 
BRANCH  47  61
ATOM     61  C   UNL A   1      40.614  28.076  28.758  1.00  0.00     0.064 A 
ATOM     62  C   UNL A   1      41.378  28.460  27.645  1.00  0.00     0.173 A 
ATOM     63  C   UNL A   1      39.931  26.853  28.694  1.00  0.00     0.173 A 
ATOM     64  F   UNL A   1      42.040  29.627  27.651  1.00  0.00    -0.203 F 
ATOM     65  C   UNL A   1      41.425  27.669  26.500  1.00  0.00     0.198 A 
ATOM     66  C   UNL A   1      40.004  26.049  27.558  1.00  0.00     0.198 A 
ATOM     67  F   UNL A   1      39.192  26.435  29.733  1.00  0.00    -0.203 F 
ATOM     68  F   UNL A   1      42.115  28.084  25.429  1.00  0.00    -0.200 F 
ATOM     69  C   UNL A   1      40.743  26.462  26.459  1.00  0.00     0.200 A 
ATOM     70  F   UNL A   1      39.353  24.878  27.524  1.00  0.00    -0.200 F 
ATOM     71  F   UNL A   1      40.789  25.702  25.357  1.00  0.00    -0.200 F 
ENDBRANCH  47  61
BRANCH  48  72
ATOM     72  C   UNL A   1      39.593  33.875  36.807  1.00  0.00     0.064 A 
ATOM     73  C   UNL A   1      40.246  35.114  36.862  1.00  0.00     0.173 A 
ATOM     74  C   UNL A   1      38.814  33.496  37.908  1.00  0.00     0.173 A 
ATOM     75  F   UNL A   1      41.020  35.508  35.840  1.00  0.00    -0.203 F 
ATOM     76  C   UNL A   1      40.133  35.938  37.979  1.00  0.00     0.198 A 
ATOM     77  C   UNL A   1      38.682  34.331  39.016  1.00  0.00     0.198 A 
ATOM     78  F   UNL A   1      38.168  32.321  37.902  1.00  0.00    -0.203 F 
ATOM     79  F   UNL A   1      40.795  37.102  38.021  1.00  0.00    -0.200 F 
ATOM     80  C   UNL A   1      39.346  35.548  39.053  1.00  0.00     0.200 A 
ATOM     81  F   UNL A   1      37.913  33.957  40.048  1.00  0.00    -0.200 F 
ATOM     82  F   UNL A   1      39.233  36.344  40.126  1.00  0.00    -0.200 F 
ENDBRANCH  48  72
BRANCH  60  83
ATOM     83  C   UNL A   1      44.014  28.784  35.083  1.00  0.00     0.064 A 
ATOM     84  C   UNL A   1      45.306  29.319  34.981  1.00  0.00     0.173 A 
ATOM     85  C   UNL A   1      43.827  27.665  35.909  1.00  0.00     0.173 A 
ATOM     86  F   UNL A   1      45.538  30.377  34.189  1.00  0.00    -0.203 F 
ATOM     87  C   UNL A   1      46.373  28.743  35.664  1.00  0.00     0.198 A 
ATOM     88  C   UNL A   1      44.892  27.108  36.610  1.00  0.00     0.198 A 
ATOM     89  F   UNL A   1      42.609  27.119  36.042  1.00  0.00    -0.203 F 
ATOM     90  F   UNL A   1      47.608  29.244  35.520  1.00  0.00    -0.200 F 
ATOM     91  C   UNL A   1      46.164  27.643  36.484  1.00  0.00     0.200 A 
ATOM     92  F   UNL A   1      44.686  26.051  37.410  1.00  0.00    -0.200 F 
ATOM     93  F   UNL A   1      47.193  27.093  37.145  1.00  0.00    -0.200 F 
ENDBRANCH  60  83
ENDBRANCH  34  35
ENDBRANCH  26  29
ENDBRANCH  24  25
ENDBRANCH   1  24
TORSDOF 13
ENDMDL
MODEL 3
REMARK VINA RESULT:     -12.8      3.689      6.662
REMARK SMILES CC[C@H](C(=O)NCCCNC(=O)c1ccc(-c2c3nc(c(-c4c(F)c(F)c(F)c(F)c4F)c4ccc([nH]4)c(-c4c(F)c(F)c(F)c(F)c4F)c4nc(c(-c5c(F)c(F)c(F)c(F)c5F)c5ccc2[nH]5)C=C4)C=C3)cc1)N1C(=O)c2ccc([N+](=O)[O-])cc2C1=O
REMARK SMILES IDX 8 1 7 2 6 3 4 4 5 5 3 7 2 8 1 9 76 10 77 11 88 12 78 13
REMARK SMILES IDX 79 14 87 15 89 16 80 17 86 18 81 19 82 20 83 21 84 22 85 23
REMARK SMILES IDX 9 24 10 25 11 26 12 28 13 29 14 30 75 31 15 32 74 33 16 34
REMARK SMILES IDX 17 35 18 36 68 37 19 38 73 39 67 40 69 41 20 42 72 43 66 44
REMARK SMILES IDX 65 45 21 47 53 48 33 49 52 50 34 51 37 52 51 53 70 54 35 55
REMARK SMILES IDX 36 56 50 58 71 59 38 60 22 61 23 62 31 63 24 64 25 65 29 66
REMARK SMILES IDX 32 67 26 68 27 69 30 70 28 71 54 72 55 73 63 74 56 75 57 76
REMARK SMILES IDX 61 77 64 78 58 79 59 80 62 81 60 82 39 83 40 84 48 85 41 86
REMARK SMILES IDX 42 87 46 88 49 89 43 90 44 91 47 92 45 93
REMARK H PARENT 6 6 10 27 69 46 37 57
REMARK Flexibility Score: inf
ROOT
ATOM      1  C   UNL A   1      35.834  23.759  25.915  1.00  0.00     0.042 C 
ENDROOT
BRANCH   1   2
ATOM      2  C   UNL A   1      34.760  24.768  25.520  1.00  0.00     0.117 C 
BRANCH   2   3
ATOM      3  N   UNL A   1      34.445  24.690  24.106  1.00  0.00    -0.354 N 
ATOM      4  C   UNL A   1      33.660  23.804  23.430  1.00  0.00     0.243 C 
ATOM      5  O   UNL A   1      33.964  23.615  22.249  1.00  0.00    -0.273 OA
ATOM      6  H   UNL A   1      34.861  25.386  23.549  1.00  0.00     0.163 HD
BRANCH   4   7
ATOM      7  C   UNL A   1      32.542  23.011  24.147  1.00  0.00     0.183 C 
BRANCH   7   8
ATOM      8  C   UNL A   1      31.083  23.397  23.815  1.00  0.00     0.032 C 
ATOM      9  C   UNL A   1      30.678  24.842  24.058  1.00  0.00     0.006 C 
ENDBRANCH   7   8
BRANCH   7  10
ATOM     10  N   UNL A   1      32.772  21.568  24.025  1.00  0.00    -0.262 N 
ATOM     11  C   UNL A   1      32.379  20.803  22.957  1.00  0.00     0.262 C 
ATOM     12  C   UNL A   1      33.164  20.784  25.078  1.00  0.00     0.262 C 
ATOM     13  O   UNL A   1      31.806  21.115  21.929  1.00  0.00    -0.269 OA
ATOM     14  C   UNL A   1      32.649  19.415  23.309  1.00  0.00     0.053 A 
ATOM     15  C   UNL A   1      33.090  19.395  24.619  1.00  0.00     0.060 A 
ATOM     16  O   UNL A   1      33.455  21.109  26.208  1.00  0.00    -0.269 OA
ATOM     17  C   UNL A   1      32.432  18.263  22.579  1.00  0.00     0.022 A 
ATOM     18  C   UNL A   1      33.303  18.210  25.299  1.00  0.00     0.100 A 
ATOM     19  C   UNL A   1      32.651  17.045  23.228  1.00  0.00     0.086 A 
ATOM     20  C   UNL A   1      33.067  17.023  24.585  1.00  0.00     0.270 A 
BRANCH  20  21
ATOM     21  N   UNL A   1      33.213  15.729  25.266  1.00  0.00     0.062 N 
ATOM     22  O   UNL A   1      34.355  15.267  25.383  1.00  0.00    -0.258 OA
ATOM     23  O   UNL A   1      32.181  15.176  25.669  1.00  0.00    -0.258 OA
ENDBRANCH  20  21
ENDBRANCH   7  10
ENDBRANCH   4   7
ENDBRANCH   2   3
ENDBRANCH   1   2
BRANCH   1  24
ATOM     24  C   UNL A   1      37.063  23.734  25.013  1.00  0.00     0.118 C 
BRANCH  24  25
ATOM     25  N   UNL A   1      38.064  22.763  25.427  1.00  0.00    -0.352 N 
ATOM     26  C   UNL A   1      39.199  22.942  26.182  1.00  0.00     0.251 C 
ATOM     27  H   UNL A   1      37.905  21.841  25.121  1.00  0.00     0.163 HD
ATOM     28  O   UNL A   1      39.991  22.015  26.322  1.00  0.00    -0.269 OA
BRANCH  26  29
ATOM     29  C   UNL A   1      39.491  24.256  26.797  1.00  0.00     0.039 A 
ATOM     30  C   UNL A   1      39.072  24.489  28.110  1.00  0.00     0.014 A 
ATOM     31  C   UNL A   1      40.166  25.255  26.092  1.00  0.00     0.014 A 
ATOM     32  C   UNL A   1      39.397  25.692  28.741  1.00  0.00     0.010 A 
ATOM     33  C   UNL A   1      40.551  26.425  26.743  1.00  0.00     0.010 A 
ATOM     34  C   UNL A   1      40.174  26.654  28.076  1.00  0.00    -0.014 A 
BRANCH  34  35
ATOM     35  C   UNL A   1      40.612  27.898  28.759  1.00  0.00     0.031 A 
ATOM     36  C   UNL A   1      42.035  28.052  29.217  1.00  0.00     0.074 A 
ATOM     37  C   UNL A   1      39.712  28.864  29.025  1.00  0.00     0.049 A 
ATOM     38  N   UNL A   1      42.587  29.028  29.893  1.00  0.00    -0.248 NA
ATOM     39  C   UNL A   1      42.953  26.951  28.890  1.00  0.00     0.031 C 
ATOM     40  C   UNL A   1      38.295  28.822  28.664  1.00  0.00     0.029 A 
ATOM     41  N   UNL A   1      39.855  30.067  29.671  1.00  0.00    -0.354 N 
ATOM     42  C   UNL A   1      43.910  28.652  30.086  1.00  0.00     0.074 A 
ATOM     43  C   UNL A   1      44.065  27.339  29.497  1.00  0.00     0.031 C 
ATOM     44  C   UNL A   1      37.705  29.959  29.067  1.00  0.00     0.029 A 
ATOM     45  C   UNL A   1      38.692  30.792  29.749  1.00  0.00     0.049 A 
ATOM     46  H   UNL A   1      40.712  30.380  30.042  1.00  0.00     0.167 HD
ATOM     47  C   UNL A   1      44.909  29.348  30.680  1.00  0.00     0.037 A 
ATOM     48  C   UNL A   1      38.448  31.990  30.310  1.00  0.00     0.037 A 
ATOM     49  C   UNL A   1      44.760  30.662  31.245  1.00  0.00     0.049 A 
ATOM     50  C   UNL A   1      39.568  32.731  30.987  1.00  0.00     0.074 A 
ATOM     51  C   UNL A   1      45.725  31.472  31.817  1.00  0.00     0.029 A 
ATOM     52  N   UNL A   1      43.564  31.362  31.311  1.00  0.00    -0.354 N 
ATOM     53  N   UNL A   1      40.827  32.391  31.114  1.00  0.00    -0.248 NA
ATOM     54  C   UNL A   1      39.229  34.023  31.600  1.00  0.00     0.031 C 
ATOM     55  C   UNL A   1      45.106  32.645  32.264  1.00  0.00     0.029 A 
ATOM     56  C   UNL A   1      43.763  32.584  31.933  1.00  0.00     0.049 A 
ATOM     57  H   UNL A   1      42.700  31.038  30.965  1.00  0.00     0.167 HD
ATOM     58  C   UNL A   1      41.438  33.437  31.793  1.00  0.00     0.074 A 
ATOM     59  C   UNL A   1      40.412  34.427  32.045  1.00  0.00     0.031 C 
ATOM     60  C   UNL A   1      42.733  33.564  32.170  1.00  0.00     0.037 A 
BRANCH  47  61
ATOM     61  C   UNL A   1      46.256  28.691  30.746  1.00  0.00     0.064 A 
ATOM     62  C   UNL A   1      47.196  28.837  29.714  1.00  0.00     0.173 A 
ATOM     63  C   UNL A   1      46.619  27.918  31.859  1.00  0.00     0.173 A 
ATOM     64  F   UNL A   1      46.894  29.556  28.623  1.00  0.00    -0.203 F 
ATOM     65  C   UNL A   1      48.435  28.204  29.777  1.00  0.00     0.198 A 
ATOM     66  C   UNL A   1      47.870  27.309  31.932  1.00  0.00     0.198 A 
ATOM     67  F   UNL A   1      45.761  27.751  32.876  1.00  0.00    -0.203 F 
ATOM     68  F   UNL A   1      49.293  28.312  28.754  1.00  0.00    -0.200 F 
ATOM     69  C   UNL A   1      48.773  27.445  30.888  1.00  0.00     0.200 A 
ATOM     70  F   UNL A   1      48.200  26.585  33.010  1.00  0.00    -0.200 F 
ATOM     71  F   UNL A   1      49.964  26.836  30.946  1.00  0.00    -0.200 F 
ENDBRANCH  47  61
BRANCH  48  72
ATOM     72  C   UNL A   1      37.090  32.585  30.222  1.00  0.00     0.064 A 
ATOM     73  C   UNL A   1      36.163  32.398  31.257  1.00  0.00     0.173 A 
ATOM     74  C   UNL A   1      36.692  33.348  29.116  1.00  0.00     0.173 A 
ATOM     75  F   UNL A   1      36.493  31.656  32.324  1.00  0.00    -0.203 F 
ATOM     76  C   UNL A   1      34.884  32.945  31.184  1.00  0.00     0.198 A 
ATOM     77  C   UNL A   1      35.421  33.915  29.055  1.00  0.00     0.198 A 
ATOM     78  F   UNL A   1      37.544  33.556  28.101  1.00  0.00    -0.203 F 
ATOM     79  F   UNL A   1      34.006  32.723  32.171  1.00  0.00    -0.200 F 
ATOM     80  C   UNL A   1      34.516  33.708  30.087  1.00  0.00     0.200 A 
ATOM     81  F   UNL A   1      35.072  34.660  27.998  1.00  0.00    -0.200 F 
ATOM     82  F   UNL A   1      33.287  34.239  30.019  1.00  0.00    -0.200 F 
ENDBRANCH  48  72
BRANCH  60  83
ATOM     83  C   UNL A   1      43.123  34.835  32.864  1.00  0.00     0.064 A 
ATOM     84  C   UNL A   1      43.170  34.925  34.262  1.00  0.00     0.173 A 
ATOM     85  C   UNL A   1      43.487  35.968  32.118  1.00  0.00     0.173 A 
ATOM     86  F   UNL A   1      42.813  33.876  35.019  1.00  0.00    -0.203 F 
ATOM     87  C   UNL A   1      43.546  36.110  34.890  1.00  0.00     0.198 A 
ATOM     88  C   UNL A   1      43.887  37.141  32.749  1.00  0.00     0.198 A 
ATOM     89  F   UNL A   1      43.462  35.930  30.777  1.00  0.00    -0.203 F 
ATOM     90  F   UNL A   1      43.543  36.188  36.227  1.00  0.00    -0.200 F 
ATOM     91  C   UNL A   1      43.912  37.214  34.133  1.00  0.00     0.200 A 
ATOM     92  F   UNL A   1      44.250  38.204  32.016  1.00  0.00    -0.200 F 
ATOM     93  F   UNL A   1      44.279  38.352  34.740  1.00  0.00    -0.200 F 
ENDBRANCH  60  83
ENDBRANCH  34  35
ENDBRANCH  26  29
ENDBRANCH  24  25
ENDBRANCH   1  24
TORSDOF 13
ENDMDL
