MODEL 1
REMARK VINA RESULT:     -13.1      0.000      0.000
REMARK SMILES O=C(NCCCNC(=O)c1ccc(NC(=O)c2ccc([N+](=O)[O-])cc2Cl)cc1Cl)c1ccc(-c2c3nc(c(-c4c(F)c(F)c(F)c(F)c4F)c4ccc([nH]4)c(-c4c(F)c(F)c(F)c(F)c4F)c4nc(c(-c5c(F)c(F)c(F)c(F)c5F)c5ccc2[nH]5)C=C4)C=C3)cc1
REMARK SMILES IDX 5 1 4 2 3 3 1 4 2 5 30 7 31 8 92 9 32 10 91 11 33 12 34 13
REMARK SMILES IDX 35 14 85 15 36 16 90 17 84 18 86 19 37 20 89 21 83 22 82 23
REMARK SMILES IDX 38 25 70 26 50 27 69 28 51 29 54 30 68 31 87 32 52 33 53 34
REMARK SMILES IDX 67 36 88 37 55 38 39 39 40 40 48 41 41 42 42 43 46 44 49 45
REMARK SMILES IDX 43 46 44 47 47 48 45 49 71 50 72 51 80 52 73 53 74 54 78 55
REMARK SMILES IDX 81 56 75 57 76 58 79 59 77 60 56 61 57 62 65 63 58 64 59 65
REMARK SMILES IDX 63 66 66 67 60 68 61 69 64 70 62 71 6 72 7 73 8 74 9 76
REMARK SMILES IDX 10 77 11 78 28 79 12 80 27 81 29 82 13 83 14 84 15 85 16 87
REMARK SMILES IDX 17 88 18 89 25 90 19 91 24 92 26 93 20 94 21 95 22 96 23 97
REMARK H PARENT 3 6 86 24 54 35 7 75 14 86
REMARK Flexibility Score: inf
ROOT
ATOM      1  C   UNL A   1      31.288  32.257  26.562  1.00  0.00     0.042 C 
ENDROOT
BRANCH   1   2
ATOM      2  C   UNL A   1      32.585  32.837  27.104  1.00  0.00     0.118 C 
BRANCH   2   3
ATOM      3  N   UNL A   1      32.443  34.190  27.626  1.00  0.00    -0.352 N 
ATOM      4  O   UNL A   1      32.724  35.939  29.016  1.00  0.00    -0.269 OA
ATOM      5  C   UNL A   1      33.107  34.832  28.642  1.00  0.00     0.251 C 
ATOM      6  H   UNL A   1      31.757  34.733  27.176  1.00  0.00     0.163 HD
BRANCH   5   7
ATOM      7  C   UNL A   1      34.260  34.195  29.311  1.00  0.00     0.039 A 
ATOM      8  C   UNL A   1      35.569  34.535  28.968  1.00  0.00     0.014 A 
ATOM      9  C   UNL A   1      34.028  33.254  30.321  1.00  0.00     0.014 A 
ATOM     10  C   UNL A   1      36.633  33.816  29.497  1.00  0.00     0.010 A 
ATOM     11  C   UNL A   1      35.106  32.608  30.932  1.00  0.00     0.010 A 
ATOM     12  C   UNL A   1      36.417  32.858  30.500  1.00  0.00    -0.014 A 
BRANCH  12  13
ATOM     13  C   UNL A   1      37.587  32.188  31.122  1.00  0.00     0.031 A 
ATOM     14  C   UNL A   1      38.043  32.541  32.509  1.00  0.00     0.074 A 
ATOM     15  C   UNL A   1      38.223  31.228  30.422  1.00  0.00     0.049 A 
ATOM     16  N   UNL A   1      39.037  32.041  33.200  1.00  0.00    -0.248 NA
ATOM     17  C   UNL A   1      37.299  33.598  33.208  1.00  0.00     0.031 C 
ATOM     18  C   UNL A   1      37.880  30.816  29.059  1.00  0.00     0.029 A 
ATOM     19  N   UNL A   1      39.273  30.414  30.760  1.00  0.00    -0.354 N 
ATOM     20  C   UNL A   1      39.051  32.735  34.403  1.00  0.00     0.074 A 
ATOM     21  C   UNL A   1      37.982  33.709  34.340  1.00  0.00     0.031 C 
ATOM     22  C   UNL A   1      38.671  29.799  28.694  1.00  0.00     0.029 A 
ATOM     23  C   UNL A   1      39.621  29.532  29.767  1.00  0.00     0.049 A 
ATOM     24  H   UNL A   1      39.734  30.459  31.629  1.00  0.00     0.167 HD
ATOM     25  C   UNL A   1      39.879  32.566  35.464  1.00  0.00     0.037 A 
ATOM     26  C   UNL A   1      40.609  28.620  29.715  1.00  0.00     0.037 A 
ATOM     27  C   UNL A   1      40.927  31.580  35.526  1.00  0.00     0.049 A 
ATOM     28  C   UNL A   1      41.515  28.462  30.900  1.00  0.00     0.074 A 
ATOM     29  C   UNL A   1      41.786  31.297  36.573  1.00  0.00     0.029 A 
ATOM     30  N   UNL A   1      41.264  30.717  34.491  1.00  0.00    -0.354 N 
ATOM     31  N   UNL A   1      41.491  29.097  32.047  1.00  0.00    -0.248 NA
ATOM     32  C   UNL A   1      42.586  27.465  30.784  1.00  0.00     0.031 C 
ATOM     33  C   UNL A   1      42.674  30.298  36.156  1.00  0.00     0.029 A 
ATOM     34  C   UNL A   1      42.335  29.922  34.867  1.00  0.00     0.049 A 
ATOM     35  H   UNL A   1      40.809  30.676  33.619  1.00  0.00     0.167 HD
ATOM     36  C   UNL A   1      42.536  28.573  32.793  1.00  0.00     0.074 A 
ATOM     37  C   UNL A   1      43.157  27.548  31.977  1.00  0.00     0.031 C 
ATOM     38  C   UNL A   1      42.946  28.913  34.039  1.00  0.00     0.037 A 
BRANCH  25  39
ATOM     39  C   UNL A   1      39.700  33.482  36.641  1.00  0.00     0.064 A 
ATOM     40  C   UNL A   1      40.341  34.728  36.714  1.00  0.00     0.173 A 
ATOM     41  C   UNL A   1      38.837  33.128  37.690  1.00  0.00     0.173 A 
ATOM     42  F   UNL A   1      41.185  35.112  35.743  1.00  0.00    -0.203 F 
ATOM     43  C   UNL A   1      40.145  35.573  37.805  1.00  0.00     0.198 A 
ATOM     44  C   UNL A   1      38.622  33.987  38.765  1.00  0.00     0.198 A 
ATOM     45  F   UNL A   1      38.193  31.952  37.667  1.00  0.00    -0.203 F 
ATOM     46  F   UNL A   1      40.802  36.739  37.872  1.00  0.00    -0.200 F 
ATOM     47  C   UNL A   1      39.281  35.205  38.825  1.00  0.00     0.200 A 
ATOM     48  F   UNL A   1      37.778  33.634  39.744  1.00  0.00    -0.200 F 
ATOM     49  F   UNL A   1      39.088  36.022  39.869  1.00  0.00    -0.200 F 
ENDBRANCH  25  39
BRANCH  26  50
ATOM     50  C   UNL A   1      40.787  27.805  28.487  1.00  0.00     0.064 A 
ATOM     51  C   UNL A   1      40.135  26.575  28.334  1.00  0.00     0.173 A 
ATOM     52  C   UNL A   1      41.587  28.258  27.428  1.00  0.00     0.173 A 
ATOM     53  F   UNL A   1      39.373  26.093  29.327  1.00  0.00    -0.203 F 
ATOM     54  C   UNL A   1      40.283  25.825  27.169  1.00  0.00     0.198 A 
ATOM     55  C   UNL A   1      41.710  27.522  26.252  1.00  0.00     0.198 A 
ATOM     56  F   UNL A   1      42.225  29.434  27.523  1.00  0.00    -0.203 F 
ATOM     57  F   UNL A   1      39.676  24.635  27.060  1.00  0.00    -0.200 F 
ATOM     58  C   UNL A   1      41.064  26.304  26.126  1.00  0.00     0.200 A 
ATOM     59  F   UNL A   1      42.449  27.998  25.241  1.00  0.00    -0.200 F 
ATOM     60  F   UNL A   1      41.194  25.586  25.001  1.00  0.00    -0.200 F 
ENDBRANCH  26  50
BRANCH  38  61
ATOM     61  C   UNL A   1      44.114  28.156  34.599  1.00  0.00     0.064 A 
ATOM     62  C   UNL A   1      45.427  28.632  34.464  1.00  0.00     0.173 A 
ATOM     63  C   UNL A   1      43.915  26.957  35.298  1.00  0.00     0.173 A 
ATOM     64  F   UNL A   1      45.668  29.764  33.786  1.00  0.00    -0.203 F 
ATOM     65  C   UNL A   1      46.502  27.919  34.988  1.00  0.00     0.198 A 
ATOM     66  C   UNL A   1      44.990  26.262  35.845  1.00  0.00     0.198 A 
ATOM     67  F   UNL A   1      42.678  26.463  35.457  1.00  0.00    -0.203 F 
ATOM     68  F   UNL A   1      47.752  28.365  34.805  1.00  0.00    -0.200 F 
ATOM     69  C   UNL A   1      46.283  26.739  35.684  1.00  0.00     0.200 A 
ATOM     70  F   UNL A   1      44.776  25.128  36.526  1.00  0.00    -0.200 F 
ATOM     71  F   UNL A   1      47.318  26.056  36.190  1.00  0.00    -0.200 F 
ENDBRANCH  38  61
ENDBRANCH  12  13
ENDBRANCH   5   7
ENDBRANCH   2   3
ENDBRANCH   1   2
BRANCH   1  72
ATOM     72  C   UNL A   1      31.340  30.772  26.241  1.00  0.00     0.118 C 
BRANCH  72  73
ATOM     73  N   UNL A   1      32.175  30.453  25.094  1.00  0.00    -0.352 N 
ATOM     74  C   UNL A   1      32.379  29.255  24.458  1.00  0.00     0.252 C 
ATOM     75  H   UNL A   1      32.671  31.214  24.715  1.00  0.00     0.163 HD
ATOM     76  O   UNL A   1      33.159  29.189  23.513  1.00  0.00    -0.269 OA
BRANCH  74  77
ATOM     77  C   UNL A   1      31.761  28.018  24.971  1.00  0.00     0.058 A 
ATOM     78  C   UNL A   1      30.670  27.533  24.247  1.00  0.00     0.017 A 
ATOM     79  C   UNL A   1      32.179  27.334  26.112  1.00  0.00     0.055 A 
ATOM     80  C   UNL A   1      30.085  26.313  24.593  1.00  0.00     0.027 A 
ATOM     81  C   UNL A   1      31.635  26.075  26.403  1.00  0.00     0.047 A 
ATOM     82  Cl  UNL A   1      33.325  27.985  27.227  1.00  0.00    -0.083 Cl
ATOM     83  C   UNL A   1      30.622  25.523  25.608  1.00  0.00     0.043 A 
BRANCH  83  84
ATOM     84  N   UNL A   1      30.235  24.199  25.903  1.00  0.00    -0.322 N 
ATOM     85  C   UNL A   1      30.884  22.985  25.839  1.00  0.00     0.257 C 
ATOM     86  H   UNL A   1      29.307  24.128  26.222  1.00  0.00     0.170 HD
ATOM     87  O   UNL A   1      30.289  21.949  26.126  1.00  0.00    -0.269 OA
BRANCH  85  88
ATOM     88  C   UNL A   1      32.276  22.874  25.392  1.00  0.00     0.059 A 
ATOM     89  C   UNL A   1      32.502  22.976  24.011  1.00  0.00     0.022 A 
ATOM     90  C   UNL A   1      33.349  22.741  26.284  1.00  0.00     0.060 A 
ATOM     91  C   UNL A   1      33.807  23.054  23.526  1.00  0.00     0.086 A 
ATOM     92  C   UNL A   1      34.658  22.829  25.803  1.00  0.00     0.107 A 
ATOM     93  Cl  UNL A   1      33.118  22.546  27.983  1.00  0.00    -0.083 Cl
ATOM     94  C   UNL A   1      34.879  23.014  24.429  1.00  0.00     0.270 A 
BRANCH  94  95
ATOM     95  N   UNL A   1      36.245  23.226  23.937  1.00  0.00     0.062 N 
ATOM     96  O   UNL A   1      37.089  23.636  24.745  1.00  0.00    -0.258 OA
ATOM     97  O   UNL A   1      36.473  22.953  22.751  1.00  0.00    -0.258 OA
ENDBRANCH  94  95
ENDBRANCH  85  88
ENDBRANCH  83  84
ENDBRANCH  74  77
ENDBRANCH  72  73
ENDBRANCH   1  72
TORSDOF 13
ENDMDL
MODEL 2
REMARK VINA RESULT:     -13.0      0.119      1.602
REMARK SMILES O=C(NCCCNC(=O)c1ccc(NC(=O)c2ccc([N+](=O)[O-])cc2Cl)cc1Cl)c1ccc(-c2c3nc(c(-c4c(F)c(F)c(F)c(F)c4F)c4ccc([nH]4)c(-c4c(F)c(F)c(F)c(F)c4F)c4nc(c(-c5c(F)c(F)c(F)c(F)c5F)c5ccc2[nH]5)C=C4)C=C3)cc1
REMARK SMILES IDX 5 1 4 2 3 3 1 4 2 5 30 7 31 8 92 9 32 10 91 11 33 12 34 13
REMARK SMILES IDX 35 14 85 15 36 16 90 17 84 18 86 19 37 20 89 21 83 22 82 23
REMARK SMILES IDX 38 25 70 26 50 27 69 28 51 29 54 30 68 31 87 32 52 33 53 34
REMARK SMILES IDX 67 36 88 37 55 38 39 39 40 40 48 41 41 42 42 43 46 44 49 45
REMARK SMILES IDX 43 46 44 47 47 48 45 49 71 50 72 51 80 52 73 53 74 54 78 55
REMARK SMILES IDX 81 56 75 57 76 58 79 59 77 60 56 61 57 62 65 63 58 64 59 65
REMARK SMILES IDX 63 66 66 67 60 68 61 69 64 70 62 71 6 72 7 73 8 74 9 76
REMARK SMILES IDX 10 77 11 78 28 79 12 80 27 81 29 82 13 83 14 84 15 85 16 87
REMARK SMILES IDX 17 88 18 89 25 90 19 91 24 92 26 93 20 94 21 95 22 96 23 97
REMARK H PARENT 3 6 86 24 54 35 7 75 14 86
REMARK Flexibility Score: inf
ROOT
ATOM      1  C   UNL A   1      31.308  32.260  26.508  1.00  0.00     0.042 C 
ENDROOT
BRANCH   1   2
ATOM      2  C   UNL A   1      32.596  32.825  27.086  1.00  0.00     0.118 C 
BRANCH   2   3
ATOM      3  N   UNL A   1      32.449  34.172  27.624  1.00  0.00    -0.352 N 
ATOM      4  O   UNL A   1      32.722  35.906  29.034  1.00  0.00    -0.269 OA
ATOM      5  C   UNL A   1      33.108  34.804  28.649  1.00  0.00     0.251 C 
ATOM      6  H   UNL A   1      31.764  34.718  27.177  1.00  0.00     0.163 HD
BRANCH   5   7
ATOM      7  C   UNL A   1      34.260  34.161  29.315  1.00  0.00     0.039 A 
ATOM      8  C   UNL A   1      35.569  34.522  28.996  1.00  0.00     0.014 A 
ATOM      9  C   UNL A   1      34.027  33.193  30.298  1.00  0.00     0.014 A 
ATOM     10  C   UNL A   1      36.634  33.801  29.519  1.00  0.00     0.010 A 
ATOM     11  C   UNL A   1      35.104  32.542  30.906  1.00  0.00     0.010 A 
ATOM     12  C   UNL A   1      36.417  32.816  30.495  1.00  0.00    -0.014 A 
BRANCH  12  13
ATOM     13  C   UNL A   1      37.587  32.142  31.113  1.00  0.00     0.031 A 
ATOM     14  C   UNL A   1      38.030  32.472  32.510  1.00  0.00     0.074 A 
ATOM     15  C   UNL A   1      38.235  31.200  30.400  1.00  0.00     0.049 A 
ATOM     16  N   UNL A   1      39.021  31.965  33.200  1.00  0.00    -0.248 NA
ATOM     17  C   UNL A   1      37.272  33.510  33.224  1.00  0.00     0.031 C 
ATOM     18  C   UNL A   1      37.906  30.812  29.026  1.00  0.00     0.029 A 
ATOM     19  N   UNL A   1      39.288  30.387  30.731  1.00  0.00    -0.354 N 
ATOM     20  C   UNL A   1      39.021  32.635  34.417  1.00  0.00     0.074 A 
ATOM     21  C   UNL A   1      37.945  33.603  34.364  1.00  0.00     0.031 C 
ATOM     22  C   UNL A   1      38.707  29.808  28.649  1.00  0.00     0.029 A 
ATOM     23  C   UNL A   1      39.650  29.526  29.724  1.00  0.00     0.049 A 
ATOM     24  H   UNL A   1      39.741  30.418  31.604  1.00  0.00     0.167 HD
ATOM     25  C   UNL A   1      39.841  32.452  35.481  1.00  0.00     0.037 A 
ATOM     26  C   UNL A   1      40.645  28.623  29.662  1.00  0.00     0.037 A 
ATOM     27  C   UNL A   1      40.896  31.471  35.532  1.00  0.00     0.049 A 
ATOM     28  C   UNL A   1      41.542  28.448  30.852  1.00  0.00     0.074 A 
ATOM     29  C   UNL A   1      41.748  31.174  36.581  1.00  0.00     0.029 A 
ATOM     30  N   UNL A   1      41.247  30.632  34.483  1.00  0.00    -0.354 N 
ATOM     31  N   UNL A   1      41.505  29.061  32.010  1.00  0.00    -0.248 NA
ATOM     32  C   UNL A   1      42.621  27.461  30.725  1.00  0.00     0.031 C 
ATOM     33  C   UNL A   1      42.646  30.190  36.151  1.00  0.00     0.029 A 
ATOM     34  C   UNL A   1      42.321  29.836  34.853  1.00  0.00     0.049 A 
ATOM     35  H   UNL A   1      40.799  30.604  33.607  1.00  0.00     0.167 HD
ATOM     36  C   UNL A   1      42.547  28.529  32.755  1.00  0.00     0.074 A 
ATOM     37  C   UNL A   1      43.182  27.525  31.924  1.00  0.00     0.031 C 
ATOM     38  C   UNL A   1      42.945  28.847  34.010  1.00  0.00     0.037 A 
BRANCH  25  39
ATOM     39  C   UNL A   1      39.647  33.343  36.673  1.00  0.00     0.064 A 
ATOM     40  C   UNL A   1      40.305  34.577  36.791  1.00  0.00     0.173 A 
ATOM     41  C   UNL A   1      38.752  32.979  37.692  1.00  0.00     0.173 A 
ATOM     42  F   UNL A   1      41.178  34.969  35.850  1.00  0.00    -0.203 F 
ATOM     43  C   UNL A   1      40.094  35.400  37.896  1.00  0.00     0.198 A 
ATOM     44  C   UNL A   1      38.523  33.817  38.781  1.00  0.00     0.198 A 
ATOM     45  F   UNL A   1      38.090  31.814  37.626  1.00  0.00    -0.203 F 
ATOM     46  F   UNL A   1      40.767  36.554  38.007  1.00  0.00    -0.200 F 
ATOM     47  C   UNL A   1      39.199  35.023  38.885  1.00  0.00     0.200 A 
ATOM     48  F   UNL A   1      37.648  33.456  39.730  1.00  0.00    -0.200 F 
ATOM     49  F   UNL A   1      38.992  35.819  39.943  1.00  0.00    -0.200 F 
ENDBRANCH  25  39
BRANCH  26  50
ATOM     50  C   UNL A   1      40.838  27.833  28.420  1.00  0.00     0.064 A 
ATOM     51  C   UNL A   1      41.659  28.299  27.386  1.00  0.00     0.173 A 
ATOM     52  C   UNL A   1      40.229  26.579  28.259  1.00  0.00     0.173 A 
ATOM     53  F   UNL A   1      42.249  29.499  27.489  1.00  0.00    -0.203 F 
ATOM     54  C   UNL A   1      41.859  27.543  26.233  1.00  0.00     0.198 A 
ATOM     55  C   UNL A   1      40.454  25.811  27.119  1.00  0.00     0.198 A 
ATOM     56  F   UNL A   1      39.440  26.086  29.225  1.00  0.00    -0.203 F 
ATOM     57  F   UNL A   1      42.623  28.025  25.243  1.00  0.00    -0.200 F 
ATOM     58  C   UNL A   1      41.263  26.296  26.105  1.00  0.00     0.200 A 
ATOM     59  F   UNL A   1      39.892  24.600  27.009  1.00  0.00    -0.200 F 
ATOM     60  F   UNL A   1      41.468  25.565  25.000  1.00  0.00    -0.200 F 
ENDBRANCH  26  50
BRANCH  38  61
ATOM     61  C   UNL A   1      44.114  28.088  34.564  1.00  0.00     0.064 A 
ATOM     62  C   UNL A   1      43.935  26.926  35.330  1.00  0.00     0.173 A 
ATOM     63  C   UNL A   1      45.425  28.514  34.307  1.00  0.00     0.173 A 
ATOM     64  F   UNL A   1      42.700  26.491  35.618  1.00  0.00    -0.203 F 
ATOM     65  C   UNL A   1      45.030  26.231  35.839  1.00  0.00     0.198 A 
ATOM     66  C   UNL A   1      46.517  27.801  34.794  1.00  0.00     0.198 A 
ATOM     67  F   UNL A   1      45.648  29.618  33.577  1.00  0.00    -0.203 F 
ATOM     68  F   UNL A   1      44.836  25.152  36.609  1.00  0.00    -0.200 F 
ATOM     69  C   UNL A   1      46.318  26.665  35.566  1.00  0.00     0.200 A 
ATOM     70  F   UNL A   1      47.762  28.215  34.520  1.00  0.00    -0.200 F 
ATOM     71  F   UNL A   1      47.370  25.994  36.053  1.00  0.00    -0.200 F 
ENDBRANCH  38  61
ENDBRANCH  12  13
ENDBRANCH   5   7
ENDBRANCH   2   3
ENDBRANCH   1   2
BRANCH   1  72
ATOM     72  C   UNL A   1      31.353  30.774  26.189  1.00  0.00     0.118 C 
BRANCH  72  73
ATOM     73  N   UNL A   1      32.209  30.446  25.060  1.00  0.00    -0.352 N 
ATOM     74  C   UNL A   1      32.425  29.242  24.439  1.00  0.00     0.252 C 
ATOM     75  H   UNL A   1      32.712  31.204  24.685  1.00  0.00     0.163 HD
ATOM     76  O   UNL A   1      33.223  29.169  23.509  1.00  0.00    -0.269 OA
BRANCH  74  77
ATOM     77  C   UNL A   1      31.799  28.010  24.950  1.00  0.00     0.058 A 
ATOM     78  C   UNL A   1      30.721  27.517  24.211  1.00  0.00     0.017 A 
ATOM     79  C   UNL A   1      32.196  27.336  26.105  1.00  0.00     0.055 A 
ATOM     80  C   UNL A   1      30.131  26.299  24.555  1.00  0.00     0.027 A 
ATOM     81  C   UNL A   1      31.647  26.078  26.396  1.00  0.00     0.047 A 
ATOM     82  Cl  UNL A   1      33.320  27.997  27.236  1.00  0.00    -0.083 Cl
ATOM     83  C   UNL A   1      30.650  25.519  25.587  1.00  0.00     0.043 A 
BRANCH  83  84
ATOM     84  N   UNL A   1      30.258  24.198  25.886  1.00  0.00    -0.322 N 
ATOM     85  C   UNL A   1      30.904  22.982  25.830  1.00  0.00     0.257 C 
ATOM     86  H   UNL A   1      29.329  24.130  26.201  1.00  0.00     0.170 HD
ATOM     87  O   UNL A   1      30.306  21.948  26.120  1.00  0.00    -0.269 OA
BRANCH  85  88
ATOM     88  C   UNL A   1      32.298  22.865  25.390  1.00  0.00     0.059 A 
ATOM     89  C   UNL A   1      32.529  22.944  24.008  1.00  0.00     0.022 A 
ATOM     90  C   UNL A   1      33.368  22.748  26.288  1.00  0.00     0.060 A 
ATOM     91  C   UNL A   1      33.836  23.016  23.527  1.00  0.00     0.086 A 
ATOM     92  C   UNL A   1      34.679  22.831  25.810  1.00  0.00     0.107 A 
ATOM     93  Cl  UNL A   1      33.132  22.582  27.989  1.00  0.00    -0.083 Cl
ATOM     94  C   UNL A   1      34.904  22.993  24.434  1.00  0.00     0.270 A 
BRANCH  94  95
ATOM     95  N   UNL A   1      36.272  23.199  23.943  1.00  0.00     0.062 N 
ATOM     96  O   UNL A   1      36.497  22.951  22.751  1.00  0.00    -0.258 OA
ATOM     97  O   UNL A   1      37.106  23.634  24.747  1.00  0.00    -0.258 OA
ENDBRANCH  94  95
ENDBRANCH  85  88
ENDBRANCH  83  84
ENDBRANCH  74  77
ENDBRANCH  72  73
ENDBRANCH   1  72
TORSDOF 13
ENDMDL
MODEL 3
REMARK VINA RESULT:     -13.0      5.032     10.723
REMARK SMILES O=C(NCCCNC(=O)c1ccc(NC(=O)c2ccc([N+](=O)[O-])cc2Cl)cc1Cl)c1ccc(-c2c3nc(c(-c4c(F)c(F)c(F)c(F)c4F)c4ccc([nH]4)c(-c4c(F)c(F)c(F)c(F)c4F)c4nc(c(-c5c(F)c(F)c(F)c(F)c5F)c5ccc2[nH]5)C=C4)C=C3)cc1
REMARK SMILES IDX 5 1 4 2 3 3 1 4 2 5 30 7 31 8 92 9 32 10 91 11 33 12 34 13
REMARK SMILES IDX 35 14 85 15 36 16 90 17 84 18 86 19 37 20 89 21 83 22 82 23
REMARK SMILES IDX 38 25 70 26 50 27 69 28 51 29 54 30 68 31 87 32 52 33 53 34
REMARK SMILES IDX 67 36 88 37 55 38 39 39 40 40 48 41 41 42 42 43 46 44 49 45
REMARK SMILES IDX 43 46 44 47 47 48 45 49 71 50 72 51 80 52 73 53 74 54 78 55
REMARK SMILES IDX 81 56 75 57 76 58 79 59 77 60 56 61 57 62 65 63 58 64 59 65
REMARK SMILES IDX 63 66 66 67 60 68 61 69 64 70 62 71 6 72 7 73 8 74 9 76
REMARK SMILES IDX 10 77 11 78 28 79 12 80 27 81 29 82 13 83 14 84 15 85 16 87
REMARK SMILES IDX 17 88 18 89 25 90 19 91 24 92 26 93 20 94 21 95 22 96 23 97
REMARK H PARENT 3 6 86 24 54 35 7 75 14 86
REMARK Flexibility Score: inf
ROOT
ATOM      1  C   UNL A   1      37.901  19.495  24.992  1.00  0.00     0.042 C 
ENDROOT
BRANCH   1   2
ATOM      2  C   UNL A   1      39.078  20.074  25.761  1.00  0.00     0.118 C 
BRANCH   2   3
ATOM      3  N   UNL A   1      40.202  19.154  25.880  1.00  0.00    -0.352 N 
ATOM      4  O   UNL A   1      42.342  18.471  26.030  1.00  0.00    -0.269 OA
ATOM      5  C   UNL A   1      41.534  19.393  26.111  1.00  0.00     0.251 C 
ATOM      6  H   UNL A   1      39.967  18.204  25.778  1.00  0.00     0.163 HD
BRANCH   5   7
ATOM      7  C   UNL A   1      42.012  20.756  26.428  1.00  0.00     0.039 A 
ATOM      8  C   UNL A   1      42.275  21.137  27.744  1.00  0.00     0.014 A 
ATOM      9  C   UNL A   1      42.226  21.664  25.386  1.00  0.00     0.014 A 
ATOM     10  C   UNL A   1      42.573  22.462  28.035  1.00  0.00     0.010 A 
ATOM     11  C   UNL A   1      42.634  22.970  25.671  1.00  0.00     0.010 A 
ATOM     12  C   UNL A   1      42.776  23.390  27.002  1.00  0.00    -0.014 A 
BRANCH  12  13
ATOM     13  C   UNL A   1      43.203  24.770  27.346  1.00  0.00     0.031 A 
ATOM     14  C   UNL A   1      44.602  25.245  27.073  1.00  0.00     0.074 A 
ATOM     15  C   UNL A   1      42.296  25.606  27.888  1.00  0.00     0.049 A 
ATOM     16  N   UNL A   1      45.130  26.423  27.300  1.00  0.00    -0.248 NA
ATOM     17  C   UNL A   1      45.534  24.276  26.479  1.00  0.00     0.031 C 
ATOM     18  C   UNL A   1      40.914  25.247  28.215  1.00  0.00     0.029 A 
ATOM     19  N   UNL A   1      42.388  26.927  28.242  1.00  0.00    -0.354 N 
ATOM     20  C   UNL A   1      46.456  26.329  26.899  1.00  0.00     0.074 A 
ATOM     21  C   UNL A   1      46.662  24.973  26.436  1.00  0.00     0.031 C 
ATOM     22  C   UNL A   1      40.276  26.329  28.678  1.00  0.00     0.029 A 
ATOM     23  C   UNL A   1      41.218  27.440  28.745  1.00  0.00     0.049 A 
ATOM     24  H   UNL A   1      43.213  27.456  28.146  1.00  0.00     0.167 HD
ATOM     25  C   UNL A   1      47.411  27.293  26.912  1.00  0.00     0.037 A 
ATOM     26  C   UNL A   1      40.936  28.663  29.228  1.00  0.00     0.037 A 
ATOM     27  C   UNL A   1      47.191  28.646  27.355  1.00  0.00     0.049 A 
ATOM     28  C   UNL A   1      42.015  29.706  29.238  1.00  0.00     0.074 A 
ATOM     29  C   UNL A   1      48.079  29.707  27.360  1.00  0.00     0.029 A 
ATOM     30  N   UNL A   1      45.997  29.123  27.879  1.00  0.00    -0.354 N 
ATOM     31  N   UNL A   1      43.254  29.615  28.819  1.00  0.00    -0.248 NA
ATOM     32  C   UNL A   1      41.659  31.019  29.791  1.00  0.00     0.031 C 
ATOM     33  C   UNL A   1      47.438  30.813  27.932  1.00  0.00     0.029 A 
ATOM     34  C   UNL A   1      46.135  30.456  28.235  1.00  0.00     0.049 A 
ATOM     35  H   UNL A   1      45.173  28.593  27.982  1.00  0.00     0.167 HD
ATOM     36  C   UNL A   1      43.824  30.859  29.048  1.00  0.00     0.074 A 
ATOM     37  C   UNL A   1      42.786  31.694  29.619  1.00  0.00     0.031 C 
ATOM     38  C   UNL A   1      45.093  31.269  28.810  1.00  0.00     0.037 A 
BRANCH  25  39
ATOM     39  C   UNL A   1      48.789  26.915  26.452  1.00  0.00     0.064 A 
ATOM     40  C   UNL A   1      49.744  26.383  27.331  1.00  0.00     0.173 A 
ATOM     41  C   UNL A   1      49.145  27.042  25.100  1.00  0.00     0.173 A 
ATOM     42  F   UNL A   1      49.459  26.248  28.636  1.00  0.00    -0.203 F 
ATOM     43  C   UNL A   1      51.011  26.018  26.880  1.00  0.00     0.198 A 
ATOM     44  C   UNL A   1      50.403  26.651  24.647  1.00  0.00     0.198 A 
ATOM     45  F   UNL A   1      48.268  27.538  24.214  1.00  0.00    -0.203 F 
ATOM     46  F   UNL A   1      51.920  25.552  27.748  1.00  0.00    -0.200 F 
ATOM     47  C   UNL A   1      51.336  26.146  25.538  1.00  0.00     0.200 A 
ATOM     48  F   UNL A   1      50.711  26.765  23.348  1.00  0.00    -0.200 F 
ATOM     49  F   UNL A   1      52.553  25.787  25.105  1.00  0.00    -0.200 F 
ENDBRANCH  25  39
BRANCH  26  50
ATOM     50  C   UNL A   1      39.576  28.948  29.749  1.00  0.00     0.064 A 
ATOM     51  C   UNL A   1      39.240  28.678  31.082  1.00  0.00     0.173 A 
ATOM     52  C   UNL A   1      38.595  29.527  28.931  1.00  0.00     0.173 A 
ATOM     53  F   UNL A   1      40.140  28.109  31.897  1.00  0.00    -0.203 F 
ATOM     54  C   UNL A   1      37.969  28.971  31.574  1.00  0.00     0.198 A 
ATOM     55  C   UNL A   1      37.336  29.846  29.432  1.00  0.00     0.198 A 
ATOM     56  F   UNL A   1      38.871  29.812  27.649  1.00  0.00    -0.203 F 
ATOM     57  F   UNL A   1      37.661  28.673  32.844  1.00  0.00    -0.200 F 
ATOM     58  C   UNL A   1      37.022  29.562  30.751  1.00  0.00     0.200 A 
ATOM     59  F   UNL A   1      36.431  30.436  28.639  1.00  0.00    -0.200 F 
ATOM     60  F   UNL A   1      35.805  29.855  31.231  1.00  0.00    -0.200 F 
ENDBRANCH  26  50
BRANCH  38  61
ATOM     61  C   UNL A   1      45.422  32.691  29.156  1.00  0.00     0.064 A 
ATOM     62  C   UNL A   1      45.953  33.036  30.408  1.00  0.00     0.173 A 
ATOM     63  C   UNL A   1      45.229  33.715  28.217  1.00  0.00     0.173 A 
ATOM     64  F   UNL A   1      46.137  32.095  31.346  1.00  0.00    -0.203 F 
ATOM     65  C   UNL A   1      46.253  34.360  30.716  1.00  0.00     0.198 A 
ATOM     66  C   UNL A   1      45.557  35.033  28.519  1.00  0.00     0.198 A 
ATOM     67  F   UNL A   1      44.728  33.434  27.004  1.00  0.00    -0.203 F 
ATOM     68  F   UNL A   1      46.712  34.675  31.935  1.00  0.00    -0.200 F 
ATOM     69  C   UNL A   1      46.062  35.356  29.770  1.00  0.00     0.200 A 
ATOM     70  F   UNL A   1      45.382  35.992  27.599  1.00  0.00    -0.200 F 
ATOM     71  F   UNL A   1      46.354  36.629  30.066  1.00  0.00    -0.200 F 
ENDBRANCH  38  61
ENDBRANCH  12  13
ENDBRANCH   5   7
ENDBRANCH   2   3
ENDBRANCH   1   2
BRANCH   1  72
ATOM     72  C   UNL A   1      36.783  20.483  24.700  1.00  0.00     0.118 C 
BRANCH  72  73
ATOM     73  N   UNL A   1      35.870  20.676  25.816  1.00  0.00    -0.352 N 
ATOM     74  C   UNL A   1      34.707  21.400  25.888  1.00  0.00     0.252 C 
ATOM     75  H   UNL A   1      36.126  20.216  26.648  1.00  0.00     0.163 HD
ATOM     76  O   UNL A   1      34.090  21.461  26.947  1.00  0.00    -0.269 OA
BRANCH  74  77
ATOM     77  C   UNL A   1      34.250  22.203  24.739  1.00  0.00     0.058 A 
ATOM     78  C   UNL A   1      33.199  21.664  23.994  1.00  0.00     0.017 A 
ATOM     79  C   UNL A   1      34.800  23.425  24.354  1.00  0.00     0.055 A 
ATOM     80  C   UNL A   1      32.628  22.398  22.953  1.00  0.00     0.027 A 
ATOM     81  C   UNL A   1      34.169  24.185  23.358  1.00  0.00     0.047 A 
ATOM     82  Cl  UNL A   1      36.265  24.046  25.025  1.00  0.00    -0.083 Cl
ATOM     83  C   UNL A   1      33.038  23.703  22.688  1.00  0.00     0.043 A 
BRANCH  83  84
ATOM     84  N   UNL A   1      32.400  24.594  21.800  1.00  0.00    -0.322 N 
ATOM     85  C   UNL A   1      31.857  25.852  21.947  1.00  0.00     0.257 C 
ATOM     86  H   UNL A   1      32.329  24.244  20.884  1.00  0.00     0.170 HD
ATOM     87  O   UNL A   1      31.314  26.408  20.994  1.00  0.00    -0.269 OA
BRANCH  85  88
ATOM     88  C   UNL A   1      31.864  26.554  23.234  1.00  0.00     0.059 A 
ATOM     89  C   UNL A   1      30.921  26.133  24.184  1.00  0.00     0.022 A 
ATOM     90  C   UNL A   1      32.799  27.549  23.548  1.00  0.00     0.060 A 
ATOM     91  C   UNL A   1      30.979  26.630  25.486  1.00  0.00     0.086 A 
ATOM     92  C   UNL A   1      32.869  28.041  24.855  1.00  0.00     0.107 A 
ATOM     93  Cl  UNL A   1      33.935  28.146  22.393  1.00  0.00    -0.083 Cl
ATOM     94  C   UNL A   1      31.975  27.557  25.823  1.00  0.00     0.270 A 
BRANCH  94  95
ATOM     95  N   UNL A   1      32.122  27.983  27.220  1.00  0.00     0.062 N 
ATOM     96  O   UNL A   1      33.201  28.488  27.556  1.00  0.00    -0.258 OA
ATOM     97  O   UNL A   1      31.144  27.836  27.966  1.00  0.00    -0.258 OA
ENDBRANCH  94  95
ENDBRANCH  85  88
ENDBRANCH  83  84
ENDBRANCH  74  77
ENDBRANCH  72  73
ENDBRANCH   1  72
TORSDOF 13
ENDMDL
