MODEL 1
REMARK VINA RESULT:     -12.9      0.000      0.000
REMARK SMILES CCCOc1ccc(-c2nc(C#N)c(N3CCC(C(=O)NCCCNC(=O)c4ccc(-c5c6nc(c(-c7c(F)c(F)c(F)c(F)c7F)c7ccc([nH]7)c(-c7c(F)c(F)c(F)c(F)c7F)c7nc(c(-c8c(F)c(F)c(F)c(F)c8F)c8ccc5[nH]8)C=C7)C=C6)cc4)CC3)o2)cc1
REMARK SMILES IDX 19 1 20 2 21 3 18 5 15 6 16 7 92 8 17 9 91 10 14 11 9 12
REMARK SMILES IDX 10 13 93 14 11 15 8 16 5 17 6 18 95 19 7 20 94 21 4 22 3 23
REMARK SMILES IDX 2 24 1 25 12 26 13 27 22 28 23 29 24 30 25 31 26 32 27 34
REMARK SMILES IDX 28 35 29 36 90 37 30 38 89 39 31 40 32 41 33 42 83 43 34 44
REMARK SMILES IDX 88 45 82 46 84 47 35 48 87 49 81 50 80 51 36 53 68 54 48 55
REMARK SMILES IDX 67 56 49 57 52 58 66 59 85 60 50 61 51 62 65 64 86 65 53 66
REMARK SMILES IDX 37 67 38 68 46 69 39 70 40 71 44 72 47 73 41 74 42 75 45 76
REMARK SMILES IDX 43 77 69 78 70 79 78 80 71 81 72 82 76 83 79 84 73 85 74 86
REMARK SMILES IDX 77 87 75 88 54 89 55 90 63 91 56 92 57 93 61 94 64 95 58 96
REMARK SMILES IDX 59 97 62 98 60 99
REMARK H PARENT 21 4 25 33 84 52 52 63
REMARK Flexibility Score: inf
ROOT
ATOM      1  C   UNL A   1      31.838  28.438  26.766  1.00  0.00     0.223 C 
ATOM      2  O   UNL A   1      31.362  27.437  27.306  1.00  0.00    -0.275 OA
ATOM      3  N   UNL A   1      32.199  29.484  27.561  1.00  0.00    -0.356 N 
ATOM      4  H   UNL A   1      32.012  29.356  28.519  1.00  0.00     0.163 HD
ENDROOT
BRANCH   1   5
ATOM      5  C   UNL A   1      31.996  28.498  25.252  1.00  0.00     0.082 C 
ATOM      6  N   UNL A   1      32.658  26.818  23.071  1.00  0.00    -0.340 N 
ATOM      7  C   UNL A   1      33.641  27.831  23.420  1.00  0.00     0.120 C 
ATOM      8  C   UNL A   1      31.275  27.265  23.103  1.00  0.00     0.120 C 
ATOM      9  C   UNL A   1      33.460  28.219  24.874  1.00  0.00     0.035 C 
ATOM     10  C   UNL A   1      30.915  27.656  24.539  1.00  0.00     0.035 C 
BRANCH   6  11
ATOM     11  C   UNL A   1      33.013  25.563  22.697  1.00  0.00     0.235 A 
ATOM     12  C   UNL A   1      33.483  23.467  23.028  1.00  0.00     0.230 A 
ATOM     13  N   UNL A   1      33.402  23.549  21.717  1.00  0.00    -0.196 NA
ATOM     14  O   UNL A   1      33.322  24.661  23.688  1.00  0.00    -0.419 OA
ATOM     15  C   UNL A   1      33.063  24.860  21.505  1.00  0.00     0.204 A 
BRANCH  12  16
ATOM     16  C   UNL A   1      33.350  22.260  23.823  1.00  0.00     0.037 A 
ATOM     17  C   UNL A   1      33.268  19.953  25.439  1.00  0.00     0.119 A 
ATOM     18  C   UNL A   1      32.089  20.520  24.938  1.00  0.00     0.047 A 
ATOM     19  C   UNL A   1      34.469  20.603  25.200  1.00  0.00     0.047 A 
ATOM     20  C   UNL A   1      32.123  21.683  24.149  1.00  0.00     0.017 A 
ATOM     21  C   UNL A   1      34.518  21.718  24.367  1.00  0.00     0.017 A 
BRANCH  17  22
ATOM     22  O   UNL A   1      33.134  18.754  26.075  1.00  0.00    -0.494 OA
BRANCH  22  23
ATOM     23  C   UNL A   1      32.921  17.564  25.308  1.00  0.00     0.229 C 
BRANCH  23  24
ATOM     24  C   UNL A   1      34.176  17.025  24.604  1.00  0.00     0.038 C 
ATOM     25  C   UNL A   1      34.019  16.750  23.113  1.00  0.00     0.007 C 
ENDBRANCH  23  24
ENDBRANCH  22  23
ENDBRANCH  17  22
ENDBRANCH  12  16
BRANCH  15  26
ATOM     26  C   UNL A   1      32.774  25.318  20.198  1.00  0.00     0.125 C 
ATOM     27  N   UNL A   1      32.549  25.711  19.116  1.00  0.00    -0.190 NA
ENDBRANCH  15  26
ENDBRANCH   6  11
ENDBRANCH   1   5
BRANCH   3  28
ATOM     28  C   UNL A   1      32.817  30.764  27.228  1.00  0.00     0.117 C 
BRANCH  28  29
ATOM     29  C   UNL A   1      34.306  30.834  27.554  1.00  0.00     0.042 C 
BRANCH  29  30
ATOM     30  C   UNL A   1      34.751  32.211  27.968  1.00  0.00     0.118 C 
BRANCH  30  31
ATOM     31  N   UNL A   1      34.545  32.480  29.397  1.00  0.00    -0.352 N 
ATOM     32  C   UNL A   1      35.295  32.009  30.464  1.00  0.00     0.251 C 
ATOM     33  H   UNL A   1      33.784  33.063  29.625  1.00  0.00     0.163 HD
ATOM     34  O   UNL A   1      34.861  32.018  31.608  1.00  0.00    -0.269 OA
BRANCH  32  35
ATOM     35  C   UNL A   1      36.652  31.514  30.174  1.00  0.00     0.039 A 
ATOM     36  C   UNL A   1      37.766  32.342  30.021  1.00  0.00     0.014 A 
ATOM     37  C   UNL A   1      36.790  30.136  30.165  1.00  0.00     0.014 A 
ATOM     38  C   UNL A   1      39.014  31.735  29.879  1.00  0.00     0.010 A 
ATOM     39  C   UNL A   1      38.009  29.602  30.423  1.00  0.00     0.010 A 
ATOM     40  C   UNL A   1      39.113  30.348  30.077  1.00  0.00    -0.014 A 
BRANCH  40  41
ATOM     41  C   UNL A   1      40.360  29.604  30.060  1.00  0.00     0.031 A 
ATOM     42  C   UNL A   1      40.909  29.416  31.421  1.00  0.00     0.074 A 
ATOM     43  C   UNL A   1      40.784  28.940  28.957  1.00  0.00     0.049 A 
ATOM     44  N   UNL A   1      41.931  30.010  31.934  1.00  0.00    -0.248 NA
ATOM     45  C   UNL A   1      40.105  28.662  32.400  1.00  0.00     0.031 C 
ATOM     46  C   UNL A   1      40.110  28.797  27.655  1.00  0.00     0.029 A 
ATOM     47  N   UNL A   1      41.893  28.163  28.788  1.00  0.00    -0.354 N 
ATOM     48  C   UNL A   1      42.051  29.495  33.221  1.00  0.00     0.074 A 
ATOM     49  C   UNL A   1      40.781  28.899  33.526  1.00  0.00     0.031 C 
ATOM     50  C   UNL A   1      40.704  27.823  26.925  1.00  0.00     0.029 A 
ATOM     51  C   UNL A   1      41.896  27.388  27.622  1.00  0.00     0.049 A 
ATOM     52  H   UNL A   1      42.634  28.149  29.437  1.00  0.00     0.167 HD
ATOM     53  C   UNL A   1      43.288  29.319  33.764  1.00  0.00     0.037 A 
ATOM     54  C   UNL A   1      42.823  26.452  27.281  1.00  0.00     0.037 A 
ATOM     55  C   UNL A   1      44.268  30.061  33.002  1.00  0.00     0.049 A 
ATOM     56  C   UNL A   1      44.025  26.718  28.111  1.00  0.00     0.074 A 
ATOM     57  C   UNL A   1      44.481  31.393  32.707  1.00  0.00     0.029 A 
ATOM     58  N   UNL A   1      44.970  29.349  32.061  1.00  0.00    -0.354 N 
ATOM     59  N   UNL A   1      44.756  27.791  27.994  1.00  0.00    -0.248 NA
ATOM     60  C   UNL A   1      44.094  26.046  29.398  1.00  0.00     0.031 C 
ATOM     61  C   UNL A   1      44.931  31.408  31.352  1.00  0.00     0.029 A 
ATOM     62  C   UNL A   1      45.068  30.089  30.915  1.00  0.00     0.049 A 
ATOM     63  H   UNL A   1      45.344  28.448  32.190  1.00  0.00     0.167 HD
ATOM     64  C   UNL A   1      45.013  28.183  29.300  1.00  0.00     0.074 A 
ATOM     65  C   UNL A   1      44.636  27.032  30.120  1.00  0.00     0.031 C 
ATOM     66  C   UNL A   1      45.211  29.501  29.602  1.00  0.00     0.037 A 
BRANCH  53  67
ATOM     67  C   UNL A   1      43.690  28.137  34.629  1.00  0.00     0.064 A 
ATOM     68  C   UNL A   1      43.468  26.839  34.119  1.00  0.00     0.173 A 
ATOM     69  C   UNL A   1      43.970  28.192  36.012  1.00  0.00     0.173 A 
ATOM     70  F   UNL A   1      43.207  26.651  32.816  1.00  0.00    -0.203 F 
ATOM     71  C   UNL A   1      43.398  25.715  34.947  1.00  0.00     0.198 A 
ATOM     72  C   UNL A   1      43.946  27.062  36.828  1.00  0.00     0.198 A 
ATOM     73  F   UNL A   1      44.182  29.337  36.666  1.00  0.00    -0.203 F 
ATOM     74  F   UNL A   1      43.038  24.532  34.432  1.00  0.00    -0.200 F 
ATOM     75  C   UNL A   1      43.622  25.831  36.305  1.00  0.00     0.200 A 
ATOM     76  F   UNL A   1      44.156  27.199  38.145  1.00  0.00    -0.200 F 
ATOM     77  F   UNL A   1      43.484  24.773  37.112  1.00  0.00    -0.200 F 
ENDBRANCH  53  67
BRANCH  54  78
ATOM     78  C   UNL A   1      42.642  25.164  26.561  1.00  0.00     0.064 A 
ATOM     79  C   UNL A   1      43.452  24.806  25.468  1.00  0.00     0.173 A 
ATOM     80  C   UNL A   1      41.871  24.132  27.126  1.00  0.00     0.173 A 
ATOM     81  F   UNL A   1      44.267  25.713  24.908  1.00  0.00    -0.203 F 
ATOM     82  C   UNL A   1      43.492  23.494  24.977  1.00  0.00     0.198 A 
ATOM     83  C   UNL A   1      41.913  22.821  26.638  1.00  0.00     0.198 A 
ATOM     84  F   UNL A   1      41.140  24.354  28.228  1.00  0.00    -0.203 F 
ATOM     85  F   UNL A   1      44.316  23.179  23.967  1.00  0.00    -0.200 F 
ATOM     86  C   UNL A   1      42.729  22.501  25.569  1.00  0.00     0.200 A 
ATOM     87  F   UNL A   1      41.209  21.861  27.252  1.00  0.00    -0.200 F 
ATOM     88  F   UNL A   1      42.812  21.233  25.141  1.00  0.00    -0.200 F 
ENDBRANCH  54  78
BRANCH  66  89
ATOM     89  C   UNL A   1      45.426  30.456  28.457  1.00  0.00     0.064 A 
ATOM     90  C   UNL A   1      44.401  31.136  27.776  1.00  0.00     0.173 A 
ATOM     91  C   UNL A   1      46.746  30.799  28.137  1.00  0.00     0.173 A 
ATOM     92  F   UNL A   1      43.114  30.931  28.081  1.00  0.00    -0.203 F 
ATOM     93  C   UNL A   1      44.691  32.089  26.798  1.00  0.00     0.198 A 
ATOM     94  C   UNL A   1      47.032  31.775  27.189  1.00  0.00     0.198 A 
ATOM     95  F   UNL A   1      47.765  30.218  28.789  1.00  0.00    -0.203 F 
ATOM     96  F   UNL A   1      43.696  32.720  26.155  1.00  0.00    -0.200 F 
ATOM     97  C   UNL A   1      46.006  32.413  26.511  1.00  0.00     0.200 A 
ATOM     98  F   UNL A   1      48.306  32.117  26.953  1.00  0.00    -0.200 F 
ATOM     99  F   UNL A   1      46.287  33.358  25.603  1.00  0.00    -0.200 F 
ENDBRANCH  66  89
ENDBRANCH  40  41
ENDBRANCH  32  35
ENDBRANCH  30  31
ENDBRANCH  29  30
ENDBRANCH  28  29
ENDBRANCH   3  28
TORSDOF 16
ENDMDL
MODEL 2
REMARK VINA RESULT:     -12.6      3.262      9.163
REMARK SMILES CCCOc1ccc(-c2nc(C#N)c(N3CCC(C(=O)NCCCNC(=O)c4ccc(-c5c6nc(c(-c7c(F)c(F)c(F)c(F)c7F)c7ccc([nH]7)c(-c7c(F)c(F)c(F)c(F)c7F)c7nc(c(-c8c(F)c(F)c(F)c(F)c8F)c8ccc5[nH]8)C=C7)C=C6)cc4)CC3)o2)cc1
REMARK SMILES IDX 19 1 20 2 21 3 18 5 15 6 16 7 92 8 17 9 91 10 14 11 9 12
REMARK SMILES IDX 10 13 93 14 11 15 8 16 5 17 6 18 95 19 7 20 94 21 4 22 3 23
REMARK SMILES IDX 2 24 1 25 12 26 13 27 22 28 23 29 24 30 25 31 26 32 27 34
REMARK SMILES IDX 28 35 29 36 90 37 30 38 89 39 31 40 32 41 33 42 83 43 34 44
REMARK SMILES IDX 88 45 82 46 84 47 35 48 87 49 81 50 80 51 36 53 68 54 48 55
REMARK SMILES IDX 67 56 49 57 52 58 66 59 85 60 50 61 51 62 65 64 86 65 53 66
REMARK SMILES IDX 37 67 38 68 46 69 39 70 40 71 44 72 47 73 41 74 42 75 45 76
REMARK SMILES IDX 43 77 69 78 70 79 78 80 71 81 72 82 76 83 79 84 73 85 74 86
REMARK SMILES IDX 77 87 75 88 54 89 55 90 63 91 56 92 57 93 61 94 64 95 58 96
REMARK SMILES IDX 59 97 62 98 60 99
REMARK H PARENT 21 4 25 33 84 52 52 63
REMARK Flexibility Score: inf
ROOT
ATOM      1  C   UNL A   1      36.136  21.119  25.270  1.00  0.00     0.223 C 
ATOM      2  O   UNL A   1      35.397  20.221  24.861  1.00  0.00    -0.275 OA
ATOM      3  N   UNL A   1      37.478  20.879  25.302  1.00  0.00    -0.356 N 
ATOM      4  H   UNL A   1      37.740  19.973  25.019  1.00  0.00     0.163 HD
ENDROOT
BRANCH   1   5
ATOM      5  C   UNL A   1      35.554  22.447  25.740  1.00  0.00     0.082 C 
ATOM      6  N   UNL A   1      33.305  24.108  25.296  1.00  0.00    -0.340 N 
ATOM      7  C   UNL A   1      34.577  24.606  24.798  1.00  0.00     0.120 C 
ATOM      8  C   UNL A   1      33.359  23.485  26.609  1.00  0.00     0.120 C 
ATOM      9  C   UNL A   1      35.512  23.437  24.564  1.00  0.00     0.035 C 
ATOM     10  C   UNL A   1      34.244  22.239  26.530  1.00  0.00     0.035 C 
BRANCH   6  11
ATOM     11  C   UNL A   1      32.147  24.257  24.605  1.00  0.00     0.235 A 
ATOM     12  C   UNL A   1      30.434  25.357  23.844  1.00  0.00     0.230 A 
ATOM     13  N   UNL A   1      30.367  24.216  23.192  1.00  0.00    -0.196 NA
ATOM     14  O   UNL A   1      31.450  25.432  24.765  1.00  0.00    -0.419 OA
ATOM     15  C   UNL A   1      31.470  23.535  23.636  1.00  0.00     0.204 A 
BRANCH  12  16
ATOM     16  C   UNL A   1      29.824  26.612  23.446  1.00  0.00     0.037 A 
ATOM     17  C   UNL A   1      28.495  29.012  22.798  1.00  0.00     0.119 A 
ATOM     18  C   UNL A   1      29.858  28.849  22.520  1.00  0.00     0.047 A 
ATOM     19  C   UNL A   1      27.833  28.002  23.481  1.00  0.00     0.047 A 
ATOM     20  C   UNL A   1      30.531  27.663  22.861  1.00  0.00     0.017 A 
ATOM     21  C   UNL A   1      28.475  26.799  23.765  1.00  0.00     0.017 A 
BRANCH  17  22
ATOM     22  O   UNL A   1      27.912  30.141  22.304  1.00  0.00    -0.494 OA
BRANCH  22  23
ATOM     23  C   UNL A   1      28.721  31.140  21.674  1.00  0.00     0.229 C 
BRANCH  23  24
ATOM     24  C   UNL A   1      28.225  32.582  21.872  1.00  0.00     0.038 C 
ATOM     25  C   UNL A   1      28.911  33.359  22.989  1.00  0.00     0.007 C 
ENDBRANCH  23  24
ENDBRANCH  22  23
ENDBRANCH  17  22
ENDBRANCH  12  16
BRANCH  15  26
ATOM     26  C   UNL A   1      31.808  22.282  23.072  1.00  0.00     0.125 C 
ATOM     27  N   UNL A   1      32.107  21.250  22.601  1.00  0.00    -0.190 NA
ENDBRANCH  15  26
ENDBRANCH   6  11
ENDBRANCH   1   5
BRANCH   3  28
ATOM     28  C   UNL A   1      38.590  21.741  25.688  1.00  0.00     0.117 C 
BRANCH  28  29
ATOM     29  C   UNL A   1      39.827  20.982  26.158  1.00  0.00     0.042 C 
BRANCH  29  30
ATOM     30  C   UNL A   1      40.871  21.880  26.766  1.00  0.00     0.118 C 
BRANCH  30  31
ATOM     31  N   UNL A   1      42.007  22.133  25.870  1.00  0.00    -0.352 N 
ATOM     32  C   UNL A   1      42.648  23.341  25.637  1.00  0.00     0.251 C 
ATOM     33  H   UNL A   1      42.355  21.355  25.377  1.00  0.00     0.163 HD
ATOM     34  O   UNL A   1      43.353  23.514  24.652  1.00  0.00    -0.269 OA
BRANCH  32  35
ATOM     35  C   UNL A   1      42.468  24.409  26.636  1.00  0.00     0.039 A 
ATOM     36  C   UNL A   1      43.230  24.521  27.801  1.00  0.00     0.014 A 
ATOM     37  C   UNL A   1      41.547  25.386  26.298  1.00  0.00     0.014 A 
ATOM     38  C   UNL A   1      43.044  25.653  28.594  1.00  0.00     0.010 A 
ATOM     39  C   UNL A   1      41.673  26.618  26.849  1.00  0.00     0.010 A 
ATOM     40  C   UNL A   1      42.246  26.697  28.099  1.00  0.00    -0.014 A 
BRANCH  40  41
ATOM     41  C   UNL A   1      42.049  27.969  28.771  1.00  0.00     0.031 A 
ATOM     42  C   UNL A   1      43.121  28.936  28.447  1.00  0.00     0.074 A 
ATOM     43  C   UNL A   1      40.878  28.287  29.376  1.00  0.00     0.049 A 
ATOM     44  N   UNL A   1      44.077  29.323  29.221  1.00  0.00    -0.248 NA
ATOM     45  C   UNL A   1      43.291  29.345  27.041  1.00  0.00     0.031 C 
ATOM     46  C   UNL A   1      39.635  27.501  29.441  1.00  0.00     0.029 A 
ATOM     47  N   UNL A   1      40.515  29.443  30.004  1.00  0.00    -0.354 N 
ATOM     48  C   UNL A   1      44.814  30.234  28.471  1.00  0.00     0.074 A 
ATOM     49  C   UNL A   1      44.452  30.002  27.101  1.00  0.00     0.031 C 
ATOM     50  C   UNL A   1      38.612  28.278  29.869  1.00  0.00     0.029 A 
ATOM     51  C   UNL A   1      39.146  29.562  30.271  1.00  0.00     0.049 A 
ATOM     52  H   UNL A   1      41.166  30.140  30.249  1.00  0.00     0.167 HD
ATOM     53  C   UNL A   1      45.387  31.306  29.087  1.00  0.00     0.037 A 
ATOM     54  C   UNL A   1      38.518  30.657  30.778  1.00  0.00     0.037 A 
ATOM     55  C   UNL A   1      45.416  31.092  30.517  1.00  0.00     0.049 A 
ATOM     56  C   UNL A   1      39.567  31.501  31.402  1.00  0.00     0.074 A 
ATOM     57  C   UNL A   1      46.003  30.171  31.361  1.00  0.00     0.029 A 
ATOM     58  N   UNL A   1      44.401  31.672  31.238  1.00  0.00    -0.354 N 
ATOM     59  N   UNL A   1      40.248  31.141  32.455  1.00  0.00    -0.248 NA
ATOM     60  C   UNL A   1      40.203  32.493  30.551  1.00  0.00     0.031 C 
ATOM     61  C   UNL A   1      45.035  29.931  32.384  1.00  0.00     0.029 A 
ATOM     62  C   UNL A   1      43.950  30.785  32.176  1.00  0.00     0.049 A 
ATOM     63  H   UNL A   1      44.052  32.582  31.101  1.00  0.00     0.167 HD
ATOM     64  C   UNL A   1      41.556  31.502  32.166  1.00  0.00     0.074 A 
ATOM     65  C   UNL A   1      41.455  32.391  31.008  1.00  0.00     0.031 C 
ATOM     66  C   UNL A   1      42.602  30.802  32.699  1.00  0.00     0.037 A 
BRANCH  53  67
ATOM     67  C   UNL A   1      45.459  32.704  28.496  1.00  0.00     0.064 A 
ATOM     68  C   UNL A   1      44.250  33.318  28.101  1.00  0.00     0.173 A 
ATOM     69  C   UNL A   1      46.630  33.327  28.010  1.00  0.00     0.173 A 
ATOM     70  F   UNL A   1      43.069  32.829  28.509  1.00  0.00    -0.203 F 
ATOM     71  C   UNL A   1      44.217  34.377  27.190  1.00  0.00     0.198 A 
ATOM     72  C   UNL A   1      46.593  34.415  27.138  1.00  0.00     0.198 A 
ATOM     73  F   UNL A   1      47.858  32.868  28.264  1.00  0.00    -0.203 F 
ATOM     74  F   UNL A   1      43.038  34.825  26.735  1.00  0.00    -0.200 F 
ATOM     75  C   UNL A   1      45.389  34.915  26.697  1.00  0.00     0.200 A 
ATOM     76  F   UNL A   1      47.744  34.914  26.664  1.00  0.00    -0.200 F 
ATOM     77  F   UNL A   1      45.361  35.879  25.770  1.00  0.00    -0.200 F 
ENDBRANCH  53  67
BRANCH  54  78
ATOM     78  C   UNL A   1      37.164  31.192  30.478  1.00  0.00     0.064 A 
ATOM     79  C   UNL A   1      36.250  31.512  31.498  1.00  0.00     0.173 A 
ATOM     80  C   UNL A   1      36.858  31.682  29.195  1.00  0.00     0.173 A 
ATOM     81  F   UNL A   1      36.495  31.139  32.763  1.00  0.00    -0.203 F 
ATOM     82  C   UNL A   1      35.106  32.283  31.249  1.00  0.00     0.198 A 
ATOM     83  C   UNL A   1      35.717  32.453  28.947  1.00  0.00     0.198 A 
ATOM     84  F   UNL A   1      37.715  31.508  28.178  1.00  0.00    -0.203 F 
ATOM     85  F   UNL A   1      34.285  32.612  32.257  1.00  0.00    -0.200 F 
ATOM     86  C   UNL A   1      34.845  32.760  29.975  1.00  0.00     0.200 A 
ATOM     87  F   UNL A   1      35.505  32.951  27.721  1.00  0.00    -0.200 F 
ATOM     88  F   UNL A   1      33.785  33.548  29.748  1.00  0.00    -0.200 F 
ENDBRANCH  54  78
BRANCH  66  89
ATOM     89  C   UNL A   1      42.300  29.834  33.812  1.00  0.00     0.064 A 
ATOM     90  C   UNL A   1      41.914  28.494  33.630  1.00  0.00     0.173 A 
ATOM     91  C   UNL A   1      42.556  30.254  35.125  1.00  0.00     0.173 A 
ATOM     92  F   UNL A   1      41.733  27.988  32.404  1.00  0.00    -0.203 F 
ATOM     93  C   UNL A   1      41.759  27.630  34.716  1.00  0.00     0.198 A 
ATOM     94  C   UNL A   1      42.437  29.382  36.202  1.00  0.00     0.198 A 
ATOM     95  F   UNL A   1      42.975  31.508  35.355  1.00  0.00    -0.203 F 
ATOM     96  F   UNL A   1      41.382  26.358  34.518  1.00  0.00    -0.200 F 
ATOM     97  C   UNL A   1      42.029  28.074  36.000  1.00  0.00     0.200 A 
ATOM     98  F   UNL A   1      42.748  29.806  37.434  1.00  0.00    -0.200 F 
ATOM     99  F   UNL A   1      41.923  27.236  37.040  1.00  0.00    -0.200 F 
ENDBRANCH  66  89
ENDBRANCH  40  41
ENDBRANCH  32  35
ENDBRANCH  30  31
ENDBRANCH  29  30
ENDBRANCH  28  29
ENDBRANCH   3  28
TORSDOF 16
ENDMDL
MODEL 3
REMARK VINA RESULT:     -12.6      1.960      6.839
REMARK SMILES CCCOc1ccc(-c2nc(C#N)c(N3CCC(C(=O)NCCCNC(=O)c4ccc(-c5c6nc(c(-c7c(F)c(F)c(F)c(F)c7F)c7ccc([nH]7)c(-c7c(F)c(F)c(F)c(F)c7F)c7nc(c(-c8c(F)c(F)c(F)c(F)c8F)c8ccc5[nH]8)C=C7)C=C6)cc4)CC3)o2)cc1
REMARK SMILES IDX 19 1 20 2 21 3 18 5 15 6 16 7 92 8 17 9 91 10 14 11 9 12
REMARK SMILES IDX 10 13 93 14 11 15 8 16 5 17 6 18 95 19 7 20 94 21 4 22 3 23
REMARK SMILES IDX 2 24 1 25 12 26 13 27 22 28 23 29 24 30 25 31 26 32 27 34
REMARK SMILES IDX 28 35 29 36 90 37 30 38 89 39 31 40 32 41 33 42 83 43 34 44
REMARK SMILES IDX 88 45 82 46 84 47 35 48 87 49 81 50 80 51 36 53 68 54 48 55
REMARK SMILES IDX 67 56 49 57 52 58 66 59 85 60 50 61 51 62 65 64 86 65 53 66
REMARK SMILES IDX 37 67 38 68 46 69 39 70 40 71 44 72 47 73 41 74 42 75 45 76
REMARK SMILES IDX 43 77 69 78 70 79 78 80 71 81 72 82 76 83 79 84 73 85 74 86
REMARK SMILES IDX 77 87 75 88 54 89 55 90 63 91 56 92 57 93 61 94 64 95 58 96
REMARK SMILES IDX 59 97 62 98 60 99
REMARK H PARENT 21 4 25 33 84 52 52 63
REMARK Flexibility Score: inf
ROOT
ATOM      1  C   UNL A   1      32.272  28.371  27.079  1.00  0.00     0.223 C 
ATOM      2  O   UNL A   1      31.861  27.469  27.813  1.00  0.00    -0.275 OA
ATOM      3  N   UNL A   1      32.929  29.417  27.656  1.00  0.00    -0.356 N 
ATOM      4  H   UNL A   1      32.989  29.373  28.638  1.00  0.00     0.163 HD
ENDROOT
BRANCH   1   5
ATOM      5  C   UNL A   1      32.031  28.314  25.576  1.00  0.00     0.082 C 
ATOM      6  N   UNL A   1      32.384  26.555  23.386  1.00  0.00    -0.340 N 
ATOM      7  C   UNL A   1      33.246  27.726  23.411  1.00  0.00     0.120 C 
ATOM      8  C   UNL A   1      31.000  26.800  23.759  1.00  0.00     0.120 C 
ATOM      9  C   UNL A   1      33.377  28.215  24.839  1.00  0.00     0.035 C 
ATOM     10  C   UNL A   1      30.956  27.265  25.217  1.00  0.00     0.035 C 
BRANCH   6  11
ATOM     11  C   UNL A   1      32.831  25.335  22.996  1.00  0.00     0.235 A 
ATOM     12  C   UNL A   1      33.338  23.240  23.275  1.00  0.00     0.230 A 
ATOM     13  N   UNL A   1      33.419  23.393  21.971  1.00  0.00    -0.196 NA
ATOM     14  O   UNL A   1      33.049  24.389  23.970  1.00  0.00    -0.419 OA
ATOM     15  C   UNL A   1      33.057  24.702  21.786  1.00  0.00     0.204 A 
BRANCH  12  16
ATOM     16  C   UNL A   1      33.153  21.987  23.984  1.00  0.00     0.037 A 
ATOM     17  C   UNL A   1      32.740  19.474  25.191  1.00  0.00     0.119 A 
ATOM     18  C   UNL A   1      33.552  20.438  25.802  1.00  0.00     0.047 A 
ATOM     19  C   UNL A   1      32.217  19.747  23.936  1.00  0.00     0.047 A 
ATOM     20  C   UNL A   1      33.779  21.685  25.193  1.00  0.00     0.017 A 
ATOM     21  C   UNL A   1      32.384  21.002  23.356  1.00  0.00     0.017 A 
BRANCH  17  22
ATOM     22  O   UNL A   1      32.477  18.357  25.928  1.00  0.00    -0.494 OA
BRANCH  22  23
ATOM     23  C   UNL A   1      32.681  17.062  25.354  1.00  0.00     0.229 C 
BRANCH  23  24
ATOM     24  C   UNL A   1      34.096  16.824  24.803  1.00  0.00     0.038 C 
ATOM     25  C   UNL A   1      34.183  16.628  23.294  1.00  0.00     0.007 C 
ENDBRANCH  23  24
ENDBRANCH  22  23
ENDBRANCH  17  22
ENDBRANCH  12  16
BRANCH  15  26
ATOM     26  C   UNL A   1      32.917  25.223  20.477  1.00  0.00     0.125 C 
ATOM     27  N   UNL A   1      32.814  25.641  19.386  1.00  0.00    -0.190 NA
ENDBRANCH  15  26
ENDBRANCH   6  11
ENDBRANCH   1   5
BRANCH   3  28
ATOM     28  C   UNL A   1      33.557  30.592  27.060  1.00  0.00     0.117 C 
BRANCH  28  29
ATOM     29  C   UNL A   1      35.054  30.696  27.332  1.00  0.00     0.042 C 
BRANCH  29  30
ATOM     30  C   UNL A   1      35.591  29.528  28.114  1.00  0.00     0.118 C 
BRANCH  30  31
ATOM     31  N   UNL A   1      35.632  29.771  29.563  1.00  0.00    -0.352 N 
ATOM     32  C   UNL A   1      36.611  29.372  30.460  1.00  0.00     0.251 C 
ATOM     33  H   UNL A   1      34.876  30.277  29.940  1.00  0.00     0.163 HD
ATOM     34  O   UNL A   1      36.400  29.336  31.665  1.00  0.00    -0.269 OA
BRANCH  32  35
ATOM     35  C   UNL A   1      37.929  29.011  29.912  1.00  0.00     0.039 A 
ATOM     36  C   UNL A   1      38.514  29.642  28.811  1.00  0.00     0.014 A 
ATOM     37  C   UNL A   1      38.628  28.055  30.630  1.00  0.00     0.014 A 
ATOM     38  C   UNL A   1      39.821  29.292  28.477  1.00  0.00     0.010 A 
ATOM     39  C   UNL A   1      39.980  28.031  30.537  1.00  0.00     0.010 A 
ATOM     40  C   UNL A   1      40.541  28.469  29.358  1.00  0.00    -0.014 A 
BRANCH  40  41
ATOM     41  C   UNL A   1      41.938  28.109  29.188  1.00  0.00     0.031 A 
ATOM     42  C   UNL A   1      42.096  26.856  28.417  1.00  0.00     0.074 A 
ATOM     43  C   UNL A   1      42.941  28.979  29.463  1.00  0.00     0.049 A 
ATOM     44  N   UNL A   1      42.444  25.702  28.875  1.00  0.00    -0.248 NA
ATOM     45  C   UNL A   1      41.590  26.819  27.034  1.00  0.00     0.031 C 
ATOM     46  C   UNL A   1      42.847  30.378  29.912  1.00  0.00     0.029 A 
ATOM     47  N   UNL A   1      44.289  28.820  29.315  1.00  0.00    -0.354 N 
ATOM     48  C   UNL A   1      42.457  24.856  27.771  1.00  0.00     0.074 A 
ATOM     49  C   UNL A   1      41.684  25.517  26.758  1.00  0.00     0.031 C 
ATOM     50  C   UNL A   1      44.047  30.991  29.788  1.00  0.00     0.029 A 
ATOM     51  C   UNL A   1      45.034  30.000  29.416  1.00  0.00     0.049 A 
ATOM     52  H   UNL A   1      44.704  27.942  29.150  1.00  0.00     0.167 HD
ATOM     53  C   UNL A   1      43.384  23.859  27.697  1.00  0.00     0.037 A 
ATOM     54  C   UNL A   1      46.370  30.128  29.193  1.00  0.00     0.037 A 
ATOM     55  C   UNL A   1      43.976  23.642  28.999  1.00  0.00     0.049 A 
ATOM     56  C   UNL A   1      46.951  28.764  29.273  1.00  0.00     0.074 A 
ATOM     57  C   UNL A   1      43.510  23.249  30.237  1.00  0.00     0.029 A 
ATOM     58  N   UNL A   1      45.181  24.261  29.227  1.00  0.00    -0.354 N 
ATOM     59  N   UNL A   1      46.986  28.061  30.371  1.00  0.00    -0.248 NA
ATOM     60  C   UNL A   1      47.008  28.003  28.036  1.00  0.00     0.031 C 
ATOM     61  C   UNL A   1      44.238  24.039  31.178  1.00  0.00     0.029 A 
ATOM     62  C   UNL A   1      45.180  24.800  30.484  1.00  0.00     0.049 A 
ATOM     63  H   UNL A   1      45.927  24.309  28.588  1.00  0.00     0.167 HD
ATOM     64  C   UNL A   1      46.614  26.782  29.979  1.00  0.00     0.074 A 
ATOM     65  C   UNL A   1      46.706  26.794  28.519  1.00  0.00     0.031 C 
ATOM     66  C   UNL A   1      45.977  25.948  30.854  1.00  0.00     0.037 A 
BRANCH  53  67
ATOM     67  C   UNL A   1      44.099  23.438  26.424  1.00  0.00     0.064 A 
ATOM     68  C   UNL A   1      44.045  22.075  26.056  1.00  0.00     0.173 A 
ATOM     69  C   UNL A   1      45.071  24.201  25.741  1.00  0.00     0.173 A 
ATOM     70  F   UNL A   1      43.153  21.248  26.623  1.00  0.00    -0.203 F 
ATOM     71  C   UNL A   1      44.973  21.504  25.183  1.00  0.00     0.198 A 
ATOM     72  C   UNL A   1      45.967  23.635  24.834  1.00  0.00     0.198 A 
ATOM     73  F   UNL A   1      45.277  25.499  25.980  1.00  0.00    -0.203 F 
ATOM     74  F   UNL A   1      44.969  20.179  24.983  1.00  0.00    -0.200 F 
ATOM     75  C   UNL A   1      45.944  22.282  24.584  1.00  0.00     0.200 A 
ATOM     76  F   UNL A   1      46.907  24.408  24.272  1.00  0.00    -0.200 F 
ATOM     77  F   UNL A   1      46.880  21.728  23.804  1.00  0.00    -0.200 F 
ENDBRANCH  53  67
BRANCH  54  78
ATOM     78  C   UNL A   1      47.122  31.261  28.591  1.00  0.00     0.064 A 
ATOM     79  C   UNL A   1      46.698  31.886  27.404  1.00  0.00     0.173 A 
ATOM     80  C   UNL A   1      48.101  31.945  29.336  1.00  0.00     0.173 A 
ATOM     81  F   UNL A   1      45.724  31.335  26.665  1.00  0.00    -0.203 F 
ATOM     82  C   UNL A   1      47.216  33.122  26.995  1.00  0.00     0.198 A 
ATOM     83  C   UNL A   1      48.616  33.180  28.929  1.00  0.00     0.198 A 
ATOM     84  F   UNL A   1      48.500  31.476  30.528  1.00  0.00    -0.203 F 
ATOM     85  F   UNL A   1      46.749  33.712  25.885  1.00  0.00    -0.200 F 
ATOM     86  C   UNL A   1      48.168  33.772  27.763  1.00  0.00     0.200 A 
ATOM     87  F   UNL A   1      49.498  33.821  29.707  1.00  0.00    -0.200 F 
ATOM     88  F   UNL A   1      48.619  34.983  27.405  1.00  0.00    -0.200 F 
ENDBRANCH  54  78
BRANCH  66  89
ATOM     89  C   UNL A   1      45.953  26.344  32.306  1.00  0.00     0.064 A 
ATOM     90  C   UNL A   1      44.901  27.036  32.934  1.00  0.00     0.173 A 
ATOM     91  C   UNL A   1      46.987  25.871  33.126  1.00  0.00     0.173 A 
ATOM     92  F   UNL A   1      43.833  27.446  32.238  1.00  0.00    -0.203 F 
ATOM     93  C   UNL A   1      44.906  27.268  34.310  1.00  0.00     0.198 A 
ATOM     94  C   UNL A   1      46.972  26.071  34.502  1.00  0.00     0.198 A 
ATOM     95  F   UNL A   1      47.993  25.162  32.590  1.00  0.00    -0.203 F 
ATOM     96  F   UNL A   1      43.895  27.938  34.885  1.00  0.00    -0.200 F 
ATOM     97  C   UNL A   1      45.938  26.778  35.093  1.00  0.00     0.200 A 
ATOM     98  F   UNL A   1      47.948  25.552  35.258  1.00  0.00    -0.200 F 
ATOM     99  F   UNL A   1      45.925  26.964  36.421  1.00  0.00    -0.200 F 
ENDBRANCH  66  89
ENDBRANCH  40  41
ENDBRANCH  32  35
ENDBRANCH  30  31
ENDBRANCH  29  30
ENDBRANCH  28  29
ENDBRANCH   3  28
TORSDOF 16
ENDMDL
