MODEL 1
REMARK VINA RESULT:     -11.2      0.000      0.000
REMARK SMILES COCCS(=O)(=O)Cc1ccc(C(=O)NCCCNC(=O)c2ccc(-c3c4nc(c(-c5c(F)c(F)c(F)c(F)c5F)c5ccc([nH]5)c(-c5c(F)c(F)c(F)c(F)c5F)c5nc(c(-c6c(F)c(F)c(F)c(F)c6F)c6ccc3[nH]6)C=C5)C=C4)cc2)cn1
REMARK SMILES IDX 13 1 14 2 15 3 12 5 9 6 10 7 86 8 11 9 85 10 8 11 5 12 6 13
REMARK SMILES IDX 7 14 4 15 3 16 2 17 1 18 16 19 17 20 18 21 19 22 20 23 21 25
REMARK SMILES IDX 22 26 23 27 84 28 24 29 83 30 25 31 26 32 27 33 77 34 28 35
REMARK SMILES IDX 82 36 76 37 78 38 29 39 81 40 75 41 74 42 30 44 62 45 42 46
REMARK SMILES IDX 61 47 43 48 46 49 60 50 79 51 44 52 45 53 59 55 80 56 47 57
REMARK SMILES IDX 31 58 32 59 40 60 33 61 34 62 38 63 41 64 35 65 36 66 39 67
REMARK SMILES IDX 37 68 63 69 64 70 72 71 65 72 66 73 70 74 73 75 67 76 68 77
REMARK SMILES IDX 71 78 69 79 48 80 49 81 57 82 50 83 51 84 55 85 58 86 52 87
REMARK SMILES IDX 53 88 56 89 54 90
REMARK H PARENT 15 4 19 24 78 43 46 54
REMARK Flexibility Score: inf
ROOT
ATOM      1  C   UNL A   1      33.579  29.154  27.205  1.00  0.00     0.252 C 
ATOM      2  O   UNL A   1      34.709  29.104  27.693  1.00  0.00    -0.269 OA
ATOM      3  N   UNL A   1      32.979  30.383  27.137  1.00  0.00    -0.352 N 
ATOM      4  H   UNL A   1      33.510  31.104  27.545  1.00  0.00     0.163 HD
ENDROOT
BRANCH   1   5
ATOM      5  C   UNL A   1      32.968  27.905  26.698  1.00  0.00     0.058 A 
ATOM      6  C   UNL A   1      31.560  25.647  25.903  1.00  0.00     0.055 A 
ATOM      7  C   UNL A   1      32.816  25.903  25.357  1.00  0.00     0.026 A 
ATOM      8  N   UNL A   1      30.993  26.488  26.791  1.00  0.00    -0.259 NA
ATOM      9  C   UNL A   1      33.517  27.047  25.750  1.00  0.00     0.017 A 
ATOM     10  C   UNL A   1      31.697  27.588  27.165  1.00  0.00     0.125 A 
BRANCH   6  11
ATOM     11  C   UNL A   1      30.756  24.472  25.440  1.00  0.00     0.193 C 
BRANCH  11  12
ATOM     12  S   UNL A   1      31.266  22.955  26.230  1.00  0.00     0.158 S 
ATOM     13  O   UNL A   1      30.124  22.054  26.163  1.00  0.00    -0.228 OA
ATOM     14  O   UNL A   1      31.808  23.278  27.540  1.00  0.00    -0.228 OA
BRANCH  12  15
ATOM     15  C   UNL A   1      32.593  22.216  25.281  1.00  0.00     0.165 C 
BRANCH  15  16
ATOM     16  C   UNL A   1      32.982  20.844  25.788  1.00  0.00     0.176 C 
BRANCH  16  17
ATOM     17  O   UNL A   1      32.197  19.839  25.144  1.00  0.00    -0.384 OA
ATOM     18  C   UNL A   1      32.645  18.520  25.432  1.00  0.00     0.194 C 
ENDBRANCH  16  17
ENDBRANCH  15  16
ENDBRANCH  12  15
ENDBRANCH  11  12
ENDBRANCH   6  11
ENDBRANCH   1   5
BRANCH   3  19
ATOM     19  C   UNL A   1      31.717  30.835  26.583  1.00  0.00     0.118 C 
BRANCH  19  20
ATOM     20  C   UNL A   1      31.510  32.331  26.820  1.00  0.00     0.042 C 
BRANCH  20  21
ATOM     21  C   UNL A   1      32.802  33.097  27.105  1.00  0.00     0.118 C 
BRANCH  21  22
ATOM     22  N   UNL A   1      32.548  34.406  27.685  1.00  0.00    -0.352 N 
ATOM     23  C   UNL A   1      33.026  34.983  28.833  1.00  0.00     0.251 C 
ATOM     24  H   UNL A   1      31.929  34.972  27.168  1.00  0.00     0.163 HD
ATOM     25  O   UNL A   1      32.508  36.021  29.237  1.00  0.00    -0.269 OA
BRANCH  23  26
ATOM     26  C   UNL A   1      34.149  34.388  29.593  1.00  0.00     0.039 A 
ATOM     27  C   UNL A   1      35.443  34.528  29.078  1.00  0.00     0.014 A 
ATOM     28  C   UNL A   1      33.942  33.619  30.742  1.00  0.00     0.014 A 
ATOM     29  C   UNL A   1      36.523  33.919  29.720  1.00  0.00     0.010 A 
ATOM     30  C   UNL A   1      35.030  33.066  31.420  1.00  0.00     0.010 A 
ATOM     31  C   UNL A   1      36.327  33.191  30.904  1.00  0.00    -0.014 A 
BRANCH  31  32
ATOM     32  C   UNL A   1      37.471  32.527  31.583  1.00  0.00     0.031 A 
ATOM     33  C   UNL A   1      38.204  31.400  30.907  1.00  0.00     0.074 A 
ATOM     34  C   UNL A   1      37.834  32.922  32.817  1.00  0.00     0.049 A 
ATOM     35  N   UNL A   1      39.213  30.687  31.343  1.00  0.00    -0.248 NA
ATOM     36  C   UNL A   1      37.723  31.003  29.575  1.00  0.00     0.031 C 
ATOM     37  C   UNL A   1      37.175  33.971  33.595  1.00  0.00     0.029 A 
ATOM     38  N   UNL A   1      38.844  32.484  33.636  1.00  0.00    -0.354 N 
ATOM     39  C   UNL A   1      39.475  29.752  30.349  1.00  0.00     0.074 A 
ATOM     40  C   UNL A   1      38.488  29.955  29.310  1.00  0.00     0.031 C 
ATOM     41  C   UNL A   1      37.813  34.114  34.768  1.00  0.00     0.029 A 
ATOM     42  C   UNL A   1      38.909  33.151  34.834  1.00  0.00     0.049 A 
ATOM     43  H   UNL A   1      39.465  31.761  33.387  1.00  0.00     0.167 HD
ATOM     44  C   UNL A   1      40.462  28.826  30.296  1.00  0.00     0.037 A 
ATOM     45  C   UNL A   1      39.761  33.006  35.867  1.00  0.00     0.037 A 
ATOM     46  C   UNL A   1      41.461  28.646  31.317  1.00  0.00     0.049 A 
ATOM     47  C   UNL A   1      40.868  31.993  35.769  1.00  0.00     0.074 A 
ATOM     48  C   UNL A   1      42.528  27.765  31.338  1.00  0.00     0.029 A 
ATOM     49  N   UNL A   1      41.516  29.369  32.500  1.00  0.00    -0.354 N 
ATOM     50  N   UNL A   1      41.142  31.156  34.798  1.00  0.00    -0.248 NA
ATOM     51  C   UNL A   1      41.796  31.917  36.906  1.00  0.00     0.031 C 
ATOM     52  C   UNL A   1      43.211  27.933  32.548  1.00  0.00     0.029 A 
ATOM     53  C   UNL A   1      42.595  28.948  33.261  1.00  0.00     0.049 A 
ATOM     54  H   UNL A   1      40.882  30.074  32.760  1.00  0.00     0.167 HD
ATOM     55  C   UNL A   1      42.288  30.478  35.190  1.00  0.00     0.074 A 
ATOM     56  C   UNL A   1      42.667  31.012  36.481  1.00  0.00     0.031 C 
ATOM     57  C   UNL A   1      42.966  29.501  34.539  1.00  0.00     0.037 A 
BRANCH  44  58
ATOM     58  C   UNL A   1      40.512  27.937  29.087  1.00  0.00     0.064 A 
ATOM     59  C   UNL A   1      39.760  26.754  29.012  1.00  0.00     0.173 A 
ATOM     60  C   UNL A   1      41.300  28.282  27.978  1.00  0.00     0.173 A 
ATOM     61  F   UNL A   1      39.000  26.371  30.049  1.00  0.00    -0.203 F 
ATOM     62  C   UNL A   1      39.818  25.936  27.886  1.00  0.00     0.198 A 
ATOM     63  C   UNL A   1      41.333  27.478  26.842  1.00  0.00     0.198 A 
ATOM     64  F   UNL A   1      42.034  29.405  27.993  1.00  0.00    -0.203 F 
ATOM     65  F   UNL A   1      39.130  24.786  27.859  1.00  0.00    -0.200 F 
ATOM     66  C   UNL A   1      40.599  26.302  26.800  1.00  0.00     0.200 A 
ATOM     67  F   UNL A   1      42.079  27.838  25.788  1.00  0.00    -0.200 F 
ATOM     68  F   UNL A   1      40.651  25.515  25.716  1.00  0.00    -0.200 F 
ENDBRANCH  44  58
BRANCH  45  69
ATOM     69  C   UNL A   1      39.630  33.878  37.062  1.00  0.00     0.064 A 
ATOM     70  C   UNL A   1      38.912  33.451  38.188  1.00  0.00     0.173 A 
ATOM     71  C   UNL A   1      40.218  35.150  37.106  1.00  0.00     0.173 A 
ATOM     72  F   UNL A   1      38.317  32.250  38.185  1.00  0.00    -0.203 F 
ATOM     73  C   UNL A   1      38.767  34.273  39.303  1.00  0.00     0.198 A 
ATOM     74  C   UNL A   1      40.095  35.961  38.232  1.00  0.00     0.198 A 
ATOM     75  F   UNL A   1      40.923  35.601  36.057  1.00  0.00    -0.203 F 
ATOM     76  F   UNL A   1      38.038  33.858  40.348  1.00  0.00    -0.200 F 
ATOM     77  C   UNL A   1      39.363  35.525  39.326  1.00  0.00     0.200 A 
ATOM     78  F   UNL A   1      40.685  37.163  38.258  1.00  0.00    -0.200 F 
ATOM     79  F   UNL A   1      39.227  36.313  40.401  1.00  0.00    -0.200 F 
ENDBRANCH  45  69
BRANCH  57  80
ATOM     80  C   UNL A   1      44.212  28.982  35.194  1.00  0.00     0.064 A 
ATOM     81  C   UNL A   1      45.469  29.554  34.949  1.00  0.00     0.173 A 
ATOM     82  C   UNL A   1      44.143  27.907  36.093  1.00  0.00     0.173 A 
ATOM     83  F   UNL A   1      45.589  30.575  34.085  1.00  0.00    -0.203 F 
ATOM     84  C   UNL A   1      46.616  29.048  35.553  1.00  0.00     0.198 A 
ATOM     85  C   UNL A   1      45.288  27.423  36.719  1.00  0.00     0.198 A 
ATOM     86  F   UNL A   1      42.964  27.329  36.367  1.00  0.00    -0.203 F 
ATOM     87  F   UNL A   1      47.813  29.575  35.261  1.00  0.00    -0.200 F 
ATOM     88  C   UNL A   1      46.524  27.986  36.442  1.00  0.00     0.200 A 
ATOM     89  F   UNL A   1      45.196  26.404  37.585  1.00  0.00    -0.200 F 
ATOM     90  F   UNL A   1      47.630  27.499  37.022  1.00  0.00    -0.200 F 
ENDBRANCH  57  80
ENDBRANCH  31  32
ENDBRANCH  23  26
ENDBRANCH  21  22
ENDBRANCH  20  21
ENDBRANCH  19  20
ENDBRANCH   3  19
TORSDOF 15
ENDMDL
MODEL 2
REMARK VINA RESULT:     -11.1      0.953      7.503
REMARK SMILES COCCS(=O)(=O)Cc1ccc(C(=O)NCCCNC(=O)c2ccc(-c3c4nc(c(-c5c(F)c(F)c(F)c(F)c5F)c5ccc([nH]5)c(-c5c(F)c(F)c(F)c(F)c5F)c5nc(c(-c6c(F)c(F)c(F)c(F)c6F)c6ccc3[nH]6)C=C5)C=C4)cc2)cn1
REMARK SMILES IDX 13 1 14 2 15 3 12 5 9 6 10 7 86 8 11 9 85 10 8 11 5 12 6 13
REMARK SMILES IDX 7 14 4 15 3 16 2 17 1 18 16 19 17 20 18 21 19 22 20 23 21 25
REMARK SMILES IDX 22 26 23 27 84 28 24 29 83 30 25 31 26 32 27 33 77 34 28 35
REMARK SMILES IDX 82 36 76 37 78 38 29 39 81 40 75 41 74 42 30 44 62 45 42 46
REMARK SMILES IDX 61 47 43 48 46 49 60 50 79 51 44 52 45 53 59 55 80 56 47 57
REMARK SMILES IDX 31 58 32 59 40 60 33 61 34 62 38 63 41 64 35 65 36 66 39 67
REMARK SMILES IDX 37 68 63 69 64 70 72 71 65 72 66 73 70 74 73 75 67 76 68 77
REMARK SMILES IDX 71 78 69 79 48 80 49 81 57 82 50 83 51 84 55 85 58 86 52 87
REMARK SMILES IDX 53 88 56 89 54 90
REMARK H PARENT 15 4 19 24 78 43 46 54
REMARK Flexibility Score: inf
ROOT
ATOM      1  C   UNL A   1      33.602  29.107  26.979  1.00  0.00     0.252 C 
ATOM      2  O   UNL A   1      34.762  29.079  27.391  1.00  0.00    -0.269 OA
ATOM      3  N   UNL A   1      32.965  30.319  26.982  1.00  0.00    -0.352 N 
ATOM      4  H   UNL A   1      33.502  31.046  27.374  1.00  0.00     0.163 HD
ENDROOT
BRANCH   1   5
ATOM      5  C   UNL A   1      32.993  27.854  26.481  1.00  0.00     0.058 A 
ATOM      6  C   UNL A   1      31.605  25.567  25.731  1.00  0.00     0.055 A 
ATOM      7  C   UNL A   1      32.782  25.908  25.067  1.00  0.00     0.026 A 
ATOM      8  N   UNL A   1      31.103  26.340  26.716  1.00  0.00    -0.259 NA
ATOM      9  C   UNL A   1      33.471  27.066  25.437  1.00  0.00     0.017 A 
ATOM     10  C   UNL A   1      31.796  27.456  27.065  1.00  0.00     0.125 A 
BRANCH   6  11
ATOM     11  C   UNL A   1      30.807  24.377  25.300  1.00  0.00     0.193 C 
BRANCH  11  12
ATOM     12  S   UNL A   1      30.948  23.020  26.451  1.00  0.00     0.158 S 
ATOM     13  O   UNL A   1      30.649  21.811  25.698  1.00  0.00    -0.228 OA
ATOM     14  O   UNL A   1      30.135  23.319  27.619  1.00  0.00    -0.228 OA
BRANCH  12  15
ATOM     15  C   UNL A   1      32.645  22.901  27.011  1.00  0.00     0.165 C 
BRANCH  15  16
ATOM     16  C   UNL A   1      33.264  21.549  26.723  1.00  0.00     0.176 C 
BRANCH  16  17
ATOM     17  O   UNL A   1      34.460  21.708  25.956  1.00  0.00    -0.384 OA
ATOM     18  C   UNL A   1      34.315  22.646  24.897  1.00  0.00     0.194 C 
ENDBRANCH  16  17
ENDBRANCH  15  16
ENDBRANCH  12  15
ENDBRANCH  11  12
ENDBRANCH   6  11
ENDBRANCH   1   5
BRANCH   3  19
ATOM     19  C   UNL A   1      31.657  30.748  26.524  1.00  0.00     0.118 C 
BRANCH  19  20
ATOM     20  C   UNL A   1      31.443  32.241  26.771  1.00  0.00     0.042 C 
BRANCH  20  21
ATOM     21  C   UNL A   1      32.740  33.032  26.948  1.00  0.00     0.118 C 
BRANCH  21  22
ATOM     22  N   UNL A   1      32.522  34.301  27.625  1.00  0.00    -0.352 N 
ATOM     23  C   UNL A   1      33.052  34.795  28.788  1.00  0.00     0.251 C 
ATOM     24  H   UNL A   1      31.888  34.904  27.173  1.00  0.00     0.163 HD
ATOM     25  O   UNL A   1      32.560  35.807  29.282  1.00  0.00    -0.269 OA
BRANCH  23  26
ATOM     26  C   UNL A   1      34.198  34.142  29.460  1.00  0.00     0.039 A 
ATOM     27  C   UNL A   1      35.489  34.447  29.011  1.00  0.00     0.014 A 
ATOM     28  C   UNL A   1      34.023  33.171  30.450  1.00  0.00     0.014 A 
ATOM     29  C   UNL A   1      36.595  33.799  29.563  1.00  0.00     0.010 A 
ATOM     30  C   UNL A   1      35.133  32.572  31.049  1.00  0.00     0.010 A 
ATOM     31  C   UNL A   1      36.428  32.863  30.595  1.00  0.00    -0.014 A 
BRANCH  31  32
ATOM     32  C   UNL A   1      37.601  32.157  31.176  1.00  0.00     0.031 A 
ATOM     33  C   UNL A   1      38.078  32.493  32.563  1.00  0.00     0.074 A 
ATOM     34  C   UNL A   1      38.250  31.233  30.444  1.00  0.00     0.049 A 
ATOM     35  N   UNL A   1      39.089  31.998  33.234  1.00  0.00    -0.248 NA
ATOM     36  C   UNL A   1      37.337  33.540  33.282  1.00  0.00     0.031 C 
ATOM     37  C   UNL A   1      37.913  30.851  29.073  1.00  0.00     0.029 A 
ATOM     38  N   UNL A   1      39.333  30.448  30.753  1.00  0.00    -0.354 N 
ATOM     39  C   UNL A   1      39.113  32.684  34.442  1.00  0.00     0.074 A 
ATOM     40  C   UNL A   1      38.048  33.663  34.393  1.00  0.00     0.031 C 
ATOM     41  C   UNL A   1      38.755  29.888  28.665  1.00  0.00     0.029 A 
ATOM     42  C   UNL A   1      39.705  29.602  29.737  1.00  0.00     0.049 A 
ATOM     43  H   UNL A   1      39.798  30.487  31.620  1.00  0.00     0.167 HD
ATOM     44  C   UNL A   1      39.932  32.499  35.505  1.00  0.00     0.037 A 
ATOM     45  C   UNL A   1      40.696  28.692  29.680  1.00  0.00     0.037 A 
ATOM     46  C   UNL A   1      40.972  31.504  35.564  1.00  0.00     0.049 A 
ATOM     47  C   UNL A   1      41.571  28.483  30.886  1.00  0.00     0.074 A 
ATOM     48  C   UNL A   1      41.828  31.208  36.611  1.00  0.00     0.029 A 
ATOM     49  N   UNL A   1      41.293  30.639  34.528  1.00  0.00    -0.354 N 
ATOM     50  N   UNL A   1      41.546  29.096  32.045  1.00  0.00    -0.248 NA
ATOM     51  C   UNL A   1      42.603  27.442  30.780  1.00  0.00     0.031 C 
ATOM     52  C   UNL A   1      42.687  30.184  36.197  1.00  0.00     0.029 A 
ATOM     53  C   UNL A   1      42.339  29.812  34.909  1.00  0.00     0.049 A 
ATOM     54  H   UNL A   1      40.845  30.616  33.652  1.00  0.00     0.167 HD
ATOM     55  C   UNL A   1      42.532  28.496  32.815  1.00  0.00     0.074 A 
ATOM     56  C   UNL A   1      43.128  27.460  31.998  1.00  0.00     0.031 C 
ATOM     57  C   UNL A   1      42.910  28.777  34.087  1.00  0.00     0.037 A 
BRANCH  44  58
ATOM     58  C   UNL A   1      39.732  33.390  36.697  1.00  0.00     0.064 A 
ATOM     59  C   UNL A   1      38.808  33.074  37.705  1.00  0.00     0.173 A 
ATOM     60  C   UNL A   1      40.492  34.561  36.849  1.00  0.00     0.173 A 
ATOM     61  F   UNL A   1      38.049  31.973  37.603  1.00  0.00    -0.203 F 
ATOM     62  C   UNL A   1      38.630  33.910  38.804  1.00  0.00     0.198 A 
ATOM     63  C   UNL A   1      40.332  35.380  37.964  1.00  0.00     0.198 A 
ATOM     64  F   UNL A   1      41.394  34.908  35.918  1.00  0.00    -0.203 F 
ATOM     65  F   UNL A   1      37.706  33.613  39.728  1.00  0.00    -0.200 F 
ATOM     66  C   UNL A   1      39.397  35.059  38.936  1.00  0.00     0.200 A 
ATOM     67  F   UNL A   1      41.082  36.483  38.096  1.00  0.00    -0.200 F 
ATOM     68  F   UNL A   1      39.227  35.861  39.996  1.00  0.00    -0.200 F 
ENDBRANCH  44  58
BRANCH  45  69
ATOM     69  C   UNL A   1      40.883  27.875  28.454  1.00  0.00     0.064 A 
ATOM     70  C   UNL A   1      41.683  28.335  27.399  1.00  0.00     0.173 A 
ATOM     71  C   UNL A   1      40.268  26.624  28.311  1.00  0.00     0.173 A 
ATOM     72  F   UNL A   1      42.276  29.534  27.483  1.00  0.00    -0.203 F 
ATOM     73  C   UNL A   1      41.843  27.584  26.237  1.00  0.00     0.198 A 
ATOM     74  C   UNL A   1      40.450  25.860  27.159  1.00  0.00     0.198 A 
ATOM     75  F   UNL A   1      39.498  26.136  29.296  1.00  0.00    -0.203 F 
ATOM     76  F   UNL A   1      42.577  28.066  25.226  1.00  0.00    -0.200 F 
ATOM     77  C   UNL A   1      41.231  26.345  26.120  1.00  0.00     0.200 A 
ATOM     78  F   UNL A   1      39.869  24.658  27.056  1.00  0.00    -0.200 F 
ATOM     79  F   UNL A   1      41.389  25.620  25.004  1.00  0.00    -0.200 F 
ENDBRANCH  45  69
BRANCH  57  80
ATOM     80  C   UNL A   1      43.987  27.921  34.684  1.00  0.00     0.064 A 
ATOM     81  C   UNL A   1      45.340  28.288  34.629  1.00  0.00     0.173 A 
ATOM     82  C   UNL A   1      43.658  26.723  35.337  1.00  0.00     0.173 A 
ATOM     83  F   UNL A   1      45.707  29.417  34.002  1.00  0.00    -0.203 F 
ATOM     84  C   UNL A   1      46.326  27.472  35.174  1.00  0.00     0.198 A 
ATOM     85  C   UNL A   1      44.644  25.924  35.907  1.00  0.00     0.198 A 
ATOM     86  F   UNL A   1      42.378  26.329  35.424  1.00  0.00    -0.203 F 
ATOM     87  F   UNL A   1      47.616  27.816  35.060  1.00  0.00    -0.200 F 
ATOM     88  C   UNL A   1      45.978  26.293  35.817  1.00  0.00     0.200 A 
ATOM     89  F   UNL A   1      44.305  24.791  36.538  1.00  0.00    -0.200 F 
ATOM     90  F   UNL A   1      46.929  25.507  36.341  1.00  0.00    -0.200 F 
ENDBRANCH  57  80
ENDBRANCH  31  32
ENDBRANCH  23  26
ENDBRANCH  21  22
ENDBRANCH  20  21
ENDBRANCH  19  20
ENDBRANCH   3  19
TORSDOF 15
ENDMDL
MODEL 3
REMARK VINA RESULT:     -11.0      1.882      7.825
REMARK SMILES COCCS(=O)(=O)Cc1ccc(C(=O)NCCCNC(=O)c2ccc(-c3c4nc(c(-c5c(F)c(F)c(F)c(F)c5F)c5ccc([nH]5)c(-c5c(F)c(F)c(F)c(F)c5F)c5nc(c(-c6c(F)c(F)c(F)c(F)c6F)c6ccc3[nH]6)C=C5)C=C4)cc2)cn1
REMARK SMILES IDX 13 1 14 2 15 3 12 5 9 6 10 7 86 8 11 9 85 10 8 11 5 12 6 13
REMARK SMILES IDX 7 14 4 15 3 16 2 17 1 18 16 19 17 20 18 21 19 22 20 23 21 25
REMARK SMILES IDX 22 26 23 27 84 28 24 29 83 30 25 31 26 32 27 33 77 34 28 35
REMARK SMILES IDX 82 36 76 37 78 38 29 39 81 40 75 41 74 42 30 44 62 45 42 46
REMARK SMILES IDX 61 47 43 48 46 49 60 50 79 51 44 52 45 53 59 55 80 56 47 57
REMARK SMILES IDX 31 58 32 59 40 60 33 61 34 62 38 63 41 64 35 65 36 66 39 67
REMARK SMILES IDX 37 68 63 69 64 70 72 71 65 72 66 73 70 74 73 75 67 76 68 77
REMARK SMILES IDX 71 78 69 79 48 80 49 81 57 82 50 83 51 84 55 85 58 86 52 87
REMARK SMILES IDX 53 88 56 89 54 90
REMARK H PARENT 15 4 19 24 78 43 46 54
REMARK Flexibility Score: inf
ROOT
ATOM      1  C   UNL A   1      33.894  29.309  27.161  1.00  0.00     0.252 C 
ATOM      2  O   UNL A   1      34.919  29.309  27.843  1.00  0.00    -0.269 OA
ATOM      3  N   UNL A   1      32.938  30.240  27.467  1.00  0.00    -0.352 N 
ATOM      4  H   UNL A   1      33.159  30.788  28.254  1.00  0.00     0.163 HD
ENDROOT
BRANCH   1   5
ATOM      5  C   UNL A   1      33.780  28.340  26.048  1.00  0.00     0.058 A 
ATOM      6  C   UNL A   1      33.655  26.756  23.771  1.00  0.00     0.055 A 
ATOM      7  C   UNL A   1      33.497  26.171  25.026  1.00  0.00     0.026 A 
ATOM      8  N   UNL A   1      33.899  28.075  23.633  1.00  0.00    -0.259 NA
ATOM      9  C   UNL A   1      33.573  26.969  26.171  1.00  0.00     0.017 A 
ATOM     10  C   UNL A   1      33.959  28.832  24.760  1.00  0.00     0.125 A 
BRANCH   6  11
ATOM     11  C   UNL A   1      33.658  25.911  22.535  1.00  0.00     0.193 C 
BRANCH  11  12
ATOM     12  S   UNL A   1      32.020  25.710  21.855  1.00  0.00     0.158 S 
ATOM     13  O   UNL A   1      31.406  24.609  22.584  1.00  0.00    -0.228 OA
ATOM     14  O   UNL A   1      32.132  25.596  20.410  1.00  0.00    -0.228 OA
BRANCH  12  15
ATOM     15  C   UNL A   1      31.059  27.183  22.192  1.00  0.00     0.165 C 
BRANCH  15  16
ATOM     16  C   UNL A   1      30.053  26.984  23.305  1.00  0.00     0.176 C 
BRANCH  16  17
ATOM     17  O   UNL A   1      29.769  28.232  23.942  1.00  0.00    -0.384 OA
ATOM     18  C   UNL A   1      30.442  29.326  23.334  1.00  0.00     0.194 C 
ENDBRANCH  16  17
ENDBRANCH  15  16
ENDBRANCH  12  15
ENDBRANCH  11  12
ENDBRANCH   6  11
ENDBRANCH   1   5
BRANCH   3  19
ATOM     19  C   UNL A   1      31.664  30.581  26.863  1.00  0.00     0.118 C 
BRANCH  19  20
ATOM     20  C   UNL A   1      31.436  32.093  26.862  1.00  0.00     0.042 C 
BRANCH  20  21
ATOM     21  C   UNL A   1      32.724  32.914  26.936  1.00  0.00     0.118 C 
BRANCH  21  22
ATOM     22  N   UNL A   1      32.521  34.196  27.594  1.00  0.00    -0.352 N 
ATOM     23  C   UNL A   1      33.060  34.703  28.747  1.00  0.00     0.251 C 
ATOM     24  H   UNL A   1      31.893  34.799  27.133  1.00  0.00     0.163 HD
ATOM     25  O   UNL A   1      32.580  35.728  29.226  1.00  0.00    -0.269 OA
BRANCH  23  26
ATOM     26  C   UNL A   1      34.201  34.049  29.427  1.00  0.00     0.039 A 
ATOM     27  C   UNL A   1      35.494  34.489  29.120  1.00  0.00     0.014 A 
ATOM     28  C   UNL A   1      34.028  32.954  30.279  1.00  0.00     0.014 A 
ATOM     29  C   UNL A   1      36.603  33.851  29.678  1.00  0.00     0.010 A 
ATOM     30  C   UNL A   1      35.134  32.359  30.889  1.00  0.00     0.010 A 
ATOM     31  C   UNL A   1      36.433  32.787  30.577  1.00  0.00    -0.014 A 
BRANCH  31  32
ATOM     32  C   UNL A   1      37.610  32.093  31.162  1.00  0.00     0.031 A 
ATOM     33  C   UNL A   1      38.080  32.434  32.550  1.00  0.00     0.074 A 
ATOM     34  C   UNL A   1      38.272  31.174  30.433  1.00  0.00     0.049 A 
ATOM     35  N   UNL A   1      39.093  31.950  33.225  1.00  0.00    -0.248 NA
ATOM     36  C   UNL A   1      37.327  33.475  33.266  1.00  0.00     0.031 C 
ATOM     37  C   UNL A   1      37.943  30.789  29.061  1.00  0.00     0.029 A 
ATOM     38  N   UNL A   1      39.361  30.400  30.746  1.00  0.00    -0.354 N 
ATOM     39  C   UNL A   1      39.107  32.637  34.433  1.00  0.00     0.074 A 
ATOM     40  C   UNL A   1      38.033  33.605  34.379  1.00  0.00     0.031 C 
ATOM     41  C   UNL A   1      38.795  29.833  28.657  1.00  0.00     0.029 A 
ATOM     42  C   UNL A   1      39.744  29.557  29.732  1.00  0.00     0.049 A 
ATOM     43  H   UNL A   1      39.823  30.444  31.614  1.00  0.00     0.167 HD
ATOM     44  C   UNL A   1      39.924  32.460  35.498  1.00  0.00     0.037 A 
ATOM     45  C   UNL A   1      40.745  28.657  29.679  1.00  0.00     0.037 A 
ATOM     46  C   UNL A   1      40.974  31.476  35.561  1.00  0.00     0.049 A 
ATOM     47  C   UNL A   1      41.618  28.458  30.888  1.00  0.00     0.074 A 
ATOM     48  C   UNL A   1      41.829  31.188  36.611  1.00  0.00     0.029 A 
ATOM     49  N   UNL A   1      41.307  30.613  34.527  1.00  0.00    -0.354 N 
ATOM     50  N   UNL A   1      41.583  29.071  32.046  1.00  0.00    -0.248 NA
ATOM     51  C   UNL A   1      42.660  27.426  30.786  1.00  0.00     0.031 C 
ATOM     52  C   UNL A   1      42.700  30.173  36.201  1.00  0.00     0.029 A 
ATOM     53  C   UNL A   1      42.359  29.797  34.912  1.00  0.00     0.049 A 
ATOM     54  H   UNL A   1      40.861  30.585  33.650  1.00  0.00     0.167 HD
ATOM     55  C   UNL A   1      42.572  28.481  32.820  1.00  0.00     0.074 A 
ATOM     56  C   UNL A   1      43.180  27.451  32.005  1.00  0.00     0.031 C 
ATOM     57  C   UNL A   1      42.943  28.767  34.093  1.00  0.00     0.037 A 
BRANCH  44  58
ATOM     58  C   UNL A   1      39.712  33.351  36.689  1.00  0.00     0.064 A 
ATOM     59  C   UNL A   1      38.834  32.996  37.725  1.00  0.00     0.173 A 
ATOM     60  C   UNL A   1      40.414  34.560  36.811  1.00  0.00     0.173 A 
ATOM     61  F   UNL A   1      38.130  31.857  37.652  1.00  0.00    -0.203 F 
ATOM     62  C   UNL A   1      38.644  33.832  38.822  1.00  0.00     0.198 A 
ATOM     63  C   UNL A   1      40.244  35.379  37.924  1.00  0.00     0.198 A 
ATOM     64  F   UNL A   1      41.271  34.944  35.853  1.00  0.00    -0.203 F 
ATOM     65  F   UNL A   1      37.762  33.496  39.774  1.00  0.00    -0.200 F 
ATOM     66  C   UNL A   1      39.354  35.019  38.925  1.00  0.00     0.200 A 
ATOM     67  F   UNL A   1      40.939  36.521  38.027  1.00  0.00    -0.200 F 
ATOM     68  F   UNL A   1      39.172  35.821  39.983  1.00  0.00    -0.200 F 
ENDBRANCH  44  58
BRANCH  45  69
ATOM     69  C   UNL A   1      40.943  27.841  28.454  1.00  0.00     0.064 A 
ATOM     70  C   UNL A   1      41.799  28.274  27.432  1.00  0.00     0.173 A 
ATOM     71  C   UNL A   1      40.283  26.617  28.279  1.00  0.00     0.173 A 
ATOM     72  F   UNL A   1      42.437  29.448  27.547  1.00  0.00    -0.203 F 
ATOM     73  C   UNL A   1      41.971  27.525  26.271  1.00  0.00     0.198 A 
ATOM     74  C   UNL A   1      40.477  25.854  27.128  1.00  0.00     0.198 A 
ATOM     75  F   UNL A   1      39.459  26.154  29.231  1.00  0.00    -0.203 F 
ATOM     76  F   UNL A   1      42.761  27.983  25.291  1.00  0.00    -0.200 F 
ATOM     77  C   UNL A   1      41.314  26.312  26.122  1.00  0.00     0.200 A 
ATOM     78  F   UNL A   1      39.853  24.676  26.995  1.00  0.00    -0.200 F 
ATOM     79  F   UNL A   1      41.484  25.589  25.007  1.00  0.00    -0.200 F 
ENDBRANCH  45  69
BRANCH  57  80
ATOM     80  C   UNL A   1      44.027  27.921  34.694  1.00  0.00     0.064 A 
ATOM     81  C   UNL A   1      45.377  28.298  34.636  1.00  0.00     0.173 A 
ATOM     82  C   UNL A   1      43.706  26.725  35.354  1.00  0.00     0.173 A 
ATOM     83  F   UNL A   1      45.735  29.426  34.003  1.00  0.00    -0.203 F 
ATOM     84  C   UNL A   1      46.369  27.491  35.185  1.00  0.00     0.198 A 
ATOM     85  C   UNL A   1      44.698  25.936  35.927  1.00  0.00     0.198 A 
ATOM     86  F   UNL A   1      42.429  26.322  35.443  1.00  0.00    -0.203 F 
ATOM     87  F   UNL A   1      47.656  27.844  35.068  1.00  0.00    -0.200 F 
ATOM     88  C   UNL A   1      46.029  26.314  35.835  1.00  0.00     0.200 A 
ATOM     89  F   UNL A   1      44.367  24.804  36.564  1.00  0.00    -0.200 F 
ATOM     90  F   UNL A   1      46.986  25.538  36.362  1.00  0.00    -0.200 F 
ENDBRANCH  57  80
ENDBRANCH  31  32
ENDBRANCH  23  26
ENDBRANCH  21  22
ENDBRANCH  20  21
ENDBRANCH  19  20
ENDBRANCH   3  19
TORSDOF 15
ENDMDL
