MODEL 1
REMARK VINA RESULT:     -12.8      0.000      0.000
REMARK SMILES O=C(Cn1cccc1C(=O)N1CC[N@H+]2CCC[C@@H]2C1)NCCCNC(=O)c1ccc(-c2c3nc(c(-c4c(F)c(F)c(F)c(F)c4F)c4ccc([nH]4)c(-c4c(F)c(F)c(F)c(F)c4F)c4nc(c(-c5c(F)c(F)c(F)c(F)c5F)c5ccc2[nH]5)C=C4)C=C3)cc1
REMARK SMILES IDX 21 1 20 2 1 3 2 4 3 6 4 7 5 8 8 9 6 10 7 11 9 12 10 13 11 14
REMARK SMILES IDX 12 15 19 16 13 17 18 18 14 19 17 20 15 21 16 23 22 24 23 25
REMARK SMILES IDX 24 26 25 27 26 29 27 30 28 31 89 32 29 33 88 34 30 35 31 36
REMARK SMILES IDX 32 37 82 38 33 39 87 40 81 41 83 42 34 43 86 44 80 45 79 46
REMARK SMILES IDX 35 48 67 49 47 50 66 51 48 52 51 53 65 54 84 55 49 56 50 57
REMARK SMILES IDX 64 59 85 60 52 61 36 62 37 63 45 64 38 65 39 66 43 67 46 68
REMARK SMILES IDX 40 69 41 70 44 71 42 72 68 73 69 74 77 75 70 76 71 77 75 78
REMARK SMILES IDX 78 79 72 80 73 81 76 82 74 83 53 84 54 85 62 86 55 87 56 88
REMARK SMILES IDX 60 89 63 90 57 91 58 92 61 93 59 94
REMARK H PARENT 20 5 14 22 24 28 83 47 51 58
REMARK Flexibility Score: inf
ROOT
ATOM      1  C   UNL A   1      32.334  28.980  25.571  1.00  0.00     0.117 C 
ENDROOT
BRANCH   1   2
ATOM      2  N   UNL A   1      31.385  27.938  25.178  1.00  0.00    -0.354 N 
ATOM      3  O   UNL A   1      31.308  26.951  27.225  1.00  0.00    -0.273 OA
ATOM      4  C   UNL A   1      30.901  26.995  26.061  1.00  0.00     0.239 C 
ATOM      5  H   UNL A   1      31.079  27.908  24.243  1.00  0.00     0.163 HD
BRANCH   4   6
ATOM      6  C   UNL A   1      29.884  25.957  25.588  1.00  0.00     0.222 C 
BRANCH   6   7
ATOM      7  N   UNL A   1      30.375  24.782  24.873  1.00  0.00    -0.334 N 
ATOM      8  C   UNL A   1      30.323  24.677  23.500  1.00  0.00     0.087 A 
ATOM      9  C   UNL A   1      30.947  23.633  25.401  1.00  0.00     0.107 A 
ATOM     10  C   UNL A   1      30.988  23.535  23.126  1.00  0.00     0.020 A 
ATOM     11  C   UNL A   1      31.406  22.898  24.314  1.00  0.00     0.033 A 
BRANCH   9  12
ATOM     12  C   UNL A   1      31.211  23.335  26.799  1.00  0.00     0.270 C 
ATOM     13  O   UNL A   1      30.327  22.952  27.560  1.00  0.00    -0.267 OA
BRANCH  12  14
ATOM     14  N   UNL A   1      32.537  23.304  27.177  1.00  0.00    -0.326 N 
ATOM     15  C   UNL A   1      33.137  22.202  27.941  1.00  0.00     0.181 C 
ATOM     16  C   UNL A   1      33.460  24.195  26.500  1.00  0.00     0.185 C 
ATOM     17  C   UNL A   1      34.404  21.591  27.247  1.00  0.00     0.284 C 
ATOM     18  C   UNL A   1      34.509  23.436  25.722  1.00  0.00     0.204 C 
ATOM     19  N   UNL A   1      35.273  22.637  26.686  1.00  0.00    -0.330 N 
ATOM     20  C   UNL A   1      35.579  24.305  25.094  1.00  0.00     0.073 C 
ATOM     21  C   UNL A   1      36.466  22.204  25.975  1.00  0.00     0.262 C 
ATOM     22  H   UNL A   1      35.588  23.141  27.514  1.00  0.00     0.348 HD
ATOM     23  C   UNL A   1      36.794  23.385  25.049  1.00  0.00     0.068 C 
ENDBRANCH  12  14
ENDBRANCH   9  12
ENDBRANCH   6   7
ENDBRANCH   4   6
ENDBRANCH   1   2
BRANCH   1  24
ATOM     24  C   UNL A   1      33.817  28.577  25.493  1.00  0.00     0.042 C 
BRANCH  24  25
ATOM     25  C   UNL A   1      34.560  28.606  26.838  1.00  0.00     0.118 C 
BRANCH  25  26
ATOM     26  N   UNL A   1      34.698  29.910  27.444  1.00  0.00    -0.352 N 
ATOM     27  C   UNL A   1      35.762  30.447  28.132  1.00  0.00     0.251 C 
ATOM     28  H   UNL A   1      33.915  30.500  27.352  1.00  0.00     0.163 HD
ATOM     29  O   UNL A   1      35.605  31.565  28.635  1.00  0.00    -0.269 OA
BRANCH  27  30
ATOM     30  C   UNL A   1      37.071  29.747  28.344  1.00  0.00     0.039 A 
ATOM     31  C   UNL A   1      38.013  29.844  27.307  1.00  0.00     0.014 A 
ATOM     32  C   UNL A   1      37.392  28.953  29.452  1.00  0.00     0.014 A 
ATOM     33  C   UNL A   1      39.255  29.205  27.393  1.00  0.00     0.010 A 
ATOM     34  C   UNL A   1      38.648  28.322  29.551  1.00  0.00     0.010 A 
ATOM     35  C   UNL A   1      39.593  28.454  28.525  1.00  0.00    -0.014 A 
BRANCH  35  36
ATOM     36  C   UNL A   1      40.978  27.900  28.618  1.00  0.00     0.031 A 
ATOM     37  C   UNL A   1      41.096  26.437  28.185  1.00  0.00     0.074 A 
ATOM     38  C   UNL A   1      41.964  28.685  29.142  1.00  0.00     0.049 A 
ATOM     39  N   UNL A   1      41.926  25.512  28.570  1.00  0.00    -0.248 NA
ATOM     40  C   UNL A   1      40.095  25.908  27.226  1.00  0.00     0.031 C 
ATOM     41  C   UNL A   1      41.778  30.095  29.513  1.00  0.00     0.029 A 
ATOM     42  N   UNL A   1      43.292  28.472  29.486  1.00  0.00    -0.354 N 
ATOM     43  C   UNL A   1      41.641  24.350  27.827  1.00  0.00     0.074 A 
ATOM     44  C   UNL A   1      40.453  24.631  27.076  1.00  0.00     0.031 C 
ATOM     45  C   UNL A   1      42.896  30.589  30.077  1.00  0.00     0.029 A 
ATOM     46  C   UNL A   1      43.925  29.565  30.129  1.00  0.00     0.049 A 
ATOM     47  H   UNL A   1      43.758  27.625  29.297  1.00  0.00     0.167 HD
ATOM     48  C   UNL A   1      42.445  23.246  27.797  1.00  0.00     0.037 A 
ATOM     49  C   UNL A   1      45.161  29.645  30.716  1.00  0.00     0.037 A 
ATOM     50  C   UNL A   1      43.561  23.397  28.666  1.00  0.00     0.049 A 
ATOM     51  C   UNL A   1      45.811  28.337  30.516  1.00  0.00     0.074 A 
ATOM     52  C   UNL A   1      43.745  23.285  30.017  1.00  0.00     0.029 A 
ATOM     53  N   UNL A   1      44.715  23.886  28.113  1.00  0.00    -0.354 N 
ATOM     54  N   UNL A   1      46.379  27.936  29.418  1.00  0.00    -0.248 NA
ATOM     55  C   UNL A   1      45.821  27.389  31.641  1.00  0.00     0.031 C 
ATOM     56  C   UNL A   1      44.918  24.022  30.293  1.00  0.00     0.029 A 
ATOM     57  C   UNL A   1      45.394  24.562  29.095  1.00  0.00     0.049 A 
ATOM     58  H   UNL A   1      45.004  23.773  27.178  1.00  0.00     0.167 HD
ATOM     59  C   UNL A   1      46.543  26.587  29.643  1.00  0.00     0.074 A 
ATOM     60  C   UNL A   1      46.488  26.390  31.070  1.00  0.00     0.031 C 
ATOM     61  C   UNL A   1      46.181  25.702  28.684  1.00  0.00     0.037 A 
BRANCH  48  62
ATOM     62  C   UNL A   1      42.462  22.045  26.884  1.00  0.00     0.064 A 
ATOM     63  C   UNL A   1      41.846  20.846  27.331  1.00  0.00     0.173 A 
ATOM     64  C   UNL A   1      43.326  21.918  25.789  1.00  0.00     0.173 A 
ATOM     65  F   UNL A   1      40.970  20.860  28.348  1.00  0.00    -0.203 F 
ATOM     66  C   UNL A   1      42.171  19.599  26.800  1.00  0.00     0.198 A 
ATOM     67  C   UNL A   1      43.611  20.669  25.225  1.00  0.00     0.198 A 
ATOM     68  F   UNL A   1      43.988  22.977  25.303  1.00  0.00    -0.203 F 
ATOM     69  F   UNL A   1      41.663  18.485  27.347  1.00  0.00    -0.200 F 
ATOM     70  C   UNL A   1      43.066  19.509  25.754  1.00  0.00     0.200 A 
ATOM     71  F   UNL A   1      44.477  20.584  24.206  1.00  0.00    -0.200 F 
ATOM     72  F   UNL A   1      43.431  18.309  25.280  1.00  0.00    -0.200 F 
ENDBRANCH  48  62
BRANCH  49  73
ATOM     73  C   UNL A   1      45.936  30.650  31.556  1.00  0.00     0.064 A 
ATOM     74  C   UNL A   1      45.746  30.904  32.921  1.00  0.00     0.173 A 
ATOM     75  C   UNL A   1      46.985  31.425  30.975  1.00  0.00     0.173 A 
ATOM     76  F   UNL A   1      44.706  30.396  33.585  1.00  0.00    -0.203 F 
ATOM     77  C   UNL A   1      46.605  31.740  33.660  1.00  0.00     0.198 A 
ATOM     78  C   UNL A   1      47.853  32.236  31.709  1.00  0.00     0.198 A 
ATOM     79  F   UNL A   1      47.211  31.435  29.655  1.00  0.00    -0.203 F 
ATOM     80  F   UNL A   1      46.386  31.923  34.971  1.00  0.00    -0.200 F 
ATOM     81  C   UNL A   1      47.677  32.378  33.063  1.00  0.00     0.200 A 
ATOM     82  F   UNL A   1      48.861  32.865  31.088  1.00  0.00    -0.200 F 
ATOM     83  F   UNL A   1      48.513  33.140  33.778  1.00  0.00    -0.200 F 
ENDBRANCH  49  73
BRANCH  61  84
ATOM     84  C   UNL A   1      46.213  26.288  27.296  1.00  0.00     0.064 A 
ATOM     85  C   UNL A   1      47.435  26.453  26.634  1.00  0.00     0.173 A 
ATOM     86  C   UNL A   1      45.072  26.806  26.660  1.00  0.00     0.173 A 
ATOM     87  F   UNL A   1      48.565  25.991  27.189  1.00  0.00    -0.203 F 
ATOM     88  C   UNL A   1      47.508  27.093  25.396  1.00  0.00     0.198 A 
ATOM     89  C   UNL A   1      45.139  27.429  25.416  1.00  0.00     0.198 A 
ATOM     90  F   UNL A   1      43.874  26.716  27.241  1.00  0.00    -0.203 F 
ATOM     91  F   UNL A   1      48.693  27.235  24.786  1.00  0.00    -0.200 F 
ATOM     92  C   UNL A   1      46.360  27.577  24.785  1.00  0.00     0.200 A 
ATOM     93  F   UNL A   1      44.020  27.878  24.829  1.00  0.00    -0.200 F 
ATOM     94  F   UNL A   1      46.429  28.175  23.588  1.00  0.00    -0.200 F 
ENDBRANCH  61  84
ENDBRANCH  35  36
ENDBRANCH  27  30
ENDBRANCH  25  26
ENDBRANCH  24  25
ENDBRANCH   1  24
TORSDOF 13
ENDMDL
MODEL 2
REMARK VINA RESULT:     -12.4      4.602      9.285
REMARK SMILES O=C(Cn1cccc1C(=O)N1CC[N@H+]2CCC[C@@H]2C1)NCCCNC(=O)c1ccc(-c2c3nc(c(-c4c(F)c(F)c(F)c(F)c4F)c4ccc([nH]4)c(-c4c(F)c(F)c(F)c(F)c4F)c4nc(c(-c5c(F)c(F)c(F)c(F)c5F)c5ccc2[nH]5)C=C4)C=C3)cc1
REMARK SMILES IDX 21 1 20 2 1 3 2 4 3 6 4 7 5 8 8 9 6 10 7 11 9 12 10 13 11 14
REMARK SMILES IDX 12 15 19 16 13 17 18 18 14 19 17 20 15 21 16 23 22 24 23 25
REMARK SMILES IDX 24 26 25 27 26 29 27 30 28 31 89 32 29 33 88 34 30 35 31 36
REMARK SMILES IDX 32 37 82 38 33 39 87 40 81 41 83 42 34 43 86 44 80 45 79 46
REMARK SMILES IDX 35 48 67 49 47 50 66 51 48 52 51 53 65 54 84 55 49 56 50 57
REMARK SMILES IDX 64 59 85 60 52 61 36 62 37 63 45 64 38 65 39 66 43 67 46 68
REMARK SMILES IDX 40 69 41 70 44 71 42 72 68 73 69 74 77 75 70 76 71 77 75 78
REMARK SMILES IDX 78 79 72 80 73 81 76 82 74 83 53 84 54 85 62 86 55 87 56 88
REMARK SMILES IDX 60 89 63 90 57 91 58 92 61 93 59 94
REMARK H PARENT 20 5 14 22 24 28 83 47 51 58
REMARK Flexibility Score: inf
ROOT
ATOM      1  C   UNL A   1      34.828  23.987  24.782  1.00  0.00     0.117 C 
ENDROOT
BRANCH   1   2
ATOM      2  N   UNL A   1      34.485  25.409  24.798  1.00  0.00    -0.354 N 
ATOM      3  O   UNL A   1      33.951  25.514  22.590  1.00  0.00    -0.273 OA
ATOM      4  C   UNL A   1      34.028  26.081  23.684  1.00  0.00     0.239 C 
ATOM      5  H   UNL A   1      34.585  25.908  25.641  1.00  0.00     0.163 HD
BRANCH   4   6
ATOM      6  C   UNL A   1      33.653  27.559  23.783  1.00  0.00     0.222 C 
BRANCH   6   7
ATOM      7  N   UNL A   1      33.131  28.057  25.054  1.00  0.00    -0.334 N 
ATOM      8  C   UNL A   1      33.954  28.459  26.084  1.00  0.00     0.087 A 
ATOM      9  C   UNL A   1      31.806  28.211  25.436  1.00  0.00     0.107 A 
ATOM     10  C   UNL A   1      33.175  29.007  27.072  1.00  0.00     0.020 A 
ATOM     11  C   UNL A   1      31.833  28.881  26.654  1.00  0.00     0.033 A 
BRANCH   9  12
ATOM     12  C   UNL A   1      30.617  27.928  24.649  1.00  0.00     0.270 C 
ATOM     13  O   UNL A   1      30.138  28.753  23.875  1.00  0.00    -0.267 OA
BRANCH  12  14
ATOM     14  N   UNL A   1      30.174  26.622  24.660  1.00  0.00    -0.326 N 
ATOM     15  C   UNL A   1      29.880  25.856  23.441  1.00  0.00     0.181 C 
ATOM     16  C   UNL A   1      30.348  25.854  25.877  1.00  0.00     0.185 C 
ATOM     17  C   UNL A   1      30.653  24.494  23.370  1.00  0.00     0.284 C 
ATOM     18  C   UNL A   1      31.276  24.679  25.676  1.00  0.00     0.204 C 
ATOM     19  N   UNL A   1      30.662  23.806  24.671  1.00  0.00    -0.330 N 
ATOM     20  C   UNL A   1      31.401  23.763  26.876  1.00  0.00     0.073 C 
ATOM     21  C   UNL A   1      31.384  22.546  24.755  1.00  0.00     0.262 C 
ATOM     22  H   UNL A   1      29.677  23.593  24.823  1.00  0.00     0.348 HD
ATOM     23  C   UNL A   1      31.715  22.409  26.249  1.00  0.00     0.068 C 
ENDBRANCH  12  14
ENDBRANCH   9  12
ENDBRANCH   6   7
ENDBRANCH   4   6
ENDBRANCH   1   2
BRANCH   1  24
ATOM     24  C   UNL A   1      36.335  23.678  24.791  1.00  0.00     0.042 C 
BRANCH  24  25
ATOM     25  C   UNL A   1      37.064  24.078  26.084  1.00  0.00     0.118 C 
BRANCH  25  26
ATOM     26  N   UNL A   1      38.318  23.402  26.324  1.00  0.00    -0.352 N 
ATOM     27  C   UNL A   1      39.464  23.871  26.924  1.00  0.00     0.251 C 
ATOM     28  H   UNL A   1      38.358  22.469  26.011  1.00  0.00     0.163 HD
ATOM     29  O   UNL A   1      40.446  23.121  26.935  1.00  0.00    -0.269 OA
BRANCH  27  30
ATOM     30  C   UNL A   1      39.606  25.240  27.520  1.00  0.00     0.039 A 
ATOM     31  C   UNL A   1      39.210  25.389  28.859  1.00  0.00     0.014 A 
ATOM     32  C   UNL A   1      40.028  26.382  26.828  1.00  0.00     0.014 A 
ATOM     33  C   UNL A   1      39.277  26.630  29.502  1.00  0.00     0.010 A 
ATOM     34  C   UNL A   1      40.113  27.631  27.476  1.00  0.00     0.010 A 
ATOM     35  C   UNL A   1      39.747  27.760  28.822  1.00  0.00    -0.014 A 
BRANCH  35  36
ATOM     36  C   UNL A   1      39.916  29.029  29.594  1.00  0.00     0.031 A 
ATOM     37  C   UNL A   1      38.722  29.982  29.497  1.00  0.00     0.074 A 
ATOM     38  C   UNL A   1      41.105  29.262  30.222  1.00  0.00     0.049 A 
ATOM     39  N   UNL A   1      38.676  31.280  29.573  1.00  0.00    -0.248 NA
ATOM     40  C   UNL A   1      37.387  29.404  29.207  1.00  0.00     0.031 C 
ATOM     41  C   UNL A   1      42.199  28.283  30.291  1.00  0.00     0.029 A 
ATOM     42  N   UNL A   1      41.647  30.344  30.901  1.00  0.00    -0.354 N 
ATOM     43  C   UNL A   1      37.324  31.663  29.469  1.00  0.00     0.074 A 
ATOM     44  C   UNL A   1      36.588  30.472  29.165  1.00  0.00     0.031 C 
ATOM     45  C   UNL A   1      43.275  28.816  30.901  1.00  0.00     0.029 A 
ATOM     46  C   UNL A   1      42.999  30.186  31.295  1.00  0.00     0.049 A 
ATOM     47  H   UNL A   1      41.130  31.160  31.094  1.00  0.00     0.167 HD
ATOM     48  C   UNL A   1      36.867  32.924  29.728  1.00  0.00     0.037 A 
ATOM     49  C   UNL A   1      43.867  31.092  31.847  1.00  0.00     0.037 A 
ATOM     50  C   UNL A   1      37.937  33.807  30.041  1.00  0.00     0.049 A 
ATOM     51  C   UNL A   1      43.110  32.343  32.037  1.00  0.00     0.074 A 
ATOM     52  C   UNL A   1      38.869  34.482  29.301  1.00  0.00     0.029 A 
ATOM     53  N   UNL A   1      38.240  33.967  31.367  1.00  0.00    -0.354 N 
ATOM     54  N   UNL A   1      42.274  32.580  33.005  1.00  0.00    -0.248 NA
ATOM     55  C   UNL A   1      43.295  33.422  31.056  1.00  0.00     0.031 C 
ATOM     56  C   UNL A   1      39.916  34.773  30.204  1.00  0.00     0.029 A 
ATOM     57  C   UNL A   1      39.579  34.254  31.456  1.00  0.00     0.049 A 
ATOM     58  H   UNL A   1      37.612  33.889  32.121  1.00  0.00     0.167 HD
ATOM     59  C   UNL A   1      41.628  33.716  32.568  1.00  0.00     0.074 A 
ATOM     60  C   UNL A   1      42.481  34.331  31.583  1.00  0.00     0.031 C 
ATOM     61  C   UNL A   1      40.276  33.779  32.629  1.00  0.00     0.037 A 
BRANCH  48  62
ATOM     62  C   UNL A   1      35.471  33.458  29.937  1.00  0.00     0.064 A 
ATOM     63  C   UNL A   1      34.859  34.183  28.881  1.00  0.00     0.173 A 
ATOM     64  C   UNL A   1      34.874  33.591  31.197  1.00  0.00     0.173 A 
ATOM     65  F   UNL A   1      35.326  34.097  27.626  1.00  0.00    -0.203 F 
ATOM     66  C   UNL A   1      33.807  35.071  29.099  1.00  0.00     0.198 A 
ATOM     67  C   UNL A   1      33.784  34.445  31.402  1.00  0.00     0.198 A 
ATOM     68  F   UNL A   1      35.386  32.979  32.274  1.00  0.00    -0.203 F 
ATOM     69  F   UNL A   1      33.353  35.832  28.092  1.00  0.00    -0.200 F 
ATOM     70  C   UNL A   1      33.278  35.213  30.365  1.00  0.00     0.200 A 
ATOM     71  F   UNL A   1      33.269  34.577  32.633  1.00  0.00    -0.200 F 
ATOM     72  F   UNL A   1      32.308  36.110  30.595  1.00  0.00    -0.200 F 
ENDBRANCH  48  62
BRANCH  49  73
ATOM     73  C   UNL A   1      45.347  31.153  32.195  1.00  0.00     0.064 A 
ATOM     74  C   UNL A   1      45.893  31.120  33.485  1.00  0.00     0.173 A 
ATOM     75  C   UNL A   1      46.332  31.224  31.163  1.00  0.00     0.173 A 
ATOM     76  F   UNL A   1      45.122  31.222  34.570  1.00  0.00    -0.203 F 
ATOM     77  C   UNL A   1      47.279  31.028  33.716  1.00  0.00     0.198 A 
ATOM     78  C   UNL A   1      47.706  31.108  31.388  1.00  0.00     0.198 A 
ATOM     79  F   UNL A   1      46.001  31.419  29.881  1.00  0.00    -0.203 F 
ATOM     80  F   UNL A   1      47.738  30.974  34.975  1.00  0.00    -0.200 F 
ATOM     81  C   UNL A   1      48.182  30.988  32.670  1.00  0.00     0.200 A 
ATOM     82  F   UNL A   1      48.552  31.107  30.348  1.00  0.00    -0.200 F 
ATOM     83  F   UNL A   1      49.495  30.860  32.894  1.00  0.00    -0.200 F 
ENDBRANCH  49  73
BRANCH  61  84
ATOM     84  C   UNL A   1      39.690  32.887  33.694  1.00  0.00     0.064 A 
ATOM     85  C   UNL A   1      39.195  31.623  33.353  1.00  0.00     0.173 A 
ATOM     86  C   UNL A   1      39.492  33.309  35.020  1.00  0.00     0.173 A 
ATOM     87  F   UNL A   1      39.341  31.162  32.101  1.00  0.00    -0.203 F 
ATOM     88  C   UNL A   1      38.547  30.821  34.293  1.00  0.00     0.198 A 
ATOM     89  C   UNL A   1      38.863  32.504  35.965  1.00  0.00     0.198 A 
ATOM     90  F   UNL A   1      39.908  34.514  35.415  1.00  0.00    -0.203 F 
ATOM     91  F   UNL A   1      38.084  29.615  33.936  1.00  0.00    -0.200 F 
ATOM     92  C   UNL A   1      38.385  31.259  35.600  1.00  0.00     0.200 A 
ATOM     93  F   UNL A   1      38.726  32.932  37.229  1.00  0.00    -0.200 F 
ATOM     94  F   UNL A   1      37.779  30.480  36.506  1.00  0.00    -0.200 F 
ENDBRANCH  61  84
ENDBRANCH  35  36
ENDBRANCH  27  30
ENDBRANCH  25  26
ENDBRANCH  24  25
ENDBRANCH   1  24
TORSDOF 13
ENDMDL
MODEL 3
REMARK VINA RESULT:     -12.4      4.635      9.548
REMARK SMILES O=C(Cn1cccc1C(=O)N1CC[N@H+]2CCC[C@@H]2C1)NCCCNC(=O)c1ccc(-c2c3nc(c(-c4c(F)c(F)c(F)c(F)c4F)c4ccc([nH]4)c(-c4c(F)c(F)c(F)c(F)c4F)c4nc(c(-c5c(F)c(F)c(F)c(F)c5F)c5ccc2[nH]5)C=C4)C=C3)cc1
REMARK SMILES IDX 21 1 20 2 1 3 2 4 3 6 4 7 5 8 8 9 6 10 7 11 9 12 10 13 11 14
REMARK SMILES IDX 12 15 19 16 13 17 18 18 14 19 17 20 15 21 16 23 22 24 23 25
REMARK SMILES IDX 24 26 25 27 26 29 27 30 28 31 89 32 29 33 88 34 30 35 31 36
REMARK SMILES IDX 32 37 82 38 33 39 87 40 81 41 83 42 34 43 86 44 80 45 79 46
REMARK SMILES IDX 35 48 67 49 47 50 66 51 48 52 51 53 65 54 84 55 49 56 50 57
REMARK SMILES IDX 64 59 85 60 52 61 36 62 37 63 45 64 38 65 39 66 43 67 46 68
REMARK SMILES IDX 40 69 41 70 44 71 42 72 68 73 69 74 77 75 70 76 71 77 75 78
REMARK SMILES IDX 78 79 72 80 73 81 76 82 74 83 53 84 54 85 62 86 55 87 56 88
REMARK SMILES IDX 60 89 63 90 57 91 58 92 61 93 59 94
REMARK H PARENT 20 5 14 22 24 28 83 47 51 58
REMARK Flexibility Score: inf
ROOT
ATOM      1  C   UNL A   1      34.645  23.554  25.072  1.00  0.00     0.117 C 
ENDROOT
BRANCH   1   2
ATOM      2  N   UNL A   1      33.660  24.632  25.170  1.00  0.00    -0.354 N 
ATOM      3  O   UNL A   1      32.429  23.634  26.801  1.00  0.00    -0.273 OA
ATOM      4  C   UNL A   1      32.616  24.612  26.072  1.00  0.00     0.239 C 
ATOM      5  H   UNL A   1      33.746  25.405  24.566  1.00  0.00     0.163 HD
BRANCH   4   6
ATOM      6  C   UNL A   1      31.646  25.791  26.143  1.00  0.00     0.222 C 
BRANCH   6   7
ATOM      7  N   UNL A   1      32.200  27.142  26.174  1.00  0.00    -0.334 N 
ATOM      8  C   UNL A   1      32.383  27.839  27.349  1.00  0.00     0.087 A 
ATOM      9  C   UNL A   1      32.617  27.923  25.105  1.00  0.00     0.107 A 
ATOM     10  C   UNL A   1      33.050  29.004  27.062  1.00  0.00     0.020 A 
ATOM     11  C   UNL A   1      33.224  29.043  25.662  1.00  0.00     0.033 A 
BRANCH   9  12
ATOM     12  C   UNL A   1      32.619  27.570  23.695  1.00  0.00     0.270 C 
ATOM     13  O   UNL A   1      33.573  27.006  23.167  1.00  0.00    -0.267 OA
BRANCH  12  14
ATOM     14  N   UNL A   1      31.420  27.713  23.028  1.00  0.00    -0.326 N 
ATOM     15  C   UNL A   1      30.370  26.686  23.017  1.00  0.00     0.181 C 
ATOM     16  C   UNL A   1      31.018  29.048  22.628  1.00  0.00     0.185 C 
ATOM     17  C   UNL A   1      28.976  27.227  23.488  1.00  0.00     0.284 C 
ATOM     18  C   UNL A   1      29.751  29.489  23.321  1.00  0.00     0.204 C 
ATOM     19  N   UNL A   1      28.691  28.556  22.924  1.00  0.00    -0.330 N 
ATOM     20  C   UNL A   1      29.207  30.823  22.853  1.00  0.00     0.073 C 
ATOM     21  C   UNL A   1      27.443  29.194  23.314  1.00  0.00     0.262 C 
ATOM     22  H   UNL A   1      28.628  28.371  21.923  1.00  0.00     0.348 HD
ATOM     23  C   UNL A   1      27.707  30.690  23.089  1.00  0.00     0.068 C 
ENDBRANCH  12  14
ENDBRANCH   9  12
ENDBRANCH   6   7
ENDBRANCH   4   6
ENDBRANCH   1   2
BRANCH   1  24
ATOM     24  C   UNL A   1      35.688  23.516  26.201  1.00  0.00     0.042 C 
BRANCH  24  25
ATOM     25  C   UNL A   1      37.062  24.093  25.825  1.00  0.00     0.118 C 
BRANCH  25  26
ATOM     26  N   UNL A   1      38.202  23.318  26.259  1.00  0.00    -0.352 N 
ATOM     27  C   UNL A   1      39.296  23.709  26.996  1.00  0.00     0.251 C 
ATOM     28  H   UNL A   1      38.193  22.372  25.987  1.00  0.00     0.163 HD
ATOM     29  O   UNL A   1      40.190  22.874  27.167  1.00  0.00    -0.269 OA
BRANCH  27  30
ATOM     30  C   UNL A   1      39.488  25.086  27.558  1.00  0.00     0.039 A 
ATOM     31  C   UNL A   1      39.026  25.303  28.866  1.00  0.00     0.014 A 
ATOM     32  C   UNL A   1      40.019  26.177  26.859  1.00  0.00     0.014 A 
ATOM     33  C   UNL A   1      39.132  26.558  29.475  1.00  0.00     0.010 A 
ATOM     34  C   UNL A   1      40.143  27.439  27.473  1.00  0.00     0.010 A 
ATOM     35  C   UNL A   1      39.709  27.635  28.792  1.00  0.00    -0.014 A 
BRANCH  35  36
ATOM     36  C   UNL A   1      39.912  28.916  29.534  1.00  0.00     0.031 A 
ATOM     37  C   UNL A   1      38.727  29.882  29.446  1.00  0.00     0.074 A 
ATOM     38  C   UNL A   1      41.118  29.146  30.129  1.00  0.00     0.049 A 
ATOM     39  N   UNL A   1      38.699  31.182  29.498  1.00  0.00    -0.248 NA
ATOM     40  C   UNL A   1      37.379  29.315  29.199  1.00  0.00     0.031 C 
ATOM     41  C   UNL A   1      42.202  28.155  30.192  1.00  0.00     0.029 A 
ATOM     42  N   UNL A   1      41.689  30.234  30.774  1.00  0.00    -0.354 N 
ATOM     43  C   UNL A   1      37.350  31.580  29.419  1.00  0.00     0.074 A 
ATOM     44  C   UNL A   1      36.592  30.392  29.155  1.00  0.00     0.031 C 
ATOM     45  C   UNL A   1      43.298  28.686  30.765  1.00  0.00     0.029 A 
ATOM     46  C   UNL A   1      43.048  30.067  31.139  1.00  0.00     0.049 A 
ATOM     47  H   UNL A   1      41.186  31.060  30.963  1.00  0.00     0.167 HD
ATOM     48  C   UNL A   1      36.914  32.851  29.664  1.00  0.00     0.037 A 
ATOM     49  C   UNL A   1      43.939  30.973  31.653  1.00  0.00     0.037 A 
ATOM     50  C   UNL A   1      38.001  33.726  29.934  1.00  0.00     0.049 A 
ATOM     51  C   UNL A   1      43.202  32.236  31.837  1.00  0.00     0.074 A 
ATOM     52  C   UNL A   1      38.924  34.375  29.159  1.00  0.00     0.029 A 
ATOM     53  N   UNL A   1      38.338  33.908  31.249  1.00  0.00    -0.354 N 
ATOM     54  N   UNL A   1      42.393  32.503  32.819  1.00  0.00    -0.248 NA
ATOM     55  C   UNL A   1      43.378  33.294  30.830  1.00  0.00     0.031 C 
ATOM     56  C   UNL A   1      39.996  34.670  30.031  1.00  0.00     0.029 A 
ATOM     57  C   UNL A   1      39.682  34.179  31.301  1.00  0.00     0.049 A 
ATOM     58  H   UNL A   1      37.727  33.852  32.019  1.00  0.00     0.167 HD
ATOM     59  C   UNL A   1      41.750  33.638  32.375  1.00  0.00     0.074 A 
ATOM     60  C   UNL A   1      42.587  34.223  31.358  1.00  0.00     0.031 C 
ATOM     61  C   UNL A   1      40.401  33.719  32.467  1.00  0.00     0.037 A 
BRANCH  48  62
ATOM     62  C   UNL A   1      35.530  33.406  29.894  1.00  0.00     0.064 A 
ATOM     63  C   UNL A   1      34.929  34.178  28.865  1.00  0.00     0.173 A 
ATOM     64  C   UNL A   1      34.939  33.509  31.161  1.00  0.00     0.173 A 
ATOM     65  F   UNL A   1      35.391  34.123  27.606  1.00  0.00    -0.203 F 
ATOM     66  C   UNL A   1      33.897  35.079  29.115  1.00  0.00     0.198 A 
ATOM     67  C   UNL A   1      33.868  34.379  31.397  1.00  0.00     0.198 A 
ATOM     68  F   UNL A   1      35.442  32.853  32.215  1.00  0.00    -0.203 F 
ATOM     69  F   UNL A   1      33.455  35.882  28.136  1.00  0.00    -0.200 F 
ATOM     70  C   UNL A   1      33.374  35.190  30.388  1.00  0.00     0.200 A 
ATOM     71  F   UNL A   1      33.359  34.481  32.633  1.00  0.00    -0.200 F 
ATOM     72  F   UNL A   1      32.424  36.099  30.650  1.00  0.00    -0.200 F 
ENDBRANCH  48  62
BRANCH  49  73
ATOM     73  C   UNL A   1      45.428  31.022  31.965  1.00  0.00     0.064 A 
ATOM     74  C   UNL A   1      46.447  31.374  31.069  1.00  0.00     0.173 A 
ATOM     75  C   UNL A   1      45.905  30.718  33.276  1.00  0.00     0.173 A 
ATOM     76  F   UNL A   1      46.205  31.527  29.766  1.00  0.00    -0.203 F 
ATOM     77  C   UNL A   1      47.785  31.542  31.475  1.00  0.00     0.198 A 
ATOM     78  C   UNL A   1      47.227  30.907  33.687  1.00  0.00     0.198 A 
ATOM     79  F   UNL A   1      45.104  30.213  34.222  1.00  0.00    -0.203 F 
ATOM     80  F   UNL A   1      48.709  31.906  30.575  1.00  0.00    -0.200 F 
ATOM     81  C   UNL A   1      48.168  31.342  32.788  1.00  0.00     0.200 A 
ATOM     82  F   UNL A   1      47.567  30.669  34.962  1.00  0.00    -0.200 F 
ATOM     83  F   UNL A   1      49.433  31.541  33.177  1.00  0.00    -0.200 F 
ENDBRANCH  49  73
BRANCH  61  84
ATOM     84  C   UNL A   1      39.830  32.855  33.562  1.00  0.00     0.064 A 
ATOM     85  C   UNL A   1      39.338  31.580  33.262  1.00  0.00     0.173 A 
ATOM     86  C   UNL A   1      39.643  33.314  34.877  1.00  0.00     0.173 A 
ATOM     87  F   UNL A   1      39.473  31.084  32.023  1.00  0.00    -0.203 F 
ATOM     88  C   UNL A   1      38.703  30.801  34.231  1.00  0.00     0.198 A 
ATOM     89  C   UNL A   1      39.026  32.533  35.851  1.00  0.00     0.198 A 
ATOM     90  F   UNL A   1      40.056  34.531  35.234  1.00  0.00    -0.203 F 
ATOM     91  F   UNL A   1      38.243  29.584  33.913  1.00  0.00    -0.200 F 
ATOM     92  C   UNL A   1      38.551  31.276  35.526  1.00  0.00     0.200 A 
ATOM     93  F   UNL A   1      38.900  32.996  37.104  1.00  0.00    -0.200 F 
ATOM     94  F   UNL A   1      37.957  30.520  36.460  1.00  0.00    -0.200 F 
ENDBRANCH  61  84
ENDBRANCH  35  36
ENDBRANCH  27  30
ENDBRANCH  25  26
ENDBRANCH  24  25
ENDBRANCH   1  24
TORSDOF 13
ENDMDL
