MODEL 1
REMARK VINA RESULT:     -13.2      0.000      0.000
REMARK SMILES O=C(NCCCNC(=O)[C@H]1CC=CC[C@@H]1C(=O)NC1CCCCC1)c1ccc(-c2c3nc(c(-c4c(F)c(F)c(F)c(F)c4F)c4ccc([nH]4)c(-c4c(F)c(F)c(F)c(F)c4F)c4nc(c(-c5c(F)c(F)c(F)c(F)c5F)c5ccc2[nH]5)C=C4)C=C3)cc1
REMARK SMILES IDX 5 1 4 2 3 3 1 4 2 5 25 7 26 8 87 9 27 10 86 11 28 12 29 13
REMARK SMILES IDX 30 14 80 15 31 16 85 17 79 18 81 19 32 20 84 21 78 22 77 23
REMARK SMILES IDX 33 25 65 26 45 27 64 28 46 29 49 30 63 31 82 32 47 33 48 34
REMARK SMILES IDX 62 36 83 37 50 38 34 39 35 40 43 41 36 42 37 43 41 44 44 45
REMARK SMILES IDX 38 46 39 47 42 48 40 49 66 50 67 51 75 52 68 53 69 54 73 55
REMARK SMILES IDX 76 56 70 57 71 58 74 59 72 60 51 61 52 62 60 63 53 64 54 65
REMARK SMILES IDX 58 66 61 67 55 68 56 69 59 70 57 71 6 72 7 73 8 74 9 76
REMARK SMILES IDX 10 77 11 78 15 79 12 80 14 81 13 82 16 83 17 84 18 85 19 87
REMARK SMILES IDX 20 88 24 89 21 90 23 91 22 92
REMARK H PARENT 3 6 81 24 49 35 7 75 18 86
REMARK Flexibility Score: inf
ROOT
ATOM      1  C   UNL A   1      31.400  32.136  26.750  1.00  0.00     0.042 C 
ENDROOT
BRANCH   1   2
ATOM      2  C   UNL A   1      32.710  32.779  27.160  1.00  0.00     0.118 C 
BRANCH   2   3
ATOM      3  N   UNL A   1      32.504  34.146  27.634  1.00  0.00    -0.352 N 
ATOM      4  O   UNL A   1      32.564  35.822  29.147  1.00  0.00    -0.269 OA
ATOM      5  C   UNL A   1      33.071  34.795  28.702  1.00  0.00     0.251 C 
ATOM      6  H   UNL A   1      31.864  34.680  27.110  1.00  0.00     0.163 HD
BRANCH   5   7
ATOM      7  C   UNL A   1      34.301  34.250  29.304  1.00  0.00     0.039 A 
ATOM      8  C   UNL A   1      34.192  33.344  30.358  1.00  0.00     0.014 A 
ATOM      9  C   UNL A   1      35.557  34.619  28.821  1.00  0.00     0.014 A 
ATOM     10  C   UNL A   1      35.319  32.973  31.060  1.00  0.00     0.010 A 
ATOM     11  C   UNL A   1      36.706  34.102  29.426  1.00  0.00     0.010 A 
ATOM     12  C   UNL A   1      36.592  33.288  30.563  1.00  0.00    -0.014 A 
BRANCH  12  13
ATOM     13  C   UNL A   1      37.753  32.624  31.202  1.00  0.00     0.031 A 
ATOM     14  C   UNL A   1      38.179  32.954  32.598  1.00  0.00     0.074 A 
ATOM     15  C   UNL A   1      38.360  31.642  30.504  1.00  0.00     0.049 A 
ATOM     16  N   UNL A   1      39.138  32.416  33.309  1.00  0.00    -0.248 NA
ATOM     17  C   UNL A   1      37.452  34.029  33.291  1.00  0.00     0.031 C 
ATOM     18  C   UNL A   1      38.023  31.257  29.127  1.00  0.00     0.029 A 
ATOM     19  N   UNL A   1      39.343  30.757  30.857  1.00  0.00    -0.354 N 
ATOM     20  C   UNL A   1      39.142  33.094  34.519  1.00  0.00     0.074 A 
ATOM     21  C   UNL A   1      38.107  34.102  34.443  1.00  0.00     0.031 C 
ATOM     22  C   UNL A   1      38.715  30.164  28.789  1.00  0.00     0.029 A 
ATOM     23  C   UNL A   1      39.624  29.836  29.876  1.00  0.00     0.049 A 
ATOM     24  H   UNL A   1      39.803  30.778  31.727  1.00  0.00     0.167 HD
ATOM     25  C   UNL A   1      39.940  32.881  35.592  1.00  0.00     0.037 A 
ATOM     26  C   UNL A   1      40.539  28.852  29.841  1.00  0.00     0.037 A 
ATOM     27  C   UNL A   1      40.960  31.862  35.650  1.00  0.00     0.049 A 
ATOM     28  C   UNL A   1      41.419  28.663  31.040  1.00  0.00     0.074 A 
ATOM     29  C   UNL A   1      41.822  31.561  36.690  1.00  0.00     0.029 A 
ATOM     30  N   UNL A   1      41.254  30.978  34.620  1.00  0.00    -0.354 N 
ATOM     31  N   UNL A   1      41.407  29.308  32.181  1.00  0.00    -0.248 NA
ATOM     32  C   UNL A   1      42.443  27.619  30.944  1.00  0.00     0.031 C 
ATOM     33  C   UNL A   1      42.666  30.526  36.273  1.00  0.00     0.029 A 
ATOM     34  C   UNL A   1      42.295  30.142  34.995  1.00  0.00     0.049 A 
ATOM     35  H   UNL A   1      40.789  30.948  33.753  1.00  0.00     0.167 HD
ATOM     36  C   UNL A   1      42.420  28.747  32.942  1.00  0.00     0.074 A 
ATOM     37  C   UNL A   1      42.993  27.679  32.147  1.00  0.00     0.031 C 
ATOM     38  C   UNL A   1      42.850  29.091  34.181  1.00  0.00     0.037 A 
BRANCH  25  39
ATOM     39  C   UNL A   1      39.761  33.769  36.790  1.00  0.00     0.064 A 
ATOM     40  C   UNL A   1      40.361  35.035  36.867  1.00  0.00     0.173 A 
ATOM     41  C   UNL A   1      38.921  33.378  37.845  1.00  0.00     0.173 A 
ATOM     42  F   UNL A   1      41.184  35.452  35.893  1.00  0.00    -0.203 F 
ATOM     43  C   UNL A   1      40.136  35.870  37.958  1.00  0.00     0.198 A 
ATOM     44  C   UNL A   1      38.677  34.227  38.922  1.00  0.00     0.198 A 
ATOM     45  F   UNL A   1      38.319  32.180  37.822  1.00  0.00    -0.203 F 
ATOM     46  F   UNL A   1      40.745  37.062  38.024  1.00  0.00    -0.200 F 
ATOM     47  C   UNL A   1      39.286  35.471  38.979  1.00  0.00     0.200 A 
ATOM     48  F   UNL A   1      37.845  33.845  39.901  1.00  0.00    -0.200 F 
ATOM     49  F   UNL A   1      39.058  36.284  40.020  1.00  0.00    -0.200 F 
ENDBRANCH  25  39
BRANCH  26  50
ATOM     50  C   UNL A   1      40.691  28.016  28.621  1.00  0.00     0.064 A 
ATOM     51  C   UNL A   1      41.501  28.425  27.554  1.00  0.00     0.173 A 
ATOM     52  C   UNL A   1      40.020  26.789  28.497  1.00  0.00     0.173 A 
ATOM     53  F   UNL A   1      42.154  29.595  27.618  1.00  0.00    -0.203 F 
ATOM     54  C   UNL A   1      41.611  27.654  26.399  1.00  0.00     0.198 A 
ATOM     55  C   UNL A   1      40.164  25.999  27.359  1.00  0.00     0.198 A 
ATOM     56  F   UNL A   1      39.239  26.345  29.492  1.00  0.00    -0.203 F 
ATOM     57  F   UNL A   1      42.346  28.096  25.369  1.00  0.00    -0.200 F 
ATOM     58  C   UNL A   1      40.948  26.439  26.305  1.00  0.00     0.200 A 
ATOM     59  F   UNL A   1      39.540  24.815  27.286  1.00  0.00    -0.200 F 
ATOM     60  F   UNL A   1      41.057  25.696  25.195  1.00  0.00    -0.200 F 
ENDBRANCH  26  50
BRANCH  38  61
ATOM     61  C   UNL A   1      43.980  28.283  34.743  1.00  0.00     0.064 A 
ATOM     62  C   UNL A   1      45.318  28.664  34.561  1.00  0.00     0.173 A 
ATOM     63  C   UNL A   1      43.723  27.106  35.463  1.00  0.00     0.173 A 
ATOM     64  F   UNL A   1      45.615  29.770  33.862  1.00  0.00    -0.203 F 
ATOM     65  C   UNL A   1      46.358  27.875  35.041  1.00  0.00     0.198 A 
ATOM     66  C   UNL A   1      44.765  26.339  35.974  1.00  0.00     0.198 A 
ATOM     67  F   UNL A   1      42.461  26.701  35.668  1.00  0.00    -0.203 F 
ATOM     68  F   UNL A   1      47.629  28.221  34.793  1.00  0.00    -0.200 F 
ATOM     69  C   UNL A   1      46.081  26.717  35.752  1.00  0.00     0.200 A 
ATOM     70  F   UNL A   1      44.495  25.226  36.671  1.00  0.00    -0.200 F 
ATOM     71  F   UNL A   1      47.084  25.955  36.210  1.00  0.00    -0.200 F 
ENDBRANCH  38  61
ENDBRANCH  12  13
ENDBRANCH   5   7
ENDBRANCH   2   3
ENDBRANCH   1   2
BRANCH   1  72
ATOM     72  C   UNL A   1      31.647  30.787  26.102  1.00  0.00     0.117 C 
BRANCH  72  73
ATOM     73  N   UNL A   1      31.746  29.752  27.100  1.00  0.00    -0.356 N 
ATOM     74  C   UNL A   1      31.681  28.409  27.006  1.00  0.00     0.224 C 
ATOM     75  H   UNL A   1      31.887  30.086  28.015  1.00  0.00     0.163 HD
ATOM     76  O   UNL A   1      31.622  27.815  28.090  1.00  0.00    -0.275 OA
BRANCH  74  77
ATOM     77  C   UNL A   1      31.773  27.607  25.704  1.00  0.00     0.095 C 
ATOM     78  C   UNL A   1      33.139  27.365  25.049  1.00  0.00     0.041 C 
ATOM     79  C   UNL A   1      30.903  26.342  25.784  1.00  0.00     0.095 C 
ATOM     80  C   UNL A   1      33.717  25.994  25.255  1.00  0.00    -0.030 C 
ATOM     81  C   UNL A   1      31.688  25.205  26.477  1.00  0.00     0.041 C 
ATOM     82  C   UNL A   1      33.075  25.024  25.923  1.00  0.00    -0.030 C 
BRANCH  79  83
ATOM     83  C   UNL A   1      30.362  25.857  24.427  1.00  0.00     0.224 C 
ATOM     84  O   UNL A   1      30.478  24.673  24.084  1.00  0.00    -0.275 OA
ATOM     85  N   UNL A   1      29.656  26.623  23.558  1.00  0.00    -0.353 N 
ATOM     86  H   UNL A   1      29.241  26.075  22.852  1.00  0.00     0.163 HD
BRANCH  85  87
ATOM     87  C   UNL A   1      29.340  28.047  23.384  1.00  0.00     0.082 C 
ATOM     88  C   UNL A   1      30.260  28.794  22.412  1.00  0.00     0.025 C 
ATOM     89  C   UNL A   1      27.824  28.249  23.220  1.00  0.00     0.025 C 
ATOM     90  C   UNL A   1      29.725  30.131  21.905  1.00  0.00     0.002 C 
ATOM     91  C   UNL A   1      27.445  29.664  22.812  1.00  0.00     0.002 C 
ATOM     92  C   UNL A   1      28.235  30.106  21.591  1.00  0.00     0.000 C 
ENDBRANCH  85  87
ENDBRANCH  79  83
ENDBRANCH  74  77
ENDBRANCH  72  73
ENDBRANCH   1  72
TORSDOF 12
ENDMDL
MODEL 2
REMARK VINA RESULT:     -13.2      0.129      1.146
REMARK SMILES O=C(NCCCNC(=O)[C@H]1CC=CC[C@@H]1C(=O)NC1CCCCC1)c1ccc(-c2c3nc(c(-c4c(F)c(F)c(F)c(F)c4F)c4ccc([nH]4)c(-c4c(F)c(F)c(F)c(F)c4F)c4nc(c(-c5c(F)c(F)c(F)c(F)c5F)c5ccc2[nH]5)C=C4)C=C3)cc1
REMARK SMILES IDX 5 1 4 2 3 3 1 4 2 5 25 7 26 8 87 9 27 10 86 11 28 12 29 13
REMARK SMILES IDX 30 14 80 15 31 16 85 17 79 18 81 19 32 20 84 21 78 22 77 23
REMARK SMILES IDX 33 25 65 26 45 27 64 28 46 29 49 30 63 31 82 32 47 33 48 34
REMARK SMILES IDX 62 36 83 37 50 38 34 39 35 40 43 41 36 42 37 43 41 44 44 45
REMARK SMILES IDX 38 46 39 47 42 48 40 49 66 50 67 51 75 52 68 53 69 54 73 55
REMARK SMILES IDX 76 56 70 57 71 58 74 59 72 60 51 61 52 62 60 63 53 64 54 65
REMARK SMILES IDX 58 66 61 67 55 68 56 69 59 70 57 71 6 72 7 73 8 74 9 76
REMARK SMILES IDX 10 77 11 78 15 79 12 80 14 81 13 82 16 83 17 84 18 85 19 87
REMARK SMILES IDX 20 88 24 89 21 90 23 91 22 92
REMARK H PARENT 3 6 81 24 49 35 7 75 18 86
REMARK Flexibility Score: inf
ROOT
ATOM      1  C   UNL A   1      31.393  32.080  26.600  1.00  0.00     0.042 C 
ENDROOT
BRANCH   1   2
ATOM      2  C   UNL A   1      32.657  32.631  27.228  1.00  0.00     0.118 C 
BRANCH   2   3
ATOM      3  N   UNL A   1      32.481  34.022  27.641  1.00  0.00    -0.352 N 
ATOM      4  O   UNL A   1      32.598  35.767  29.070  1.00  0.00    -0.269 OA
ATOM      5  C   UNL A   1      33.080  34.713  28.664  1.00  0.00     0.251 C 
ATOM      6  H   UNL A   1      31.837  34.540  27.106  1.00  0.00     0.163 HD
BRANCH   5   7
ATOM      7  C   UNL A   1      34.316  34.179  29.265  1.00  0.00     0.039 A 
ATOM      8  C   UNL A   1      34.217  33.246  30.295  1.00  0.00     0.014 A 
ATOM      9  C   UNL A   1      35.569  34.585  28.802  1.00  0.00     0.014 A 
ATOM     10  C   UNL A   1      35.345  32.881  30.999  1.00  0.00     0.010 A 
ATOM     11  C   UNL A   1      36.723  34.078  29.405  1.00  0.00     0.010 A 
ATOM     12  C   UNL A   1      36.615  33.234  30.522  1.00  0.00    -0.014 A 
BRANCH  12  13
ATOM     13  C   UNL A   1      37.784  32.579  31.155  1.00  0.00     0.031 A 
ATOM     14  C   UNL A   1      38.216  32.915  32.548  1.00  0.00     0.074 A 
ATOM     15  C   UNL A   1      38.393  31.599  30.456  1.00  0.00     0.049 A 
ATOM     16  N   UNL A   1      39.182  32.384  33.255  1.00  0.00    -0.248 NA
ATOM     17  C   UNL A   1      37.487  33.987  33.242  1.00  0.00     0.031 C 
ATOM     18  C   UNL A   1      38.051  31.209  29.082  1.00  0.00     0.029 A 
ATOM     19  N   UNL A   1      39.384  30.721  30.805  1.00  0.00    -0.354 N 
ATOM     20  C   UNL A   1      39.190  33.065  34.463  1.00  0.00     0.074 A 
ATOM     21  C   UNL A   1      38.148  34.067  34.390  1.00  0.00     0.031 C 
ATOM     22  C   UNL A   1      38.748  30.119  28.742  1.00  0.00     0.029 A 
ATOM     23  C   UNL A   1      39.665  29.800  29.825  1.00  0.00     0.049 A 
ATOM     24  H   UNL A   1      39.849  30.746  31.673  1.00  0.00     0.167 HD
ATOM     25  C   UNL A   1      39.995  32.860  35.532  1.00  0.00     0.037 A 
ATOM     26  C   UNL A   1      40.586  28.821  29.787  1.00  0.00     0.037 A 
ATOM     27  C   UNL A   1      41.021  31.848  35.586  1.00  0.00     0.049 A 
ATOM     28  C   UNL A   1      41.474  28.640  30.981  1.00  0.00     0.074 A 
ATOM     29  C   UNL A   1      41.892  31.554  36.622  1.00  0.00     0.029 A 
ATOM     30  N   UNL A   1      41.315  30.963  34.556  1.00  0.00    -0.354 N 
ATOM     31  N   UNL A   1      41.465  29.288  32.121  1.00  0.00    -0.248 NA
ATOM     32  C   UNL A   1      42.504  27.603  30.881  1.00  0.00     0.031 C 
ATOM     33  C   UNL A   1      42.739  30.524  36.202  1.00  0.00     0.029 A 
ATOM     34  C   UNL A   1      42.364  30.134  34.927  1.00  0.00     0.049 A 
ATOM     35  H   UNL A   1      40.845  30.928  33.692  1.00  0.00     0.167 HD
ATOM     36  C   UNL A   1      42.485  28.735  32.877  1.00  0.00     0.074 A 
ATOM     37  C   UNL A   1      43.060  27.668  32.081  1.00  0.00     0.031 C 
ATOM     38  C   UNL A   1      42.920  29.085  34.112  1.00  0.00     0.037 A 
BRANCH  25  39
ATOM     39  C   UNL A   1      39.817  33.749  36.729  1.00  0.00     0.064 A 
ATOM     40  C   UNL A   1      40.438  35.005  36.814  1.00  0.00     0.173 A 
ATOM     41  C   UNL A   1      38.959  33.372  37.773  1.00  0.00     0.173 A 
ATOM     42  F   UNL A   1      41.279  35.408  35.850  1.00  0.00    -0.203 F 
ATOM     43  C   UNL A   1      40.215  35.843  37.904  1.00  0.00     0.198 A 
ATOM     44  C   UNL A   1      38.717  34.224  38.848  1.00  0.00     0.198 A 
ATOM     45  F   UNL A   1      38.337  32.184  37.742  1.00  0.00    -0.203 F 
ATOM     46  F   UNL A   1      40.844  37.024  37.979  1.00  0.00    -0.200 F 
ATOM     47  C   UNL A   1      39.346  35.457  38.915  1.00  0.00     0.200 A 
ATOM     48  F   UNL A   1      37.867  33.855  39.817  1.00  0.00    -0.200 F 
ATOM     49  F   UNL A   1      39.120  36.273  39.954  1.00  0.00    -0.200 F 
ENDBRANCH  25  39
BRANCH  26  50
ATOM     50  C   UNL A   1      40.736  27.983  28.568  1.00  0.00     0.064 A 
ATOM     51  C   UNL A   1      40.090  26.746  28.449  1.00  0.00     0.173 A 
ATOM     52  C   UNL A   1      41.540  28.404  27.496  1.00  0.00     0.173 A 
ATOM     53  F   UNL A   1      39.321  26.292  29.450  1.00  0.00    -0.203 F 
ATOM     54  C   UNL A   1      40.264  25.950  27.319  1.00  0.00     0.198 A 
ATOM     55  C   UNL A   1      41.680  27.626  26.350  1.00  0.00     0.198 A 
ATOM     56  F   UNL A   1      42.174  29.584  27.553  1.00  0.00    -0.203 F 
ATOM     57  F   UNL A   1      39.682  24.745  27.256  1.00  0.00    -0.200 F 
ATOM     58  C   UNL A   1      41.054  26.393  26.268  1.00  0.00     0.200 A 
ATOM     59  F   UNL A   1      42.424  28.072  25.328  1.00  0.00    -0.200 F 
ATOM     60  F   UNL A   1      41.218  25.628  25.180  1.00  0.00    -0.200 F 
ENDBRANCH  26  50
BRANCH  38  61
ATOM     61  C   UNL A   1      44.059  28.284  34.670  1.00  0.00     0.064 A 
ATOM     62  C   UNL A   1      45.393  28.676  34.482  1.00  0.00     0.173 A 
ATOM     63  C   UNL A   1      43.813  27.107  35.392  1.00  0.00     0.173 A 
ATOM     64  F   UNL A   1      45.679  29.783  33.780  1.00  0.00    -0.203 F 
ATOM     65  C   UNL A   1      46.441  27.894  34.958  1.00  0.00     0.198 A 
ATOM     66  C   UNL A   1      44.863  26.348  35.898  1.00  0.00     0.198 A 
ATOM     67  F   UNL A   1      42.555  26.693  35.603  1.00  0.00    -0.203 F 
ATOM     68  F   UNL A   1      47.708  28.249  34.704  1.00  0.00    -0.200 F 
ATOM     69  C   UNL A   1      46.175  26.734  35.670  1.00  0.00     0.200 A 
ATOM     70  F   UNL A   1      44.604  25.233  36.598  1.00  0.00    -0.200 F 
ATOM     71  F   UNL A   1      47.185  25.980  36.124  1.00  0.00    -0.200 F 
ENDBRANCH  38  61
ENDBRANCH  12  13
ENDBRANCH   5   7
ENDBRANCH   2   3
ENDBRANCH   1   2
BRANCH   1  72
ATOM     72  C   UNL A   1      31.646  30.709  26.004  1.00  0.00     0.117 C 
BRANCH  72  73
ATOM     73  N   UNL A   1      31.783  29.718  27.041  1.00  0.00    -0.356 N 
ATOM     74  C   UNL A   1      31.778  28.370  26.997  1.00  0.00     0.224 C 
ATOM     75  H   UNL A   1      31.900  30.092  27.944  1.00  0.00     0.163 HD
ATOM     76  O   UNL A   1      31.736  27.816  28.103  1.00  0.00    -0.275 OA
BRANCH  74  77
ATOM     77  C   UNL A   1      31.918  27.525  25.727  1.00  0.00     0.095 C 
ATOM     78  C   UNL A   1      33.309  27.101  25.240  1.00  0.00     0.041 C 
ATOM     79  C   UNL A   1      30.894  26.378  25.725  1.00  0.00     0.095 C 
ATOM     80  C   UNL A   1      33.686  25.676  25.533  1.00  0.00    -0.030 C 
ATOM     81  C   UNL A   1      31.449  25.175  26.522  1.00  0.00     0.041 C 
ATOM     82  C   UNL A   1      32.857  24.812  26.136  1.00  0.00    -0.030 C 
BRANCH  79  83
ATOM     83  C   UNL A   1      30.456  25.922  24.322  1.00  0.00     0.224 C 
ATOM     84  O   UNL A   1      30.643  24.757  23.946  1.00  0.00    -0.275 OA
ATOM     85  N   UNL A   1      29.770  26.690  23.439  1.00  0.00    -0.353 N 
ATOM     86  H   UNL A   1      29.422  26.153  22.691  1.00  0.00     0.163 HD
BRANCH  85  87
ATOM     87  C   UNL A   1      29.404  28.106  23.295  1.00  0.00     0.082 C 
ATOM     88  C   UNL A   1      30.284  28.900  22.324  1.00  0.00     0.025 C 
ATOM     89  C   UNL A   1      27.880  28.259  23.157  1.00  0.00     0.025 C 
ATOM     90  C   UNL A   1      29.696  30.227  21.850  1.00  0.00     0.002 C 
ATOM     91  C   UNL A   1      27.447  29.668  22.781  1.00  0.00     0.002 C 
ATOM     92  C   UNL A   1      28.204  30.158  21.557  1.00  0.00     0.000 C 
ENDBRANCH  85  87
ENDBRANCH  79  83
ENDBRANCH  74  77
ENDBRANCH  72  73
ENDBRANCH   1  72
TORSDOF 12
ENDMDL
MODEL 3
REMARK VINA RESULT:     -13.0      0.390      7.515
REMARK SMILES O=C(NCCCNC(=O)[C@H]1CC=CC[C@@H]1C(=O)NC1CCCCC1)c1ccc(-c2c3nc(c(-c4c(F)c(F)c(F)c(F)c4F)c4ccc([nH]4)c(-c4c(F)c(F)c(F)c(F)c4F)c4nc(c(-c5c(F)c(F)c(F)c(F)c5F)c5ccc2[nH]5)C=C4)C=C3)cc1
REMARK SMILES IDX 5 1 4 2 3 3 1 4 2 5 25 7 26 8 87 9 27 10 86 11 28 12 29 13
REMARK SMILES IDX 30 14 80 15 31 16 85 17 79 18 81 19 32 20 84 21 78 22 77 23
REMARK SMILES IDX 33 25 65 26 45 27 64 28 46 29 49 30 63 31 82 32 47 33 48 34
REMARK SMILES IDX 62 36 83 37 50 38 34 39 35 40 43 41 36 42 37 43 41 44 44 45
REMARK SMILES IDX 38 46 39 47 42 48 40 49 66 50 67 51 75 52 68 53 69 54 73 55
REMARK SMILES IDX 76 56 70 57 71 58 74 59 72 60 51 61 52 62 60 63 53 64 54 65
REMARK SMILES IDX 58 66 61 67 55 68 56 69 59 70 57 71 6 72 7 73 8 74 9 76
REMARK SMILES IDX 10 77 11 78 15 79 12 80 14 81 13 82 16 83 17 84 18 85 19 87
REMARK SMILES IDX 20 88 24 89 21 90 23 91 22 92
REMARK H PARENT 3 6 81 24 49 35 7 75 18 86
REMARK Flexibility Score: inf
ROOT
ATOM      1  C   UNL A   1      31.397  32.156  26.738  1.00  0.00     0.042 C 
ENDROOT
BRANCH   1   2
ATOM      2  C   UNL A   1      32.736  32.786  27.066  1.00  0.00     0.118 C 
BRANCH   2   3
ATOM      3  N   UNL A   1      32.571  34.148  27.571  1.00  0.00    -0.352 N 
ATOM      4  O   UNL A   1      32.642  35.778  29.132  1.00  0.00    -0.269 OA
ATOM      5  C   UNL A   1      33.121  34.742  28.679  1.00  0.00     0.251 C 
ATOM      6  H   UNL A   1      31.978  34.725  27.036  1.00  0.00     0.163 HD
BRANCH   5   7
ATOM      7  C   UNL A   1      34.298  34.125  29.315  1.00  0.00     0.039 A 
ATOM      8  C   UNL A   1      34.105  33.159  30.301  1.00  0.00     0.014 A 
ATOM      9  C   UNL A   1      35.591  34.487  28.929  1.00  0.00     0.014 A 
ATOM     10  C   UNL A   1      35.179  32.713  31.042  1.00  0.00     0.010 A 
ATOM     11  C   UNL A   1      36.688  33.901  29.565  1.00  0.00     0.010 A 
ATOM     12  C   UNL A   1      36.487  33.021  30.640  1.00  0.00    -0.014 A 
BRANCH  12  13
ATOM     13  C   UNL A   1      37.591  32.286  31.301  1.00  0.00     0.031 A 
ATOM     14  C   UNL A   1      38.366  31.222  30.589  1.00  0.00     0.074 A 
ATOM     15  C   UNL A   1      37.929  32.676  32.547  1.00  0.00     0.049 A 
ATOM     16  N   UNL A   1      39.394  30.534  31.018  1.00  0.00    -0.248 NA
ATOM     17  C   UNL A   1      37.936  30.868  29.228  1.00  0.00     0.031 C 
ATOM     18  C   UNL A   1      37.222  33.699  33.329  1.00  0.00     0.029 A 
ATOM     19  N   UNL A   1      38.970  32.311  33.358  1.00  0.00    -0.354 N 
ATOM     20  C   UNL A   1      39.723  29.659  29.993  1.00  0.00     0.074 A 
ATOM     21  C   UNL A   1      38.770  29.881  28.926  1.00  0.00     0.031 C 
ATOM     22  C   UNL A   1      37.898  33.942  34.458  1.00  0.00     0.029 A 
ATOM     23  C   UNL A   1      39.020  33.019  34.534  1.00  0.00     0.049 A 
ATOM     24  H   UNL A   1      39.619  31.609  33.121  1.00  0.00     0.167 HD
ATOM     25  C   UNL A   1      40.733  28.759  29.956  1.00  0.00     0.037 A 
ATOM     26  C   UNL A   1      39.859  32.917  35.579  1.00  0.00     0.037 A 
ATOM     27  C   UNL A   1      41.677  28.561  31.029  1.00  0.00     0.049 A 
ATOM     28  C   UNL A   1      40.951  31.892  35.509  1.00  0.00     0.074 A 
ATOM     29  C   UNL A   1      42.741  27.677  31.092  1.00  0.00     0.029 A 
ATOM     30  N   UNL A   1      41.669  29.261  32.229  1.00  0.00    -0.354 N 
ATOM     31  N   UNL A   1      41.254  31.075  34.530  1.00  0.00    -0.248 NA
ATOM     32  C   UNL A   1      41.810  31.769  36.690  1.00  0.00     0.031 C 
ATOM     33  C   UNL A   1      43.347  27.810  32.345  1.00  0.00     0.029 A 
ATOM     34  C   UNL A   1      42.699  28.816  33.044  1.00  0.00     0.049 A 
ATOM     35  H   UNL A   1      41.028  29.970  32.464  1.00  0.00     0.167 HD
ATOM     36  C   UNL A   1      42.341  30.341  34.973  1.00  0.00     0.074 A 
ATOM     37  C   UNL A   1      42.671  30.844  36.293  1.00  0.00     0.031 C 
ATOM     38  C   UNL A   1      43.001  29.331  34.355  1.00  0.00     0.037 A 
BRANCH  25  39
ATOM     39  C   UNL A   1      40.871  27.905  28.728  1.00  0.00     0.064 A 
ATOM     40  C   UNL A   1      40.148  26.713  28.573  1.00  0.00     0.173 A 
ATOM     41  C   UNL A   1      41.683  28.321  27.661  1.00  0.00     0.173 A 
ATOM     42  F   UNL A   1      39.369  26.262  29.568  1.00  0.00    -0.203 F 
ATOM     43  C   UNL A   1      40.243  25.964  27.403  1.00  0.00     0.198 A 
ATOM     44  C   UNL A   1      41.754  27.584  26.482  1.00  0.00     0.198 A 
ATOM     45  F   UNL A   1      42.393  29.455  27.754  1.00  0.00    -0.203 F 
ATOM     46  F   UNL A   1      39.567  24.811  27.290  1.00  0.00    -0.200 F 
ATOM     47  C   UNL A   1      41.036  26.405  26.354  1.00  0.00     0.200 A 
ATOM     48  F   UNL A   1      42.511  28.019  25.465  1.00  0.00    -0.200 F 
ATOM     49  F   UNL A   1      41.111  25.691  25.222  1.00  0.00    -0.200 F 
ENDBRANCH  25  39
BRANCH  26  50
ATOM     50  C   UNL A   1      39.664  33.770  36.781  1.00  0.00     0.064 A 
ATOM     51  C   UNL A   1      38.880  33.342  37.859  1.00  0.00     0.173 A 
ATOM     52  C   UNL A   1      40.257  35.040  36.870  1.00  0.00     0.173 A 
ATOM     53  F   UNL A   1      38.280  32.142  37.818  1.00  0.00    -0.203 F 
ATOM     54  C   UNL A   1      38.672  34.161  38.967  1.00  0.00     0.198 A 
ATOM     55  C   UNL A   1      40.083  35.840  37.995  1.00  0.00     0.198 A 
ATOM     56  F   UNL A   1      41.026  35.495  35.871  1.00  0.00    -0.203 F 
ATOM     57  F   UNL A   1      37.869  33.752  39.958  1.00  0.00    -0.200 F 
ATOM     58  C   UNL A   1      39.279  35.406  39.037  1.00  0.00     0.200 A 
ATOM     59  F   UNL A   1      40.693  37.032  38.068  1.00  0.00    -0.200 F 
ATOM     60  F   UNL A   1      39.081  36.192  40.104  1.00  0.00    -0.200 F 
ENDBRANCH  26  50
BRANCH  38  61
ATOM     61  C   UNL A   1      44.153  28.729  35.103  1.00  0.00     0.064 A 
ATOM     62  C   UNL A   1      45.455  29.239  34.981  1.00  0.00     0.173 A 
ATOM     63  C   UNL A   1      43.955  27.624  35.944  1.00  0.00     0.173 A 
ATOM     64  F   UNL A   1      45.698  30.282  34.172  1.00  0.00    -0.203 F 
ATOM     65  C   UNL A   1      46.522  28.637  35.638  1.00  0.00     0.198 A 
ATOM     66  C   UNL A   1      45.019  27.047  36.629  1.00  0.00     0.198 A 
ATOM     67  F   UNL A   1      42.728  27.103  36.099  1.00  0.00    -0.203 F 
ATOM     68  F   UNL A   1      47.767  29.095  35.450  1.00  0.00    -0.200 F 
ATOM     69  C   UNL A   1      46.303  27.545  36.466  1.00  0.00     0.200 A 
ATOM     70  F   UNL A   1      44.804  26.000  37.438  1.00  0.00    -0.200 F 
ATOM     71  F   UNL A   1      47.333  26.963  37.095  1.00  0.00    -0.200 F 
ENDBRANCH  38  61
ENDBRANCH  12  13
ENDBRANCH   5   7
ENDBRANCH   2   3
ENDBRANCH   1   2
BRANCH   1  72
ATOM     72  C   UNL A   1      31.590  30.795  26.097  1.00  0.00     0.117 C 
BRANCH  72  73
ATOM     73  N   UNL A   1      31.712  29.770  27.103  1.00  0.00    -0.356 N 
ATOM     74  C   UNL A   1      31.724  28.425  27.013  1.00  0.00     0.224 C 
ATOM     75  H   UNL A   1      31.801  30.114  28.021  1.00  0.00     0.163 HD
ATOM     76  O   UNL A   1      31.660  27.832  28.097  1.00  0.00    -0.275 OA
BRANCH  74  77
ATOM     77  C   UNL A   1      31.906  27.625  25.718  1.00  0.00     0.095 C 
ATOM     78  C   UNL A   1      33.316  27.334  25.191  1.00  0.00     0.041 C 
ATOM     79  C   UNL A   1      30.983  26.395  25.708  1.00  0.00     0.095 C 
ATOM     80  C   UNL A   1      33.819  25.940  25.439  1.00  0.00    -0.030 C 
ATOM     81  C   UNL A   1      31.657  25.225  26.461  1.00  0.00     0.041 C 
ATOM     82  C   UNL A   1      33.081  24.993  26.036  1.00  0.00    -0.030 C 
BRANCH  79  83
ATOM     83  C   UNL A   1      30.553  25.938  24.303  1.00  0.00     0.224 C 
ATOM     84  O   UNL A   1      30.765  24.780  23.919  1.00  0.00    -0.275 OA
ATOM     85  N   UNL A   1      29.847  26.695  23.425  1.00  0.00    -0.353 N 
ATOM     86  H   UNL A   1      29.510  26.155  22.675  1.00  0.00     0.163 HD
BRANCH  85  87
ATOM     87  C   UNL A   1      29.449  28.103  23.291  1.00  0.00     0.082 C 
ATOM     88  C   UNL A   1      30.280  28.912  22.288  1.00  0.00     0.025 C 
ATOM     89  C   UNL A   1      27.919  28.226  23.205  1.00  0.00     0.025 C 
ATOM     90  C   UNL A   1      29.650  30.226  21.831  1.00  0.00     0.002 C 
ATOM     91  C   UNL A   1      27.446  29.625  22.840  1.00  0.00     0.002 C 
ATOM     92  C   UNL A   1      28.150  30.126  21.589  1.00  0.00     0.000 C 
ENDBRANCH  85  87
ENDBRANCH  79  83
ENDBRANCH  74  77
ENDBRANCH  72  73
ENDBRANCH   1  72
TORSDOF 12
ENDMDL
