MODEL 1
REMARK VINA RESULT:     -11.3      0.000      0.000
REMARK SMILES Cc1ccncc1[C@H](F)C(=O)NCCCNC(=O)c1ccc(-c2c3nc(c(-c4c(F)c(F)c(F)c(F)c4F)c4ccc([nH]4)c(-c4c(F)c(F)c(F)c(F)c4F)c4nc(c(-c5c(F)c(F)c(F)c(F)c5F)c5ccc2[nH]5)C=C4)C=C3)cc1
REMARK SMILES IDX 14 1 13 2 12 3 10 4 11 5 8 7 9 8 7 9 1 10 2 11 3 12 4 13
REMARK SMILES IDX 6 14 5 15 15 16 16 17 17 18 18 20 19 21 20 22 81 23 21 24
REMARK SMILES IDX 80 25 22 26 23 27 24 28 74 29 25 30 79 31 73 32 75 33 26 34
REMARK SMILES IDX 78 35 72 36 71 37 27 39 59 40 39 41 58 42 40 43 43 44 57 45
REMARK SMILES IDX 76 46 41 47 42 48 56 50 77 51 44 52 28 53 29 54 37 55 30 56
REMARK SMILES IDX 31 57 35 58 38 59 32 60 33 61 36 62 34 63 60 64 61 65 69 66
REMARK SMILES IDX 62 67 63 68 67 69 70 70 64 71 65 72 68 73 66 74 45 75 46 76
REMARK SMILES IDX 54 77 47 78 48 79 52 80 55 81 49 82 50 83 53 84 51 85
REMARK H PARENT 12 6 16 19 75 38 43 49
REMARK Flexibility Score: inf
ROOT
ATOM      1  C   UNL A   1      46.037  25.567  39.677  1.00  0.00     0.042 C 
ENDROOT
BRANCH   1   2
ATOM      2  C   UNL A   1      45.064  24.571  39.073  1.00  0.00     0.117 C 
BRANCH   2   3
ATOM      3  N   UNL A   1      44.876  23.394  39.903  1.00  0.00    -0.353 N 
ATOM      4  C   UNL A   1      45.620  22.242  39.910  1.00  0.00     0.259 C 
ATOM      5  O   UNL A   1      45.357  21.378  40.749  1.00  0.00    -0.271 OA
ATOM      6  H   UNL A   1      44.124  23.425  40.536  1.00  0.00     0.163 HD
BRANCH   4   7
ATOM      7  C   UNL A   1      46.774  22.077  38.903  1.00  0.00     0.287 C 
ATOM      8  F   UNL A   1      47.859  21.574  39.571  1.00  0.00    -0.232 F 
BRANCH   7   9
ATOM      9  C   UNL A   1      46.365  21.263  37.684  1.00  0.00     0.017 A 
ATOM     10  C   UNL A   1      46.797  18.955  38.752  1.00  0.00     0.045 C 
ATOM     11  C   UNL A   1      46.343  19.854  37.634  1.00  0.00    -0.041 A 
ATOM     12  C   UNL A   1      45.792  19.236  36.502  1.00  0.00     0.024 A 
ATOM     13  C   UNL A   1      45.340  20.016  35.453  1.00  0.00     0.111 A 
ATOM     14  C   UNL A   1      45.928  21.946  36.543  1.00  0.00     0.118 A 
ATOM     15  N   UNL A   1      45.412  21.359  35.442  1.00  0.00    -0.264 NA
ENDBRANCH   7   9
ENDBRANCH   4   7
ENDBRANCH   2   3
ENDBRANCH   1   2
BRANCH   1  16
ATOM     16  C   UNL A   1      46.722  26.454  38.652  1.00  0.00     0.118 C 
BRANCH  16  17
ATOM     17  N   UNL A   1      47.570  25.709  37.730  1.00  0.00    -0.352 N 
ATOM     18  C   UNL A   1      47.404  25.450  36.395  1.00  0.00     0.251 C 
ATOM     19  H   UNL A   1      48.388  25.334  38.129  1.00  0.00     0.163 HD
ATOM     20  O   UNL A   1      48.165  24.663  35.829  1.00  0.00    -0.269 OA
BRANCH  18  21
ATOM     21  C   UNL A   1      46.312  26.088  35.633  1.00  0.00     0.039 A 
ATOM     22  C   UNL A   1      45.102  25.403  35.485  1.00  0.00     0.014 A 
ATOM     23  C   UNL A   1      46.478  27.345  35.044  1.00  0.00     0.014 A 
ATOM     24  C   UNL A   1      44.049  25.999  34.788  1.00  0.00     0.010 A 
ATOM     25  C   UNL A   1      45.398  27.978  34.443  1.00  0.00     0.010 A 
ATOM     26  C   UNL A   1      44.180  27.302  34.283  1.00  0.00    -0.014 A 
BRANCH  26  27
ATOM     27  C   UNL A   1      43.078  27.955  33.534  1.00  0.00     0.031 A 
ATOM     28  C   UNL A   1      42.895  27.665  32.069  1.00  0.00     0.074 A 
ATOM     29  C   UNL A   1      42.282  28.847  34.151  1.00  0.00     0.049 A 
ATOM     30  N   UNL A   1      42.039  28.177  31.221  1.00  0.00    -0.248 NA
ATOM     31  C   UNL A   1      43.824  26.694  31.469  1.00  0.00     0.031 C 
ATOM     32  C   UNL A   1      42.396  29.257  35.551  1.00  0.00     0.029 A 
ATOM     33  N   UNL A   1      41.224  29.580  33.675  1.00  0.00    -0.354 N 
ATOM     34  C   UNL A   1      42.339  27.605  29.993  1.00  0.00     0.074 A 
ATOM     35  C   UNL A   1      43.500  26.765  30.188  1.00  0.00     0.031 C 
ATOM     36  C   UNL A   1      41.434  30.153  35.825  1.00  0.00     0.029 A 
ATOM     37  C   UNL A   1      40.657  30.403  34.615  1.00  0.00     0.049 A 
ATOM     38  H   UNL A   1      40.904  29.521  32.746  1.00  0.00     0.167 HD
ATOM     39  C   UNL A   1      41.686  27.737  28.813  1.00  0.00     0.037 A 
ATOM     40  C   UNL A   1      39.627  31.263  34.509  1.00  0.00     0.037 A 
ATOM     41  C   UNL A   1      40.518  28.557  28.629  1.00  0.00     0.049 A 
ATOM     42  C   UNL A   1      38.903  31.383  33.196  1.00  0.00     0.074 A 
ATOM     43  C   UNL A   1      39.755  28.731  27.488  1.00  0.00     0.029 A 
ATOM     44  N   UNL A   1      39.943  29.342  29.619  1.00  0.00    -0.354 N 
ATOM     45  N   UNL A   1      39.154  30.789  32.055  1.00  0.00    -0.248 NA
ATOM     46  C   UNL A   1      37.739  32.280  33.163  1.00  0.00     0.031 C 
ATOM     47  C   UNL A   1      38.743  29.654  27.776  1.00  0.00     0.029 A 
ATOM     48  C   UNL A   1      38.840  30.010  29.112  1.00  0.00     0.049 A 
ATOM     49  H   UNL A   1      40.271  29.413  30.545  1.00  0.00     0.167 HD
ATOM     50  C   UNL A   1      38.166  31.213  31.176  1.00  0.00     0.074 A 
ATOM     51  C   UNL A   1      37.303  32.105  31.923  1.00  0.00     0.031 C 
ATOM     52  C   UNL A   1      37.987  30.889  29.872  1.00  0.00     0.037 A 
BRANCH  39  53
ATOM     53  C   UNL A   1      42.227  26.971  27.639  1.00  0.00     0.064 A 
ATOM     54  C   UNL A   1      41.810  25.658  27.362  1.00  0.00     0.173 A 
ATOM     55  C   UNL A   1      43.174  27.549  26.782  1.00  0.00     0.173 A 
ATOM     56  F   UNL A   1      40.915  25.051  28.157  1.00  0.00    -0.203 F 
ATOM     57  C   UNL A   1      42.356  24.940  26.302  1.00  0.00     0.198 A 
ATOM     58  C   UNL A   1      43.691  26.840  25.700  1.00  0.00     0.198 A 
ATOM     59  F   UNL A   1      43.604  28.802  26.994  1.00  0.00    -0.203 F 
ATOM     60  F   UNL A   1      41.994  23.665  26.103  1.00  0.00    -0.200 F 
ATOM     61  C   UNL A   1      43.291  25.532  25.469  1.00  0.00     0.200 A 
ATOM     62  F   UNL A   1      44.585  27.419  24.887  1.00  0.00    -0.200 F 
ATOM     63  F   UNL A   1      43.819  24.839  24.449  1.00  0.00    -0.200 F 
ENDBRANCH  39  53
BRANCH  40  64
ATOM     64  C   UNL A   1      39.198  32.045  35.698  1.00  0.00     0.064 A 
ATOM     65  C   UNL A   1      39.667  33.349  35.911  1.00  0.00     0.173 A 
ATOM     66  C   UNL A   1      38.297  31.515  36.632  1.00  0.00     0.173 A 
ATOM     67  F   UNL A   1      40.545  33.893  35.054  1.00  0.00    -0.203 F 
ATOM     68  C   UNL A   1      39.265  34.086  37.023  1.00  0.00     0.198 A 
ATOM     69  C   UNL A   1      37.873  32.263  37.729  1.00  0.00     0.198 A 
ATOM     70  F   UNL A   1      37.810  30.276  36.467  1.00  0.00    -0.203 F 
ATOM     71  F   UNL A   1      39.761  35.315  37.224  1.00  0.00    -0.200 F 
ATOM     72  C   UNL A   1      38.363  33.546  37.927  1.00  0.00     0.200 A 
ATOM     73  F   UNL A   1      36.988  31.744  38.590  1.00  0.00    -0.200 F 
ATOM     74  F   UNL A   1      37.969  34.258  38.991  1.00  0.00    -0.200 F 
ENDBRANCH  40  64
BRANCH  52  75
ATOM     75  C   UNL A   1      36.786  31.466  29.179  1.00  0.00     0.064 A 
ATOM     76  C   UNL A   1      35.664  30.686  28.862  1.00  0.00     0.173 A 
ATOM     77  C   UNL A   1      36.747  32.833  28.858  1.00  0.00     0.173 A 
ATOM     78  F   UNL A   1      35.658  29.372  29.136  1.00  0.00    -0.203 F 
ATOM     79  C   UNL A   1      34.561  31.244  28.221  1.00  0.00     0.198 A 
ATOM     80  C   UNL A   1      35.629  33.394  28.247  1.00  0.00     0.198 A 
ATOM     81  F   UNL A   1      37.789  33.626  29.146  1.00  0.00    -0.203 F 
ATOM     82  F   UNL A   1      33.524  30.468  27.879  1.00  0.00    -0.200 F 
ATOM     83  C   UNL A   1      34.542  32.598  27.921  1.00  0.00     0.200 A 
ATOM     84  F   UNL A   1      35.606  34.706  27.971  1.00  0.00    -0.200 F 
ATOM     85  F   UNL A   1      33.477  33.134  27.309  1.00  0.00    -0.200 F 
ENDBRANCH  52  75
ENDBRANCH  26  27
ENDBRANCH  18  21
ENDBRANCH  16  17
ENDBRANCH   1  16
TORSDOF 11
ENDMDL
MODEL 2
REMARK VINA RESULT:     -11.2      4.435     13.931
REMARK SMILES Cc1ccncc1[C@H](F)C(=O)NCCCNC(=O)c1ccc(-c2c3nc(c(-c4c(F)c(F)c(F)c(F)c4F)c4ccc([nH]4)c(-c4c(F)c(F)c(F)c(F)c4F)c4nc(c(-c5c(F)c(F)c(F)c(F)c5F)c5ccc2[nH]5)C=C4)C=C3)cc1
REMARK SMILES IDX 14 1 13 2 12 3 10 4 11 5 8 7 9 8 7 9 1 10 2 11 3 12 4 13
REMARK SMILES IDX 6 14 5 15 15 16 16 17 17 18 18 20 19 21 20 22 81 23 21 24
REMARK SMILES IDX 80 25 22 26 23 27 24 28 74 29 25 30 79 31 73 32 75 33 26 34
REMARK SMILES IDX 78 35 72 36 71 37 27 39 59 40 39 41 58 42 40 43 43 44 57 45
REMARK SMILES IDX 76 46 41 47 42 48 56 50 77 51 44 52 28 53 29 54 37 55 30 56
REMARK SMILES IDX 31 57 35 58 38 59 32 60 33 61 36 62 34 63 60 64 61 65 69 66
REMARK SMILES IDX 62 67 63 68 67 69 70 70 64 71 65 72 68 73 66 74 45 75 46 76
REMARK SMILES IDX 54 77 47 78 48 79 52 80 55 81 49 82 50 83 53 84 51 85
REMARK H PARENT 12 6 16 19 75 38 43 49
REMARK Flexibility Score: inf
ROOT
ATOM      1  C   UNL A   1      31.342  32.218  26.692  1.00  0.00     0.042 C 
ENDROOT
BRANCH   1   2
ATOM      2  C   UNL A   1      31.501  30.747  26.352  1.00  0.00     0.117 C 
BRANCH   2   3
ATOM      3  N   UNL A   1      32.758  30.193  26.824  1.00  0.00    -0.353 N 
ATOM      4  C   UNL A   1      33.520  29.217  26.236  1.00  0.00     0.259 C 
ATOM      5  O   UNL A   1      34.606  28.933  26.745  1.00  0.00    -0.271 OA
ATOM      6  H   UNL A   1      33.104  30.562  27.668  1.00  0.00     0.163 HD
BRANCH   4   7
ATOM      7  C   UNL A   1      33.018  28.533  24.949  1.00  0.00     0.287 C 
ATOM      8  F   UNL A   1      34.103  28.044  24.272  1.00  0.00    -0.232 F 
BRANCH   7   9
ATOM      9  C   UNL A   1      31.943  27.494  25.229  1.00  0.00     0.017 A 
ATOM     10  C   UNL A   1      30.296  28.326  23.426  1.00  0.00     0.045 C 
ATOM     11  C   UNL A   1      30.732  27.384  24.516  1.00  0.00    -0.041 A 
ATOM     12  C   UNL A   1      29.904  26.282  24.773  1.00  0.00     0.024 A 
ATOM     13  C   UNL A   1      30.267  25.372  25.750  1.00  0.00     0.111 A 
ATOM     14  C   UNL A   1      32.180  26.543  26.229  1.00  0.00     0.118 A 
ATOM     15  N   UNL A   1      31.380  25.489  26.497  1.00  0.00    -0.264 NA
ENDBRANCH   7   9
ENDBRANCH   4   7
ENDBRANCH   2   3
ENDBRANCH   1   2
BRANCH   1  16
ATOM     16  C   UNL A   1      32.658  32.936  26.936  1.00  0.00     0.118 C 
BRANCH  16  17
ATOM     17  N   UNL A   1      32.493  34.209  27.626  1.00  0.00    -0.352 N 
ATOM     18  C   UNL A   1      33.137  34.702  28.730  1.00  0.00     0.251 C 
ATOM     19  H   UNL A   1      31.814  34.806  27.238  1.00  0.00     0.163 HD
ATOM     20  O   UNL A   1      32.739  35.744  29.252  1.00  0.00    -0.269 OA
BRANCH  18  21
ATOM     21  C   UNL A   1      34.291  33.986  29.312  1.00  0.00     0.039 A 
ATOM     22  C   UNL A   1      35.582  34.392  28.964  1.00  0.00     0.014 A 
ATOM     23  C   UNL A   1      34.109  32.905  30.179  1.00  0.00     0.014 A 
ATOM     24  C   UNL A   1      36.686  33.744  29.522  1.00  0.00     0.010 A 
ATOM     25  C   UNL A   1      35.204  32.331  30.812  1.00  0.00     0.010 A 
ATOM     26  C   UNL A   1      36.506  32.725  30.470  1.00  0.00    -0.014 A 
BRANCH  26  27
ATOM     27  C   UNL A   1      37.663  32.017  31.073  1.00  0.00     0.031 A 
ATOM     28  C   UNL A   1      38.135  32.396  32.451  1.00  0.00     0.074 A 
ATOM     29  C   UNL A   1      38.321  31.081  30.366  1.00  0.00     0.049 A 
ATOM     30  N   UNL A   1      39.162  31.948  33.129  1.00  0.00    -0.248 NA
ATOM     31  C   UNL A   1      37.371  33.445  33.145  1.00  0.00     0.031 C 
ATOM     32  C   UNL A   1      37.998  30.669  29.000  1.00  0.00     0.029 A 
ATOM     33  N   UNL A   1      39.410  30.314  30.696  1.00  0.00    -0.354 N 
ATOM     34  C   UNL A   1      39.173  32.671  34.314  1.00  0.00     0.074 A 
ATOM     35  C   UNL A   1      38.100  33.636  34.233  1.00  0.00     0.031 C 
ATOM     36  C   UNL A   1      38.855  29.710  28.617  1.00  0.00     0.029 A 
ATOM     37  C   UNL A   1      39.808  29.463  29.695  1.00  0.00     0.049 A 
ATOM     38  H   UNL A   1      39.863  30.370  31.569  1.00  0.00     0.167 HD
ATOM     39  C   UNL A   1      39.982  32.522  35.391  1.00  0.00     0.037 A 
ATOM     40  C   UNL A   1      40.827  28.585  29.655  1.00  0.00     0.037 A 
ATOM     41  C   UNL A   1      41.035  31.545  35.477  1.00  0.00     0.049 A 
ATOM     42  C   UNL A   1      41.703  28.421  30.866  1.00  0.00     0.074 A 
ATOM     43  C   UNL A   1      41.886  31.282  36.535  1.00  0.00     0.029 A 
ATOM     44  N   UNL A   1      41.378  30.667  34.458  1.00  0.00    -0.354 N 
ATOM     45  N   UNL A   1      41.667  29.065  32.008  1.00  0.00    -0.248 NA
ATOM     46  C   UNL A   1      42.751  27.394  30.791  1.00  0.00     0.031 C 
ATOM     47  C   UNL A   1      42.772  30.272  36.141  1.00  0.00     0.029 A 
ATOM     48  C   UNL A   1      42.436  29.867  34.859  1.00  0.00     0.049 A 
ATOM     49  H   UNL A   1      40.935  30.620  33.580  1.00  0.00     0.167 HD
ATOM     50  C   UNL A   1      42.662  28.504  32.797  1.00  0.00     0.074 A 
ATOM     51  C   UNL A   1      43.275  27.456  32.007  1.00  0.00     0.031 C 
ATOM     52  C   UNL A   1      43.030  28.823  34.063  1.00  0.00     0.037 A 
BRANCH  39  53
ATOM     53  C   UNL A   1      39.747  33.440  36.558  1.00  0.00     0.064 A 
ATOM     54  C   UNL A   1      38.881  33.090  37.607  1.00  0.00     0.173 A 
ATOM     55  C   UNL A   1      40.390  34.684  36.630  1.00  0.00     0.173 A 
ATOM     56  F   UNL A   1      38.229  31.917  37.582  1.00  0.00    -0.203 F 
ATOM     57  C   UNL A   1      38.632  33.969  38.657  1.00  0.00     0.198 A 
ATOM     58  C   UNL A   1      40.167  35.547  37.701  1.00  0.00     0.198 A 
ATOM     59  F   UNL A   1      41.233  35.069  35.660  1.00  0.00    -0.203 F 
ATOM     60  F   UNL A   1      37.746  33.641  39.607  1.00  0.00    -0.200 F 
ATOM     61  C   UNL A   1      39.278  35.194  38.706  1.00  0.00     0.200 A 
ATOM     62  F   UNL A   1      40.803  36.724  37.755  1.00  0.00    -0.200 F 
ATOM     63  F   UNL A   1      39.036  36.042  39.716  1.00  0.00    -0.200 F 
ENDBRANCH  39  53
BRANCH  40  64
ATOM     64  C   UNL A   1      41.043  27.767  28.434  1.00  0.00     0.064 A 
ATOM     65  C   UNL A   1      40.372  26.549  28.252  1.00  0.00     0.173 A 
ATOM     66  C   UNL A   1      41.907  28.194  27.415  1.00  0.00     0.173 A 
ATOM     67  F   UNL A   1      39.549  26.090  29.208  1.00  0.00    -0.203 F 
ATOM     68  C   UNL A   1      40.571  25.781  27.107  1.00  0.00     0.198 A 
ATOM     69  C   UNL A   1      42.084  27.439  26.257  1.00  0.00     0.198 A 
ATOM     70  F   UNL A   1      42.564  29.357  27.535  1.00  0.00    -0.203 F 
ATOM     71  F   UNL A   1      39.948  24.601  26.978  1.00  0.00    -0.200 F 
ATOM     72  C   UNL A   1      41.421  26.230  26.107  1.00  0.00     0.200 A 
ATOM     73  F   UNL A   1      42.892  27.884  25.286  1.00  0.00    -0.200 F 
ATOM     74  F   UNL A   1      41.605  25.495  25.001  1.00  0.00    -0.200 F 
ENDBRANCH  40  64
BRANCH  52  75
ATOM     75  C   UNL A   1      44.118  28.000  34.690  1.00  0.00     0.064 A 
ATOM     76  C   UNL A   1      45.469  28.367  34.604  1.00  0.00     0.173 A 
ATOM     77  C   UNL A   1      43.797  26.844  35.418  1.00  0.00     0.173 A 
ATOM     78  F   UNL A   1      45.829  29.456  33.908  1.00  0.00    -0.203 F 
ATOM     79  C   UNL A   1      46.461  27.589  35.196  1.00  0.00     0.198 A 
ATOM     80  C   UNL A   1      44.788  26.087  36.036  1.00  0.00     0.198 A 
ATOM     81  F   UNL A   1      42.519  26.453  35.539  1.00  0.00    -0.203 F 
ATOM     82  F   UNL A   1      47.750  27.929  35.053  1.00  0.00    -0.200 F 
ATOM     83  C   UNL A   1      46.120  26.455  35.916  1.00  0.00     0.200 A 
ATOM     84  F   UNL A   1      44.455  24.999  36.745  1.00  0.00    -0.200 F 
ATOM     85  F   UNL A   1      47.076  25.711  36.490  1.00  0.00    -0.200 F 
ENDBRANCH  52  75
ENDBRANCH  26  27
ENDBRANCH  18  21
ENDBRANCH  16  17
ENDBRANCH   1  16
TORSDOF 11
ENDMDL
MODEL 3
REMARK VINA RESULT:     -11.2      4.671     11.902
REMARK SMILES Cc1ccncc1[C@H](F)C(=O)NCCCNC(=O)c1ccc(-c2c3nc(c(-c4c(F)c(F)c(F)c(F)c4F)c4ccc([nH]4)c(-c4c(F)c(F)c(F)c(F)c4F)c4nc(c(-c5c(F)c(F)c(F)c(F)c5F)c5ccc2[nH]5)C=C4)C=C3)cc1
REMARK SMILES IDX 14 1 13 2 12 3 10 4 11 5 8 7 9 8 7 9 1 10 2 11 3 12 4 13
REMARK SMILES IDX 6 14 5 15 15 16 16 17 17 18 18 20 19 21 20 22 81 23 21 24
REMARK SMILES IDX 80 25 22 26 23 27 24 28 74 29 25 30 79 31 73 32 75 33 26 34
REMARK SMILES IDX 78 35 72 36 71 37 27 39 59 40 39 41 58 42 40 43 43 44 57 45
REMARK SMILES IDX 76 46 41 47 42 48 56 50 77 51 44 52 28 53 29 54 37 55 30 56
REMARK SMILES IDX 31 57 35 58 38 59 32 60 33 61 36 62 34 63 60 64 61 65 69 66
REMARK SMILES IDX 62 67 63 68 67 69 70 70 64 71 65 72 68 73 66 74 45 75 46 76
REMARK SMILES IDX 54 77 47 78 48 79 52 80 55 81 49 82 50 83 53 84 51 85
REMARK H PARENT 12 6 16 19 75 38 43 49
REMARK Flexibility Score: inf
ROOT
ATOM      1  C   UNL A   1      31.382  32.520  26.515  1.00  0.00     0.042 C 
ENDROOT
BRANCH   1   2
ATOM      2  C   UNL A   1      31.459  31.047  26.161  1.00  0.00     0.117 C 
BRANCH   2   3
ATOM      3  N   UNL A   1      32.665  30.411  26.660  1.00  0.00    -0.353 N 
ATOM      4  C   UNL A   1      33.371  29.382  26.092  1.00  0.00     0.259 C 
ATOM      5  O   UNL A   1      34.425  29.028  26.624  1.00  0.00    -0.271 OA
ATOM      6  H   UNL A   1      33.019  30.759  27.509  1.00  0.00     0.163 HD
BRANCH   4   7
ATOM      7  C   UNL A   1      32.850  28.728  24.797  1.00  0.00     0.287 C 
ATOM      8  F   UNL A   1      33.916  28.183  24.132  1.00  0.00    -0.232 F 
BRANCH   7   9
ATOM      9  C   UNL A   1      31.718  27.747  25.062  1.00  0.00     0.017 A 
ATOM     10  C   UNL A   1      30.526  28.102  22.802  1.00  0.00     0.045 C 
ATOM     11  C   UNL A   1      30.691  27.443  24.144  1.00  0.00    -0.041 A 
ATOM     12  C   UNL A   1      29.805  26.402  24.456  1.00  0.00     0.024 A 
ATOM     13  C   UNL A   1      29.925  25.747  25.668  1.00  0.00     0.111 A 
ATOM     14  C   UNL A   1      31.709  27.052  26.277  1.00  0.00     0.118 A 
ATOM     15  N   UNL A   1      30.848  26.061  26.594  1.00  0.00    -0.264 NA
ENDBRANCH   7   9
ENDBRANCH   4   7
ENDBRANCH   2   3
ENDBRANCH   1   2
BRANCH   1  16
ATOM     16  C   UNL A   1      32.594  33.034  27.273  1.00  0.00     0.118 C 
BRANCH  16  17
ATOM     17  N   UNL A   1      32.436  34.405  27.740  1.00  0.00    -0.352 N 
ATOM     18  C   UNL A   1      33.081  35.072  28.747  1.00  0.00     0.251 C 
ATOM     19  H   UNL A   1      31.760  34.933  27.256  1.00  0.00     0.163 HD
ATOM     20  O   UNL A   1      32.688  36.190  29.086  1.00  0.00    -0.269 OA
BRANCH  18  21
ATOM     21  C   UNL A   1      34.229  34.458  29.444  1.00  0.00     0.039 A 
ATOM     22  C   UNL A   1      33.995  33.703  30.596  1.00  0.00     0.014 A 
ATOM     23  C   UNL A   1      35.537  34.641  28.984  1.00  0.00     0.014 A 
ATOM     24  C   UNL A   1      35.064  33.094  31.256  1.00  0.00     0.010 A 
ATOM     25  C   UNL A   1      36.585  33.950  29.580  1.00  0.00     0.010 A 
ATOM     26  C   UNL A   1      36.365  33.192  30.738  1.00  0.00    -0.014 A 
BRANCH  26  27
ATOM     27  C   UNL A   1      37.519  32.560  31.425  1.00  0.00     0.031 A 
ATOM     28  C   UNL A   1      38.257  31.430  30.759  1.00  0.00     0.074 A 
ATOM     29  C   UNL A   1      37.866  32.957  32.663  1.00  0.00     0.049 A 
ATOM     30  N   UNL A   1      39.246  30.702  31.213  1.00  0.00    -0.248 NA
ATOM     31  C   UNL A   1      37.798  31.045  29.415  1.00  0.00     0.031 C 
ATOM     32  C   UNL A   1      37.191  33.999  33.437  1.00  0.00     0.029 A 
ATOM     33  N   UNL A   1      38.868  32.521  33.492  1.00  0.00    -0.354 N 
ATOM     34  C   UNL A   1      39.511  29.768  30.220  1.00  0.00     0.074 A 
ATOM     35  C   UNL A   1      38.534  29.971  29.175  1.00  0.00     0.031 C 
ATOM     36  C   UNL A   1      37.811  34.136  34.620  1.00  0.00     0.029 A 
ATOM     37  C   UNL A   1      38.903  33.172  34.700  1.00  0.00     0.049 A 
ATOM     38  H   UNL A   1      39.500  31.809  33.244  1.00  0.00     0.167 HD
ATOM     39  C   UNL A   1      40.501  28.845  30.167  1.00  0.00     0.037 A 
ATOM     40  C   UNL A   1      39.726  33.006  35.753  1.00  0.00     0.037 A 
ATOM     41  C   UNL A   1      41.485  28.661  31.200  1.00  0.00     0.049 A 
ATOM     42  C   UNL A   1      40.831  31.989  35.668  1.00  0.00     0.074 A 
ATOM     43  C   UNL A   1      42.555  27.784  31.229  1.00  0.00     0.029 A 
ATOM     44  N   UNL A   1      41.518  29.372  32.392  1.00  0.00    -0.354 N 
ATOM     45  N   UNL A   1      41.113  31.152  34.698  1.00  0.00    -0.248 NA
ATOM     46  C   UNL A   1      41.743  31.906  36.816  1.00  0.00     0.031 C 
ATOM     47  C   UNL A   1      43.210  27.936  32.457  1.00  0.00     0.029 A 
ATOM     48  C   UNL A   1      42.584  28.947  33.168  1.00  0.00     0.049 A 
ATOM     49  H   UNL A   1      40.877  30.075  32.648  1.00  0.00     0.167 HD
ATOM     50  C   UNL A   1      42.251  30.466  35.103  1.00  0.00     0.074 A 
ATOM     51  C   UNL A   1      42.613  30.995  36.402  1.00  0.00     0.031 C 
ATOM     52  C   UNL A   1      42.935  29.491  34.456  1.00  0.00     0.037 A 
BRANCH  39  53
ATOM     53  C   UNL A   1      40.562  27.973  28.944  1.00  0.00     0.064 A 
ATOM     54  C   UNL A   1      41.348  28.317  27.832  1.00  0.00     0.173 A 
ATOM     55  C   UNL A   1      39.825  26.782  28.878  1.00  0.00     0.173 A 
ATOM     56  F   UNL A   1      42.063  29.453  27.837  1.00  0.00    -0.203 F 
ATOM     57  C   UNL A   1      41.356  27.528  26.686  1.00  0.00     0.198 A 
ATOM     58  C   UNL A   1      39.864  25.975  27.743  1.00  0.00     0.198 A 
ATOM     59  F   UNL A   1      39.061  26.399  29.912  1.00  0.00    -0.203 F 
ATOM     60  F   UNL A   1      42.058  27.917  25.612  1.00  0.00    -0.200 F 
ATOM     61  C   UNL A   1      40.619  26.356  26.644  1.00  0.00     0.200 A 
ATOM     62  F   UNL A   1      39.162  24.834  27.709  1.00  0.00    -0.200 F 
ATOM     63  F   UNL A   1      40.625  25.597  25.538  1.00  0.00    -0.200 F 
ENDBRANCH  39  53
BRANCH  40  64
ATOM     64  C   UNL A   1      39.554  33.855  36.960  1.00  0.00     0.064 A 
ATOM     65  C   UNL A   1      40.098  35.146  37.018  1.00  0.00     0.173 A 
ATOM     66  C   UNL A   1      38.827  33.403  38.071  1.00  0.00     0.173 A 
ATOM     67  F   UNL A   1      40.816  35.616  35.987  1.00  0.00    -0.203 F 
ATOM     68  C   UNL A   1      39.936  35.945  38.148  1.00  0.00     0.198 A 
ATOM     69  C   UNL A   1      38.641  34.213  39.189  1.00  0.00     0.198 A 
ATOM     70  F   UNL A   1      38.277  32.179  38.061  1.00  0.00    -0.203 F 
ATOM     71  F   UNL A   1      40.501  37.160  38.193  1.00  0.00    -0.200 F 
ATOM     72  C   UNL A   1      39.202  35.481  39.229  1.00  0.00     0.200 A 
ATOM     73  F   UNL A   1      37.917  33.768  40.224  1.00  0.00    -0.200 F 
ATOM     74  F   UNL A   1      39.039  36.254  40.312  1.00  0.00    -0.200 F 
ENDBRANCH  40  64
BRANCH  52  75
ATOM     75  C   UNL A   1      44.174  28.963  35.122  1.00  0.00     0.064 A 
ATOM     76  C   UNL A   1      45.439  29.520  34.886  1.00  0.00     0.173 A 
ATOM     77  C   UNL A   1      44.084  27.902  36.038  1.00  0.00     0.173 A 
ATOM     78  F   UNL A   1      45.579  30.526  34.009  1.00  0.00    -0.203 F 
ATOM     79  C   UNL A   1      46.573  29.015  35.517  1.00  0.00     0.198 A 
ATOM     80  C   UNL A   1      45.215  27.421  36.691  1.00  0.00     0.198 A 
ATOM     81  F   UNL A   1      42.897  27.338  36.306  1.00  0.00    -0.203 F 
ATOM     82  F   UNL A   1      47.778  29.527  35.233  1.00  0.00    -0.200 F 
ATOM     83  C   UNL A   1      46.459  27.971  36.423  1.00  0.00     0.200 A 
ATOM     84  F   UNL A   1      45.101  26.423  37.578  1.00  0.00    -0.200 F 
ATOM     85  F   UNL A   1      47.551  27.490  37.033  1.00  0.00    -0.200 F 
ENDBRANCH  52  75
ENDBRANCH  26  27
ENDBRANCH  18  21
ENDBRANCH  16  17
ENDBRANCH   1  16
TORSDOF 11
ENDMDL
