MODEL 1
REMARK VINA RESULT:     -13.1      0.000      0.000
REMARK SMILES O=C(NCCCNC(=O)c1ccc(C[N@H+]2CC[N@H+]3CCCC[C@@H]3C2)c(F)c1)c1ccc(-c2c3nc(c(-c4c(F)c(F)c(F)c(F)c4F)c4ccc([nH]4)c(-c4c(F)c(F)c(F)c(F)c4F)c4nc(c(-c5c(F)c(F)c(F)c(F)c5F)c5ccc2[nH]5)C=C4)C=C3)cc1
REMARK SMILES IDX 5 1 4 2 3 3 1 4 2 5 28 7 29 8 90 9 30 10 89 11 31 12 32 13
REMARK SMILES IDX 33 14 83 15 34 16 88 17 82 18 84 19 35 20 87 21 81 22 80 23
REMARK SMILES IDX 36 25 68 26 48 27 67 28 49 29 52 30 66 31 85 32 50 33 51 34
REMARK SMILES IDX 65 36 86 37 53 38 37 39 38 40 46 41 39 42 40 43 44 44 47 45
REMARK SMILES IDX 41 46 42 47 45 48 43 49 69 50 70 51 78 52 71 53 72 54 76 55
REMARK SMILES IDX 79 56 73 57 74 58 77 59 75 60 54 61 55 62 63 63 56 64 57 65
REMARK SMILES IDX 61 66 64 67 58 68 59 69 62 70 60 71 6 72 7 73 8 74 9 76
REMARK SMILES IDX 10 77 11 78 27 79 12 80 25 81 13 82 26 83 14 84 15 85 16 86
REMARK SMILES IDX 24 87 17 89 23 90 18 91 22 92 19 93 21 95 20 96
REMARK H PARENT 3 6 84 24 52 35 7 75 15 88 18 94
REMARK Flexibility Score: inf
ROOT
ATOM      1  C   UNL A   1      33.904  29.092  23.489  1.00  0.00     0.042 C 
ENDROOT
BRANCH   1   2
ATOM      2  C   UNL A   1      33.483  28.896  24.937  1.00  0.00     0.118 C 
BRANCH   2   3
ATOM      3  N   UNL A   1      32.869  30.090  25.511  1.00  0.00    -0.352 N 
ATOM      4  O   UNL A   1      32.370  31.693  26.997  1.00  0.00    -0.269 OA
ATOM      5  C   UNL A   1      33.162  30.827  26.634  1.00  0.00     0.251 C 
ATOM      6  H   UNL A   1      32.101  30.430  24.998  1.00  0.00     0.163 HD
BRANCH   5   7
ATOM      7  C   UNL A   1      34.395  30.594  27.423  1.00  0.00     0.039 A 
ATOM      8  C   UNL A   1      34.718  29.331  27.914  1.00  0.00     0.014 A 
ATOM      9  C   UNL A   1      35.290  31.654  27.627  1.00  0.00     0.014 A 
ATOM     10  C   UNL A   1      35.816  29.165  28.750  1.00  0.00     0.010 A 
ATOM     11  C   UNL A   1      36.465  31.457  28.366  1.00  0.00     0.010 A 
ATOM     12  C   UNL A   1      36.722  30.216  28.963  1.00  0.00    -0.014 A 
BRANCH  12  13
ATOM     13  C   UNL A   1      37.960  29.948  29.745  1.00  0.00     0.031 A 
ATOM     14  C   UNL A   1      38.140  30.486  31.137  1.00  0.00     0.074 A 
ATOM     15  C   UNL A   1      38.900  29.148  29.203  1.00  0.00     0.049 A 
ATOM     16  N   UNL A   1      39.136  30.295  31.968  1.00  0.00    -0.248 NA
ATOM     17  C   UNL A   1      37.075  31.349  31.670  1.00  0.00     0.031 C 
ATOM     18  C   UNL A   1      38.835  28.568  27.857  1.00  0.00     0.029 A 
ATOM     19  N   UNL A   1      40.072  28.651  29.716  1.00  0.00    -0.354 N 
ATOM     20  C   UNL A   1      38.821  31.014  33.114  1.00  0.00     0.074 A 
ATOM     21  C   UNL A   1      37.558  31.675  32.864  1.00  0.00     0.031 C 
ATOM     22  C   UNL A   1      39.872  27.739  27.682  1.00  0.00     0.029 A 
ATOM     23  C   UNL A   1      40.723  27.790  28.865  1.00  0.00     0.049 A 
ATOM     24  H   UNL A   1      40.413  28.889  30.609  1.00  0.00     0.167 HD
ATOM     25  C   UNL A   1      39.517  31.097  34.272  1.00  0.00     0.037 A 
ATOM     26  C   UNL A   1      41.883  27.123  29.011  1.00  0.00     0.037 A 
ATOM     27  C   UNL A   1      40.767  30.425  34.520  1.00  0.00     0.049 A 
ATOM     28  C   UNL A   1      42.657  27.284  30.288  1.00  0.00     0.074 A 
ATOM     29  C   UNL A   1      41.541  30.443  35.668  1.00  0.00     0.029 A 
ATOM     30  N   UNL A   1      41.426  29.613  33.609  1.00  0.00    -0.354 N 
ATOM     31  N   UNL A   1      42.339  27.955  31.367  1.00  0.00    -0.248 NA
ATOM     32  C   UNL A   1      43.956  26.602  30.366  1.00  0.00     0.031 C 
ATOM     33  C   UNL A   1      42.691  29.685  35.435  1.00  0.00     0.029 A 
ATOM     34  C   UNL A   1      42.607  29.143  34.163  1.00  0.00     0.049 A 
ATOM     35  H   UNL A   1      41.104  29.400  32.703  1.00  0.00     0.167 HD
ATOM     36  C   UNL A   1      43.383  27.760  32.258  1.00  0.00     0.074 A 
ATOM     37  C   UNL A   1      44.336  26.888  31.602  1.00  0.00     0.031 C 
ATOM     38  C   UNL A   1      43.540  28.264  33.506  1.00  0.00     0.037 A 
BRANCH  25  39
ATOM     39  C   UNL A   1      38.956  31.938  35.383  1.00  0.00     0.064 A 
ATOM     40  C   UNL A   1      39.290  33.298  35.486  1.00  0.00     0.173 A 
ATOM     41  C   UNL A   1      38.189  31.373  36.412  1.00  0.00     0.173 A 
ATOM     42  F   UNL A   1      40.030  33.886  34.533  1.00  0.00    -0.203 F 
ATOM     43  C   UNL A   1      38.902  34.051  36.591  1.00  0.00     0.198 A 
ATOM     44  C   UNL A   1      37.780  32.136  37.504  1.00  0.00     0.198 A 
ATOM     45  F   UNL A   1      37.835  30.080  36.359  1.00  0.00    -0.203 F 
ATOM     46  F   UNL A   1      39.276  35.335  36.690  1.00  0.00    -0.200 F 
ATOM     47  C   UNL A   1      38.149  33.470  37.598  1.00  0.00     0.200 A 
ATOM     48  F   UNL A   1      37.037  31.578  38.469  1.00  0.00    -0.200 F 
ATOM     49  F   UNL A   1      37.782  34.194  38.666  1.00  0.00    -0.200 F 
ENDBRANCH  25  39
BRANCH  26  50
ATOM     50  C   UNL A   1      42.377  26.245  27.918  1.00  0.00     0.064 A 
ATOM     51  C   UNL A   1      43.287  26.715  26.957  1.00  0.00     0.173 A 
ATOM     52  C   UNL A   1      41.941  24.918  27.804  1.00  0.00     0.173 A 
ATOM     53  F   UNL A   1      43.734  27.978  27.016  1.00  0.00    -0.203 F 
ATOM     54  C   UNL A   1      43.723  25.899  25.916  1.00  0.00     0.198 A 
ATOM     55  C   UNL A   1      42.407  24.091  26.783  1.00  0.00     0.198 A 
ATOM     56  F   UNL A   1      41.087  24.414  28.707  1.00  0.00    -0.203 F 
ATOM     57  F   UNL A   1      44.560  26.387  24.991  1.00  0.00    -0.200 F 
ATOM     58  C   UNL A   1      43.289  24.585  25.834  1.00  0.00     0.200 A 
ATOM     59  F   UNL A   1      42.006  22.814  26.724  1.00  0.00    -0.200 F 
ATOM     60  F   UNL A   1      43.727  23.793  24.846  1.00  0.00    -0.200 F 
ENDBRANCH  26  50
BRANCH  38  61
ATOM     61  C   UNL A   1      44.772  27.865  34.265  1.00  0.00     0.064 A 
ATOM     62  C   UNL A   1      44.760  26.728  35.086  1.00  0.00     0.173 A 
ATOM     63  C   UNL A   1      45.939  28.642  34.233  1.00  0.00     0.173 A 
ATOM     64  F   UNL A   1      43.666  25.955  35.157  1.00  0.00    -0.203 F 
ATOM     65  C   UNL A   1      45.867  26.392  35.860  1.00  0.00     0.198 A 
ATOM     66  C   UNL A   1      47.056  28.284  34.983  1.00  0.00     0.198 A 
ATOM     67  F   UNL A   1      46.004  29.731  33.453  1.00  0.00    -0.203 F 
ATOM     68  F   UNL A   1      45.819  25.321  36.666  1.00  0.00    -0.200 F 
ATOM     69  C   UNL A   1      47.015  27.166  35.804  1.00  0.00     0.200 A 
ATOM     70  F   UNL A   1      48.175  29.018  34.907  1.00  0.00    -0.200 F 
ATOM     71  F   UNL A   1      48.086  26.834  36.539  1.00  0.00    -0.200 F 
ENDBRANCH  38  61
ENDBRANCH  12  13
ENDBRANCH   5   7
ENDBRANCH   2   3
ENDBRANCH   1   2
BRANCH   1  72
ATOM     72  C   UNL A   1      33.167  28.204  22.493  1.00  0.00     0.118 C 
BRANCH  72  73
ATOM     73  N   UNL A   1      31.780  28.611  22.333  1.00  0.00    -0.352 N 
ATOM     74  C   UNL A   1      30.632  27.954  22.708  1.00  0.00     0.251 C 
ATOM     75  H   UNL A   1      31.643  29.481  21.894  1.00  0.00     0.163 HD
ATOM     76  O   UNL A   1      29.538  28.338  22.316  1.00  0.00    -0.269 OA
BRANCH  74  77
ATOM     77  C   UNL A   1      30.721  26.760  23.571  1.00  0.00     0.042 A 
ATOM     78  C   UNL A   1      30.533  26.868  24.952  1.00  0.00     0.014 A 
ATOM     79  C   UNL A   1      30.970  25.521  22.985  1.00  0.00     0.053 A 
ATOM     80  C   UNL A   1      30.690  25.737  25.761  1.00  0.00     0.013 A 
ATOM     81  C   UNL A   1      31.153  24.411  23.806  1.00  0.00     0.132 A 
ATOM     82  C   UNL A   1      31.079  24.509  25.200  1.00  0.00     0.042 A 
ATOM     83  F   UNL A   1      31.455  23.237  23.233  1.00  0.00    -0.206 F 
BRANCH  82  84
ATOM     84  C   UNL A   1      31.441  23.330  26.076  1.00  0.00     0.302 C 
BRANCH  84  85
ATOM     85  N   UNL A   1      32.661  23.418  26.895  1.00  0.00    -0.322 N 
ATOM     86  C   UNL A   1      33.047  22.201  27.622  1.00  0.00     0.324 C 
ATOM     87  C   UNL A   1      33.831  24.039  26.266  1.00  0.00     0.328 C 
ATOM     88  H   UNL A   1      32.329  24.080  27.595  1.00  0.00     0.348 HD
ATOM     89  C   UNL A   1      34.028  21.245  26.896  1.00  0.00     0.324 C 
ATOM     90  C   UNL A   1      34.708  23.063  25.445  1.00  0.00     0.239 C 
ATOM     91  N   UNL A   1      35.181  21.911  26.242  1.00  0.00    -0.323 N 
ATOM     92  C   UNL A   1      35.886  23.792  24.790  1.00  0.00     0.071 C 
ATOM     93  C   UNL A   1      35.881  20.949  25.377  1.00  0.00     0.262 C 
ATOM     94  H   UNL A   1      35.828  22.247  26.954  1.00  0.00     0.348 HD
ATOM     95  C   UNL A   1      36.601  22.840  23.837  1.00  0.00     0.012 C 
ATOM     96  C   UNL A   1      37.028  21.578  24.578  1.00  0.00     0.062 C 
ENDBRANCH  84  85
ENDBRANCH  82  84
ENDBRANCH  74  77
ENDBRANCH  72  73
ENDBRANCH   1  72
TORSDOF 12
ENDMDL
MODEL 2
REMARK VINA RESULT:     -13.0      0.924      1.619
REMARK SMILES O=C(NCCCNC(=O)c1ccc(C[N@H+]2CC[N@H+]3CCCC[C@@H]3C2)c(F)c1)c1ccc(-c2c3nc(c(-c4c(F)c(F)c(F)c(F)c4F)c4ccc([nH]4)c(-c4c(F)c(F)c(F)c(F)c4F)c4nc(c(-c5c(F)c(F)c(F)c(F)c5F)c5ccc2[nH]5)C=C4)C=C3)cc1
REMARK SMILES IDX 5 1 4 2 3 3 1 4 2 5 28 7 29 8 90 9 30 10 89 11 31 12 32 13
REMARK SMILES IDX 33 14 83 15 34 16 88 17 82 18 84 19 35 20 87 21 81 22 80 23
REMARK SMILES IDX 36 25 68 26 48 27 67 28 49 29 52 30 66 31 85 32 50 33 51 34
REMARK SMILES IDX 65 36 86 37 53 38 37 39 38 40 46 41 39 42 40 43 44 44 47 45
REMARK SMILES IDX 41 46 42 47 45 48 43 49 69 50 70 51 78 52 71 53 72 54 76 55
REMARK SMILES IDX 79 56 73 57 74 58 77 59 75 60 54 61 55 62 63 63 56 64 57 65
REMARK SMILES IDX 61 66 64 67 58 68 59 69 62 70 60 71 6 72 7 73 8 74 9 76
REMARK SMILES IDX 10 77 11 78 27 79 12 80 25 81 13 82 26 83 14 84 15 85 16 86
REMARK SMILES IDX 24 87 17 89 23 90 18 91 22 92 19 93 21 95 20 96
REMARK H PARENT 3 6 84 24 52 35 7 75 15 88 18 94
REMARK Flexibility Score: inf
ROOT
ATOM      1  C   UNL A   1      32.971  27.946  25.393  1.00  0.00     0.042 C 
ENDROOT
BRANCH   1   2
ATOM      2  C   UNL A   1      33.382  29.305  24.846  1.00  0.00     0.118 C 
BRANCH   2   3
ATOM      3  N   UNL A   1      32.724  30.410  25.537  1.00  0.00    -0.352 N 
ATOM      4  O   UNL A   1      32.177  31.842  27.174  1.00  0.00    -0.269 OA
ATOM      5  C   UNL A   1      33.002  31.051  26.722  1.00  0.00     0.251 C 
ATOM      6  H   UNL A   1      31.935  30.763  25.067  1.00  0.00     0.163 HD
BRANCH   5   7
ATOM      7  C   UNL A   1      34.255  30.799  27.473  1.00  0.00     0.039 A 
ATOM      8  C   UNL A   1      34.551  29.543  27.996  1.00  0.00     0.014 A 
ATOM      9  C   UNL A   1      35.194  31.831  27.604  1.00  0.00     0.014 A 
ATOM     10  C   UNL A   1      35.673  29.365  28.797  1.00  0.00     0.010 A 
ATOM     11  C   UNL A   1      36.389  31.617  28.306  1.00  0.00     0.010 A 
ATOM     12  C   UNL A   1      36.624  30.389  28.937  1.00  0.00    -0.014 A 
BRANCH  12  13
ATOM     13  C   UNL A   1      37.881  30.102  29.682  1.00  0.00     0.031 A 
ATOM     14  C   UNL A   1      38.112  30.638  31.067  1.00  0.00     0.074 A 
ATOM     15  C   UNL A   1      38.791  29.287  29.112  1.00  0.00     0.049 A 
ATOM     16  N   UNL A   1      39.129  30.433  31.868  1.00  0.00    -0.248 NA
ATOM     17  C   UNL A   1      37.077  31.519  31.631  1.00  0.00     0.031 C 
ATOM     18  C   UNL A   1      38.676  28.707  27.771  1.00  0.00     0.029 A 
ATOM     19  N   UNL A   1      39.971  28.773  29.591  1.00  0.00    -0.354 N 
ATOM     20  C   UNL A   1      38.860  31.157  33.022  1.00  0.00     0.074 A 
ATOM     21  C   UNL A   1      37.601  31.838  32.809  1.00  0.00     0.031 C 
ATOM     22  C   UNL A   1      39.695  27.862  27.565  1.00  0.00     0.029 A 
ATOM     23  C   UNL A   1      40.582  27.901  28.722  1.00  0.00     0.049 A 
ATOM     24  H   UNL A   1      40.342  29.006  30.472  1.00  0.00     0.167 HD
ATOM     25  C   UNL A   1      39.592  31.231  34.158  1.00  0.00     0.037 A 
ATOM     26  C   UNL A   1      41.735  27.216  28.833  1.00  0.00     0.037 A 
ATOM     27  C   UNL A   1      40.839  30.540  34.369  1.00  0.00     0.049 A 
ATOM     28  C   UNL A   1      42.550  27.366  30.086  1.00  0.00     0.074 A 
ATOM     29  C   UNL A   1      41.647  30.547  35.494  1.00  0.00     0.029 A 
ATOM     30  N   UNL A   1      41.457  29.716  33.440  1.00  0.00    -0.354 N 
ATOM     31  N   UNL A   1      42.275  28.043  31.174  1.00  0.00    -0.248 NA
ATOM     32  C   UNL A   1      43.841  26.664  30.125  1.00  0.00     0.031 C 
ATOM     33  C   UNL A   1      42.778  29.771  35.226  1.00  0.00     0.029 A 
ATOM     34  C   UNL A   1      42.647  29.229  33.959  1.00  0.00     0.049 A 
ATOM     35  H   UNL A   1      41.104  29.508  32.544  1.00  0.00     0.167 HD
ATOM     36  C   UNL A   1      43.343  27.832  32.033  1.00  0.00     0.074 A 
ATOM     37  C   UNL A   1      44.262  26.945  31.349  1.00  0.00     0.031 C 
ATOM     38  C   UNL A   1      43.545  28.335  33.274  1.00  0.00     0.037 A 
BRANCH  25  39
ATOM     39  C   UNL A   1      39.078  32.082  35.284  1.00  0.00     0.064 A 
ATOM     40  C   UNL A   1      39.422  33.441  35.366  1.00  0.00     0.173 A 
ATOM     41  C   UNL A   1      38.349  31.527  36.346  1.00  0.00     0.173 A 
ATOM     42  F   UNL A   1      40.127  34.019  34.381  1.00  0.00    -0.203 F 
ATOM     43  C   UNL A   1      39.080  34.203  36.480  1.00  0.00     0.198 A 
ATOM     44  C   UNL A   1      37.986  32.298  37.448  1.00  0.00     0.198 A 
ATOM     45  F   UNL A   1      37.987  30.235  36.315  1.00  0.00    -0.203 F 
ATOM     46  F   UNL A   1      39.463  35.485  36.556  1.00  0.00    -0.200 F 
ATOM     47  C   UNL A   1      38.364  33.632  37.519  1.00  0.00     0.200 A 
ATOM     48  F   UNL A   1      37.278  31.750  38.444  1.00  0.00    -0.200 F 
ATOM     49  F   UNL A   1      38.041  34.364  38.595  1.00  0.00    -0.200 F 
ENDBRANCH  25  39
BRANCH  26  50
ATOM     50  C   UNL A   1      42.183  26.329  27.727  1.00  0.00     0.064 A 
ATOM     51  C   UNL A   1      43.145  26.750  26.796  1.00  0.00     0.173 A 
ATOM     52  C   UNL A   1      41.648  25.043  27.571  1.00  0.00     0.173 A 
ATOM     53  F   UNL A   1      43.687  27.973  26.895  1.00  0.00    -0.203 F 
ATOM     54  C   UNL A   1      43.538  25.929  25.742  1.00  0.00     0.198 A 
ATOM     55  C   UNL A   1      42.069  24.208  26.538  1.00  0.00     0.198 A 
ATOM     56  F   UNL A   1      40.740  24.585  28.444  1.00  0.00    -0.203 F 
ATOM     57  F   UNL A   1      44.429  26.373  24.845  1.00  0.00    -0.200 F 
ATOM     58  C   UNL A   1      43.006  24.655  25.618  1.00  0.00     0.200 A 
ATOM     59  F   UNL A   1      41.573  22.967  26.438  1.00  0.00    -0.200 F 
ATOM     60  F   UNL A   1      43.401  23.856  24.618  1.00  0.00    -0.200 F 
ENDBRANCH  26  50
BRANCH  38  61
ATOM     61  C   UNL A   1      44.793  27.918  33.996  1.00  0.00     0.064 A 
ATOM     62  C   UNL A   1      45.976  28.660  33.853  1.00  0.00     0.173 A 
ATOM     63  C   UNL A   1      44.838  26.753  34.774  1.00  0.00     0.173 A 
ATOM     64  F   UNL A   1      45.988  29.779  33.113  1.00  0.00    -0.203 F 
ATOM     65  C   UNL A   1      47.161  28.240  34.449  1.00  0.00     0.198 A 
ATOM     66  C   UNL A   1      46.018  26.354  35.397  1.00  0.00     0.198 A 
ATOM     67  F   UNL A   1      43.731  26.017  34.953  1.00  0.00    -0.203 F 
ATOM     68  F   UNL A   1      48.287  28.944  34.267  1.00  0.00    -0.200 F 
ATOM     69  C   UNL A   1      47.181  27.091  35.224  1.00  0.00     0.200 A 
ATOM     70  F   UNL A   1      46.029  25.259  36.169  1.00  0.00    -0.200 F 
ATOM     71  F   UNL A   1      48.320  26.695  35.810  1.00  0.00    -0.200 F 
ENDBRANCH  38  61
ENDBRANCH  12  13
ENDBRANCH   5   7
ENDBRANCH   2   3
ENDBRANCH   1   2
BRANCH   1  72
ATOM     72  C   UNL A   1      31.481  27.643  25.273  1.00  0.00     0.118 C 
BRANCH  72  73
ATOM     73  N   UNL A   1      30.970  27.968  23.951  1.00  0.00    -0.352 N 
ATOM     74  C   UNL A   1      30.950  27.197  22.813  1.00  0.00     0.251 C 
ATOM     75  H   UNL A   1      30.582  28.868  23.857  1.00  0.00     0.163 HD
ATOM     76  O   UNL A   1      30.671  27.693  21.729  1.00  0.00    -0.269 OA
BRANCH  74  77
ATOM     77  C   UNL A   1      31.292  25.764  22.894  1.00  0.00     0.042 A 
ATOM     78  C   UNL A   1      30.365  24.840  23.384  1.00  0.00     0.014 A 
ATOM     79  C   UNL A   1      32.544  25.343  22.450  1.00  0.00     0.053 A 
ATOM     80  C   UNL A   1      30.733  23.497  23.518  1.00  0.00     0.013 A 
ATOM     81  C   UNL A   1      32.906  24.009  22.618  1.00  0.00     0.132 A 
ATOM     82  C   UNL A   1      32.038  23.081  23.207  1.00  0.00     0.042 A 
ATOM     83  F   UNL A   1      34.137  23.629  22.246  1.00  0.00    -0.206 F 
BRANCH  82  84
ATOM     84  C   UNL A   1      32.509  21.680  23.527  1.00  0.00     0.302 C 
BRANCH  84  85
ATOM     85  N   UNL A   1      32.983  21.398  24.891  1.00  0.00    -0.322 N 
ATOM     86  C   UNL A   1      33.638  20.099  25.099  1.00  0.00     0.324 C 
ATOM     87  C   UNL A   1      33.728  22.468  25.563  1.00  0.00     0.328 C 
ATOM     88  H   UNL A   1      32.079  21.343  25.359  1.00  0.00     0.348 HD
ATOM     89  C   UNL A   1      35.180  20.070  24.939  1.00  0.00     0.324 C 
ATOM     90  C   UNL A   1      35.247  22.470  25.265  1.00  0.00     0.239 C 
ATOM     91  N   UNL A   1      35.898  21.186  25.601  1.00  0.00    -0.323 N 
ATOM     92  C   UNL A   1      35.949  23.636  25.970  1.00  0.00     0.071 C 
ATOM     93  C   UNL A   1      37.302  21.199  25.161  1.00  0.00     0.262 C 
ATOM     94  H   UNL A   1      35.869  21.057  26.612  1.00  0.00     0.348 HD
ATOM     95  C   UNL A   1      37.394  23.718  25.492  1.00  0.00     0.012 C 
ATOM     96  C   UNL A   1      38.098  22.385  25.718  1.00  0.00     0.062 C 
ENDBRANCH  84  85
ENDBRANCH  82  84
ENDBRANCH  74  77
ENDBRANCH  72  73
ENDBRANCH   1  72
TORSDOF 12
ENDMDL
MODEL 3
REMARK VINA RESULT:     -12.8      0.175      1.670
REMARK SMILES O=C(NCCCNC(=O)c1ccc(C[N@H+]2CC[N@H+]3CCCC[C@@H]3C2)c(F)c1)c1ccc(-c2c3nc(c(-c4c(F)c(F)c(F)c(F)c4F)c4ccc([nH]4)c(-c4c(F)c(F)c(F)c(F)c4F)c4nc(c(-c5c(F)c(F)c(F)c(F)c5F)c5ccc2[nH]5)C=C4)C=C3)cc1
REMARK SMILES IDX 5 1 4 2 3 3 1 4 2 5 28 7 29 8 90 9 30 10 89 11 31 12 32 13
REMARK SMILES IDX 33 14 83 15 34 16 88 17 82 18 84 19 35 20 87 21 81 22 80 23
REMARK SMILES IDX 36 25 68 26 48 27 67 28 49 29 52 30 66 31 85 32 50 33 51 34
REMARK SMILES IDX 65 36 86 37 53 38 37 39 38 40 46 41 39 42 40 43 44 44 47 45
REMARK SMILES IDX 41 46 42 47 45 48 43 49 69 50 70 51 78 52 71 53 72 54 76 55
REMARK SMILES IDX 79 56 73 57 74 58 77 59 75 60 54 61 55 62 63 63 56 64 57 65
REMARK SMILES IDX 61 66 64 67 58 68 59 69 62 70 60 71 6 72 7 73 8 74 9 76
REMARK SMILES IDX 10 77 11 78 27 79 12 80 25 81 13 82 26 83 14 84 15 85 16 86
REMARK SMILES IDX 24 87 17 89 23 90 18 91 22 92 19 93 21 95 20 96
REMARK H PARENT 3 6 84 24 52 35 7 75 15 88 18 94
REMARK Flexibility Score: inf
ROOT
ATOM      1  C   UNL A   1      33.795  29.329  23.694  1.00  0.00     0.042 C 
ENDROOT
BRANCH   1   2
ATOM      2  C   UNL A   1      33.285  29.174  25.119  1.00  0.00     0.118 C 
BRANCH   2   3
ATOM      3  N   UNL A   1      32.770  30.425  25.669  1.00  0.00    -0.352 N 
ATOM      4  O   UNL A   1      32.422  32.102  27.117  1.00  0.00    -0.269 OA
ATOM      5  C   UNL A   1      33.142  31.172  26.762  1.00  0.00     0.251 C 
ATOM      6  H   UNL A   1      32.016  30.804  25.164  1.00  0.00     0.163 HD
BRANCH   5   7
ATOM      7  C   UNL A   1      34.375  30.875  27.530  1.00  0.00     0.039 A 
ATOM      8  C   UNL A   1      35.341  31.851  27.763  1.00  0.00     0.014 A 
ATOM      9  C   UNL A   1      34.544  29.601  28.090  1.00  0.00     0.014 A 
ATOM     10  C   UNL A   1      36.540  31.516  28.380  1.00  0.00     0.010 A 
ATOM     11  C   UNL A   1      35.700  29.298  28.824  1.00  0.00     0.010 A 
ATOM     12  C   UNL A   1      36.725  30.245  28.947  1.00  0.00    -0.014 A 
BRANCH  12  13
ATOM     13  C   UNL A   1      37.965  29.981  29.727  1.00  0.00     0.031 A 
ATOM     14  C   UNL A   1      38.144  30.514  31.121  1.00  0.00     0.074 A 
ATOM     15  C   UNL A   1      38.910  29.189  29.180  1.00  0.00     0.049 A 
ATOM     16  N   UNL A   1      39.142  30.326  31.950  1.00  0.00    -0.248 NA
ATOM     17  C   UNL A   1      37.075  31.369  31.659  1.00  0.00     0.031 C 
ATOM     18  C   UNL A   1      38.846  28.614  27.832  1.00  0.00     0.029 A 
ATOM     19  N   UNL A   1      40.085  28.697  29.690  1.00  0.00    -0.354 N 
ATOM     20  C   UNL A   1      38.824  31.038  33.100  1.00  0.00     0.074 A 
ATOM     21  C   UNL A   1      37.557  31.692  32.853  1.00  0.00     0.031 C 
ATOM     22  C   UNL A   1      39.888  27.793  27.652  1.00  0.00     0.029 A 
ATOM     23  C   UNL A   1      40.741  27.844  28.834  1.00  0.00     0.049 A 
ATOM     24  H   UNL A   1      40.426  28.934  30.583  1.00  0.00     0.167 HD
ATOM     25  C   UNL A   1      39.521  31.120  34.257  1.00  0.00     0.037 A 
ATOM     26  C   UNL A   1      41.904  27.183  28.976  1.00  0.00     0.037 A 
ATOM     27  C   UNL A   1      40.776  30.454  34.501  1.00  0.00     0.049 A 
ATOM     28  C   UNL A   1      42.679  27.343  30.253  1.00  0.00     0.074 A 
ATOM     29  C   UNL A   1      41.551  30.472  35.648  1.00  0.00     0.029 A 
ATOM     30  N   UNL A   1      41.439  29.650  33.585  1.00  0.00    -0.354 N 
ATOM     31  N   UNL A   1      42.358  28.007  31.335  1.00  0.00    -0.248 NA
ATOM     32  C   UNL A   1      43.983  26.668  30.326  1.00  0.00     0.031 C 
ATOM     33  C   UNL A   1      42.705  29.722  35.410  1.00  0.00     0.029 A 
ATOM     34  C   UNL A   1      42.623  29.185  34.136  1.00  0.00     0.049 A 
ATOM     35  H   UNL A   1      41.116  29.440  32.679  1.00  0.00     0.167 HD
ATOM     36  C   UNL A   1      43.405  27.815  32.224  1.00  0.00     0.074 A 
ATOM     37  C   UNL A   1      44.362  26.952  31.563  1.00  0.00     0.031 C 
ATOM     38  C   UNL A   1      43.560  28.315  33.473  1.00  0.00     0.037 A 
BRANCH  25  39
ATOM     39  C   UNL A   1      38.956  31.953  35.372  1.00  0.00     0.064 A 
ATOM     40  C   UNL A   1      39.269  33.319  35.471  1.00  0.00     0.173 A 
ATOM     41  C   UNL A   1      38.209  31.376  36.409  1.00  0.00     0.173 A 
ATOM     42  F   UNL A   1      39.989  33.918  34.509  1.00  0.00    -0.203 F 
ATOM     43  C   UNL A   1      38.878  34.067  36.578  1.00  0.00     0.198 A 
ATOM     44  C   UNL A   1      37.798  32.133  37.504  1.00  0.00     0.198 A 
ATOM     45  F   UNL A   1      37.877  30.077  36.361  1.00  0.00    -0.203 F 
ATOM     46  F   UNL A   1      39.231  35.356  36.672  1.00  0.00    -0.200 F 
ATOM     47  C   UNL A   1      38.145  33.474  37.593  1.00  0.00     0.200 A 
ATOM     48  F   UNL A   1      37.074  31.564  38.477  1.00  0.00    -0.200 F 
ATOM     49  F   UNL A   1      37.775  34.193  38.663  1.00  0.00    -0.200 F 
ENDBRANCH  25  39
BRANCH  26  50
ATOM     50  C   UNL A   1      42.402  26.312  27.878  1.00  0.00     0.064 A 
ATOM     51  C   UNL A   1      42.002  24.971  27.770  1.00  0.00     0.173 A 
ATOM     52  C   UNL A   1      43.299  26.801  26.918  1.00  0.00     0.173 A 
ATOM     53  F   UNL A   1      41.148  24.450  28.664  1.00  0.00    -0.203 F 
ATOM     54  C   UNL A   1      42.495  24.150  26.759  1.00  0.00     0.198 A 
ATOM     55  C   UNL A   1      43.763  25.989  25.886  1.00  0.00     0.198 A 
ATOM     56  F   UNL A   1      43.698  28.081  26.966  1.00  0.00    -0.203 F 
ATOM     57  F   UNL A   1      42.127  22.863  26.705  1.00  0.00    -0.200 F 
ATOM     58  C   UNL A   1      43.369  24.662  25.813  1.00  0.00     0.200 A 
ATOM     59  F   UNL A   1      44.586  26.495  24.957  1.00  0.00    -0.200 F 
ATOM     60  F   UNL A   1      43.826  23.878  24.826  1.00  0.00    -0.200 F 
ENDBRANCH  26  50
BRANCH  38  61
ATOM     61  C   UNL A   1      44.795  27.920  34.230  1.00  0.00     0.064 A 
ATOM     62  C   UNL A   1      45.929  28.747  34.214  1.00  0.00     0.173 A 
ATOM     63  C   UNL A   1      44.881  26.698  34.912  1.00  0.00     0.173 A 
ATOM     64  F   UNL A   1      45.901  29.923  33.570  1.00  0.00    -0.203 F 
ATOM     65  C   UNL A   1      47.109  28.356  34.841  1.00  0.00     0.198 A 
ATOM     66  C   UNL A   1      46.052  26.326  35.566  1.00  0.00     0.198 A 
ATOM     67  F   UNL A   1      43.820  25.880  34.967  1.00  0.00    -0.203 F 
ATOM     68  F   UNL A   1      48.191  29.145  34.781  1.00  0.00    -0.200 F 
ATOM     69  C   UNL A   1      47.168  27.149  35.520  1.00  0.00     0.200 A 
ATOM     70  F   UNL A   1      46.099  25.172  36.246  1.00  0.00    -0.200 F 
ATOM     71  F   UNL A   1      48.300  26.781  36.136  1.00  0.00    -0.200 F 
ENDBRANCH  38  61
ENDBRANCH  12  13
ENDBRANCH   5   7
ENDBRANCH   2   3
ENDBRANCH   1   2
BRANCH   1  72
ATOM     72  C   UNL A   1      33.229  28.312  22.709  1.00  0.00     0.118 C 
BRANCH  72  73
ATOM     73  N   UNL A   1      31.858  28.626  22.340  1.00  0.00    -0.352 N 
ATOM     74  C   UNL A   1      30.711  27.900  22.557  1.00  0.00     0.251 C 
ATOM     75  H   UNL A   1      31.733  29.481  21.868  1.00  0.00     0.163 HD
ATOM     76  O   UNL A   1      29.664  28.207  22.003  1.00  0.00    -0.269 OA
BRANCH  74  77
ATOM     77  C   UNL A   1      30.747  26.725  23.449  1.00  0.00     0.042 A 
ATOM     78  C   UNL A   1      30.471  26.860  24.812  1.00  0.00     0.014 A 
ATOM     79  C   UNL A   1      31.036  25.474  22.906  1.00  0.00     0.053 A 
ATOM     80  C   UNL A   1      30.578  25.747  25.653  1.00  0.00     0.013 A 
ATOM     81  C   UNL A   1      31.169  24.383  23.760  1.00  0.00     0.132 A 
ATOM     82  C   UNL A   1      31.005  24.508  25.144  1.00  0.00     0.042 A 
ATOM     83  F   UNL A   1      31.510  23.198  23.232  1.00  0.00    -0.206 F 
BRANCH  82  84
ATOM     84  C   UNL A   1      31.313  23.350  26.066  1.00  0.00     0.302 C 
BRANCH  84  85
ATOM     85  N   UNL A   1      32.520  23.426  26.904  1.00  0.00    -0.322 N 
ATOM     86  C   UNL A   1      32.900  22.197  27.614  1.00  0.00     0.324 C 
ATOM     87  C   UNL A   1      33.698  24.063  26.305  1.00  0.00     0.328 C 
ATOM     88  H   UNL A   1      32.175  24.073  27.612  1.00  0.00     0.348 HD
ATOM     89  C   UNL A   1      33.895  21.258  26.885  1.00  0.00     0.324 C 
ATOM     90  C   UNL A   1      34.590  23.105  25.479  1.00  0.00     0.239 C 
ATOM     91  N   UNL A   1      35.055  21.940  26.261  1.00  0.00    -0.323 N 
ATOM     92  C   UNL A   1      35.774  23.850  24.855  1.00  0.00     0.071 C 
ATOM     93  C   UNL A   1      35.771  20.997  25.388  1.00  0.00     0.262 C 
ATOM     94  H   UNL A   1      35.690  22.265  26.989  1.00  0.00     0.348 HD
ATOM     95  C   UNL A   1      36.507  22.919  23.895  1.00  0.00     0.012 C 
ATOM     96  C   UNL A   1      36.928  21.645  24.619  1.00  0.00     0.062 C 
ENDBRANCH  84  85
ENDBRANCH  82  84
ENDBRANCH  74  77
ENDBRANCH  72  73
ENDBRANCH   1  72
TORSDOF 12
ENDMDL
