MODEL 1
REMARK VINA RESULT:     -13.4      0.000      0.000
REMARK SMILES Cc1cc(C[N@H+]2CC[C@](C)(C(=O)NCCCNC(=O)c3ccc(-c4c5nc(c(-c6c(F)c(F)c(F)c(F)c6F)c6ccc([nH]6)c(-c6c(F)c(F)c(F)c(F)c6F)c6nc(c(-c7c(F)c(F)c(F)c(F)c7F)c7ccc4[nH]7)C=C6)C=C5)cc3)C2)c2ccccc2n1
REMARK SMILES IDX 15 1 14 2 13 3 11 4 12 5 9 7 6 8 7 9 83 10 8 12 10 13 5 14
REMARK SMILES IDX 4 15 1 16 2 17 3 18 90 19 89 20 84 21 88 22 85 23 87 24
REMARK SMILES IDX 86 25 16 26 17 27 18 28 19 30 20 31 21 32 82 33 22 34 81 35
REMARK SMILES IDX 23 36 24 37 25 38 75 39 26 40 80 41 74 42 76 43 27 44 79 45
REMARK SMILES IDX 73 46 72 47 28 49 60 50 40 51 59 52 41 53 44 54 58 55 77 56
REMARK SMILES IDX 42 57 43 58 57 60 78 61 45 62 29 63 30 64 38 65 31 66 32 67
REMARK SMILES IDX 36 68 39 69 33 70 34 71 37 72 35 73 61 74 62 75 70 76 63 77
REMARK SMILES IDX 64 78 68 79 71 80 65 81 66 82 69 83 67 84 46 85 47 86 55 87
REMARK SMILES IDX 48 88 49 89 53 90 56 91 50 92 51 93 54 94 52 95
REMARK H PARENT 13 6 6 11 17 29 76 48 44 59
REMARK Flexibility Score: inf
ROOT
ATOM      1  C   UNL A   1      31.577  32.042  26.527  1.00  0.00     0.042 C 
ENDROOT
BRANCH   1   2
ATOM      2  C   UNL A   1      31.632  30.520  26.510  1.00  0.00     0.117 C 
BRANCH   2   3
ATOM      3  N   UNL A   1      32.678  29.985  25.649  1.00  0.00    -0.355 N 
ATOM      4  C   UNL A   1      33.067  28.702  25.374  1.00  0.00     0.231 C 
ATOM      5  O   UNL A   1      33.942  28.556  24.518  1.00  0.00    -0.274 OA
ATOM      6  H   UNL A   1      33.202  30.674  25.178  1.00  0.00     0.163 HD
BRANCH   4   7
ATOM      7  C   UNL A   1      32.434  27.508  26.092  1.00  0.00     0.100 C 
ATOM      8  N   UNL A   1      32.599  25.103  25.884  1.00  0.00    -0.330 N 
ATOM      9  C   UNL A   1      31.189  25.463  25.842  1.00  0.00     0.263 C 
ATOM     10  C   UNL A   1      33.393  26.316  26.026  1.00  0.00     0.279 C 
ATOM     11  H   UNL A   1      32.817  24.683  24.980  1.00  0.00     0.348 HD
ATOM     12  C   UNL A   1      31.216  26.916  25.360  1.00  0.00     0.084 C 
ATOM     13  C   UNL A   1      31.980  27.913  27.509  1.00  0.00     0.028 C 
BRANCH   8  14
ATOM     14  C   UNL A   1      33.011  23.926  26.649  1.00  0.00     0.299 C 
BRANCH  14  15
ATOM     15  C   UNL A   1      33.631  22.788  25.857  1.00  0.00     0.017 A 
ATOM     16  C   UNL A   1      32.473  19.523  24.314  1.00  0.00     0.067 C 
ATOM     17  C   UNL A   1      33.341  20.618  24.854  1.00  0.00     0.038 A 
ATOM     18  C   UNL A   1      32.791  21.738  25.456  1.00  0.00     0.033 A 
ATOM     19  N   UNL A   1      34.674  20.450  24.725  1.00  0.00    -0.253 NA
ATOM     20  C   UNL A   1      35.489  21.456  25.075  1.00  0.00     0.071 A 
ATOM     21  C   UNL A   1      35.016  22.695  25.555  1.00  0.00     0.009 A 
ATOM     22  C   UNL A   1      36.859  21.259  24.958  1.00  0.00     0.029 A 
ATOM     23  C   UNL A   1      35.954  23.747  25.707  1.00  0.00     0.011 A 
ATOM     24  C   UNL A   1      37.781  22.271  25.229  1.00  0.00     0.002 A 
ATOM     25  C   UNL A   1      37.324  23.534  25.567  1.00  0.00     0.001 A 
ENDBRANCH  14  15
ENDBRANCH   8  14
ENDBRANCH   4   7
ENDBRANCH   2   3
ENDBRANCH   1   2
BRANCH   1  26
ATOM     26  C   UNL A   1      32.690  32.695  27.336  1.00  0.00     0.118 C 
BRANCH  26  27
ATOM     27  N   UNL A   1      32.417  34.092  27.649  1.00  0.00    -0.352 N 
ATOM     28  C   UNL A   1      32.989  34.932  28.577  1.00  0.00     0.251 C 
ATOM     29  H   UNL A   1      31.706  34.504  27.107  1.00  0.00     0.163 HD
ATOM     30  O   UNL A   1      32.494  36.030  28.791  1.00  0.00    -0.269 OA
BRANCH  28  31
ATOM     31  C   UNL A   1      34.183  34.504  29.339  1.00  0.00     0.039 A 
ATOM     32  C   UNL A   1      34.008  33.905  30.592  1.00  0.00     0.014 A 
ATOM     33  C   UNL A   1      35.467  34.693  28.831  1.00  0.00     0.014 A 
ATOM     34  C   UNL A   1      35.116  33.411  31.288  1.00  0.00     0.010 A 
ATOM     35  C   UNL A   1      36.558  34.125  29.480  1.00  0.00     0.010 A 
ATOM     36  C   UNL A   1      36.394  33.471  30.711  1.00  0.00    -0.014 A 
BRANCH  36  37
ATOM     37  C   UNL A   1      37.580  32.850  31.353  1.00  0.00     0.031 A 
ATOM     38  C   UNL A   1      38.249  31.669  30.709  1.00  0.00     0.074 A 
ATOM     39  C   UNL A   1      37.978  33.269  32.571  1.00  0.00     0.049 A 
ATOM     40  N   UNL A   1      39.169  30.872  31.188  1.00  0.00    -0.248 NA
ATOM     41  C   UNL A   1      37.792  31.315  29.355  1.00  0.00     0.031 C 
ATOM     42  C   UNL A   1      37.383  34.376  33.321  1.00  0.00     0.029 A 
ATOM     43  N   UNL A   1      38.957  32.791  33.405  1.00  0.00    -0.354 N 
ATOM     44  C   UNL A   1      39.375  29.904  30.213  1.00  0.00     0.074 A 
ATOM     45  C   UNL A   1      38.456  30.190  29.133  1.00  0.00     0.031 C 
ATOM     46  C   UNL A   1      38.013  34.497  34.500  1.00  0.00     0.029 A 
ATOM     47  C   UNL A   1      39.022  33.449  34.611  1.00  0.00     0.049 A 
ATOM     48  H   UNL A   1      39.557  32.049  33.164  1.00  0.00     0.167 HD
ATOM     49  C   UNL A   1      40.262  28.880  30.214  1.00  0.00     0.037 A 
ATOM     50  C   UNL A   1      39.792  33.217  35.691  1.00  0.00     0.037 A 
ATOM     51  C   UNL A   1      41.201  28.626  31.275  1.00  0.00     0.049 A 
ATOM     52  C   UNL A   1      40.778  32.082  35.663  1.00  0.00     0.074 A 
ATOM     53  C   UNL A   1      42.189  27.659  31.337  1.00  0.00     0.029 A 
ATOM     54  N   UNL A   1      41.268  29.345  32.458  1.00  0.00    -0.354 N 
ATOM     55  N   UNL A   1      41.004  31.207  34.713  1.00  0.00    -0.248 NA
ATOM     56  C   UNL A   1      41.619  31.903  36.856  1.00  0.00     0.031 C 
ATOM     57  C   UNL A   1      42.827  27.767  32.578  1.00  0.00     0.029 A 
ATOM     58  C   UNL A   1      42.270  28.833  33.266  1.00  0.00     0.049 A 
ATOM     59  H   UNL A   1      40.690  30.108  32.691  1.00  0.00     0.167 HD
ATOM     60  C   UNL A   1      42.031  30.396  35.177  1.00  0.00     0.074 A 
ATOM     61  C   UNL A   1      42.389  30.887  36.492  1.00  0.00     0.031 C 
ATOM     62  C   UNL A   1      42.625  29.343  34.565  1.00  0.00     0.037 A 
BRANCH  49  63
ATOM     63  C   UNL A   1      40.256  27.956  29.031  1.00  0.00     0.064 A 
ATOM     64  C   UNL A   1      40.981  28.245  27.865  1.00  0.00     0.173 A 
ATOM     65  C   UNL A   1      39.542  26.749  29.077  1.00  0.00     0.173 A 
ATOM     66  F   UNL A   1      41.671  29.391  27.767  1.00  0.00    -0.203 F 
ATOM     67  C   UNL A   1      40.962  27.377  26.776  1.00  0.00     0.198 A 
ATOM     68  C   UNL A   1      39.551  25.868  27.998  1.00  0.00     0.198 A 
ATOM     69  F   UNL A   1      38.837  26.421  30.171  1.00  0.00    -0.203 F 
ATOM     70  F   UNL A   1      41.618  27.701  25.654  1.00  0.00    -0.200 F 
ATOM     71  C   UNL A   1      40.254  26.188  26.846  1.00  0.00     0.200 A 
ATOM     72  F   UNL A   1      38.877  24.713  28.072  1.00  0.00    -0.200 F 
ATOM     73  F   UNL A   1      40.242  25.351  25.799  1.00  0.00    -0.200 F 
ENDBRANCH  49  63
BRANCH  50  74
ATOM     74  C   UNL A   1      39.669  34.092  36.886  1.00  0.00     0.064 A 
ATOM     75  C   UNL A   1      38.854  33.724  37.964  1.00  0.00     0.173 A 
ATOM     76  C   UNL A   1      40.368  35.304  36.980  1.00  0.00     0.173 A 
ATOM     77  F   UNL A   1      38.150  32.583  37.911  1.00  0.00    -0.203 F 
ATOM     78  C   UNL A   1      38.729  34.541  39.085  1.00  0.00     0.198 A 
ATOM     79  C   UNL A   1      40.264  36.109  38.113  1.00  0.00     0.198 A 
ATOM     80  F   UNL A   1      41.169  35.699  35.978  1.00  0.00    -0.203 F 
ATOM     81  F   UNL A   1      37.912  34.184  40.085  1.00  0.00    -0.200 F 
ATOM     82  C   UNL A   1      39.439  35.730  39.162  1.00  0.00     0.200 A 
ATOM     83  F   UNL A   1      40.964  37.249  38.190  1.00  0.00    -0.200 F 
ATOM     84  F   UNL A   1      39.325  36.513  40.243  1.00  0.00    -0.200 F 
ENDBRANCH  50  74
BRANCH  62  85
ATOM     85  C   UNL A   1      43.759  28.676  35.286  1.00  0.00     0.064 A 
ATOM     86  C   UNL A   1      45.092  29.059  35.081  1.00  0.00     0.173 A 
ATOM     87  C   UNL A   1      43.500  27.680  36.241  1.00  0.00     0.173 A 
ATOM     88  F   UNL A   1      45.392  29.996  34.168  1.00  0.00    -0.203 F 
ATOM     89  C   UNL A   1      46.126  28.458  35.794  1.00  0.00     0.198 A 
ATOM     90  C   UNL A   1      44.533  27.101  36.970  1.00  0.00     0.198 A 
ATOM     91  F   UNL A   1      42.240  27.283  36.477  1.00  0.00    -0.203 F 
ATOM     92  F   UNL A   1      47.396  28.813  35.556  1.00  0.00    -0.200 F 
ATOM     93  C   UNL A   1      45.845  27.486  36.744  1.00  0.00     0.200 A 
ATOM     94  F   UNL A   1      44.258  26.172  37.897  1.00  0.00    -0.200 F 
ATOM     95  F   UNL A   1      46.841  26.919  37.438  1.00  0.00    -0.200 F 
ENDBRANCH  62  85
ENDBRANCH  36  37
ENDBRANCH  28  31
ENDBRANCH  26  27
ENDBRANCH   1  26
TORSDOF 12
ENDMDL
MODEL 2
REMARK VINA RESULT:     -13.4      0.767      1.963
REMARK SMILES Cc1cc(C[N@H+]2CC[C@](C)(C(=O)NCCCNC(=O)c3ccc(-c4c5nc(c(-c6c(F)c(F)c(F)c(F)c6F)c6ccc([nH]6)c(-c6c(F)c(F)c(F)c(F)c6F)c6nc(c(-c7c(F)c(F)c(F)c(F)c7F)c7ccc4[nH]7)C=C6)C=C5)cc3)C2)c2ccccc2n1
REMARK SMILES IDX 15 1 14 2 13 3 11 4 12 5 9 7 6 8 7 9 83 10 8 12 10 13 5 14
REMARK SMILES IDX 4 15 1 16 2 17 3 18 90 19 89 20 84 21 88 22 85 23 87 24
REMARK SMILES IDX 86 25 16 26 17 27 18 28 19 30 20 31 21 32 82 33 22 34 81 35
REMARK SMILES IDX 23 36 24 37 25 38 75 39 26 40 80 41 74 42 76 43 27 44 79 45
REMARK SMILES IDX 73 46 72 47 28 49 60 50 40 51 59 52 41 53 44 54 58 55 77 56
REMARK SMILES IDX 42 57 43 58 57 60 78 61 45 62 29 63 30 64 38 65 31 66 32 67
REMARK SMILES IDX 36 68 39 69 33 70 34 71 37 72 35 73 61 74 62 75 70 76 63 77
REMARK SMILES IDX 64 78 68 79 71 80 65 81 66 82 69 83 67 84 46 85 47 86 55 87
REMARK SMILES IDX 48 88 49 89 53 90 56 91 50 92 51 93 54 94 52 95
REMARK H PARENT 13 6 6 11 17 29 76 48 44 59
REMARK Flexibility Score: inf
ROOT
ATOM      1  C   UNL A   1      31.547  31.968  26.659  1.00  0.00     0.042 C 
ENDROOT
BRANCH   1   2
ATOM      2  C   UNL A   1      31.882  30.580  26.128  1.00  0.00     0.117 C 
BRANCH   2   3
ATOM      3  N   UNL A   1      31.644  29.515  27.092  1.00  0.00    -0.355 N 
ATOM      4  C   UNL A   1      31.714  28.152  26.983  1.00  0.00     0.231 C 
ATOM      5  O   UNL A   1      31.542  27.501  28.016  1.00  0.00    -0.274 OA
ATOM      6  H   UNL A   1      31.383  29.834  27.987  1.00  0.00     0.163 HD
BRANCH   4   7
ATOM      7  C   UNL A   1      32.003  27.476  25.641  1.00  0.00     0.100 C 
ATOM      8  N   UNL A   1      33.327  25.578  24.933  1.00  0.00    -0.330 N 
ATOM      9  C   UNL A   1      33.706  26.722  24.116  1.00  0.00     0.263 C 
ATOM     10  C   UNL A   1      32.302  25.993  25.880  1.00  0.00     0.279 C 
ATOM     11  H   UNL A   1      34.159  25.312  25.459  1.00  0.00     0.348 HD
ATOM     12  C   UNL A   1      33.329  27.917  24.995  1.00  0.00     0.084 C 
ATOM     13  C   UNL A   1      30.870  27.768  24.637  1.00  0.00     0.028 C 
BRANCH   8  14
ATOM     14  C   UNL A   1      33.180  24.268  24.299  1.00  0.00     0.299 C 
BRANCH  14  15
ATOM     15  C   UNL A   1      34.164  23.195  24.729  1.00  0.00     0.017 A 
ATOM     16  C   UNL A   1      37.816  23.016  25.734  1.00  0.00     0.067 C 
ATOM     17  C   UNL A   1      36.436  22.633  25.297  1.00  0.00     0.038 A 
ATOM     18  C   UNL A   1      35.474  23.595  25.036  1.00  0.00     0.033 A 
ATOM     19  N   UNL A   1      36.188  21.312  25.170  1.00  0.00    -0.253 NA
ATOM     20  C   UNL A   1      34.935  20.912  24.907  1.00  0.00     0.071 A 
ATOM     21  C   UNL A   1      33.855  21.808  24.776  1.00  0.00     0.009 A 
ATOM     22  C   UNL A   1      34.702  19.551  24.756  1.00  0.00     0.029 A 
ATOM     23  C   UNL A   1      32.549  21.263  24.692  1.00  0.00     0.011 A 
ATOM     24  C   UNL A   1      33.421  19.035  24.553  1.00  0.00     0.002 A 
ATOM     25  C   UNL A   1      32.334  19.893  24.561  1.00  0.00     0.001 A 
ENDBRANCH  14  15
ENDBRANCH   8  14
ENDBRANCH   4   7
ENDBRANCH   2   3
ENDBRANCH   1   2
BRANCH   1  26
ATOM     26  C   UNL A   1      32.719  32.679  27.320  1.00  0.00     0.118 C 
BRANCH  26  27
ATOM     27  N   UNL A   1      32.426  34.070  27.646  1.00  0.00    -0.352 N 
ATOM     28  C   UNL A   1      32.984  34.907  28.585  1.00  0.00     0.251 C 
ATOM     29  H   UNL A   1      31.712  34.477  27.106  1.00  0.00     0.163 HD
ATOM     30  O   UNL A   1      32.473  35.996  28.808  1.00  0.00    -0.269 OA
BRANCH  28  31
ATOM     31  C   UNL A   1      34.180  34.488  29.348  1.00  0.00     0.039 A 
ATOM     32  C   UNL A   1      34.011  33.904  30.608  1.00  0.00     0.014 A 
ATOM     33  C   UNL A   1      35.463  34.671  28.832  1.00  0.00     0.014 A 
ATOM     34  C   UNL A   1      35.121  33.418  31.305  1.00  0.00     0.010 A 
ATOM     35  C   UNL A   1      36.556  34.109  29.483  1.00  0.00     0.010 A 
ATOM     36  C   UNL A   1      36.397  33.470  30.723  1.00  0.00    -0.014 A 
BRANCH  36  37
ATOM     37  C   UNL A   1      37.585  32.856  31.368  1.00  0.00     0.031 A 
ATOM     38  C   UNL A   1      38.260  31.676  30.727  1.00  0.00     0.074 A 
ATOM     39  C   UNL A   1      37.979  33.280  32.585  1.00  0.00     0.049 A 
ATOM     40  N   UNL A   1      39.183  30.884  31.209  1.00  0.00    -0.248 NA
ATOM     41  C   UNL A   1      37.806  31.317  29.373  1.00  0.00     0.031 C 
ATOM     42  C   UNL A   1      37.379  34.385  33.332  1.00  0.00     0.029 A 
ATOM     43  N   UNL A   1      38.960  32.808  33.421  1.00  0.00    -0.354 N 
ATOM     44  C   UNL A   1      39.394  29.916  30.236  1.00  0.00     0.074 A 
ATOM     45  C   UNL A   1      38.475  30.195  29.154  1.00  0.00     0.031 C 
ATOM     46  C   UNL A   1      38.007  34.512  34.511  1.00  0.00     0.029 A 
ATOM     47  C   UNL A   1      39.021  33.469  34.625  1.00  0.00     0.049 A 
ATOM     48  H   UNL A   1      39.564  32.068  33.182  1.00  0.00     0.167 HD
ATOM     49  C   UNL A   1      40.286  28.896  30.240  1.00  0.00     0.037 A 
ATOM     50  C   UNL A   1      39.791  33.243  35.707  1.00  0.00     0.037 A 
ATOM     51  C   UNL A   1      41.225  28.648  31.303  1.00  0.00     0.049 A 
ATOM     52  C   UNL A   1      40.782  32.112  35.682  1.00  0.00     0.074 A 
ATOM     53  C   UNL A   1      42.217  27.686  31.368  1.00  0.00     0.029 A 
ATOM     54  N   UNL A   1      41.288  29.370  32.484  1.00  0.00    -0.354 N 
ATOM     55  N   UNL A   1      41.013  31.237  34.734  1.00  0.00    -0.248 NA
ATOM     56  C   UNL A   1      41.622  31.940  36.876  1.00  0.00     0.031 C 
ATOM     57  C   UNL A   1      42.854  27.800  32.609  1.00  0.00     0.029 A 
ATOM     58  C   UNL A   1      42.292  28.865  33.294  1.00  0.00     0.049 A 
ATOM     59  H   UNL A   1      40.706  30.131  32.714  1.00  0.00     0.167 HD
ATOM     60  C   UNL A   1      42.043  30.432  35.201  1.00  0.00     0.074 A 
ATOM     61  C   UNL A   1      42.398  30.927  36.515  1.00  0.00     0.031 C 
ATOM     62  C   UNL A   1      42.643  29.380  34.593  1.00  0.00     0.037 A 
BRANCH  49  63
ATOM     63  C   UNL A   1      40.285  27.969  29.060  1.00  0.00     0.064 A 
ATOM     64  C   UNL A   1      41.039  28.241  27.907  1.00  0.00     0.173 A 
ATOM     65  C   UNL A   1      39.547  26.777  29.094  1.00  0.00     0.173 A 
ATOM     66  F   UNL A   1      41.753  29.373  27.820  1.00  0.00    -0.203 F 
ATOM     67  C   UNL A   1      41.025  27.370  26.820  1.00  0.00     0.198 A 
ATOM     68  C   UNL A   1      39.561  25.893  28.017  1.00  0.00     0.198 A 
ATOM     69  F   UNL A   1      38.814  26.465  30.174  1.00  0.00    -0.203 F 
ATOM     70  F   UNL A   1      41.709  27.679  25.710  1.00  0.00    -0.200 F 
ATOM     71  C   UNL A   1      40.292  26.195  26.878  1.00  0.00     0.200 A 
ATOM     72  F   UNL A   1      38.862  24.751  28.080  1.00  0.00    -0.200 F 
ATOM     73  F   UNL A   1      40.285  25.356  25.833  1.00  0.00    -0.200 F 
ENDBRANCH  49  63
BRANCH  50  74
ATOM     74  C   UNL A   1      39.663  34.121  36.900  1.00  0.00     0.064 A 
ATOM     75  C   UNL A   1      40.333  35.350  36.960  1.00  0.00     0.173 A 
ATOM     76  C   UNL A   1      38.865  33.757  37.993  1.00  0.00     0.173 A 
ATOM     77  F   UNL A   1      41.124  35.731  35.946  1.00  0.00    -0.203 F 
ATOM     78  C   UNL A   1      40.223  36.175  38.076  1.00  0.00     0.198 A 
ATOM     79  C   UNL A   1      38.734  34.595  39.099  1.00  0.00     0.198 A 
ATOM     80  F   UNL A   1      38.196  32.594  37.981  1.00  0.00    -0.203 F 
ATOM     81  F   UNL A   1      40.906  37.327  38.126  1.00  0.00    -0.200 F 
ATOM     82  C   UNL A   1      39.418  35.801  39.142  1.00  0.00     0.200 A 
ATOM     83  F   UNL A   1      37.943  34.238  40.119  1.00  0.00    -0.200 F 
ATOM     84  F   UNL A   1      39.307  36.598  40.214  1.00  0.00    -0.200 F 
ENDBRANCH  50  74
BRANCH  62  85
ATOM     85  C   UNL A   1      43.779  28.719  35.316  1.00  0.00     0.064 A 
ATOM     86  C   UNL A   1      45.110  29.111  35.115  1.00  0.00     0.173 A 
ATOM     87  C   UNL A   1      43.523  27.722  36.270  1.00  0.00     0.173 A 
ATOM     88  F   UNL A   1      45.406  30.050  34.203  1.00  0.00    -0.203 F 
ATOM     89  C   UNL A   1      46.146  28.516  35.830  1.00  0.00     0.198 A 
ATOM     90  C   UNL A   1      44.558  27.148  37.002  1.00  0.00     0.198 A 
ATOM     91  F   UNL A   1      42.266  27.316  36.502  1.00  0.00    -0.203 F 
ATOM     92  F   UNL A   1      47.414  28.879  35.596  1.00  0.00    -0.200 F 
ATOM     93  C   UNL A   1      45.869  27.542  36.779  1.00  0.00     0.200 A 
ATOM     94  F   UNL A   1      44.287  26.217  37.927  1.00  0.00    -0.200 F 
ATOM     95  F   UNL A   1      46.867  26.981  37.475  1.00  0.00    -0.200 F 
ENDBRANCH  62  85
ENDBRANCH  36  37
ENDBRANCH  28  31
ENDBRANCH  26  27
ENDBRANCH   1  26
TORSDOF 12
ENDMDL
MODEL 3
REMARK VINA RESULT:     -13.3      0.959      1.860
REMARK SMILES Cc1cc(C[N@H+]2CC[C@](C)(C(=O)NCCCNC(=O)c3ccc(-c4c5nc(c(-c6c(F)c(F)c(F)c(F)c6F)c6ccc([nH]6)c(-c6c(F)c(F)c(F)c(F)c6F)c6nc(c(-c7c(F)c(F)c(F)c(F)c7F)c7ccc4[nH]7)C=C6)C=C5)cc3)C2)c2ccccc2n1
REMARK SMILES IDX 15 1 14 2 13 3 11 4 12 5 9 7 6 8 7 9 83 10 8 12 10 13 5 14
REMARK SMILES IDX 4 15 1 16 2 17 3 18 90 19 89 20 84 21 88 22 85 23 87 24
REMARK SMILES IDX 86 25 16 26 17 27 18 28 19 30 20 31 21 32 82 33 22 34 81 35
REMARK SMILES IDX 23 36 24 37 25 38 75 39 26 40 80 41 74 42 76 43 27 44 79 45
REMARK SMILES IDX 73 46 72 47 28 49 60 50 40 51 59 52 41 53 44 54 58 55 77 56
REMARK SMILES IDX 42 57 43 58 57 60 78 61 45 62 29 63 30 64 38 65 31 66 32 67
REMARK SMILES IDX 36 68 39 69 33 70 34 71 37 72 35 73 61 74 62 75 70 76 63 77
REMARK SMILES IDX 64 78 68 79 71 80 65 81 66 82 69 83 67 84 46 85 47 86 55 87
REMARK SMILES IDX 48 88 49 89 53 90 56 91 50 92 51 93 54 94 52 95
REMARK H PARENT 13 6 6 11 17 29 76 48 44 59
REMARK Flexibility Score: inf
ROOT
ATOM      1  C   UNL A   1      31.550  31.776  26.587  1.00  0.00     0.042 C 
ENDROOT
BRANCH   1   2
ATOM      2  C   UNL A   1      31.791  30.303  26.284  1.00  0.00     0.117 C 
BRANCH   2   3
ATOM      3  N   UNL A   1      32.627  30.080  25.112  1.00  0.00    -0.355 N 
ATOM      4  C   UNL A   1      32.853  28.964  24.351  1.00  0.00     0.231 C 
ATOM      5  O   UNL A   1      33.555  29.107  23.347  1.00  0.00    -0.274 OA
ATOM      6  H   UNL A   1      33.120  30.877  24.812  1.00  0.00     0.163 HD
BRANCH   4   7
ATOM      7  C   UNL A   1      32.252  27.609  24.728  1.00  0.00     0.100 C 
ATOM      8  N   UNL A   1      31.518  25.660  23.496  1.00  0.00    -0.330 N 
ATOM      9  C   UNL A   1      30.436  26.067  24.379  1.00  0.00     0.263 C 
ATOM     10  C   UNL A   1      32.639  26.574  23.667  1.00  0.00     0.279 C 
ATOM     11  H   UNL A   1      31.167  25.761  22.543  1.00  0.00     0.348 HD
ATOM     12  C   UNL A   1      30.718  27.554  24.611  1.00  0.00     0.084 C 
ATOM     13  C   UNL A   1      32.626  27.240  26.178  1.00  0.00     0.028 C 
BRANCH   8  14
ATOM     14  C   UNL A   1      31.818  24.236  23.346  1.00  0.00     0.299 C 
BRANCH  14  15
ATOM     15  C   UNL A   1      33.077  23.734  24.032  1.00  0.00     0.017 A 
ATOM     16  C   UNL A   1      36.654  22.952  23.046  1.00  0.00     0.067 C 
ATOM     17  C   UNL A   1      35.364  23.017  23.805  1.00  0.00     0.038 A 
ATOM     18  C   UNL A   1      34.236  23.601  23.252  1.00  0.00     0.033 A 
ATOM     19  N   UNL A   1      35.365  22.478  25.042  1.00  0.00    -0.253 NA
ATOM     20  C   UNL A   1      34.275  22.624  25.811  1.00  0.00     0.071 A 
ATOM     21  C   UNL A   1      33.131  23.335  25.394  1.00  0.00     0.009 A 
ATOM     22  C   UNL A   1      34.283  22.042  27.073  1.00  0.00     0.029 A 
ATOM     23  C   UNL A   1      32.123  23.590  26.358  1.00  0.00     0.011 A 
ATOM     24  C   UNL A   1      33.226  22.202  27.970  1.00  0.00     0.002 A 
ATOM     25  C   UNL A   1      32.158  23.013  27.626  1.00  0.00     0.001 A 
ENDBRANCH  14  15
ENDBRANCH   8  14
ENDBRANCH   4   7
ENDBRANCH   2   3
ENDBRANCH   1   2
BRANCH   1  26
ATOM     26  C   UNL A   1      32.728  32.475  27.251  1.00  0.00     0.118 C 
BRANCH  26  27
ATOM     27  N   UNL A   1      32.455  33.873  27.561  1.00  0.00    -0.352 N 
ATOM     28  C   UNL A   1      33.023  34.713  28.491  1.00  0.00     0.251 C 
ATOM     29  H   UNL A   1      31.747  34.285  27.014  1.00  0.00     0.163 HD
ATOM     30  O   UNL A   1      32.528  35.812  28.701  1.00  0.00    -0.269 OA
BRANCH  28  31
ATOM     31  C   UNL A   1      34.212  34.284  29.261  1.00  0.00     0.039 A 
ATOM     32  C   UNL A   1      34.028  33.631  30.484  1.00  0.00     0.014 A 
ATOM     33  C   UNL A   1      35.501  34.527  28.788  1.00  0.00     0.014 A 
ATOM     34  C   UNL A   1      35.134  33.137  31.183  1.00  0.00     0.010 A 
ATOM     35  C   UNL A   1      36.593  33.960  29.436  1.00  0.00     0.010 A 
ATOM     36  C   UNL A   1      36.421  33.252  30.636  1.00  0.00    -0.014 A 
BRANCH  36  37
ATOM     37  C   UNL A   1      37.610  32.636  31.278  1.00  0.00     0.031 A 
ATOM     38  C   UNL A   1      38.310  31.485  30.611  1.00  0.00     0.074 A 
ATOM     39  C   UNL A   1      37.983  33.028  32.512  1.00  0.00     0.049 A 
ATOM     40  N   UNL A   1      39.238  30.692  31.081  1.00  0.00    -0.248 NA
ATOM     41  C   UNL A   1      37.878  31.161  29.241  1.00  0.00     0.031 C 
ATOM     42  C   UNL A   1      37.357  34.102  33.284  1.00  0.00     0.029 A 
ATOM     43  N   UNL A   1      38.960  32.545  33.347  1.00  0.00    -0.354 N 
ATOM     44  C   UNL A   1      39.476  29.756  30.083  1.00  0.00     0.074 A 
ATOM     45  C   UNL A   1      38.566  30.055  28.997  1.00  0.00     0.031 C 
ATOM     46  C   UNL A   1      37.969  34.202  34.475  1.00  0.00     0.029 A 
ATOM     47  C   UNL A   1      38.995  33.170  34.571  1.00  0.00     0.049 A 
ATOM     48  H   UNL A   1      39.577  31.821  33.094  1.00  0.00     0.167 HD
ATOM     49  C   UNL A   1      40.382  28.750  30.068  1.00  0.00     0.037 A 
ATOM     50  C   UNL A   1      39.755  32.922  35.655  1.00  0.00     0.037 A 
ATOM     51  C   UNL A   1      41.310  28.483  31.134  1.00  0.00     0.049 A 
ATOM     52  C   UNL A   1      40.763  31.807  35.609  1.00  0.00     0.074 A 
ATOM     53  C   UNL A   1      42.316  27.533  31.184  1.00  0.00     0.029 A 
ATOM     54  N   UNL A   1      41.348  29.170  32.338  1.00  0.00    -0.354 N 
ATOM     55  N   UNL A   1      41.018  30.964  34.639  1.00  0.00    -0.248 NA
ATOM     56  C   UNL A   1      41.590  31.610  36.809  1.00  0.00     0.031 C 
ATOM     57  C   UNL A   1      42.934  27.618  32.436  1.00  0.00     0.029 A 
ATOM     58  C   UNL A   1      42.349  28.654  33.145  1.00  0.00     0.049 A 
ATOM     59  H   UNL A   1      40.753  29.915  32.583  1.00  0.00     0.167 HD
ATOM     60  C   UNL A   1      42.054  30.159  35.095  1.00  0.00     0.074 A 
ATOM     61  C   UNL A   1      42.384  30.619  36.428  1.00  0.00     0.031 C 
ATOM     62  C   UNL A   1      42.676  29.135  34.463  1.00  0.00     0.037 A 
BRANCH  49  63
ATOM     63  C   UNL A   1      40.409  27.858  28.860  1.00  0.00     0.064 A 
ATOM     64  C   UNL A   1      41.194  28.161  27.737  1.00  0.00     0.173 A 
ATOM     65  C   UNL A   1      39.666  26.669  28.838  1.00  0.00     0.173 A 
ATOM     66  F   UNL A   1      41.915  29.293  27.703  1.00  0.00    -0.203 F 
ATOM     67  C   UNL A   1      41.206  27.325  26.624  1.00  0.00     0.198 A 
ATOM     68  C   UNL A   1      39.705  25.818  27.736  1.00  0.00     0.198 A 
ATOM     69  F   UNL A   1      38.903  26.328  29.888  1.00  0.00    -0.203 F 
ATOM     70  F   UNL A   1      41.921  27.663  25.543  1.00  0.00    -0.200 F 
ATOM     71  C   UNL A   1      40.467  26.152  26.627  1.00  0.00     0.200 A 
ATOM     72  F   UNL A   1      39.001  24.678  27.746  1.00  0.00    -0.200 F 
ATOM     73  F   UNL A   1      40.485  25.344  25.557  1.00  0.00    -0.200 F 
ENDBRANCH  49  63
BRANCH  50  74
ATOM     74  C   UNL A   1      39.600  33.762  36.872  1.00  0.00     0.064 A 
ATOM     75  C   UNL A   1      40.283  34.979  36.995  1.00  0.00     0.173 A 
ATOM     76  C   UNL A   1      38.762  33.373  37.926  1.00  0.00     0.173 A 
ATOM     77  F   UNL A   1      41.112  35.382  36.021  1.00  0.00    -0.203 F 
ATOM     78  C   UNL A   1      40.147  35.769  38.134  1.00  0.00     0.198 A 
ATOM     79  C   UNL A   1      38.605  34.177  39.055  1.00  0.00     0.198 A 
ATOM     80  F   UNL A   1      38.079  32.221  37.854  1.00  0.00    -0.203 F 
ATOM     81  F   UNL A   1      40.843  36.909  38.244  1.00  0.00    -0.200 F 
ATOM     82  C   UNL A   1      39.303  35.370  39.160  1.00  0.00     0.200 A 
ATOM     83  F   UNL A   1      37.777  33.796  40.036  1.00  0.00    -0.200 F 
ATOM     84  F   UNL A   1      39.167  36.133  40.254  1.00  0.00    -0.200 F 
ENDBRANCH  50  74
BRANCH  62  85
ATOM     85  C   UNL A   1      43.812  28.468  35.182  1.00  0.00     0.064 A 
ATOM     86  C   UNL A   1      45.132  28.928  35.064  1.00  0.00     0.173 A 
ATOM     87  C   UNL A   1      43.565  27.392  36.048  1.00  0.00     0.173 A 
ATOM     88  F   UNL A   1      45.420  29.945  34.237  1.00  0.00    -0.203 F 
ATOM     89  C   UNL A   1      46.165  28.324  35.774  1.00  0.00     0.198 A 
ATOM     90  C   UNL A   1      44.596  26.808  36.777  1.00  0.00     0.198 A 
ATOM     91  F   UNL A   1      42.319  26.919  36.199  1.00  0.00    -0.203 F 
ATOM     92  F   UNL A   1      47.424  28.756  35.619  1.00  0.00    -0.200 F 
ATOM     93  C   UNL A   1      45.895  27.271  36.637  1.00  0.00     0.200 A 
ATOM     94  F   UNL A   1      44.332  25.800  37.620  1.00  0.00    -0.200 F 
ATOM     95  F   UNL A   1      46.890  26.700  37.329  1.00  0.00    -0.200 F 
ENDBRANCH  62  85
ENDBRANCH  36  37
ENDBRANCH  28  31
ENDBRANCH  26  27
ENDBRANCH   1  26
TORSDOF 12
ENDMDL
