MODEL 1
REMARK VINA RESULT:     -11.9      0.000      0.000
REMARK SMILES CC[C@H](C)[C@H](NC(=O)[C@@H]1CCC[NH2+]1)C(=O)NCCCNC(=O)c1ccc(-c2c3nc(c(-c4c(F)c(F)c(F)c(F)c4F)c4ccc([nH]4)c(-c4c(F)c(F)c(F)c(F)c4F)c4nc(c(-c5c(F)c(F)c(F)c(F)c5F)c5ccc2[nH]5)C=C4)C=C3)cc1
REMARK SMILES IDX 18 1 17 2 16 3 14 4 15 5 5 7 3 8 4 9 2 10 1 11 6 12 7 13
REMARK SMILES IDX 8 15 9 16 10 17 13 18 11 19 12 20 19 23 20 24 21 25 22 27
REMARK SMILES IDX 23 28 24 29 85 30 25 31 84 32 26 33 27 34 28 35 78 36 29 37
REMARK SMILES IDX 83 38 77 39 79 40 30 41 82 42 76 43 75 44 31 46 63 47 43 48
REMARK SMILES IDX 62 49 44 50 47 51 61 52 80 53 45 54 46 55 60 57 81 58 48 59
REMARK SMILES IDX 32 60 33 61 41 62 34 63 35 64 39 65 42 66 36 67 37 68 40 69
REMARK SMILES IDX 38 70 64 71 65 72 73 73 66 74 67 75 71 76 74 77 68 78 69 79
REMARK SMILES IDX 72 80 70 81 49 82 50 83 58 84 51 85 52 86 56 87 59 88 53 89
REMARK SMILES IDX 54 90 57 91 55 92
REMARK H PARENT 16 6 6 14 13 21 13 22 20 26 79 45 47 56
REMARK Flexibility Score: inf
ROOT
ATOM      1  C   UNL A   1      31.501  32.078  26.721  1.00  0.00     0.042 C 
ENDROOT
BRANCH   1   2
ATOM      2  C   UNL A   1      31.818  30.675  26.230  1.00  0.00     0.117 C 
BRANCH   2   3
ATOM      3  N   UNL A   1      32.838  29.945  26.949  1.00  0.00    -0.354 N 
ATOM      4  C   UNL A   1      33.517  28.810  26.649  1.00  0.00     0.242 C 
ATOM      5  O   UNL A   1      34.570  28.629  27.272  1.00  0.00    -0.273 OA
ATOM      6  H   UNL A   1      33.085  30.345  27.814  1.00  0.00     0.163 HD
BRANCH   4   7
ATOM      7  C   UNL A   1      33.085  27.802  25.561  1.00  0.00     0.174 C 
BRANCH   7   8
ATOM      8  C   UNL A   1      33.446  26.322  25.936  1.00  0.00     0.018 C 
ATOM      9  C   UNL A   1      32.249  25.458  26.363  1.00  0.00     0.010 C 
BRANCH   8  10
ATOM     10  C   UNL A   1      34.199  25.546  24.832  1.00  0.00     0.002 C 
ATOM     11  C   UNL A   1      35.232  24.561  25.353  1.00  0.00     0.004 C 
ENDBRANCH   8  10
ENDBRANCH   7   8
BRANCH   7  12
ATOM     12  N   UNL A   1      33.507  28.125  24.192  1.00  0.00    -0.339 N 
ATOM     13  C   UNL A   1      32.836  28.467  23.063  1.00  0.00     0.278 C 
ATOM     14  H   UNL A   1      34.481  28.085  24.067  1.00  0.00     0.164 HD
ATOM     15  O   UNL A   1      33.510  28.372  22.026  1.00  0.00    -0.268 OA
BRANCH  13  16
ATOM     16  C   UNL A   1      31.387  28.992  22.972  1.00  0.00     0.272 C 
ATOM     17  C   UNL A   1      30.179  28.091  22.979  1.00  0.00     0.081 C 
ATOM     18  N   UNL A   1      31.159  29.778  21.733  1.00  0.00    -0.336 N 
ATOM     19  C   UNL A   1      29.045  29.018  22.583  1.00  0.00     0.068 C 
ATOM     20  C   UNL A   1      29.722  30.103  21.757  1.00  0.00     0.261 C 
ATOM     21  H   UNL A   1      31.389  29.224  20.908  1.00  0.00     0.346 HD
ATOM     22  H   UNL A   1      31.743  30.613  21.693  1.00  0.00     0.346 HD
ENDBRANCH  13  16
ENDBRANCH   7  12
ENDBRANCH   4   7
ENDBRANCH   2   3
ENDBRANCH   1   2
BRANCH   1  23
ATOM     23  C   UNL A   1      32.624  32.912  27.316  1.00  0.00     0.118 C 
BRANCH  23  24
ATOM     24  N   UNL A   1      32.257  34.225  27.806  1.00  0.00    -0.352 N 
ATOM     25  C   UNL A   1      32.955  35.025  28.675  1.00  0.00     0.251 C 
ATOM     26  H   UNL A   1      31.401  34.586  27.475  1.00  0.00     0.163 HD
ATOM     27  O   UNL A   1      32.534  36.137  28.977  1.00  0.00    -0.269 OA
BRANCH  25  28
ATOM     28  C   UNL A   1      34.188  34.505  29.296  1.00  0.00     0.039 A 
ATOM     29  C   UNL A   1      34.069  33.801  30.495  1.00  0.00     0.014 A 
ATOM     30  C   UNL A   1      35.436  34.661  28.682  1.00  0.00     0.014 A 
ATOM     31  C   UNL A   1      35.198  33.206  31.056  1.00  0.00     0.010 A 
ATOM     32  C   UNL A   1      36.552  34.017  29.216  1.00  0.00     0.010 A 
ATOM     33  C   UNL A   1      36.442  33.286  30.409  1.00  0.00    -0.014 A 
BRANCH  33  34
ATOM     34  C   UNL A   1      37.620  32.598  30.992  1.00  0.00     0.031 A 
ATOM     35  C   UNL A   1      38.110  32.958  32.365  1.00  0.00     0.074 A 
ATOM     36  C   UNL A   1      38.246  31.642  30.282  1.00  0.00     0.049 A 
ATOM     37  N   UNL A   1      39.055  32.397  33.077  1.00  0.00    -0.248 NA
ATOM     38  C   UNL A   1      37.467  34.108  33.018  1.00  0.00     0.031 C 
ATOM     39  C   UNL A   1      37.908  31.250  28.912  1.00  0.00     0.029 A 
ATOM     40  N   UNL A   1      39.291  30.816  30.615  1.00  0.00    -0.354 N 
ATOM     41  C   UNL A   1      39.114  33.119  34.261  1.00  0.00     0.074 A 
ATOM     42  C   UNL A   1      38.155  34.196  34.148  1.00  0.00     0.031 C 
ATOM     43  C   UNL A   1      38.705  30.238  28.535  1.00  0.00     0.029 A 
ATOM     44  C   UNL A   1      39.618  29.918  29.630  1.00  0.00     0.049 A 
ATOM     45  H   UNL A   1      39.761  30.865  31.479  1.00  0.00     0.167 HD
ATOM     46  C   UNL A   1      39.877  32.885  35.356  1.00  0.00     0.037 A 
ATOM     47  C   UNL A   1      40.538  28.935  29.619  1.00  0.00     0.037 A 
ATOM     48  C   UNL A   1      40.824  31.808  35.469  1.00  0.00     0.049 A 
ATOM     49  C   UNL A   1      41.362  28.686  30.853  1.00  0.00     0.074 A 
ATOM     50  C   UNL A   1      41.608  31.457  36.555  1.00  0.00     0.029 A 
ATOM     51  N   UNL A   1      41.124  30.911  34.454  1.00  0.00    -0.354 N 
ATOM     52  N   UNL A   1      41.340  29.313  32.004  1.00  0.00    -0.248 NA
ATOM     53  C   UNL A   1      42.327  27.580  30.791  1.00  0.00     0.031 C 
ATOM     54  C   UNL A   1      42.411  30.373  36.182  1.00  0.00     0.029 A 
ATOM     55  C   UNL A   1      42.095  30.019  34.881  1.00  0.00     0.049 A 
ATOM     56  H   UNL A   1      40.709  30.910  33.562  1.00  0.00     0.167 HD
ATOM     57  C   UNL A   1      42.267  28.666  32.810  1.00  0.00     0.074 A 
ATOM     58  C   UNL A   1      42.817  27.581  32.022  1.00  0.00     0.031 C 
ATOM     59  C   UNL A   1      42.634  28.947  34.084  1.00  0.00     0.037 A 
BRANCH  46  60
ATOM     60  C   UNL A   1      39.706  33.810  36.526  1.00  0.00     0.064 A 
ATOM     61  C   UNL A   1      40.357  35.053  36.577  1.00  0.00     0.173 A 
ATOM     62  C   UNL A   1      38.860  33.469  37.590  1.00  0.00     0.173 A 
ATOM     63  F   UNL A   1      41.186  35.422  35.588  1.00  0.00    -0.203 F 
ATOM     64  C   UNL A   1      40.188  35.907  37.663  1.00  0.00     0.198 A 
ATOM     65  C   UNL A   1      38.672  34.338  38.662  1.00  0.00     0.198 A 
ATOM     66  F   UNL A   1      38.211  32.295  37.590  1.00  0.00    -0.203 F 
ATOM     67  F   UNL A   1      40.856  37.068  37.712  1.00  0.00    -0.200 F 
ATOM     68  C   UNL A   1      39.341  35.552  38.702  1.00  0.00     0.200 A 
ATOM     69  F   UNL A   1      37.844  33.999  39.661  1.00  0.00    -0.200 F 
ATOM     70  F   UNL A   1      39.175  36.377  39.744  1.00  0.00    -0.200 F 
ENDBRANCH  46  60
BRANCH  47  71
ATOM     71  C   UNL A   1      40.694  28.078  28.414  1.00  0.00     0.064 A 
ATOM     72  C   UNL A   1      41.512  28.476  27.348  1.00  0.00     0.173 A 
ATOM     73  C   UNL A   1      40.027  26.850  28.303  1.00  0.00     0.173 A 
ATOM     74  F   UNL A   1      42.155  29.651  27.400  1.00  0.00    -0.203 F 
ATOM     75  C   UNL A   1      41.639  27.688  26.206  1.00  0.00     0.198 A 
ATOM     76  C   UNL A   1      40.176  26.051  27.173  1.00  0.00     0.198 A 
ATOM     77  F   UNL A   1      39.237  26.423  29.299  1.00  0.00    -0.203 F 
ATOM     78  F   UNL A   1      42.392  28.114  25.182  1.00  0.00    -0.200 F 
ATOM     79  C   UNL A   1      40.975  26.473  26.121  1.00  0.00     0.200 A 
ATOM     80  F   UNL A   1      39.544  24.871  27.100  1.00  0.00    -0.200 F 
ATOM     81  F   UNL A   1      41.101  25.715  25.025  1.00  0.00    -0.200 F 
ENDBRANCH  47  71
BRANCH  59  82
ATOM     82  C   UNL A   1      43.666  28.054  34.711  1.00  0.00     0.064 A 
ATOM     83  C   UNL A   1      43.311  26.852  35.342  1.00  0.00     0.173 A 
ATOM     84  C   UNL A   1      45.026  28.395  34.663  1.00  0.00     0.173 A 
ATOM     85  F   UNL A   1      42.023  26.489  35.427  1.00  0.00    -0.203 F 
ATOM     86  C   UNL A   1      44.279  26.041  35.930  1.00  0.00     0.198 A 
ATOM     87  C   UNL A   1      45.993  27.567  35.225  1.00  0.00     0.198 A 
ATOM     88  F   UNL A   1      45.418  29.531  34.064  1.00  0.00    -0.203 F 
ATOM     89  F   UNL A   1      43.912  24.926  36.576  1.00  0.00    -0.200 F 
ATOM     90  C   UNL A   1      45.618  26.396  35.867  1.00  0.00     0.200 A 
ATOM     91  F   UNL A   1      47.288  27.905  35.152  1.00  0.00    -0.200 F 
ATOM     92  F   UNL A   1      46.547  25.614  36.433  1.00  0.00    -0.200 F 
ENDBRANCH  59  82
ENDBRANCH  33  34
ENDBRANCH  25  28
ENDBRANCH  23  24
ENDBRANCH   1  23
TORSDOF 14
ENDMDL
MODEL 2
REMARK VINA RESULT:     -11.8      0.622      7.588
REMARK SMILES CC[C@H](C)[C@H](NC(=O)[C@@H]1CCC[NH2+]1)C(=O)NCCCNC(=O)c1ccc(-c2c3nc(c(-c4c(F)c(F)c(F)c(F)c4F)c4ccc([nH]4)c(-c4c(F)c(F)c(F)c(F)c4F)c4nc(c(-c5c(F)c(F)c(F)c(F)c5F)c5ccc2[nH]5)C=C4)C=C3)cc1
REMARK SMILES IDX 18 1 17 2 16 3 14 4 15 5 5 7 3 8 4 9 2 10 1 11 6 12 7 13
REMARK SMILES IDX 8 15 9 16 10 17 13 18 11 19 12 20 19 23 20 24 21 25 22 27
REMARK SMILES IDX 23 28 24 29 85 30 25 31 84 32 26 33 27 34 28 35 78 36 29 37
REMARK SMILES IDX 83 38 77 39 79 40 30 41 82 42 76 43 75 44 31 46 63 47 43 48
REMARK SMILES IDX 62 49 44 50 47 51 61 52 80 53 45 54 46 55 60 57 81 58 48 59
REMARK SMILES IDX 32 60 33 61 41 62 34 63 35 64 39 65 42 66 36 67 37 68 40 69
REMARK SMILES IDX 38 70 64 71 65 72 73 73 66 74 67 75 71 76 74 77 68 78 69 79
REMARK SMILES IDX 72 80 70 81 49 82 50 83 58 84 51 85 52 86 56 87 59 88 53 89
REMARK SMILES IDX 54 90 57 91 55 92
REMARK H PARENT 16 6 6 14 13 21 13 22 20 26 79 45 47 56
REMARK Flexibility Score: inf
ROOT
ATOM      1  C   UNL A   1      31.484  32.132  26.761  1.00  0.00     0.042 C 
ENDROOT
BRANCH   1   2
ATOM      2  C   UNL A   1      31.711  30.690  26.338  1.00  0.00     0.117 C 
BRANCH   2   3
ATOM      3  N   UNL A   1      32.771  29.971  27.009  1.00  0.00    -0.354 N 
ATOM      4  C   UNL A   1      33.456  28.849  26.673  1.00  0.00     0.242 C 
ATOM      5  O   UNL A   1      34.536  28.681  27.251  1.00  0.00    -0.273 OA
ATOM      6  H   UNL A   1      33.047  30.368  27.867  1.00  0.00     0.163 HD
BRANCH   4   7
ATOM      7  C   UNL A   1      32.995  27.842  25.595  1.00  0.00     0.174 C 
BRANCH   7   8
ATOM      8  C   UNL A   1      33.332  26.358  25.977  1.00  0.00     0.018 C 
ATOM      9  C   UNL A   1      32.112  25.498  26.342  1.00  0.00     0.010 C 
BRANCH   8  10
ATOM     10  C   UNL A   1      34.132  25.586  24.903  1.00  0.00     0.002 C 
ATOM     11  C   UNL A   1      35.050  24.511  25.461  1.00  0.00     0.004 C 
ENDBRANCH   8  10
ENDBRANCH   7   8
BRANCH   7  12
ATOM     12  N   UNL A   1      33.410  28.149  24.221  1.00  0.00    -0.339 N 
ATOM     13  C   UNL A   1      32.736  28.497  23.095  1.00  0.00     0.278 C 
ATOM     14  H   UNL A   1      34.383  28.089  24.086  1.00  0.00     0.164 HD
ATOM     15  O   UNL A   1      33.399  28.382  22.053  1.00  0.00    -0.268 OA
BRANCH  13  16
ATOM     16  C   UNL A   1      31.296  29.049  23.014  1.00  0.00     0.272 C 
ATOM     17  C   UNL A   1      30.070  28.187  23.171  1.00  0.00     0.081 C 
ATOM     18  N   UNL A   1      31.027  29.705  21.710  1.00  0.00    -0.336 N 
ATOM     19  C   UNL A   1      28.939  29.098  22.730  1.00  0.00     0.068 C 
ATOM     20  C   UNL A   1      29.601  30.071  21.763  1.00  0.00     0.261 C 
ATOM     21  H   UNL A   1      31.205  29.061  20.939  1.00  0.00     0.346 HD
ATOM     22  H   UNL A   1      31.627  30.515  21.555  1.00  0.00     0.346 HD
ENDBRANCH  13  16
ENDBRANCH   7  12
ENDBRANCH   4   7
ENDBRANCH   2   3
ENDBRANCH   1   2
BRANCH   1  23
ATOM     23  C   UNL A   1      32.664  32.930  27.292  1.00  0.00     0.118 C 
BRANCH  23  24
ATOM     24  N   UNL A   1      32.391  34.301  27.672  1.00  0.00    -0.352 N 
ATOM     25  C   UNL A   1      33.094  35.087  28.550  1.00  0.00     0.251 C 
ATOM     26  H   UNL A   1      31.605  34.719  27.250  1.00  0.00     0.163 HD
ATOM     27  O   UNL A   1      32.763  36.251  28.751  1.00  0.00    -0.269 OA
BRANCH  25  28
ATOM     28  C   UNL A   1      34.216  34.495  29.304  1.00  0.00     0.039 A 
ATOM     29  C   UNL A   1      33.920  33.796  30.474  1.00  0.00     0.014 A 
ATOM     30  C   UNL A   1      35.533  34.579  28.838  1.00  0.00     0.014 A 
ATOM     31  C   UNL A   1      34.941  33.135  31.156  1.00  0.00     0.010 A 
ATOM     32  C   UNL A   1      36.541  33.870  29.490  1.00  0.00     0.010 A 
ATOM     33  C   UNL A   1      36.254  33.144  30.656  1.00  0.00    -0.014 A 
BRANCH  33  34
ATOM     34  C   UNL A   1      37.316  32.388  31.364  1.00  0.00     0.031 A 
ATOM     35  C   UNL A   1      38.008  31.237  30.694  1.00  0.00     0.074 A 
ATOM     36  C   UNL A   1      37.660  32.747  32.615  1.00  0.00     0.049 A 
ATOM     37  N   UNL A   1      39.025  30.528  31.115  1.00  0.00    -0.248 NA
ATOM     38  C   UNL A   1      37.480  30.814  29.388  1.00  0.00     0.031 C 
ATOM     39  C   UNL A   1      37.016  33.804  33.398  1.00  0.00     0.029 A 
ATOM     40  N   UNL A   1      38.644  32.271  33.445  1.00  0.00    -0.354 N 
ATOM     41  C   UNL A   1      39.262  29.584  30.125  1.00  0.00     0.074 A 
ATOM     42  C   UNL A   1      38.245  29.769  29.113  1.00  0.00     0.031 C 
ATOM     43  C   UNL A   1      37.643  33.920  34.579  1.00  0.00     0.029 A 
ATOM     44  C   UNL A   1      38.724  32.938  34.642  1.00  0.00     0.049 A 
ATOM     45  H   UNL A   1      39.236  31.522  33.205  1.00  0.00     0.167 HD
ATOM     46  C   UNL A   1      40.257  28.667  30.053  1.00  0.00     0.037 A 
ATOM     47  C   UNL A   1      39.584  32.788  35.668  1.00  0.00     0.037 A 
ATOM     48  C   UNL A   1      41.272  28.491  31.058  1.00  0.00     0.049 A 
ATOM     49  C   UNL A   1      40.689  31.773  35.556  1.00  0.00     0.074 A 
ATOM     50  C   UNL A   1      42.352  27.625  31.053  1.00  0.00     0.029 A 
ATOM     51  N   UNL A   1      41.327  29.191  32.254  1.00  0.00    -0.354 N 
ATOM     52  N   UNL A   1      40.963  30.952  34.571  1.00  0.00    -0.248 NA
ATOM     53  C   UNL A   1      41.615  31.677  36.693  1.00  0.00     0.031 C 
ATOM     54  C   UNL A   1      43.036  27.772  32.265  1.00  0.00     0.029 A 
ATOM     55  C   UNL A   1      42.411  28.762  33.005  1.00  0.00     0.049 A 
ATOM     56  H   UNL A   1      40.690  29.888  32.530  1.00  0.00     0.167 HD
ATOM     57  C   UNL A   1      42.103  30.260  34.957  1.00  0.00     0.074 A 
ATOM     58  C   UNL A   1      42.483  30.776  36.257  1.00  0.00     0.031 C 
ATOM     59  C   UNL A   1      42.773  29.283  34.298  1.00  0.00     0.037 A 
BRANCH  46  60
ATOM     60  C   UNL A   1      40.300  27.791  28.835  1.00  0.00     0.064 A 
ATOM     61  C   UNL A   1      41.030  28.159  27.694  1.00  0.00     0.173 A 
ATOM     62  C   UNL A   1      39.633  26.557  28.817  1.00  0.00     0.173 A 
ATOM     63  F   UNL A   1      41.676  29.334  27.656  1.00  0.00    -0.203 F 
ATOM     64  C   UNL A   1      41.068  27.338  26.571  1.00  0.00     0.198 A 
ATOM     65  C   UNL A   1      39.697  25.725  27.702  1.00  0.00     0.198 A 
ATOM     66  F   UNL A   1      38.924  26.156  29.883  1.00  0.00    -0.203 F 
ATOM     67  F   UNL A   1      41.733  27.732  25.476  1.00  0.00    -0.200 F 
ATOM     68  C   UNL A   1      40.407  26.119  26.578  1.00  0.00     0.200 A 
ATOM     69  F   UNL A   1      39.067  24.542  27.714  1.00  0.00    -0.200 F 
ATOM     70  F   UNL A   1      40.449  25.326  25.498  1.00  0.00    -0.200 F 
ENDBRANCH  46  60
BRANCH  47  71
ATOM     71  C   UNL A   1      39.465  33.655  36.869  1.00  0.00     0.064 A 
ATOM     72  C   UNL A   1      38.677  33.269  37.961  1.00  0.00     0.173 A 
ATOM     73  C   UNL A   1      40.132  34.886  36.947  1.00  0.00     0.173 A 
ATOM     74  F   UNL A   1      38.004  32.110  37.925  1.00  0.00    -0.203 F 
ATOM     75  C   UNL A   1      38.542  34.092  39.077  1.00  0.00     0.198 A 
ATOM     76  C   UNL A   1      40.018  35.695  38.074  1.00  0.00     0.198 A 
ATOM     77  F   UNL A   1      40.903  35.298  35.929  1.00  0.00    -0.203 F 
ATOM     78  F   UNL A   1      37.745  33.719  40.089  1.00  0.00    -0.200 F 
ATOM     79  C   UNL A   1      39.217  35.302  39.136  1.00  0.00     0.200 A 
ATOM     80  F   UNL A   1      40.683  36.857  38.133  1.00  0.00    -0.200 F 
ATOM     81  F   UNL A   1      39.090  36.090  40.211  1.00  0.00    -0.200 F 
ENDBRANCH  47  71
BRANCH  59  82
ATOM     82  C   UNL A   1      43.996  28.723  34.965  1.00  0.00     0.064 A 
ATOM     83  C   UNL A   1      45.269  29.270  34.746  1.00  0.00     0.173 A 
ATOM     84  C   UNL A   1      43.890  27.638  35.850  1.00  0.00     0.173 A 
ATOM     85  F   UNL A   1      45.425  30.298  33.898  1.00  0.00    -0.203 F 
ATOM     86  C   UNL A   1      46.395  28.730  35.362  1.00  0.00     0.198 A 
ATOM     87  C   UNL A   1      45.013  27.121  36.487  1.00  0.00     0.198 A 
ATOM     88  F   UNL A   1      42.694  27.083  36.099  1.00  0.00    -0.203 F 
ATOM     89  F   UNL A   1      47.608  29.233  35.095  1.00  0.00    -0.200 F 
ATOM     90  C   UNL A   1      46.266  27.661  36.235  1.00  0.00     0.200 A 
ATOM     91  F   UNL A   1      44.886  26.096  37.341  1.00  0.00    -0.200 F 
ATOM     92  F   UNL A   1      47.351  27.143  36.828  1.00  0.00    -0.200 F 
ENDBRANCH  59  82
ENDBRANCH  33  34
ENDBRANCH  25  28
ENDBRANCH  23  24
ENDBRANCH   1  23
TORSDOF 14
ENDMDL
MODEL 3
REMARK VINA RESULT:     -11.8      6.077     10.463
REMARK SMILES CC[C@H](C)[C@H](NC(=O)[C@@H]1CCC[NH2+]1)C(=O)NCCCNC(=O)c1ccc(-c2c3nc(c(-c4c(F)c(F)c(F)c(F)c4F)c4ccc([nH]4)c(-c4c(F)c(F)c(F)c(F)c4F)c4nc(c(-c5c(F)c(F)c(F)c(F)c5F)c5ccc2[nH]5)C=C4)C=C3)cc1
REMARK SMILES IDX 18 1 17 2 16 3 14 4 15 5 5 7 3 8 4 9 2 10 1 11 6 12 7 13
REMARK SMILES IDX 8 15 9 16 10 17 13 18 11 19 12 20 19 23 20 24 21 25 22 27
REMARK SMILES IDX 23 28 24 29 85 30 25 31 84 32 26 33 27 34 28 35 78 36 29 37
REMARK SMILES IDX 83 38 77 39 79 40 30 41 82 42 76 43 75 44 31 46 63 47 43 48
REMARK SMILES IDX 62 49 44 50 47 51 61 52 80 53 45 54 46 55 60 57 81 58 48 59
REMARK SMILES IDX 32 60 33 61 41 62 34 63 35 64 39 65 42 66 36 67 37 68 40 69
REMARK SMILES IDX 38 70 64 71 65 72 73 73 66 74 67 75 71 76 74 77 68 78 69 79
REMARK SMILES IDX 72 80 70 81 49 82 50 83 58 84 51 85 52 86 56 87 59 88 53 89
REMARK SMILES IDX 54 90 57 91 55 92
REMARK H PARENT 16 6 6 14 13 21 13 22 20 26 79 45 47 56
REMARK Flexibility Score: inf
ROOT
ATOM      1  C   UNL A   1      38.373  19.631  24.983  1.00  0.00     0.042 C 
ENDROOT
BRANCH   1   2
ATOM      2  C   UNL A   1      37.251  20.657  24.979  1.00  0.00     0.117 C 
BRANCH   2   3
ATOM      3  N   UNL A   1      37.634  22.045  25.108  1.00  0.00    -0.354 N 
ATOM      4  C   UNL A   1      36.915  23.156  25.406  1.00  0.00     0.242 C 
ATOM      5  O   UNL A   1      37.565  24.131  25.800  1.00  0.00    -0.273 OA
ATOM      6  H   UNL A   1      38.591  22.215  24.952  1.00  0.00     0.163 HD
BRANCH   4   7
ATOM      7  C   UNL A   1      35.373  23.236  25.339  1.00  0.00     0.174 C 
BRANCH   7   8
ATOM      8  C   UNL A   1      34.864  24.659  24.917  1.00  0.00     0.018 C 
ATOM      9  C   UNL A   1      34.162  24.709  23.550  1.00  0.00     0.010 C 
BRANCH   8  10
ATOM     10  C   UNL A   1      33.920  25.331  25.940  1.00  0.00     0.002 C 
ATOM     11  C   UNL A   1      33.768  26.832  25.758  1.00  0.00     0.004 C 
ENDBRANCH   8  10
ENDBRANCH   7   8
BRANCH   7  12
ATOM     12  N   UNL A   1      34.659  22.740  26.522  1.00  0.00    -0.339 N 
ATOM     13  C   UNL A   1      33.783  21.726  26.729  1.00  0.00     0.278 C 
ATOM     14  H   UNL A   1      34.858  23.253  27.338  1.00  0.00     0.164 HD
ATOM     15  O   UNL A   1      33.164  21.803  27.801  1.00  0.00    -0.268 OA
BRANCH  13  16
ATOM     16  C   UNL A   1      33.541  20.511  25.807  1.00  0.00     0.272 C 
ATOM     17  C   UNL A   1      32.621  20.548  24.614  1.00  0.00     0.081 C 
ATOM     18  N   UNL A   1      33.004  19.346  26.555  1.00  0.00    -0.336 N 
ATOM     19  C   UNL A   1      32.492  19.087  24.223  1.00  0.00     0.068 C 
ATOM     20  C   UNL A   1      32.736  18.330  25.522  1.00  0.00     0.261 C 
ATOM     21  H   UNL A   1      32.145  19.597  27.044  1.00  0.00     0.346 HD
ATOM     22  H   UNL A   1      33.654  19.010  27.266  1.00  0.00     0.346 HD
ENDBRANCH  13  16
ENDBRANCH   7  12
ENDBRANCH   4   7
ENDBRANCH   2   3
ENDBRANCH   1   2
BRANCH   1  23
ATOM     23  C   UNL A   1      39.563  19.858  25.901  1.00  0.00     0.118 C 
BRANCH  23  24
ATOM     24  N   UNL A   1      40.593  18.840  25.878  1.00  0.00    -0.352 N 
ATOM     25  C   UNL A   1      41.932  18.990  26.144  1.00  0.00     0.251 C 
ATOM     26  H   UNL A   1      40.298  17.930  25.641  1.00  0.00     0.163 HD
ATOM     27  O   UNL A   1      42.687  18.024  26.118  1.00  0.00    -0.269 OA
BRANCH  25  28
ATOM     28  C   UNL A   1      42.466  20.342  26.397  1.00  0.00     0.039 A 
ATOM     29  C   UNL A   1      42.997  21.047  25.316  1.00  0.00     0.014 A 
ATOM     30  C   UNL A   1      42.398  20.928  27.665  1.00  0.00     0.014 A 
ATOM     31  C   UNL A   1      43.416  22.365  25.495  1.00  0.00     0.010 A 
ATOM     32  C   UNL A   1      42.763  22.264  27.828  1.00  0.00     0.010 A 
ATOM     33  C   UNL A   1      43.277  22.993  26.744  1.00  0.00    -0.014 A 
BRANCH  33  34
ATOM     34  C   UNL A   1      43.676  24.413  26.901  1.00  0.00     0.031 A 
ATOM     35  C   UNL A   1      42.688  25.432  27.390  1.00  0.00     0.074 A 
ATOM     36  C   UNL A   1      44.936  24.783  26.607  1.00  0.00     0.049 A 
ATOM     37  N   UNL A   1      42.881  26.693  27.686  1.00  0.00    -0.248 NA
ATOM     38  C   UNL A   1      41.297  24.983  27.553  1.00  0.00     0.031 C 
ATOM     39  C   UNL A   1      45.968  23.900  26.059  1.00  0.00     0.029 A 
ATOM     40  N   UNL A   1      45.568  25.994  26.735  1.00  0.00    -0.354 N 
ATOM     41  C   UNL A   1      41.642  27.183  28.076  1.00  0.00     0.074 A 
ATOM     42  C   UNL A   1      40.692  26.103  27.919  1.00  0.00     0.031 C 
ATOM     43  C   UNL A   1      47.113  24.589  25.933  1.00  0.00     0.029 A 
ATOM     44  C   UNL A   1      46.893  25.964  26.377  1.00  0.00     0.049 A 
ATOM     45  H   UNL A   1      45.115  26.807  27.055  1.00  0.00     0.167 HD
ATOM     46  C   UNL A   1      41.332  28.413  28.552  1.00  0.00     0.037 A 
ATOM     47  C   UNL A   1      47.829  26.931  26.419  1.00  0.00     0.037 A 
ATOM     48  C   UNL A   1      42.281  29.483  28.714  1.00  0.00     0.049 A 
ATOM     49  C   UNL A   1      47.463  28.284  26.965  1.00  0.00     0.074 A 
ATOM     50  C   UNL A   1      42.075  30.749  29.235  1.00  0.00     0.029 A 
ATOM     51  N   UNL A   1      43.617  29.414  28.348  1.00  0.00    -0.354 N 
ATOM     52  N   UNL A   1      46.310  28.707  27.424  1.00  0.00    -0.248 NA
ATOM     53  C   UNL A   1      48.534  29.288  27.016  1.00  0.00     0.031 C 
ATOM     54  C   UNL A   1      43.278  31.459  29.146  1.00  0.00     0.029 A 
ATOM     55  C   UNL A   1      44.244  30.622  28.613  1.00  0.00     0.049 A 
ATOM     56  H   UNL A   1      44.055  28.624  27.957  1.00  0.00     0.167 HD
ATOM     57  C   UNL A   1      46.521  30.016  27.839  1.00  0.00     0.074 A 
ATOM     58  C   UNL A   1      47.920  30.307  27.599  1.00  0.00     0.031 C 
ATOM     59  C   UNL A   1      45.636  30.897  28.366  1.00  0.00     0.037 A 
BRANCH  46  60
ATOM     60  C   UNL A   1      39.904  28.661  28.941  1.00  0.00     0.064 A 
ATOM     61  C   UNL A   1      39.446  28.405  30.244  1.00  0.00     0.173 A 
ATOM     62  C   UNL A   1      38.991  29.190  28.017  1.00  0.00     0.173 A 
ATOM     63  F   UNL A   1      40.277  27.888  31.162  1.00  0.00    -0.203 F 
ATOM     64  C   UNL A   1      38.121  28.643  30.597  1.00  0.00     0.198 A 
ATOM     65  C   UNL A   1      37.673  29.454  28.383  1.00  0.00     0.198 A 
ATOM     66  F   UNL A   1      39.378  29.456  26.761  1.00  0.00    -0.203 F 
ATOM     67  F   UNL A   1      37.695  28.347  31.833  1.00  0.00    -0.200 F 
ATOM     68  C   UNL A   1      37.238  29.173  29.670  1.00  0.00     0.200 A 
ATOM     69  F   UNL A   1      36.823  29.976  27.489  1.00  0.00    -0.200 F 
ATOM     70  F   UNL A   1      35.963  29.407  30.013  1.00  0.00    -0.200 F 
ENDBRANCH  46  60
BRANCH  47  71
ATOM     71  C   UNL A   1      49.218  26.639  25.977  1.00  0.00     0.064 A 
ATOM     72  C   UNL A   1      50.148  26.066  26.855  1.00  0.00     0.173 A 
ATOM     73  C   UNL A   1      49.643  26.930  24.674  1.00  0.00     0.173 A 
ATOM     74  F   UNL A   1      49.794  25.787  28.118  1.00  0.00    -0.203 F 
ATOM     75  C   UNL A   1      51.458  25.815  26.452  1.00  0.00     0.198 A 
ATOM     76  C   UNL A   1      50.946  26.655  24.264  1.00  0.00     0.198 A 
ATOM     77  F   UNL A   1      48.789  27.475  23.794  1.00  0.00    -0.203 F 
ATOM     78  F   UNL A   1      52.340  25.309  27.326  1.00  0.00    -0.200 F 
ATOM     79  C   UNL A   1      51.855  26.105  25.155  1.00  0.00     0.200 A 
ATOM     80  F   UNL A   1      51.321  26.923  23.006  1.00  0.00    -0.200 F 
ATOM     81  F   UNL A   1      53.113  25.860  24.768  1.00  0.00    -0.200 F 
ENDBRANCH  47  71
BRANCH  59  82
ATOM     82  C   UNL A   1      46.162  32.254  28.736  1.00  0.00     0.064 A 
ATOM     83  C   UNL A   1      46.657  32.525  30.020  1.00  0.00     0.173 A 
ATOM     84  C   UNL A   1      46.188  33.290  27.789  1.00  0.00     0.173 A 
ATOM     85  F   UNL A   1      46.639  31.573  30.965  1.00  0.00    -0.203 F 
ATOM     86  C   UNL A   1      47.128  33.793  30.352  1.00  0.00     0.198 A 
ATOM     87  C   UNL A   1      46.689  34.546  28.115  1.00  0.00     0.198 A 
ATOM     88  F   UNL A   1      45.733  33.079  26.544  1.00  0.00    -0.203 F 
ATOM     89  F   UNL A   1      47.545  34.045  31.601  1.00  0.00    -0.200 F 
ATOM     90  C   UNL A   1      47.149  34.800  29.399  1.00  0.00     0.200 A 
ATOM     91  F   UNL A   1      46.720  35.515  27.190  1.00  0.00    -0.200 F 
ATOM     92  F   UNL A   1      47.604  36.019  29.719  1.00  0.00    -0.200 F 
ENDBRANCH  59  82
ENDBRANCH  33  34
ENDBRANCH  25  28
ENDBRANCH  23  24
ENDBRANCH   1  23
TORSDOF 14
ENDMDL
