MODEL 1
REMARK VINA RESULT:     -10.1      0.000      0.000
REMARK SMILES COCCC(=O)N[C@H](C)CC(=O)NCCCNC(=O)c1ccc(-c2c3nc(c(-c4c(F)c(F)c(F)c(F)c4F)c4ccc([nH]4)c(-c4c(F)c(F)c(F)c(F)c4F)c4nc(c(-c5c(F)c(F)c(F)c(F)c5F)c5ccc2[nH]5)C=C4)C=C3)cc1
REMARK SMILES IDX 11 1 12 2 13 3 10 5 8 6 9 7 7 8 5 9 6 10 4 12 3 13 2 14 1 15
REMARK SMILES IDX 14 16 15 17 16 18 17 19 18 20 19 22 20 23 21 24 82 25 22 26
REMARK SMILES IDX 81 27 23 28 24 29 25 30 75 31 26 32 80 33 74 34 76 35 27 36
REMARK SMILES IDX 79 37 73 38 72 39 28 41 60 42 40 43 59 44 41 45 44 46 58 47
REMARK SMILES IDX 77 48 42 49 43 50 57 52 78 53 45 54 29 55 30 56 38 57 31 58
REMARK SMILES IDX 32 59 36 60 39 61 33 62 34 63 37 64 35 65 61 66 62 67 70 68
REMARK SMILES IDX 63 69 64 70 68 71 71 72 65 73 66 74 69 75 67 76 46 77 47 78
REMARK SMILES IDX 55 79 48 80 49 81 53 82 56 83 50 84 51 85 54 86 52 87
REMARK H PARENT 13 4 7 11 17 21 76 40 44 51
REMARK Flexibility Score: inf
ROOT
ATOM      1  C   UNL A   1      31.571  28.387  27.046  1.00  0.00     0.222 C 
ATOM      2  O   UNL A   1      31.556  27.732  28.089  1.00  0.00    -0.275 OA
ATOM      3  N   UNL A   1      31.819  29.723  27.128  1.00  0.00    -0.356 N 
ATOM      4  H   UNL A   1      32.175  30.023  27.995  1.00  0.00     0.163 HD
ENDROOT
BRANCH   1   5
ATOM      5  C   UNL A   1      31.344  27.734  25.706  1.00  0.00     0.124 C 
BRANCH   5   6
ATOM      6  C   UNL A   1      32.038  26.377  25.566  1.00  0.00     0.088 C 
ATOM      7  C   UNL A   1      33.539  26.464  25.825  1.00  0.00     0.031 C 
BRANCH   6   8
ATOM      8  N   UNL A   1      31.477  25.405  26.512  1.00  0.00    -0.353 N 
ATOM      9  C   UNL A   1      31.043  24.133  26.294  1.00  0.00     0.222 C 
ATOM     10  O   UNL A   1      30.647  23.476  27.258  1.00  0.00    -0.275 OA
ATOM     11  H   UNL A   1      31.405  25.719  27.441  1.00  0.00     0.163 HD
BRANCH   9  12
ATOM     12  C   UNL A   1      31.023  23.572  24.896  1.00  0.00     0.128 C 
BRANCH  12  13
ATOM     13  C   UNL A   1      32.289  22.775  24.611  1.00  0.00     0.169 C 
BRANCH  13  14
ATOM     14  O   UNL A   1      33.144  22.679  25.752  1.00  0.00    -0.384 OA
ATOM     15  C   UNL A   1      34.523  22.888  25.463  1.00  0.00     0.194 C 
ENDBRANCH  13  14
ENDBRANCH  12  13
ENDBRANCH   9  12
ENDBRANCH   6   8
ENDBRANCH   5   6
ENDBRANCH   1   5
BRANCH   3  16
ATOM     16  C   UNL A   1      31.646  30.778  26.143  1.00  0.00     0.117 C 
BRANCH  16  17
ATOM     17  C   UNL A   1      31.448  32.136  26.810  1.00  0.00     0.042 C 
BRANCH  17  18
ATOM     18  C   UNL A   1      32.716  32.977  26.878  1.00  0.00     0.118 C 
BRANCH  18  19
ATOM     19  N   UNL A   1      32.497  34.231  27.577  1.00  0.00    -0.352 N 
ATOM     20  C   UNL A   1      33.052  34.671  28.754  1.00  0.00     0.251 C 
ATOM     21  H   UNL A   1      31.865  34.851  27.148  1.00  0.00     0.163 HD
ATOM     22  O   UNL A   1      32.575  35.641  29.330  1.00  0.00    -0.269 OA
BRANCH  20  23
ATOM     23  C   UNL A   1      34.216  33.964  29.337  1.00  0.00     0.039 A 
ATOM     24  C   UNL A   1      35.502  34.360  28.964  1.00  0.00     0.014 A 
ATOM     25  C   UNL A   1      34.044  32.895  30.224  1.00  0.00     0.014 A 
ATOM     26  C   UNL A   1      36.613  33.713  29.510  1.00  0.00     0.010 A 
ATOM     27  C   UNL A   1      35.151  32.310  30.833  1.00  0.00     0.010 A 
ATOM     28  C   UNL A   1      36.449  32.698  30.466  1.00  0.00    -0.014 A 
BRANCH  28  29
ATOM     29  C   UNL A   1      37.624  32.012  31.063  1.00  0.00     0.031 A 
ATOM     30  C   UNL A   1      38.092  32.380  32.447  1.00  0.00     0.074 A 
ATOM     31  C   UNL A   1      38.296  31.091  30.347  1.00  0.00     0.049 A 
ATOM     32  N   UNL A   1      39.108  31.914  33.129  1.00  0.00    -0.248 NA
ATOM     33  C   UNL A   1      37.336  33.432  33.146  1.00  0.00     0.031 C 
ATOM     34  C   UNL A   1      37.982  30.693  28.974  1.00  0.00     0.029 A 
ATOM     35  N   UNL A   1      39.387  30.324  30.673  1.00  0.00    -0.354 N 
ATOM     36  C   UNL A   1      39.123  32.628  34.320  1.00  0.00     0.074 A 
ATOM     37  C   UNL A   1      38.050  33.595  34.249  1.00  0.00     0.031 C 
ATOM     38  C   UNL A   1      38.842  29.740  28.584  1.00  0.00     0.029 A 
ATOM     39  C   UNL A   1      39.787  29.479  29.666  1.00  0.00     0.049 A 
ATOM     40  H   UNL A   1      39.841  30.375  31.545  1.00  0.00     0.167 HD
ATOM     41  C   UNL A   1      39.941  32.473  35.389  1.00  0.00     0.037 A 
ATOM     42  C   UNL A   1      40.802  28.594  29.622  1.00  0.00     0.037 A 
ATOM     43  C   UNL A   1      40.979  31.480  35.474  1.00  0.00     0.049 A 
ATOM     44  C   UNL A   1      41.674  28.419  30.836  1.00  0.00     0.074 A 
ATOM     45  C   UNL A   1      41.803  31.184  36.546  1.00  0.00     0.029 A 
ATOM     46  N   UNL A   1      41.334  30.620  34.446  1.00  0.00    -0.354 N 
ATOM     47  N   UNL A   1      41.622  29.039  31.989  1.00  0.00    -0.248 NA
ATOM     48  C   UNL A   1      42.741  27.412  30.743  1.00  0.00     0.031 C 
ATOM     49  C   UNL A   1      42.688  30.176  36.150  1.00  0.00     0.029 A 
ATOM     50  C   UNL A   1      42.383  29.810  34.849  1.00  0.00     0.049 A 
ATOM     51  H   UNL A   1      40.904  30.591  33.560  1.00  0.00     0.167 HD
ATOM     52  C   UNL A   1      42.630  28.484  32.767  1.00  0.00     0.074 A 
ATOM     53  C   UNL A   1      43.265  27.463  31.961  1.00  0.00     0.031 C 
ATOM     54  C   UNL A   1      43.000  28.796  34.033  1.00  0.00     0.037 A 
BRANCH  41  55
ATOM     55  C   UNL A   1      39.742  33.392  36.560  1.00  0.00     0.064 A 
ATOM     56  C   UNL A   1      40.431  34.610  36.665  1.00  0.00     0.173 A 
ATOM     57  C   UNL A   1      38.815  33.073  37.564  1.00  0.00     0.173 A 
ATOM     58  F   UNL A   1      41.336  34.956  35.738  1.00  0.00    -0.203 F 
ATOM     59  C   UNL A   1      40.220  35.461  37.748  1.00  0.00     0.198 A 
ATOM     60  C   UNL A   1      38.586  33.941  38.629  1.00  0.00     0.198 A 
ATOM     61  F   UNL A   1      38.125  31.925  37.509  1.00  0.00    -0.203 F 
ATOM     62  F   UNL A   1      40.924  36.597  37.851  1.00  0.00    -0.200 F 
ATOM     63  C   UNL A   1      39.293  35.130  38.723  1.00  0.00     0.200 A 
ATOM     64  F   UNL A   1      37.680  33.625  39.565  1.00  0.00    -0.200 F 
ATOM     65  F   UNL A   1      39.084  35.954  39.759  1.00  0.00    -0.200 F 
ENDBRANCH  41  55
BRANCH  42  66
ATOM     66  C   UNL A   1      41.029  27.786  28.396  1.00  0.00     0.064 A 
ATOM     67  C   UNL A   1      40.418  26.535  28.232  1.00  0.00     0.173 A 
ATOM     68  C   UNL A   1      41.864  28.244  27.366  1.00  0.00     0.173 A 
ATOM     69  F   UNL A   1      39.625  26.046  29.197  1.00  0.00    -0.203 F 
ATOM     70  C   UNL A   1      40.650  25.763  27.095  1.00  0.00     0.198 A 
ATOM     71  C   UNL A   1      42.073  27.483  26.217  1.00  0.00     0.198 A 
ATOM     72  F   UNL A   1      42.469  29.436  27.471  1.00  0.00    -0.203 F 
ATOM     73  F   UNL A   1      40.088  24.551  26.985  1.00  0.00    -0.200 F 
ATOM     74  C   UNL A   1      41.472  26.241  26.086  1.00  0.00     0.200 A 
ATOM     75  F   UNL A   1      42.857  27.956  25.238  1.00  0.00    -0.200 F 
ATOM     76  F   UNL A   1      41.692  25.500  24.991  1.00  0.00    -0.200 F 
ENDBRANCH  42  66
BRANCH  54  77
ATOM     77  C   UNL A   1      44.129  28.009  34.631  1.00  0.00     0.064 A 
ATOM     78  C   UNL A   1      45.456  28.456  34.555  1.00  0.00     0.173 A 
ATOM     79  C   UNL A   1      43.875  26.813  35.319  1.00  0.00     0.173 A 
ATOM     80  F   UNL A   1      45.751  29.586  33.895  1.00  0.00    -0.203 F 
ATOM     81  C   UNL A   1      46.492  27.720  35.123  1.00  0.00     0.198 A 
ATOM     82  C   UNL A   1      44.910  26.095  35.912  1.00  0.00     0.198 A 
ATOM     83  F   UNL A   1      42.622  26.347  35.427  1.00  0.00    -0.203 F 
ATOM     84  F   UNL A   1      47.758  28.139  34.996  1.00  0.00    -0.200 F 
ATOM     85  C   UNL A   1      46.217  26.544  35.807  1.00  0.00     0.200 A 
ATOM     86  F   UNL A   1      44.641  24.968  36.584  1.00  0.00    -0.200 F 
ATOM     87  F   UNL A   1      47.215  25.840  36.358  1.00  0.00    -0.200 F 
ENDBRANCH  54  77
ENDBRANCH  28  29
ENDBRANCH  20  23
ENDBRANCH  18  19
ENDBRANCH  17  18
ENDBRANCH  16  17
ENDBRANCH   3  16
TORSDOF 15
ENDMDL
MODEL 2
REMARK VINA RESULT:     -10.1      1.149      7.844
REMARK SMILES COCCC(=O)N[C@H](C)CC(=O)NCCCNC(=O)c1ccc(-c2c3nc(c(-c4c(F)c(F)c(F)c(F)c4F)c4ccc([nH]4)c(-c4c(F)c(F)c(F)c(F)c4F)c4nc(c(-c5c(F)c(F)c(F)c(F)c5F)c5ccc2[nH]5)C=C4)C=C3)cc1
REMARK SMILES IDX 11 1 12 2 13 3 10 5 8 6 9 7 7 8 5 9 6 10 4 12 3 13 2 14 1 15
REMARK SMILES IDX 14 16 15 17 16 18 17 19 18 20 19 22 20 23 21 24 82 25 22 26
REMARK SMILES IDX 81 27 23 28 24 29 25 30 75 31 26 32 80 33 74 34 76 35 27 36
REMARK SMILES IDX 79 37 73 38 72 39 28 41 60 42 40 43 59 44 41 45 44 46 58 47
REMARK SMILES IDX 77 48 42 49 43 50 57 52 78 53 45 54 29 55 30 56 38 57 31 58
REMARK SMILES IDX 32 59 36 60 39 61 33 62 34 63 37 64 35 65 61 66 62 67 70 68
REMARK SMILES IDX 63 69 64 70 68 71 71 72 65 73 66 74 69 75 67 76 46 77 47 78
REMARK SMILES IDX 55 79 48 80 49 81 53 82 56 83 50 84 51 85 54 86 52 87
REMARK H PARENT 13 4 7 11 17 21 76 40 44 51
REMARK Flexibility Score: inf
ROOT
ATOM      1  C   UNL A   1      32.908  29.199  27.147  1.00  0.00     0.222 C 
ATOM      2  O   UNL A   1      34.089  28.970  27.408  1.00  0.00    -0.275 OA
ATOM      3  N   UNL A   1      32.587  30.411  26.618  1.00  0.00    -0.356 N 
ATOM      4  H   UNL A   1      33.355  30.932  26.291  1.00  0.00     0.163 HD
ENDROOT
BRANCH   1   5
ATOM      5  C   UNL A   1      31.837  28.162  27.382  1.00  0.00     0.124 C 
BRANCH   5   6
ATOM      6  C   UNL A   1      31.810  27.065  26.315  1.00  0.00     0.088 C 
ATOM      7  C   UNL A   1      31.217  27.551  24.997  1.00  0.00     0.031 C 
BRANCH   6   8
ATOM      8  N   UNL A   1      33.165  26.572  26.040  1.00  0.00    -0.353 N 
ATOM      9  C   UNL A   1      33.583  25.320  25.703  1.00  0.00     0.222 C 
ATOM     10  O   UNL A   1      34.779  25.145  25.471  1.00  0.00    -0.275 OA
ATOM     11  H   UNL A   1      33.878  27.247  26.109  1.00  0.00     0.163 HD
BRANCH   9  12
ATOM     12  C   UNL A   1      32.594  24.184  25.653  1.00  0.00     0.128 C 
BRANCH  12  13
ATOM     13  C   UNL A   1      32.651  23.356  26.929  1.00  0.00     0.169 C 
BRANCH  13  14
ATOM     14  O   UNL A   1      31.405  23.344  27.630  1.00  0.00    -0.384 OA
ATOM     15  C   UNL A   1      30.290  22.972  26.827  1.00  0.00     0.194 C 
ENDBRANCH  13  14
ENDBRANCH  12  13
ENDBRANCH   9  12
ENDBRANCH   6   8
ENDBRANCH   5   6
ENDBRANCH   1   5
BRANCH   3  16
ATOM     16  C   UNL A   1      31.297  31.061  26.457  1.00  0.00     0.117 C 
BRANCH  16  17
ATOM     17  C   UNL A   1      31.428  32.580  26.501  1.00  0.00     0.042 C 
BRANCH  17  18
ATOM     18  C   UNL A   1      32.636  33.070  27.289  1.00  0.00     0.118 C 
BRANCH  18  19
ATOM     19  N   UNL A   1      32.477  34.444  27.725  1.00  0.00    -0.352 N 
ATOM     20  C   UNL A   1      33.055  35.082  28.796  1.00  0.00     0.251 C 
ATOM     21  H   UNL A   1      31.873  34.997  27.179  1.00  0.00     0.163 HD
ATOM     22  O   UNL A   1      32.625  36.168  29.167  1.00  0.00    -0.269 OA
BRANCH  20  23
ATOM     23  C   UNL A   1      34.187  34.451  29.515  1.00  0.00     0.039 A 
ATOM     24  C   UNL A   1      33.931  33.764  30.704  1.00  0.00     0.014 A 
ATOM     25  C   UNL A   1      35.498  34.560  29.039  1.00  0.00     0.014 A 
ATOM     26  C   UNL A   1      34.982  33.153  31.391  1.00  0.00     0.010 A 
ATOM     27  C   UNL A   1      36.530  33.878  29.679  1.00  0.00     0.010 A 
ATOM     28  C   UNL A   1      36.287  33.185  30.874  1.00  0.00    -0.014 A 
BRANCH  28  29
ATOM     29  C   UNL A   1      37.410  32.527  31.591  1.00  0.00     0.031 A 
ATOM     30  C   UNL A   1      38.128  31.361  30.964  1.00  0.00     0.074 A 
ATOM     31  C   UNL A   1      37.756  32.949  32.823  1.00  0.00     0.049 A 
ATOM     32  N   UNL A   1      39.114  30.642  31.440  1.00  0.00    -0.248 NA
ATOM     33  C   UNL A   1      37.658  30.926  29.639  1.00  0.00     0.031 C 
ATOM     34  C   UNL A   1      37.096  34.025  33.564  1.00  0.00     0.029 A 
ATOM     35  N   UNL A   1      38.746  32.520  33.671  1.00  0.00    -0.354 N 
ATOM     36  C   UNL A   1      39.363  29.664  30.486  1.00  0.00     0.074 A 
ATOM     37  C   UNL A   1      38.394  29.846  29.428  1.00  0.00     0.031 C 
ATOM     38  C   UNL A   1      37.715  34.189  34.744  1.00  0.00     0.029 A 
ATOM     39  C   UNL A   1      38.794  33.212  34.857  1.00  0.00     0.049 A 
ATOM     40  H   UNL A   1      39.363  31.785  33.452  1.00  0.00     0.167 HD
ATOM     41  C   UNL A   1      40.331  28.716  30.480  1.00  0.00     0.037 A 
ATOM     42  C   UNL A   1      39.616  33.074  35.915  1.00  0.00     0.037 A 
ATOM     43  C   UNL A   1      41.321  28.566  31.513  1.00  0.00     0.049 A 
ATOM     44  C   UNL A   1      40.704  32.035  35.867  1.00  0.00     0.074 A 
ATOM     45  C   UNL A   1      42.396  27.695  31.557  1.00  0.00     0.029 A 
ATOM     46  N   UNL A   1      41.357  29.307  32.684  1.00  0.00    -0.354 N 
ATOM     47  N   UNL A   1      40.985  31.174  34.919  1.00  0.00    -0.248 NA
ATOM     48  C   UNL A   1      41.595  31.956  37.033  1.00  0.00     0.031 C 
ATOM     49  C   UNL A   1      43.055  27.878  32.777  1.00  0.00     0.029 A 
ATOM     50  C   UNL A   1      42.421  28.896  33.471  1.00  0.00     0.049 A 
ATOM     51  H   UNL A   1      40.720  30.020  32.922  1.00  0.00     0.167 HD
ATOM     52  C   UNL A   1      42.095  30.468  35.362  1.00  0.00     0.074 A 
ATOM     53  C   UNL A   1      42.449  31.015  36.655  1.00  0.00     0.031 C 
ATOM     54  C   UNL A   1      42.760  29.455  34.754  1.00  0.00     0.037 A 
BRANCH  41  55
ATOM     55  C   UNL A   1      40.374  27.771  29.314  1.00  0.00     0.064 A 
ATOM     56  C   UNL A   1      39.558  26.631  29.260  1.00  0.00     0.173 A 
ATOM     57  C   UNL A   1      41.208  28.034  28.216  1.00  0.00     0.173 A 
ATOM     58  F   UNL A   1      38.752  26.328  30.287  1.00  0.00    -0.203 F 
ATOM     59  C   UNL A   1      39.595  25.774  28.162  1.00  0.00     0.198 A 
ATOM     60  C   UNL A   1      41.220  27.191  27.108  1.00  0.00     0.198 A 
ATOM     61  F   UNL A   1      42.004  29.113  28.214  1.00  0.00    -0.203 F 
ATOM     62  F   UNL A   1      38.841  24.666  28.153  1.00  0.00    -0.200 F 
ATOM     63  C   UNL A   1      40.420  26.059  27.085  1.00  0.00     0.200 A 
ATOM     64  F   UNL A   1      42.009  27.474  26.061  1.00  0.00    -0.200 F 
ATOM     65  F   UNL A   1      40.448  25.239  26.025  1.00  0.00    -0.200 F 
ENDBRANCH  41  55
BRANCH  42  66
ATOM     66  C   UNL A   1      39.461  33.962  37.097  1.00  0.00     0.064 A 
ATOM     67  C   UNL A   1      40.056  35.230  37.130  1.00  0.00     0.173 A 
ATOM     68  C   UNL A   1      38.719  33.559  38.217  1.00  0.00     0.173 A 
ATOM     69  F   UNL A   1      40.790  35.652  36.090  1.00  0.00    -0.203 F 
ATOM     70  C   UNL A   1      39.934  36.054  38.248  1.00  0.00     0.198 A 
ATOM     71  C   UNL A   1      38.574  34.395  39.323  1.00  0.00     0.198 A 
ATOM     72  F   UNL A   1      38.124  32.357  38.234  1.00  0.00    -0.203 F 
ATOM     73  F   UNL A   1      40.552  37.243  38.271  1.00  0.00    -0.200 F 
ATOM     74  C   UNL A   1      39.189  35.638  39.340  1.00  0.00     0.200 A 
ATOM     75  F   UNL A   1      37.840  33.995  40.370  1.00  0.00    -0.200 F 
ATOM     76  F   UNL A   1      39.068  36.432  40.413  1.00  0.00    -0.200 F 
ENDBRANCH  42  66
BRANCH  54  77
ATOM     77  C   UNL A   1      43.949  28.887  35.472  1.00  0.00     0.064 A 
ATOM     78  C   UNL A   1      45.244  29.371  35.243  1.00  0.00     0.173 A 
ATOM     79  C   UNL A   1      43.784  27.871  36.426  1.00  0.00     0.173 A 
ATOM     80  F   UNL A   1      45.454  30.332  34.330  1.00  0.00    -0.203 F 
ATOM     81  C   UNL A   1      46.337  28.841  35.923  1.00  0.00     0.198 A 
ATOM     82  C   UNL A   1      44.875  27.364  37.127  1.00  0.00     0.198 A 
ATOM     83  F   UNL A   1      42.565  27.379  36.687  1.00  0.00    -0.203 F 
ATOM     84  F   UNL A   1      47.572  29.284  35.654  1.00  0.00    -0.200 F 
ATOM     85  C   UNL A   1      46.150  27.844  36.869  1.00  0.00     0.200 A 
ATOM     86  F   UNL A   1      44.692  26.410  38.049  1.00  0.00    -0.200 F 
ATOM     87  F   UNL A   1      47.203  27.338  37.527  1.00  0.00    -0.200 F 
ENDBRANCH  54  77
ENDBRANCH  28  29
ENDBRANCH  20  23
ENDBRANCH  18  19
ENDBRANCH  17  18
ENDBRANCH  16  17
ENDBRANCH   3  16
TORSDOF 15
ENDMDL
MODEL 3
REMARK VINA RESULT:     -10.1      3.925      9.044
REMARK SMILES COCCC(=O)N[C@H](C)CC(=O)NCCCNC(=O)c1ccc(-c2c3nc(c(-c4c(F)c(F)c(F)c(F)c4F)c4ccc([nH]4)c(-c4c(F)c(F)c(F)c(F)c4F)c4nc(c(-c5c(F)c(F)c(F)c(F)c5F)c5ccc2[nH]5)C=C4)C=C3)cc1
REMARK SMILES IDX 11 1 12 2 13 3 10 5 8 6 9 7 7 8 5 9 6 10 4 12 3 13 2 14 1 15
REMARK SMILES IDX 14 16 15 17 16 18 17 19 18 20 19 22 20 23 21 24 82 25 22 26
REMARK SMILES IDX 81 27 23 28 24 29 25 30 75 31 26 32 80 33 74 34 76 35 27 36
REMARK SMILES IDX 79 37 73 38 72 39 28 41 60 42 40 43 59 44 41 45 44 46 58 47
REMARK SMILES IDX 77 48 42 49 43 50 57 52 78 53 45 54 29 55 30 56 38 57 31 58
REMARK SMILES IDX 32 59 36 60 39 61 33 62 34 63 37 64 35 65 61 66 62 67 70 68
REMARK SMILES IDX 63 69 64 70 68 71 71 72 65 73 66 74 69 75 67 76 46 77 47 78
REMARK SMILES IDX 55 79 48 80 49 81 53 82 56 83 50 84 51 85 54 86 52 87
REMARK H PARENT 13 4 7 11 17 21 76 40 44 51
REMARK Flexibility Score: inf
ROOT
ATOM      1  C   UNL A   1      31.631  24.021  26.380  1.00  0.00     0.222 C 
ATOM      2  O   UNL A   1      30.801  23.780  27.258  1.00  0.00    -0.275 OA
ATOM      3  N   UNL A   1      32.942  23.773  26.646  1.00  0.00    -0.356 N 
ATOM      4  H   UNL A   1      33.101  23.222  27.446  1.00  0.00     0.163 HD
ENDROOT
BRANCH   1   5
ATOM      5  C   UNL A   1      31.214  24.558  25.033  1.00  0.00     0.124 C 
BRANCH   5   6
ATOM      6  C   UNL A   1      31.036  26.078  25.014  1.00  0.00     0.088 C 
ATOM      7  C   UNL A   1      29.796  26.508  24.237  1.00  0.00     0.031 C 
BRANCH   6   8
ATOM      8  N   UNL A   1      30.914  26.605  26.378  1.00  0.00    -0.353 N 
ATOM      9  C   UNL A   1      31.521  27.681  26.951  1.00  0.00     0.222 C 
ATOM     10  O   UNL A   1      31.230  27.968  28.113  1.00  0.00    -0.275 OA
ATOM     11  H   UNL A   1      30.301  26.108  26.966  1.00  0.00     0.163 HD
BRANCH   9  12
ATOM     12  C   UNL A   1      32.546  28.469  26.177  1.00  0.00     0.128 C 
BRANCH  12  13
ATOM     13  C   UNL A   1      33.958  28.109  26.619  1.00  0.00     0.169 C 
BRANCH  13  14
ATOM     14  O   UNL A   1      34.472  29.014  27.598  1.00  0.00    -0.384 OA
ATOM     15  C   UNL A   1      34.156  30.380  27.349  1.00  0.00     0.194 C 
ENDBRANCH  13  14
ENDBRANCH  12  13
ENDBRANCH   9  12
ENDBRANCH   6   8
ENDBRANCH   5   6
ENDBRANCH   1   5
BRANCH   3  16
ATOM     16  C   UNL A   1      34.144  24.186  25.942  1.00  0.00     0.117 C 
BRANCH  16  17
ATOM     17  C   UNL A   1      35.363  23.394  26.406  1.00  0.00     0.042 C 
BRANCH  17  18
ATOM     18  C   UNL A   1      36.627  23.687  25.608  1.00  0.00     0.118 C 
BRANCH  18  19
ATOM     19  N   UNL A   1      37.656  22.690  25.838  1.00  0.00    -0.352 N 
ATOM     20  C   UNL A   1      38.946  22.867  26.277  1.00  0.00     0.251 C 
ATOM     21  H   UNL A   1      37.393  21.759  25.656  1.00  0.00     0.163 HD
ATOM     22  O   UNL A   1      39.755  21.952  26.180  1.00  0.00    -0.269 OA
BRANCH  20  23
ATOM     23  C   UNL A   1      39.364  24.167  26.849  1.00  0.00     0.039 A 
ATOM     24  C   UNL A   1      39.056  24.448  28.182  1.00  0.00     0.014 A 
ATOM     25  C   UNL A   1      40.031  25.120  26.071  1.00  0.00     0.014 A 
ATOM     26  C   UNL A   1      39.450  25.663  28.745  1.00  0.00     0.010 A 
ATOM     27  C   UNL A   1      40.499  26.294  26.657  1.00  0.00     0.010 A 
ATOM     28  C   UNL A   1      40.195  26.588  27.995  1.00  0.00    -0.014 A 
BRANCH  28  29
ATOM     29  C   UNL A   1      40.631  27.879  28.587  1.00  0.00     0.031 A 
ATOM     30  C   UNL A   1      42.072  28.084  28.976  1.00  0.00     0.074 A 
ATOM     31  C   UNL A   1      39.726  28.850  28.816  1.00  0.00     0.049 A 
ATOM     32  N   UNL A   1      42.640  29.127  29.527  1.00  0.00    -0.248 NA
ATOM     33  C   UNL A   1      42.990  26.958  28.743  1.00  0.00     0.031 C 
ATOM     34  C   UNL A   1      38.291  28.749  28.543  1.00  0.00     0.029 A 
ATOM     35  N   UNL A   1      39.878  30.112  29.335  1.00  0.00    -0.354 N 
ATOM     36  C   UNL A   1      43.969  28.773  29.723  1.00  0.00     0.074 A 
ATOM     37  C   UNL A   1      44.113  27.404  29.282  1.00  0.00     0.031 C 
ATOM     38  C   UNL A   1      37.699  29.908  28.872  1.00  0.00     0.029 A 
ATOM     39  C   UNL A   1      38.704  30.822  29.407  1.00  0.00     0.049 A 
ATOM     40  H   UNL A   1      40.745  30.473  29.628  1.00  0.00     0.167 HD
ATOM     41  C   UNL A   1      44.985  29.533  30.201  1.00  0.00     0.037 A 
ATOM     42  C   UNL A   1      38.467  32.071  29.853  1.00  0.00     0.037 A 
ATOM     43  C   UNL A   1      44.847  30.909  30.597  1.00  0.00     0.049 A 
ATOM     44  C   UNL A   1      39.619  32.903  30.349  1.00  0.00     0.074 A 
ATOM     45  C   UNL A   1      45.831  31.790  31.012  1.00  0.00     0.029 A 
ATOM     46  N   UNL A   1      43.648  31.605  30.626  1.00  0.00    -0.354 N 
ATOM     47  N   UNL A   1      40.887  32.587  30.446  1.00  0.00    -0.248 NA
ATOM     48  C   UNL A   1      39.306  34.271  30.787  1.00  0.00     0.031 C 
ATOM     49  C   UNL A   1      45.220  33.005  31.335  1.00  0.00     0.029 A 
ATOM     50  C   UNL A   1      43.863  32.898  31.076  1.00  0.00     0.049 A 
ATOM     51  H   UNL A   1      42.773  31.235  30.366  1.00  0.00     0.167 HD
ATOM     52  C   UNL A   1      41.526  33.719  30.933  1.00  0.00     0.074 A 
ATOM     53  C   UNL A   1      40.510  34.737  31.093  1.00  0.00     0.031 C 
ATOM     54  C   UNL A   1      42.838  33.898  31.226  1.00  0.00     0.037 A 
BRANCH  41  55
ATOM     55  C   UNL A   1      46.339  28.895  30.315  1.00  0.00     0.064 A 
ATOM     56  C   UNL A   1      46.749  28.241  31.487  1.00  0.00     0.173 A 
ATOM     57  C   UNL A   1      47.219  28.896  29.223  1.00  0.00     0.173 A 
ATOM     58  F   UNL A   1      45.949  28.220  32.564  1.00  0.00    -0.203 F 
ATOM     59  C   UNL A   1      48.001  27.636  31.571  1.00  0.00     0.198 A 
ATOM     60  C   UNL A   1      48.459  28.265  29.300  1.00  0.00     0.198 A 
ATOM     61  F   UNL A   1      46.876  29.502  28.077  1.00  0.00    -0.203 F 
ATOM     62  F   UNL A   1      48.389  27.058  32.716  1.00  0.00    -0.200 F 
ATOM     63  C   UNL A   1      48.851  27.642  30.475  1.00  0.00     0.200 A 
ATOM     64  F   UNL A   1      49.274  28.261  28.236  1.00  0.00    -0.200 F 
ATOM     65  F   UNL A   1      50.051  27.052  30.554  1.00  0.00    -0.200 F 
ENDBRANCH  41  55
BRANCH  42  66
ATOM     66  C   UNL A   1      37.086  32.619  29.825  1.00  0.00     0.064 A 
ATOM     67  C   UNL A   1      36.224  32.463  30.920  1.00  0.00     0.173 A 
ATOM     68  C   UNL A   1      36.598  33.305  28.704  1.00  0.00     0.173 A 
ATOM     69  F   UNL A   1      36.640  31.799  32.008  1.00  0.00    -0.203 F 
ATOM     70  C   UNL A   1      34.920  32.953  30.886  1.00  0.00     0.198 A 
ATOM     71  C   UNL A   1      35.302  33.819  28.682  1.00  0.00     0.198 A 
ATOM     72  F   UNL A   1      37.383  33.487  27.632  1.00  0.00    -0.203 F 
ATOM     73  F   UNL A   1      34.104  32.750  31.929  1.00  0.00    -0.200 F 
ATOM     74  C   UNL A   1      34.462  33.636  29.770  1.00  0.00     0.200 A 
ATOM     75  F   UNL A   1      34.869  34.491  27.606  1.00  0.00    -0.200 F 
ATOM     76  F   UNL A   1      33.210  34.111  29.739  1.00  0.00    -0.200 F 
ENDBRANCH  42  66
BRANCH  54  77
ATOM     77  C   UNL A   1      43.250  35.251  31.729  1.00  0.00     0.064 A 
ATOM     78  C   UNL A   1      43.718  36.245  30.859  1.00  0.00     0.173 A 
ATOM     79  C   UNL A   1      43.139  35.566  33.092  1.00  0.00     0.173 A 
ATOM     80  F   UNL A   1      43.855  35.987  29.550  1.00  0.00    -0.203 F 
ATOM     81  C   UNL A   1      44.087  37.499  31.339  1.00  0.00     0.198 A 
ATOM     82  C   UNL A   1      43.480  36.830  33.564  1.00  0.00     0.198 A 
ATOM     83  F   UNL A   1      42.689  34.652  33.964  1.00  0.00    -0.203 F 
ATOM     84  F   UNL A   1      44.579  38.418  30.498  1.00  0.00    -0.200 F 
ATOM     85  C   UNL A   1      43.961  37.792  32.689  1.00  0.00     0.200 A 
ATOM     86  F   UNL A   1      43.345  37.116  34.866  1.00  0.00    -0.200 F 
ATOM     87  F   UNL A   1      44.312  39.002  33.149  1.00  0.00    -0.200 F 
ENDBRANCH  54  77
ENDBRANCH  28  29
ENDBRANCH  20  23
ENDBRANCH  18  19
ENDBRANCH  17  18
ENDBRANCH  16  17
ENDBRANCH   3  16
TORSDOF 15
ENDMDL
