MODEL 1
REMARK VINA RESULT:     -12.6      0.000      0.000
REMARK SMILES Cc1ccsc1C(=O)NNC(=O)[C@@H]1[C@@H](C(=O)NCCCNC(=O)c2ccc(-c3c4nc(c(-c5c(F)c(F)c(F)c(F)c5F)c5ccc([nH]5)c(-c5c(F)c(F)c(F)c(F)c5F)c5nc(c(-c6c(F)c(F)c(F)c(F)c6F)c6ccc3[nH]6)C=C5)C=C4)cc2)[C@H]2C=C[C@@H]1C2
REMARK SMILES IDX 18 1 17 2 15 3 16 4 14 6 13 7 90 8 87 9 89 10 91 11 88 12
REMARK SMILES IDX 11 13 10 14 12 16 9 17 7 18 8 19 6 21 1 22 2 23 3 24 4 25
REMARK SMILES IDX 5 26 19 27 20 28 21 29 22 30 23 32 24 33 25 34 86 35 26 36
REMARK SMILES IDX 85 37 27 38 28 39 29 40 79 41 30 42 84 43 78 44 80 45 31 46
REMARK SMILES IDX 83 47 77 48 76 49 32 51 64 52 44 53 63 54 45 55 48 56 62 57
REMARK SMILES IDX 81 58 46 59 47 60 61 62 82 63 49 64 33 65 34 66 42 67 35 68
REMARK SMILES IDX 36 69 40 70 43 71 37 72 38 73 41 74 39 75 65 76 66 77 74 78
REMARK SMILES IDX 67 79 68 80 72 81 75 82 69 83 70 84 73 85 71 86 50 87 51 88
REMARK SMILES IDX 59 89 52 90 53 91 57 92 60 93 54 94 55 95 58 96 56 97
REMARK H PARENT 17 5 10 15 9 20 21 31 80 50 48 61
REMARK Flexibility Score: inf
ROOT
ATOM      1  C   UNL A   1      30.985  31.093  25.403  1.00  0.00     0.117 C 
ENDROOT
BRANCH   1   2
ATOM      2  N   UNL A   1      32.150  30.227  25.291  1.00  0.00    -0.356 N 
ATOM      3  C   UNL A   1      32.346  28.905  25.094  1.00  0.00     0.224 C 
ATOM      4  O   UNL A   1      33.529  28.538  25.109  1.00  0.00    -0.275 OA
ATOM      5  H   UNL A   1      32.995  30.723  25.379  1.00  0.00     0.163 HD
BRANCH   3   6
ATOM      6  C   UNL A   1      31.275  27.844  24.907  1.00  0.00     0.098 C 
ATOM      7  C   UNL A   1      31.687  26.364  24.725  1.00  0.00     0.100 C 
ATOM      8  C   UNL A   1      30.723  25.901  23.600  1.00  0.00     0.025 C 
ATOM      9  C   UNL A   1      30.308  28.106  23.721  1.00  0.00     0.025 C 
ATOM     10  C   UNL A   1      31.231  26.549  22.310  1.00  0.00    -0.027 C 
ATOM     11  C   UNL A   1      29.491  26.809  23.733  1.00  0.00     0.017 C 
ATOM     12  C   UNL A   1      30.985  27.868  22.399  1.00  0.00    -0.027 C 
BRANCH   7  13
ATOM     13  C   UNL A   1      31.866  25.619  26.047  1.00  0.00     0.242 C 
ATOM     14  N   UNL A   1      32.938  24.845  26.363  1.00  0.00    -0.267 N 
ATOM     15  H   UNL A   1      32.840  24.217  27.116  1.00  0.00     0.191 HD
ATOM     16  O   UNL A   1      30.946  25.657  26.876  1.00  0.00    -0.273 OA
BRANCH  14  17
ATOM     17  N   UNL A   1      34.140  24.870  25.717  1.00  0.00    -0.263 N 
ATOM     18  C   UNL A   1      34.775  23.799  25.113  1.00  0.00     0.280 C 
ATOM     19  O   UNL A   1      35.912  24.031  24.691  1.00  0.00    -0.266 OA
ATOM     20  H   UNL A   1      34.602  25.738  25.676  1.00  0.00     0.191 HD
BRANCH  18  21
ATOM     21  C   UNL A   1      34.073  22.537  24.878  1.00  0.00     0.096 A 
ATOM     22  C   UNL A   1      32.621  22.786  22.731  1.00  0.00     0.046 C 
ATOM     23  C   UNL A   1      33.206  22.057  23.898  1.00  0.00    -0.027 A 
ATOM     24  C   UNL A   1      32.872  20.673  24.133  1.00  0.00     0.016 A 
ATOM     25  C   UNL A   1      33.418  20.171  25.286  1.00  0.00     0.066 A 
ATOM     26  S   UNL A   1      34.353  21.334  26.095  1.00  0.00    -0.138 S 
ENDBRANCH  18  21
ENDBRANCH  14  17
ENDBRANCH   7  13
ENDBRANCH   3   6
ENDBRANCH   1   2
BRANCH   1  27
ATOM     27  C   UNL A   1      31.062  32.004  26.617  1.00  0.00     0.042 C 
BRANCH  27  28
ATOM     28  C   UNL A   1      32.473  32.475  26.919  1.00  0.00     0.118 C 
BRANCH  28  29
ATOM     29  N   UNL A   1      32.504  33.858  27.376  1.00  0.00    -0.352 N 
ATOM     30  C   UNL A   1      33.224  34.460  28.378  1.00  0.00     0.251 C 
ATOM     31  H   UNL A   1      31.907  34.464  26.880  1.00  0.00     0.163 HD
ATOM     32  O   UNL A   1      32.908  35.587  28.749  1.00  0.00    -0.269 OA
BRANCH  30  33
ATOM     33  C   UNL A   1      34.362  33.773  29.030  1.00  0.00     0.039 A 
ATOM     34  C   UNL A   1      35.664  34.203  28.750  1.00  0.00     0.014 A 
ATOM     35  C   UNL A   1      34.170  32.668  29.860  1.00  0.00     0.014 A 
ATOM     36  C   UNL A   1      36.756  33.560  29.340  1.00  0.00     0.010 A 
ATOM     37  C   UNL A   1      35.246  32.103  30.537  1.00  0.00     0.010 A 
ATOM     38  C   UNL A   1      36.555  32.522  30.263  1.00  0.00    -0.014 A 
BRANCH  38  39
ATOM     39  C   UNL A   1      37.693  31.820  30.910  1.00  0.00     0.031 A 
ATOM     40  C   UNL A   1      38.104  32.194  32.310  1.00  0.00     0.074 A 
ATOM     41  C   UNL A   1      38.395  30.899  30.223  1.00  0.00     0.049 A 
ATOM     42  N   UNL A   1      39.128  31.781  33.015  1.00  0.00    -0.248 NA
ATOM     43  C   UNL A   1      37.274  33.196  33.001  1.00  0.00     0.031 C 
ATOM     44  C   UNL A   1      38.129  30.484  28.844  1.00  0.00     0.029 A 
ATOM     45  N   UNL A   1      39.484  30.147  30.590  1.00  0.00    -0.354 N 
ATOM     46  C   UNL A   1      39.077  32.489  34.209  1.00  0.00     0.074 A 
ATOM     47  C   UNL A   1      37.960  33.401  34.115  1.00  0.00     0.031 C 
ATOM     48  C   UNL A   1      39.010  29.534  28.492  1.00  0.00     0.029 A 
ATOM     49  C   UNL A   1      39.926  29.298  29.605  1.00  0.00     0.049 A 
ATOM     50  H   UNL A   1      39.908  30.210  31.477  1.00  0.00     0.167 HD
ATOM     51  C   UNL A   1      39.872  32.370  35.299  1.00  0.00     0.037 A 
ATOM     52  C   UNL A   1      40.955  28.431  29.601  1.00  0.00     0.037 A 
ATOM     53  C   UNL A   1      40.949  31.424  35.412  1.00  0.00     0.049 A 
ATOM     54  C   UNL A   1      41.806  28.299  30.836  1.00  0.00     0.074 A 
ATOM     55  C   UNL A   1      41.777  31.182  36.493  1.00  0.00     0.029 A 
ATOM     56  N   UNL A   1      41.338  30.552  34.405  1.00  0.00    -0.354 N 
ATOM     57  N   UNL A   1      41.714  28.937  31.978  1.00  0.00    -0.248 NA
ATOM     58  C   UNL A   1      42.899  27.319  30.785  1.00  0.00     0.031 C 
ATOM     59  C   UNL A   1      42.686  30.182  36.132  1.00  0.00     0.029 A 
ATOM     60  C   UNL A   1      42.399  29.775  34.840  1.00  0.00     0.049 A 
ATOM     61  H   UNL A   1      40.921  30.495  33.515  1.00  0.00     0.167 HD
ATOM     62  C   UNL A   1      42.713  28.417  32.788  1.00  0.00     0.074 A 
ATOM     63  C   UNL A   1      43.391  27.399  32.012  1.00  0.00     0.031 C 
ATOM     64  C   UNL A   1      43.043  28.753  34.058  1.00  0.00     0.037 A 
BRANCH  51  65
ATOM     65  C   UNL A   1      39.589  33.268  36.468  1.00  0.00     0.064 A 
ATOM     66  C   UNL A   1      38.717  32.880  37.496  1.00  0.00     0.173 A 
ATOM     67  C   UNL A   1      40.229  34.511  36.585  1.00  0.00     0.173 A 
ATOM     68  F   UNL A   1      38.070  31.706  37.425  1.00  0.00    -0.203 F 
ATOM     69  C   UNL A   1      38.474  33.714  38.584  1.00  0.00     0.198 A 
ATOM     70  C   UNL A   1      40.006  35.330  37.689  1.00  0.00     0.198 A 
ATOM     71  F   UNL A   1      41.077  34.928  35.633  1.00  0.00    -0.203 F 
ATOM     72  F   UNL A   1      37.601  33.342  39.530  1.00  0.00    -0.200 F 
ATOM     73  C   UNL A   1      39.125  34.935  38.683  1.00  0.00     0.200 A 
ATOM     74  F   UNL A   1      40.645  36.504  37.790  1.00  0.00    -0.200 F 
ATOM     75  F   UNL A   1      38.897  35.733  39.736  1.00  0.00    -0.200 F 
ENDBRANCH  51  65
BRANCH  52  76
ATOM     76  C   UNL A   1      41.222  27.593  28.403  1.00  0.00     0.064 A 
ATOM     77  C   UNL A   1      42.118  28.023  27.414  1.00  0.00     0.173 A 
ATOM     78  C   UNL A   1      40.581  26.360  28.213  1.00  0.00     0.173 A 
ATOM     79  F   UNL A   1      42.739  29.205  27.542  1.00  0.00    -0.203 F 
ATOM     80  C   UNL A   1      42.341  27.265  26.266  1.00  0.00     0.198 A 
ATOM     81  C   UNL A   1      40.829  25.590  27.078  1.00  0.00     0.198 A 
ATOM     82  F   UNL A   1      39.721  25.902  29.133  1.00  0.00    -0.203 F 
ATOM     83  F   UNL A   1      43.165  27.724  25.313  1.00  0.00    -0.200 F 
ATOM     84  C   UNL A   1      41.700  26.048  26.102  1.00  0.00     0.200 A 
ATOM     85  F   UNL A   1      40.217  24.407  26.929  1.00  0.00    -0.200 F 
ATOM     86  F   UNL A   1      41.916  25.318  24.998  1.00  0.00    -0.200 F 
ENDBRANCH  52  76
BRANCH  64  87
ATOM     87  C   UNL A   1      44.159  27.986  34.703  1.00  0.00     0.064 A 
ATOM     88  C   UNL A   1      45.484  28.441  34.661  1.00  0.00     0.173 A 
ATOM     89  C   UNL A   1      43.888  26.802  35.407  1.00  0.00     0.173 A 
ATOM     90  F   UNL A   1      45.792  29.560  33.988  1.00  0.00    -0.203 F 
ATOM     91  C   UNL A   1      46.503  27.726  35.283  1.00  0.00     0.198 A 
ATOM     92  C   UNL A   1      44.906  26.105  36.050  1.00  0.00     0.198 A 
ATOM     93  F   UNL A   1      42.634  26.331  35.480  1.00  0.00    -0.203 F 
ATOM     94  F   UNL A   1      47.770  28.155  35.194  1.00  0.00    -0.200 F 
ATOM     95  C   UNL A   1      46.213  26.563  35.982  1.00  0.00     0.200 A 
ATOM     96  F   UNL A   1      44.623  24.989  36.735  1.00  0.00    -0.200 F 
ATOM     97  F   UNL A   1      47.196  25.881  36.585  1.00  0.00    -0.200 F 
ENDBRANCH  64  87
ENDBRANCH  38  39
ENDBRANCH  30  33
ENDBRANCH  28  29
ENDBRANCH  27  28
ENDBRANCH   1  27
TORSDOF 13
ENDMDL
MODEL 2
REMARK VINA RESULT:     -12.5      0.331      1.956
REMARK SMILES Cc1ccsc1C(=O)NNC(=O)[C@@H]1[C@@H](C(=O)NCCCNC(=O)c2ccc(-c3c4nc(c(-c5c(F)c(F)c(F)c(F)c5F)c5ccc([nH]5)c(-c5c(F)c(F)c(F)c(F)c5F)c5nc(c(-c6c(F)c(F)c(F)c(F)c6F)c6ccc3[nH]6)C=C5)C=C4)cc2)[C@H]2C=C[C@@H]1C2
REMARK SMILES IDX 18 1 17 2 15 3 16 4 14 6 13 7 90 8 87 9 89 10 91 11 88 12
REMARK SMILES IDX 11 13 10 14 12 16 9 17 7 18 8 19 6 21 1 22 2 23 3 24 4 25
REMARK SMILES IDX 5 26 19 27 20 28 21 29 22 30 23 32 24 33 25 34 86 35 26 36
REMARK SMILES IDX 85 37 27 38 28 39 29 40 79 41 30 42 84 43 78 44 80 45 31 46
REMARK SMILES IDX 83 47 77 48 76 49 32 51 64 52 44 53 63 54 45 55 48 56 62 57
REMARK SMILES IDX 81 58 46 59 47 60 61 62 82 63 49 64 33 65 34 66 42 67 35 68
REMARK SMILES IDX 36 69 40 70 43 71 37 72 38 73 41 74 39 75 65 76 66 77 74 78
REMARK SMILES IDX 67 79 68 80 72 81 75 82 69 83 70 84 73 85 71 86 50 87 51 88
REMARK SMILES IDX 59 89 52 90 53 91 57 92 60 93 54 94 55 95 58 96 56 97
REMARK H PARENT 17 5 10 15 9 20 21 31 80 50 48 61
REMARK Flexibility Score: inf
ROOT
ATOM      1  C   UNL A   1      31.130  31.115  25.721  1.00  0.00     0.117 C 
ENDROOT
BRANCH   1   2
ATOM      2  N   UNL A   1      32.168  30.103  25.589  1.00  0.00    -0.356 N 
ATOM      3  C   UNL A   1      32.192  28.791  25.268  1.00  0.00     0.224 C 
ATOM      4  O   UNL A   1      33.308  28.256  25.314  1.00  0.00    -0.275 OA
ATOM      5  H   UNL A   1      33.066  30.459  25.779  1.00  0.00     0.163 HD
BRANCH   3   6
ATOM      6  C   UNL A   1      31.001  27.920  24.907  1.00  0.00     0.098 C 
ATOM      7  C   UNL A   1      31.204  26.407  24.663  1.00  0.00     0.100 C 
ATOM      8  C   UNL A   1      30.304  26.159  23.422  1.00  0.00     0.025 C 
ATOM      9  C   UNL A   1      30.212  28.393  23.656  1.00  0.00     0.025 C 
ATOM     10  C   UNL A   1      31.035  26.790  22.235  1.00  0.00    -0.027 C 
ATOM     11  C   UNL A   1      29.215  27.240  23.501  1.00  0.00     0.017 C 
ATOM     12  C   UNL A   1      30.980  28.124  22.390  1.00  0.00    -0.027 C 
BRANCH   7  13
ATOM     13  C   UNL A   1      31.132  25.573  25.942  1.00  0.00     0.242 C 
ATOM     14  N   UNL A   1      32.163  24.853  26.459  1.00  0.00    -0.267 N 
ATOM     15  H   UNL A   1      31.946  24.162  27.126  1.00  0.00     0.191 HD
ATOM     16  O   UNL A   1      30.043  25.479  26.525  1.00  0.00    -0.273 OA
BRANCH  14  17
ATOM     17  N   UNL A   1      33.476  25.016  26.124  1.00  0.00    -0.263 N 
ATOM     18  C   UNL A   1      34.322  24.047  25.612  1.00  0.00     0.280 C 
ATOM     19  O   UNL A   1      35.503  24.390  25.495  1.00  0.00    -0.266 OA
ATOM     20  H   UNL A   1      33.860  25.911  26.261  1.00  0.00     0.191 HD
BRANCH  18  21
ATOM     21  C   UNL A   1      33.803  22.770  25.121  1.00  0.00     0.096 A 
ATOM     22  C   UNL A   1      32.698  23.166  22.797  1.00  0.00     0.046 C 
ATOM     23  C   UNL A   1      33.160  22.347  23.959  1.00  0.00    -0.027 A 
ATOM     24  C   UNL A   1      32.940  20.921  23.979  1.00  0.00     0.016 A 
ATOM     25  C   UNL A   1      33.343  20.325  25.146  1.00  0.00     0.066 A 
ATOM     26  S   UNL A   1      34.008  21.451  26.227  1.00  0.00    -0.138 S 
ENDBRANCH  18  21
ENDBRANCH  14  17
ENDBRANCH   7  13
ENDBRANCH   3   6
ENDBRANCH   1   2
BRANCH   1  27
ATOM     27  C   UNL A   1      31.360  32.019  26.922  1.00  0.00     0.042 C 
BRANCH  27  28
ATOM     28  C   UNL A   1      32.695  32.741  26.876  1.00  0.00     0.118 C 
BRANCH  28  29
ATOM     29  N   UNL A   1      32.633  34.051  27.509  1.00  0.00    -0.352 N 
ATOM     30  C   UNL A   1      33.271  34.547  28.619  1.00  0.00     0.251 C 
ATOM     31  H   UNL A   1      32.030  34.690  27.065  1.00  0.00     0.163 HD
ATOM     32  O   UNL A   1      32.880  35.600  29.115  1.00  0.00    -0.269 OA
BRANCH  30  33
ATOM     33  C   UNL A   1      34.411  33.831  29.237  1.00  0.00     0.039 A 
ATOM     34  C   UNL A   1      35.713  34.245  28.937  1.00  0.00     0.014 A 
ATOM     35  C   UNL A   1      34.218  32.716  30.054  1.00  0.00     0.014 A 
ATOM     36  C   UNL A   1      36.807  33.574  29.495  1.00  0.00     0.010 A 
ATOM     37  C   UNL A   1      35.297  32.123  30.700  1.00  0.00     0.010 A 
ATOM     38  C   UNL A   1      36.607  32.526  30.406  1.00  0.00    -0.014 A 
BRANCH  38  39
ATOM     39  C   UNL A   1      37.746  31.795  31.019  1.00  0.00     0.031 A 
ATOM     40  C   UNL A   1      38.181  32.130  32.423  1.00  0.00     0.074 A 
ATOM     41  C   UNL A   1      38.428  30.884  30.300  1.00  0.00     0.049 A 
ATOM     42  N   UNL A   1      39.210  31.688  33.102  1.00  0.00    -0.248 NA
ATOM     43  C   UNL A   1      37.372  33.123  33.149  1.00  0.00     0.031 C 
ATOM     44  C   UNL A   1      38.138  30.506  28.915  1.00  0.00     0.029 A 
ATOM     45  N   UNL A   1      39.512  30.111  30.633  1.00  0.00    -0.354 N 
ATOM     46  C   UNL A   1      39.184  32.367  34.314  1.00  0.00     0.074 A 
ATOM     47  C   UNL A   1      38.076  33.294  34.258  1.00  0.00     0.031 C 
ATOM     48  C   UNL A   1      39.003  29.555  28.528  1.00  0.00     0.029 A 
ATOM     49  C   UNL A   1      39.931  29.282  29.620  1.00  0.00     0.049 A 
ATOM     50  H   UNL A   1      39.950  30.147  31.514  1.00  0.00     0.167 HD
ATOM     51  C   UNL A   1      39.992  32.212  35.389  1.00  0.00     0.037 A 
ATOM     52  C   UNL A   1      40.951  28.404  29.581  1.00  0.00     0.037 A 
ATOM     53  C   UNL A   1      41.060  31.252  35.463  1.00  0.00     0.049 A 
ATOM     54  C   UNL A   1      41.817  28.231  30.800  1.00  0.00     0.074 A 
ATOM     55  C   UNL A   1      41.901  30.974  36.526  1.00  0.00     0.029 A 
ATOM     56  N   UNL A   1      41.425  30.401  34.430  1.00  0.00    -0.354 N 
ATOM     57  N   UNL A   1      41.748  28.843  31.958  1.00  0.00    -0.248 NA
ATOM     58  C   UNL A   1      42.898  27.241  30.709  1.00  0.00     0.031 C 
ATOM     59  C   UNL A   1      42.793  29.973  36.128  1.00  0.00     0.029 A 
ATOM     60  C   UNL A   1      42.483  29.602  34.830  1.00  0.00     0.049 A 
ATOM     61  H   UNL A   1      40.995  30.370  33.544  1.00  0.00     0.167 HD
ATOM     62  C   UNL A   1      42.753  28.292  32.740  1.00  0.00     0.074 A 
ATOM     63  C   UNL A   1      43.408  27.286  31.931  1.00  0.00     0.031 C 
ATOM     64  C   UNL A   1      43.105  28.592  34.014  1.00  0.00     0.037 A 
BRANCH  51  65
ATOM     65  C   UNL A   1      39.737  33.084  36.584  1.00  0.00     0.064 A 
ATOM     66  C   UNL A   1      40.429  34.289  36.773  1.00  0.00     0.173 A 
ATOM     67  C   UNL A   1      38.761  32.733  37.528  1.00  0.00     0.173 A 
ATOM     68  F   UNL A   1      41.382  34.664  35.905  1.00  0.00    -0.203 F 
ATOM     69  C   UNL A   1      40.173  35.098  37.877  1.00  0.00     0.198 A 
ATOM     70  C   UNL A   1      38.486  33.559  38.616  1.00  0.00     0.198 A 
ATOM     71  F   UNL A   1      38.066  31.593  37.393  1.00  0.00    -0.203 F 
ATOM     72  F   UNL A   1      40.879  36.222  38.060  1.00  0.00    -0.200 F 
ATOM     73  C   UNL A   1      39.196  34.736  38.793  1.00  0.00     0.200 A 
ATOM     74  F   UNL A   1      37.534  33.214  39.493  1.00  0.00    -0.200 F 
ATOM     75  F   UNL A   1      38.944  35.521  39.850  1.00  0.00    -0.200 F 
ENDBRANCH  51  65
BRANCH  52  76
ATOM     76  C   UNL A   1      41.191  27.593  28.359  1.00  0.00     0.064 A 
ATOM     77  C   UNL A   1      40.542  26.363  28.177  1.00  0.00     0.173 A 
ATOM     78  C   UNL A   1      42.078  28.017  27.360  1.00  0.00     0.173 A 
ATOM     79  F   UNL A   1      39.699  25.906  29.115  1.00  0.00    -0.203 F 
ATOM     80  C   UNL A   1      40.794  25.576  27.055  1.00  0.00     0.198 A 
ATOM     81  C   UNL A   1      42.306  27.241  26.225  1.00  0.00     0.198 A 
ATOM     82  F   UNL A   1      42.719  29.188  27.484  1.00  0.00    -0.203 F 
ATOM     83  F   UNL A   1      40.198  24.381  26.931  1.00  0.00    -0.200 F 
ATOM     84  C   UNL A   1      41.672  26.018  26.079  1.00  0.00     0.200 A 
ATOM     85  F   UNL A   1      43.147  27.678  25.276  1.00  0.00    -0.200 F 
ATOM     86  F   UNL A   1      41.913  25.260  25.000  1.00  0.00    -0.200 F 
ENDBRANCH  52  76
BRANCH  64  87
ATOM     87  C   UNL A   1      44.220  27.797  34.624  1.00  0.00     0.064 A 
ATOM     88  C   UNL A   1      43.983  26.577  35.272  1.00  0.00     0.173 A 
ATOM     89  C   UNL A   1      45.547  28.243  34.519  1.00  0.00     0.173 A 
ATOM     90  F   UNL A   1      42.730  26.117  35.409  1.00  0.00    -0.203 F 
ATOM     91  C   UNL A   1      45.034  25.842  35.815  1.00  0.00     0.198 A 
ATOM     92  C   UNL A   1      46.596  27.492  35.039  1.00  0.00     0.198 A 
ATOM     93  F   UNL A   1      45.823  29.402  33.901  1.00  0.00    -0.203 F 
ATOM     94  F   UNL A   1      44.781  24.700  36.469  1.00  0.00    -0.200 F 
ATOM     95  C   UNL A   1      46.338  26.297  35.692  1.00  0.00     0.200 A 
ATOM     96  F   UNL A   1      47.857  27.927  34.909  1.00  0.00    -0.200 F 
ATOM     97  F   UNL A   1      47.348  25.584  36.210  1.00  0.00    -0.200 F 
ENDBRANCH  64  87
ENDBRANCH  38  39
ENDBRANCH  30  33
ENDBRANCH  28  29
ENDBRANCH  27  28
ENDBRANCH   1  27
TORSDOF 13
ENDMDL
MODEL 3
REMARK VINA RESULT:     -12.5      1.476      7.495
REMARK SMILES Cc1ccsc1C(=O)NNC(=O)[C@@H]1[C@@H](C(=O)NCCCNC(=O)c2ccc(-c3c4nc(c(-c5c(F)c(F)c(F)c(F)c5F)c5ccc([nH]5)c(-c5c(F)c(F)c(F)c(F)c5F)c5nc(c(-c6c(F)c(F)c(F)c(F)c6F)c6ccc3[nH]6)C=C5)C=C4)cc2)[C@H]2C=C[C@@H]1C2
REMARK SMILES IDX 18 1 17 2 15 3 16 4 14 6 13 7 90 8 87 9 89 10 91 11 88 12
REMARK SMILES IDX 11 13 10 14 12 16 9 17 7 18 8 19 6 21 1 22 2 23 3 24 4 25
REMARK SMILES IDX 5 26 19 27 20 28 21 29 22 30 23 32 24 33 25 34 86 35 26 36
REMARK SMILES IDX 85 37 27 38 28 39 29 40 79 41 30 42 84 43 78 44 80 45 31 46
REMARK SMILES IDX 83 47 77 48 76 49 32 51 64 52 44 53 63 54 45 55 48 56 62 57
REMARK SMILES IDX 81 58 46 59 47 60 61 62 82 63 49 64 33 65 34 66 42 67 35 68
REMARK SMILES IDX 36 69 40 70 43 71 37 72 38 73 41 74 39 75 65 76 66 77 74 78
REMARK SMILES IDX 67 79 68 80 72 81 75 82 69 83 70 84 73 85 71 86 50 87 51 88
REMARK SMILES IDX 59 89 52 90 53 91 57 92 60 93 54 94 55 95 58 96 56 97
REMARK H PARENT 17 5 10 15 9 20 21 31 80 50 48 61
REMARK Flexibility Score: inf
ROOT
ATOM      1  C   UNL A   1      31.407  30.754  26.481  1.00  0.00     0.117 C 
ENDROOT
BRANCH   1   2
ATOM      2  N   UNL A   1      31.842  30.231  25.194  1.00  0.00    -0.356 N 
ATOM      3  C   UNL A   1      31.222  29.716  24.110  1.00  0.00     0.224 C 
ATOM      4  O   UNL A   1      31.974  29.328  23.206  1.00  0.00    -0.275 OA
ATOM      5  H   UNL A   1      32.820  30.261  25.088  1.00  0.00     0.163 HD
BRANCH   3   6
ATOM      6  C   UNL A   1      29.726  29.528  23.920  1.00  0.00     0.098 C 
ATOM      7  C   UNL A   1      29.208  28.537  22.853  1.00  0.00     0.100 C 
ATOM      8  C   UNL A   1      28.029  29.328  22.226  1.00  0.00     0.025 C 
ATOM      9  C   UNL A   1      28.946  30.837  23.617  1.00  0.00     0.025 C 
ATOM     10  C   UNL A   1      28.662  30.431  21.376  1.00  0.00    -0.027 C 
ATOM     11  C   UNL A   1      27.549  30.272  23.339  1.00  0.00     0.017 C 
ATOM     12  C   UNL A   1      29.214  31.322  22.218  1.00  0.00    -0.027 C 
BRANCH   7  13
ATOM     13  C   UNL A   1      29.087  27.103  23.369  1.00  0.00     0.242 C 
ATOM     14  N   UNL A   1      29.986  26.112  23.126  1.00  0.00    -0.267 N 
ATOM     15  H   UNL A   1      29.694  25.184  23.281  1.00  0.00     0.191 HD
ATOM     16  O   UNL A   1      28.068  26.785  23.996  1.00  0.00    -0.273 OA
BRANCH  14  17
ATOM     17  N   UNL A   1      31.263  26.304  22.684  1.00  0.00    -0.263 N 
ATOM     18  C   UNL A   1      32.427  26.037  23.383  1.00  0.00     0.280 C 
ATOM     19  O   UNL A   1      33.469  26.401  22.828  1.00  0.00    -0.266 OA
ATOM     20  H   UNL A   1      31.366  26.670  21.776  1.00  0.00     0.191 HD
BRANCH  18  21
ATOM     21  C   UNL A   1      32.406  25.252  24.618  1.00  0.00     0.096 A 
ATOM     22  C   UNL A   1      31.404  26.726  26.516  1.00  0.00     0.046 C 
ATOM     23  C   UNL A   1      31.964  25.474  25.921  1.00  0.00    -0.027 A 
ATOM     24  C   UNL A   1      32.125  24.292  26.732  1.00  0.00     0.016 A 
ATOM     25  C   UNL A   1      32.730  23.256  26.067  1.00  0.00     0.066 A 
ATOM     26  S   UNL A   1      33.096  23.669  24.463  1.00  0.00    -0.138 S 
ENDBRANCH  18  21
ENDBRANCH  14  17
ENDBRANCH   7  13
ENDBRANCH   3   6
ENDBRANCH   1   2
BRANCH   1  27
ATOM     27  C   UNL A   1      31.373  32.274  26.501  1.00  0.00     0.042 C 
BRANCH  27  28
ATOM     28  C   UNL A   1      32.680  32.892  26.964  1.00  0.00     0.118 C 
BRANCH  28  29
ATOM     29  N   UNL A   1      32.483  34.203  27.568  1.00  0.00    -0.352 N 
ATOM     30  C   UNL A   1      33.027  34.766  28.696  1.00  0.00     0.251 C 
ATOM     31  H   UNL A   1      31.853  34.784  27.084  1.00  0.00     0.163 HD
ATOM     32  O   UNL A   1      32.530  35.791  29.153  1.00  0.00    -0.269 OA
BRANCH  30  33
ATOM     33  C   UNL A   1      34.189  34.153  29.380  1.00  0.00     0.039 A 
ATOM     34  C   UNL A   1      35.479  34.524  28.986  1.00  0.00     0.014 A 
ATOM     35  C   UNL A   1      34.028  33.170  30.357  1.00  0.00     0.014 A 
ATOM     36  C   UNL A   1      36.593  33.948  29.605  1.00  0.00     0.010 A 
ATOM     37  C   UNL A   1      35.130  32.684  31.052  1.00  0.00     0.010 A 
ATOM     38  C   UNL A   1      36.427  33.044  30.665  1.00  0.00    -0.014 A 
BRANCH  38  39
ATOM     39  C   UNL A   1      37.589  32.417  31.346  1.00  0.00     0.031 A 
ATOM     40  C   UNL A   1      38.349  31.310  30.662  1.00  0.00     0.074 A 
ATOM     41  C   UNL A   1      37.921  32.791  32.596  1.00  0.00     0.049 A 
ATOM     42  N   UNL A   1      39.322  30.562  31.121  1.00  0.00    -0.248 NA
ATOM     43  C   UNL A   1      37.937  30.972  29.289  1.00  0.00     0.031 C 
ATOM     44  C   UNL A   1      37.233  33.815  33.386  1.00  0.00     0.029 A 
ATOM     45  N   UNL A   1      38.919  32.348  33.428  1.00  0.00    -0.354 N 
ATOM     46  C   UNL A   1      39.613  29.656  30.109  1.00  0.00     0.074 A 
ATOM     47  C   UNL A   1      38.679  29.905  29.034  1.00  0.00     0.031 C 
ATOM     48  C   UNL A   1      37.847  33.941  34.574  1.00  0.00     0.029 A 
ATOM     49  C   UNL A   1      38.946  32.984  34.645  1.00  0.00     0.049 A 
ATOM     50  H   UNL A   1      39.556  31.641  33.175  1.00  0.00     0.167 HD
ATOM     51  C   UNL A   1      40.591  28.720  30.065  1.00  0.00     0.037 A 
ATOM     52  C   UNL A   1      39.765  32.809  35.700  1.00  0.00     0.037 A 
ATOM     53  C   UNL A   1      41.553  28.510  31.112  1.00  0.00     0.049 A 
ATOM     54  C   UNL A   1      40.861  31.781  35.614  1.00  0.00     0.074 A 
ATOM     55  C   UNL A   1      42.620  27.629  31.143  1.00  0.00     0.029 A 
ATOM     56  N   UNL A   1      41.572  29.205  32.313  1.00  0.00    -0.354 N 
ATOM     57  N   UNL A   1      41.158  30.967  34.629  1.00  0.00    -0.248 NA
ATOM     58  C   UNL A   1      41.741  31.652  36.783  1.00  0.00     0.031 C 
ATOM     59  C   UNL A   1      43.268  27.771  32.374  1.00  0.00     0.029 A 
ATOM     60  C   UNL A   1      42.628  28.767  33.094  1.00  0.00     0.049 A 
ATOM     61  H   UNL A   1      40.930  29.905  32.571  1.00  0.00     0.167 HD
ATOM     62  C   UNL A   1      42.273  30.254  35.047  1.00  0.00     0.074 A 
ATOM     63  C   UNL A   1      42.609  30.741  36.369  1.00  0.00     0.031 C 
ATOM     64  C   UNL A   1      42.956  29.282  34.397  1.00  0.00     0.037 A 
BRANCH  51  65
ATOM     65  C   UNL A   1      40.684  27.868  28.833  1.00  0.00     0.064 A 
ATOM     66  C   UNL A   1      39.948  26.681  28.705  1.00  0.00     0.173 A 
ATOM     67  C   UNL A   1      41.485  28.262  27.751  1.00  0.00     0.173 A 
ATOM     68  F   UNL A   1      39.177  26.253  29.717  1.00  0.00    -0.203 F 
ATOM     69  C   UNL A   1      40.030  25.906  27.551  1.00  0.00     0.198 A 
ATOM     70  C   UNL A   1      41.543  27.500  26.586  1.00  0.00     0.198 A 
ATOM     71  F   UNL A   1      42.206  29.391  27.818  1.00  0.00    -0.203 F 
ATOM     72  F   UNL A   1      39.353  24.752  27.471  1.00  0.00    -0.200 F 
ATOM     73  C   UNL A   1      40.821  26.320  26.490  1.00  0.00     0.200 A 
ATOM     74  F   UNL A   1      42.298  27.908  25.557  1.00  0.00    -0.200 F 
ATOM     75  F   UNL A   1      40.892  25.578  25.376  1.00  0.00    -0.200 F 
ENDBRANCH  51  65
BRANCH  52  76
ATOM     76  C   UNL A   1      39.606  33.649  36.916  1.00  0.00     0.064 A 
ATOM     77  C   UNL A   1      38.797  33.223  37.979  1.00  0.00     0.173 A 
ATOM     78  C   UNL A   1      40.242  34.893  37.036  1.00  0.00     0.173 A 
ATOM     79  F   UNL A   1      38.153  32.049  37.901  1.00  0.00    -0.203 F 
ATOM     80  C   UNL A   1      38.608  34.022  39.104  1.00  0.00     0.198 A 
ATOM     81  C   UNL A   1      40.073  35.678  38.175  1.00  0.00     0.198 A 
ATOM     82  F   UNL A   1      41.030  35.343  36.050  1.00  0.00    -0.203 F 
ATOM     83  F   UNL A   1      37.789  33.612  40.083  1.00  0.00    -0.200 F 
ATOM     84  C   UNL A   1      39.249  35.246  39.203  1.00  0.00     0.200 A 
ATOM     85  F   UNL A   1      40.705  36.856  38.273  1.00  0.00    -0.200 F 
ATOM     86  F   UNL A   1      39.066  36.015  40.286  1.00  0.00    -0.200 F 
ENDBRANCH  52  76
BRANCH  64  87
ATOM     87  C   UNL A   1      44.159  28.709  35.087  1.00  0.00     0.064 A 
ATOM     88  C   UNL A   1      45.430  29.283  34.945  1.00  0.00     0.173 A 
ATOM     89  C   UNL A   1      44.026  27.597  35.933  1.00  0.00     0.173 A 
ATOM     90  F   UNL A   1      45.607  30.338  34.136  1.00  0.00    -0.203 F 
ATOM     91  C   UNL A   1      46.531  28.751  35.610  1.00  0.00     0.198 A 
ATOM     92  C   UNL A   1      45.124  27.085  36.617  1.00  0.00     0.198 A 
ATOM     93  F   UNL A   1      42.828  27.018  36.106  1.00  0.00    -0.203 F 
ATOM     94  F   UNL A   1      47.745  29.288  35.425  1.00  0.00    -0.200 F 
ATOM     95  C   UNL A   1      46.376  27.657  36.449  1.00  0.00     0.200 A 
ATOM     96  F   UNL A   1      44.971  26.036  37.437  1.00  0.00    -0.200 F 
ATOM     97  F   UNL A   1      47.437  27.150  37.092  1.00  0.00    -0.200 F 
ENDBRANCH  64  87
ENDBRANCH  38  39
ENDBRANCH  30  33
ENDBRANCH  28  29
ENDBRANCH  27  28
ENDBRANCH   1  27
TORSDOF 13
ENDMDL
