MODEL 1
REMARK VINA RESULT:     -14.3      0.000      0.000
REMARK SMILES O=C1CCCC2=C1[C@H](c1ccc([N+](=O)[O-])cc1)CC(=O)N2c1ccccc1C(=O)NCCCNC(=O)c1ccc(-c2c3nc(c(-c4c(F)c(F)c(F)c(F)c4F)c4ccc([nH]4)c(-c4c(F)c(F)c(F)c(F)c4F)c4nc(c(-c5c(F)c(F)c(F)c(F)c5F)c5ccc2[nH]5)C=C4)C=C3)cc1
REMARK SMILES IDX 31 1 30 2 28 3 29 4 27 6 22 7 23 8 24 9 26 10 25 11 21 12
REMARK SMILES IDX 1 13 2 14 3 15 7 16 4 17 6 18 8 19 5 20 18 21 19 22 20 23
REMARK SMILES IDX 9 24 10 25 17 26 11 27 16 28 12 29 13 30 14 31 15 32 32 33
REMARK SMILES IDX 33 34 34 35 35 36 36 38 37 39 38 40 99 41 39 42 98 43 40 44
REMARK SMILES IDX 41 45 42 46 92 47 43 48 97 49 91 50 93 51 44 52 96 53 90 54
REMARK SMILES IDX 89 55 45 57 77 58 57 59 76 60 58 61 61 62 75 63 94 64 59 65
REMARK SMILES IDX 60 66 74 68 95 69 62 70 46 71 47 72 55 73 48 74 49 75 53 76
REMARK SMILES IDX 56 77 50 78 51 79 54 80 52 81 78 82 79 83 87 84 80 85 81 86
REMARK SMILES IDX 85 87 88 88 82 89 83 90 86 91 84 92 63 93 64 94 72 95 65 96
REMARK SMILES IDX 66 97 70 98 73 99 67 100 68 101 71 102 69 103
REMARK H PARENT 30 5 34 37 93 56 61 67
REMARK Flexibility Score: inf
ROOT
ATOM      1  C   UNL A   1      33.613  30.225  26.483  1.00  0.00     0.118 C 
ENDROOT
BRANCH   1   2
ATOM      2  N   UNL A   1      33.691  28.780  26.509  1.00  0.00    -0.352 N 
ATOM      3  C   UNL A   1      33.274  27.729  25.730  1.00  0.00     0.253 C 
ATOM      4  O   UNL A   1      33.789  26.670  26.127  1.00  0.00    -0.269 OA
ATOM      5  H   UNL A   1      34.177  28.463  27.305  1.00  0.00     0.163 HD
BRANCH   3   6
ATOM      6  C   UNL A   1      32.345  27.627  24.519  1.00  0.00     0.063 A 
ATOM      7  C   UNL A   1      31.886  26.577  23.688  1.00  0.00     0.061 A 
ATOM      8  C   UNL A   1      30.989  26.869  22.608  1.00  0.00     0.027 A 
ATOM      9  C   UNL A   1      30.574  28.149  22.282  1.00  0.00     0.002 A 
ATOM     10  C   UNL A   1      31.883  28.929  24.133  1.00  0.00     0.016 A 
ATOM     11  C   UNL A   1      31.033  29.192  23.048  1.00  0.00     0.001 A 
BRANCH   7  12
ATOM     12  N   UNL A   1      32.204  25.181  23.747  1.00  0.00    -0.284 N 
ATOM     13  O   UNL A   1      31.956  20.946  25.814  1.00  0.00    -0.294 OA
ATOM     14  C   UNL A   1      31.639  22.136  25.823  1.00  0.00     0.161 C 
ATOM     15  C   UNL A   1      30.763  22.720  26.912  1.00  0.00     0.081 C 
ATOM     16  C   UNL A   1      32.187  23.055  24.783  1.00  0.00     0.023 C 
ATOM     17  C   UNL A   1      29.774  23.713  26.342  1.00  0.00     0.015 C 
ATOM     18  C   UNL A   1      31.644  24.291  24.671  1.00  0.00     0.033 C 
ATOM     19  C   UNL A   1      33.266  22.542  23.821  1.00  0.00     0.064 C 
ATOM     20  C   UNL A   1      30.452  24.775  25.481  1.00  0.00     0.055 C 
ATOM     21  C   UNL A   1      32.983  23.199  22.483  1.00  0.00     0.114 C 
ATOM     22  C   UNL A   1      32.984  24.700  22.664  1.00  0.00     0.232 C 
ATOM     23  O   UNL A   1      33.592  25.405  21.857  1.00  0.00    -0.274 OA
BRANCH  19  24
ATOM     24  C   UNL A   1      34.725  22.734  24.270  1.00  0.00    -0.039 A 
ATOM     25  C   UNL A   1      35.292  23.947  24.742  1.00  0.00     0.011 A 
ATOM     26  C   UNL A   1      35.574  21.639  24.197  1.00  0.00     0.011 A 
ATOM     27  C   UNL A   1      36.586  24.025  25.285  1.00  0.00     0.086 A 
ATOM     28  C   UNL A   1      36.865  21.729  24.713  1.00  0.00     0.086 A 
ATOM     29  C   UNL A   1      37.349  22.878  25.319  1.00  0.00     0.269 A 
BRANCH  29  30
ATOM     30  N   UNL A   1      38.572  22.799  26.117  1.00  0.00     0.062 N 
ATOM     31  O   UNL A   1      38.814  23.728  26.896  1.00  0.00    -0.258 OA
ATOM     32  O   UNL A   1      39.267  21.777  25.987  1.00  0.00    -0.258 OA
ENDBRANCH  29  30
ENDBRANCH  19  24
ENDBRANCH   7  12
ENDBRANCH   3   6
ENDBRANCH   1   2
BRANCH   1  33
ATOM     33  C   UNL A   1      32.308  30.826  27.025  1.00  0.00     0.042 C 
BRANCH  33  34
ATOM     34  C   UNL A   1      31.838  32.246  26.619  1.00  0.00     0.118 C 
BRANCH  34  35
ATOM     35  N   UNL A   1      32.268  33.428  27.380  1.00  0.00    -0.352 N 
ATOM     36  C   UNL A   1      33.413  33.865  28.028  1.00  0.00     0.251 C 
ATOM     37  H   UNL A   1      31.543  34.091  27.449  1.00  0.00     0.163 HD
ATOM     38  O   UNL A   1      33.460  35.063  28.321  1.00  0.00    -0.269 OA
BRANCH  36  39
ATOM     39  C   UNL A   1      34.551  33.008  28.471  1.00  0.00     0.039 A 
ATOM     40  C   UNL A   1      35.855  33.302  28.006  1.00  0.00     0.014 A 
ATOM     41  C   UNL A   1      34.415  31.978  29.387  1.00  0.00     0.014 A 
ATOM     42  C   UNL A   1      37.005  32.654  28.530  1.00  0.00     0.010 A 
ATOM     43  C   UNL A   1      35.566  31.420  29.982  1.00  0.00     0.010 A 
ATOM     44  C   UNL A   1      36.889  31.718  29.565  1.00  0.00    -0.014 A 
BRANCH  44  45
ATOM     45  C   UNL A   1      38.056  30.947  30.161  1.00  0.00     0.031 A 
ATOM     46  C   UNL A   1      38.389  31.180  31.628  1.00  0.00     0.074 A 
ATOM     47  C   UNL A   1      38.900  30.133  29.480  1.00  0.00     0.049 A 
ATOM     48  N   UNL A   1      39.473  30.891  32.309  1.00  0.00    -0.248 NA
ATOM     49  C   UNL A   1      37.404  31.955  32.400  1.00  0.00     0.031 C 
ATOM     50  C   UNL A   1      38.851  29.812  28.054  1.00  0.00     0.029 A 
ATOM     51  N   UNL A   1      40.010  29.430  29.925  1.00  0.00    -0.354 N 
ATOM     52  C   UNL A   1      39.328  31.556  33.521  1.00  0.00     0.074 A 
ATOM     53  C   UNL A   1      38.152  32.386  33.400  1.00  0.00     0.031 C 
ATOM     54  C   UNL A   1      39.858  28.967  27.751  1.00  0.00     0.029 A 
ATOM     55  C   UNL A   1      40.647  28.690  28.952  1.00  0.00     0.049 A 
ATOM     56  H   UNL A   1      40.318  29.457  30.859  1.00  0.00     0.167 HD
ATOM     57  C   UNL A   1      40.019  31.429  34.680  1.00  0.00     0.037 A 
ATOM     58  C   UNL A   1      41.728  27.876  29.020  1.00  0.00     0.037 A 
ATOM     59  C   UNL A   1      41.084  30.494  34.890  1.00  0.00     0.049 A 
ATOM     60  C   UNL A   1      42.442  27.653  30.340  1.00  0.00     0.074 A 
ATOM     61  C   UNL A   1      41.762  30.205  36.061  1.00  0.00     0.029 A 
ATOM     62  N   UNL A   1      41.599  29.661  33.910  1.00  0.00    -0.354 N 
ATOM     63  N   UNL A   1      42.234  28.212  31.506  1.00  0.00    -0.248 NA
ATOM     64  C   UNL A   1      43.531  26.658  30.354  1.00  0.00     0.031 C 
ATOM     65  C   UNL A   1      42.702  29.205  35.786  1.00  0.00     0.029 A 
ATOM     66  C   UNL A   1      42.575  28.845  34.454  1.00  0.00     0.049 A 
ATOM     67  H   UNL A   1      41.314  29.652  32.968  1.00  0.00     0.167 HD
ATOM     68  C   UNL A   1      43.117  27.602  32.393  1.00  0.00     0.074 A 
ATOM     69  C   UNL A   1      43.866  26.627  31.636  1.00  0.00     0.031 C 
ATOM     70  C   UNL A   1      43.285  27.832  33.719  1.00  0.00     0.037 A 
BRANCH  57  71
ATOM     71  C   UNL A   1      39.566  32.279  35.836  1.00  0.00     0.064 A 
ATOM     72  C   UNL A   1      40.162  33.522  36.111  1.00  0.00     0.173 A 
ATOM     73  C   UNL A   1      38.554  31.835  36.698  1.00  0.00     0.173 A 
ATOM     74  F   UNL A   1      41.139  33.995  35.320  1.00  0.00    -0.203 F 
ATOM     75  C   UNL A   1      39.831  34.240  37.255  1.00  0.00     0.198 A 
ATOM     76  C   UNL A   1      38.184  32.585  37.812  1.00  0.00     0.198 A 
ATOM     77  F   UNL A   1      37.931  30.668  36.471  1.00  0.00    -0.203 F 
ATOM     78  F   UNL A   1      40.501  35.360  37.556  1.00  0.00    -0.200 F 
ATOM     79  C   UNL A   1      38.839  33.773  38.102  1.00  0.00     0.200 A 
ATOM     80  F   UNL A   1      37.207  32.148  38.618  1.00  0.00    -0.200 F 
ATOM     81  F   UNL A   1      38.523  34.463  39.207  1.00  0.00    -0.200 F 
ENDBRANCH  57  71
BRANCH  58  82
ATOM     82  C   UNL A   1      42.190  27.120  27.816  1.00  0.00     0.064 A 
ATOM     83  C   UNL A   1      41.775  25.796  27.602  1.00  0.00     0.173 A 
ATOM     84  C   UNL A   1      43.105  27.665  26.905  1.00  0.00     0.173 A 
ATOM     85  F   UNL A   1      40.934  25.211  28.468  1.00  0.00    -0.203 F 
ATOM     86  C   UNL A   1      42.276  25.039  26.543  1.00  0.00     0.198 A 
ATOM     87  C   UNL A   1      43.585  26.915  25.828  1.00  0.00     0.198 A 
ATOM     88  F   UNL A   1      43.547  28.920  27.065  1.00  0.00    -0.203 F 
ATOM     89  F   UNL A   1      41.910  23.757  26.405  1.00  0.00    -0.200 F 
ATOM     90  C   UNL A   1      43.177  25.601  25.654  1.00  0.00     0.200 A 
ATOM     91  F   UNL A   1      44.456  27.461  24.968  1.00  0.00    -0.200 F 
ATOM     92  F   UNL A   1      43.664  24.872  24.640  1.00  0.00    -0.200 F 
ENDBRANCH  58  82
BRANCH  70  93
ATOM     93  C   UNL A   1      44.241  26.960  34.485  1.00  0.00     0.064 A 
ATOM     94  C   UNL A   1      45.564  27.345  34.744  1.00  0.00     0.173 A 
ATOM     95  C   UNL A   1      43.796  25.743  35.030  1.00  0.00     0.173 A 
ATOM     96  F   UNL A   1      46.042  28.495  34.243  1.00  0.00    -0.203 F 
ATOM     97  C   UNL A   1      46.412  26.535  35.497  1.00  0.00     0.198 A 
ATOM     98  C   UNL A   1      44.637  24.952  35.808  1.00  0.00     0.198 A 
ATOM     99  F   UNL A   1      42.536  25.330  34.826  1.00  0.00    -0.203 F 
ATOM    100  F   UNL A   1      47.685  26.906  35.696  1.00  0.00    -0.200 F 
ATOM    101  C   UNL A   1      45.947  25.345  36.035  1.00  0.00     0.200 A 
ATOM    102  F   UNL A   1      44.178  23.812  36.342  1.00  0.00    -0.200 F 
ATOM    103  F   UNL A   1      46.761  24.575  36.770  1.00  0.00    -0.200 F 
ENDBRANCH  70  93
ENDBRANCH  44  45
ENDBRANCH  36  39
ENDBRANCH  34  35
ENDBRANCH  33  34
ENDBRANCH   1  33
TORSDOF 13
ENDMDL
MODEL 2
REMARK VINA RESULT:     -14.2      3.945      9.917
REMARK SMILES O=C1CCCC2=C1[C@H](c1ccc([N+](=O)[O-])cc1)CC(=O)N2c1ccccc1C(=O)NCCCNC(=O)c1ccc(-c2c3nc(c(-c4c(F)c(F)c(F)c(F)c4F)c4ccc([nH]4)c(-c4c(F)c(F)c(F)c(F)c4F)c4nc(c(-c5c(F)c(F)c(F)c(F)c5F)c5ccc2[nH]5)C=C4)C=C3)cc1
REMARK SMILES IDX 31 1 30 2 28 3 29 4 27 6 22 7 23 8 24 9 26 10 25 11 21 12
REMARK SMILES IDX 1 13 2 14 3 15 7 16 4 17 6 18 8 19 5 20 18 21 19 22 20 23
REMARK SMILES IDX 9 24 10 25 17 26 11 27 16 28 12 29 13 30 14 31 15 32 32 33
REMARK SMILES IDX 33 34 34 35 35 36 36 38 37 39 38 40 99 41 39 42 98 43 40 44
REMARK SMILES IDX 41 45 42 46 92 47 43 48 97 49 91 50 93 51 44 52 96 53 90 54
REMARK SMILES IDX 89 55 45 57 77 58 57 59 76 60 58 61 61 62 75 63 94 64 59 65
REMARK SMILES IDX 60 66 74 68 95 69 62 70 46 71 47 72 55 73 48 74 49 75 53 76
REMARK SMILES IDX 56 77 50 78 51 79 54 80 52 81 78 82 79 83 87 84 80 85 81 86
REMARK SMILES IDX 85 87 88 88 82 89 83 90 86 91 84 92 63 93 64 94 72 95 65 96
REMARK SMILES IDX 66 97 70 98 73 99 67 100 68 101 71 102 69 103
REMARK H PARENT 30 5 34 37 93 56 61 67
REMARK Flexibility Score: inf
ROOT
ATOM      1  C   UNL A   1      37.071  23.209  24.350  1.00  0.00     0.118 C 
ENDROOT
BRANCH   1   2
ATOM      2  N   UNL A   1      36.335  23.569  25.544  1.00  0.00    -0.352 N 
ATOM      3  C   UNL A   1      35.149  23.225  26.144  1.00  0.00     0.253 C 
ATOM      4  O   UNL A   1      35.092  23.708  27.288  1.00  0.00    -0.269 OA
ATOM      5  H   UNL A   1      36.819  24.245  26.072  1.00  0.00     0.163 HD
BRANCH   3   6
ATOM      6  C   UNL A   1      33.947  22.394  25.690  1.00  0.00     0.063 A 
ATOM      7  C   UNL A   1      32.663  22.682  25.171  1.00  0.00     0.061 A 
ATOM      8  C   UNL A   1      31.772  21.606  24.849  1.00  0.00     0.027 A 
ATOM      9  C   UNL A   1      32.072  20.272  25.068  1.00  0.00     0.002 A 
ATOM     10  C   UNL A   1      34.201  20.997  25.896  1.00  0.00     0.016 A 
ATOM     11  C   UNL A   1      33.297  19.965  25.606  1.00  0.00     0.001 A 
BRANCH   7  12
ATOM     12  N   UNL A   1      32.065  23.958  24.911  1.00  0.00    -0.284 N 
ATOM     13  O   UNL A   1      31.311  27.709  22.148  1.00  0.00    -0.294 OA
ATOM     14  C   UNL A   1      31.852  26.613  22.302  1.00  0.00     0.161 C 
ATOM     15  C   UNL A   1      32.718  25.993  21.225  1.00  0.00     0.081 C 
ATOM     16  C   UNL A   1      31.721  25.901  23.607  1.00  0.00     0.023 C 
ATOM     17  C   UNL A   1      32.480  24.501  21.126  1.00  0.00     0.015 C 
ATOM     18  C   UNL A   1      32.117  24.607  23.671  1.00  0.00     0.033 C 
ATOM     19  C   UNL A   1      31.058  26.617  24.790  1.00  0.00     0.064 C 
ATOM     20  C   UNL A   1      32.608  23.804  22.477  1.00  0.00     0.055 C 
ATOM     21  C   UNL A   1      30.280  25.554  25.542  1.00  0.00     0.114 C 
ATOM     22  C   UNL A   1      31.226  24.447  25.946  1.00  0.00     0.232 C 
ATOM     23  O   UNL A   1      31.182  24.002  27.095  1.00  0.00    -0.274 OA
BRANCH  19  24
ATOM     24  C   UNL A   1      31.995  27.418  25.711  1.00  0.00    -0.039 A 
ATOM     25  C   UNL A   1      33.409  27.302  25.755  1.00  0.00     0.011 A 
ATOM     26  C   UNL A   1      31.419  28.324  26.590  1.00  0.00     0.011 A 
ATOM     27  C   UNL A   1      34.224  28.169  26.503  1.00  0.00     0.086 A 
ATOM     28  C   UNL A   1      32.232  29.163  27.349  1.00  0.00     0.086 A 
ATOM     29  C   UNL A   1      33.615  29.146  27.259  1.00  0.00     0.269 A 
BRANCH  29  30
ATOM     30  N   UNL A   1      34.377  30.258  27.827  1.00  0.00     0.062 N 
ATOM     31  O   UNL A   1      35.469  30.001  28.349  1.00  0.00    -0.258 OA
ATOM     32  O   UNL A   1      33.891  31.395  27.709  1.00  0.00    -0.258 OA
ENDBRANCH  29  30
ENDBRANCH  19  24
ENDBRANCH   7  12
ENDBRANCH   3   6
ENDBRANCH   1   2
BRANCH   1  33
ATOM     33  C   UNL A   1      37.419  21.719  24.213  1.00  0.00     0.042 C 
BRANCH  33  34
ATOM     34  C   UNL A   1      37.674  20.829  25.455  1.00  0.00     0.118 C 
BRANCH  34  35
ATOM     35  N   UNL A   1      39.025  20.339  25.767  1.00  0.00    -0.352 N 
ATOM     36  C   UNL A   1      40.122  20.765  26.501  1.00  0.00     0.251 C 
ATOM     37  H   UNL A   1      39.198  19.470  25.337  1.00  0.00     0.163 HD
ATOM     38  O   UNL A   1      40.988  19.920  26.742  1.00  0.00    -0.269 OA
BRANCH  36  39
ATOM     39  C   UNL A   1      40.385  22.162  26.953  1.00  0.00     0.039 A 
ATOM     40  C   UNL A   1      41.371  22.390  27.944  1.00  0.00     0.014 A 
ATOM     41  C   UNL A   1      39.772  23.270  26.394  1.00  0.00     0.014 A 
ATOM     42  C   UNL A   1      41.806  23.698  28.284  1.00  0.00     0.010 A 
ATOM     43  C   UNL A   1      40.288  24.557  26.655  1.00  0.00     0.010 A 
ATOM     44  C   UNL A   1      41.299  24.818  27.615  1.00  0.00    -0.014 A 
BRANCH  44  45
ATOM     45  C   UNL A   1      41.676  26.256  27.936  1.00  0.00     0.031 A 
ATOM     46  C   UNL A   1      43.039  26.754  27.476  1.00  0.00     0.074 A 
ATOM     47  C   UNL A   1      40.947  27.119  28.687  1.00  0.00     0.049 A 
ATOM     48  N   UNL A   1      43.727  27.808  27.848  1.00  0.00    -0.248 NA
ATOM     49  C   UNL A   1      43.773  25.872  26.555  1.00  0.00     0.031 C 
ATOM     50  C   UNL A   1      39.652  26.859  29.316  1.00  0.00     0.029 A 
ATOM     51  N   UNL A   1      41.229  28.421  29.069  1.00  0.00    -0.354 N 
ATOM     52  C   UNL A   1      44.991  27.626  27.300  1.00  0.00     0.074 A 
ATOM     53  C   UNL A   1      45.010  26.297  26.733  1.00  0.00     0.031 C 
ATOM     54  C   UNL A   1      39.247  27.963  29.977  1.00  0.00     0.029 A 
ATOM     55  C   UNL A   1      40.255  29.015  29.842  1.00  0.00     0.049 A 
ATOM     56  H   UNL A   1      42.058  28.885  28.810  1.00  0.00     0.167 HD
ATOM     57  C   UNL A   1      46.022  28.496  27.164  1.00  0.00     0.037 A 
ATOM     58  C   UNL A   1      40.175  30.261  30.370  1.00  0.00     0.037 A 
ATOM     59  C   UNL A   1      45.979  29.872  27.561  1.00  0.00     0.049 A 
ATOM     60  C   UNL A   1      41.283  31.271  30.131  1.00  0.00     0.074 A 
ATOM     61  C   UNL A   1      46.924  30.862  27.354  1.00  0.00     0.029 A 
ATOM     62  N   UNL A   1      44.911  30.465  28.213  1.00  0.00    -0.354 N 
ATOM     63  N   UNL A   1      42.434  31.118  29.524  1.00  0.00    -0.248 NA
ATOM     64  C   UNL A   1      41.062  32.640  30.634  1.00  0.00     0.031 C 
ATOM     65  C   UNL A   1      46.433  32.054  27.896  1.00  0.00     0.029 A 
ATOM     66  C   UNL A   1      45.166  31.812  28.400  1.00  0.00     0.049 A 
ATOM     67  H   UNL A   1      44.093  29.998  28.500  1.00  0.00     0.167 HD
ATOM     68  C   UNL A   1      43.041  32.371  29.523  1.00  0.00     0.074 A 
ATOM     69  C   UNL A   1      42.134  33.278  30.187  1.00  0.00     0.031 C 
ATOM     70  C   UNL A   1      44.243  32.733  29.010  1.00  0.00     0.037 A 
BRANCH  57  71
ATOM     71  C   UNL A   1      47.255  27.982  26.470  1.00  0.00     0.064 A 
ATOM     72  C   UNL A   1      47.325  27.892  25.069  1.00  0.00     0.173 A 
ATOM     73  C   UNL A   1      48.361  27.540  27.209  1.00  0.00     0.173 A 
ATOM     74  F   UNL A   1      46.293  28.298  24.312  1.00  0.00    -0.203 F 
ATOM     75  C   UNL A   1      48.412  27.295  24.441  1.00  0.00     0.198 A 
ATOM     76  C   UNL A   1      49.474  26.995  26.573  1.00  0.00     0.198 A 
ATOM     77  F   UNL A   1      48.361  27.625  28.548  1.00  0.00    -0.203 F 
ATOM     78  F   UNL A   1      48.398  27.112  23.114  1.00  0.00    -0.200 F 
ATOM     79  C   UNL A   1      49.487  26.851  25.193  1.00  0.00     0.200 A 
ATOM     80  F   UNL A   1      50.526  26.589  27.296  1.00  0.00    -0.200 F 
ATOM     81  F   UNL A   1      50.533  26.270  24.588  1.00  0.00    -0.200 F 
ENDBRANCH  57  71
BRANCH  58  82
ATOM     82  C   UNL A   1      38.961  30.692  31.128  1.00  0.00     0.064 A 
ATOM     83  C   UNL A   1      37.900  31.335  30.471  1.00  0.00     0.173 A 
ATOM     84  C   UNL A   1      38.864  30.544  32.518  1.00  0.00     0.173 A 
ATOM     85  F   UNL A   1      37.961  31.541  29.146  1.00  0.00    -0.203 F 
ATOM     86  C   UNL A   1      36.806  31.838  31.175  1.00  0.00     0.198 A 
ATOM     87  C   UNL A   1      37.755  31.024  33.219  1.00  0.00     0.198 A 
ATOM     88  F   UNL A   1      39.852  29.950  33.202  1.00  0.00    -0.203 F 
ATOM     89  F   UNL A   1      35.842  32.505  30.525  1.00  0.00    -0.200 F 
ATOM     90  C   UNL A   1      36.732  31.677  32.548  1.00  0.00     0.200 A 
ATOM     91  F   UNL A   1      37.685  30.865  34.548  1.00  0.00    -0.200 F 
ATOM     92  F   UNL A   1      35.685  32.166  33.227  1.00  0.00    -0.200 F 
ENDBRANCH  58  82
BRANCH  70  93
ATOM     93  C   UNL A   1      44.631  34.186  29.043  1.00  0.00     0.064 A 
ATOM     94  C   UNL A   1      45.419  34.727  30.069  1.00  0.00     0.173 A 
ATOM     95  C   UNL A   1      44.264  35.034  27.985  1.00  0.00     0.173 A 
ATOM     96  F   UNL A   1      45.795  33.964  31.107  1.00  0.00    -0.203 F 
ATOM     97  C   UNL A   1      45.801  36.067  30.047  1.00  0.00     0.198 A 
ATOM     98  C   UNL A   1      44.674  36.364  27.951  1.00  0.00     0.198 A 
ATOM     99  F   UNL A   1      43.521  34.566  26.970  1.00  0.00    -0.203 F 
ATOM    100  F   UNL A   1      46.521  36.573  31.060  1.00  0.00    -0.200 F 
ATOM    101  C   UNL A   1      45.436  36.882  28.986  1.00  0.00     0.200 A 
ATOM    102  F   UNL A   1      44.335  37.142  26.914  1.00  0.00    -0.200 F 
ATOM    103  F   UNL A   1      45.817  38.166  28.961  1.00  0.00    -0.200 F 
ENDBRANCH  70  93
ENDBRANCH  44  45
ENDBRANCH  36  39
ENDBRANCH  34  35
ENDBRANCH  33  34
ENDBRANCH   1  33
TORSDOF 13
ENDMDL
MODEL 3
REMARK VINA RESULT:     -14.0      4.126     10.186
REMARK SMILES O=C1CCCC2=C1[C@H](c1ccc([N+](=O)[O-])cc1)CC(=O)N2c1ccccc1C(=O)NCCCNC(=O)c1ccc(-c2c3nc(c(-c4c(F)c(F)c(F)c(F)c4F)c4ccc([nH]4)c(-c4c(F)c(F)c(F)c(F)c4F)c4nc(c(-c5c(F)c(F)c(F)c(F)c5F)c5ccc2[nH]5)C=C4)C=C3)cc1
REMARK SMILES IDX 31 1 30 2 28 3 29 4 27 6 22 7 23 8 24 9 26 10 25 11 21 12
REMARK SMILES IDX 1 13 2 14 3 15 7 16 4 17 6 18 8 19 5 20 18 21 19 22 20 23
REMARK SMILES IDX 9 24 10 25 17 26 11 27 16 28 12 29 13 30 14 31 15 32 32 33
REMARK SMILES IDX 33 34 34 35 35 36 36 38 37 39 38 40 99 41 39 42 98 43 40 44
REMARK SMILES IDX 41 45 42 46 92 47 43 48 97 49 91 50 93 51 44 52 96 53 90 54
REMARK SMILES IDX 89 55 45 57 77 58 57 59 76 60 58 61 61 62 75 63 94 64 59 65
REMARK SMILES IDX 60 66 74 68 95 69 62 70 46 71 47 72 55 73 48 74 49 75 53 76
REMARK SMILES IDX 56 77 50 78 51 79 54 80 52 81 78 82 79 83 87 84 80 85 81 86
REMARK SMILES IDX 85 87 88 88 82 89 83 90 86 91 84 92 63 93 64 94 72 95 65 96
REMARK SMILES IDX 66 97 70 98 73 99 67 100 68 101 71 102 69 103
REMARK H PARENT 30 5 34 37 93 56 61 67
REMARK Flexibility Score: inf
ROOT
ATOM      1  C   UNL A   1      37.767  21.984  24.808  1.00  0.00     0.118 C 
ENDROOT
BRANCH   1   2
ATOM      2  N   UNL A   1      36.704  22.739  25.439  1.00  0.00    -0.352 N 
ATOM      3  C   UNL A   1      35.343  22.640  25.589  1.00  0.00     0.253 C 
ATOM      4  O   UNL A   1      34.939  23.482  26.409  1.00  0.00    -0.269 OA
ATOM      5  H   UNL A   1      37.054  23.545  25.883  1.00  0.00     0.163 HD
BRANCH   3   6
ATOM      6  C   UNL A   1      34.284  21.726  24.969  1.00  0.00     0.063 A 
ATOM      7  C   UNL A   1      33.017  21.916  24.368  1.00  0.00     0.061 A 
ATOM      8  C   UNL A   1      32.286  20.782  23.885  1.00  0.00     0.027 A 
ATOM      9  C   UNL A   1      32.723  19.475  24.018  1.00  0.00     0.002 A 
ATOM     10  C   UNL A   1      34.685  20.353  25.080  1.00  0.00     0.016 A 
ATOM     11  C   UNL A   1      33.932  19.257  24.631  1.00  0.00     0.001 A 
BRANCH   7  12
ATOM     12  N   UNL A   1      32.295  23.136  24.164  1.00  0.00    -0.284 N 
ATOM     13  O   UNL A   1      31.228  26.957  21.607  1.00  0.00    -0.294 OA
ATOM     14  C   UNL A   1      31.878  25.916  21.715  1.00  0.00     0.161 C 
ATOM     15  C   UNL A   1      32.839  25.461  20.635  1.00  0.00     0.081 C 
ATOM     16  C   UNL A   1      31.785  25.112  22.968  1.00  0.00     0.023 C 
ATOM     17  C   UNL A   1      32.765  23.962  20.437  1.00  0.00     0.015 C 
ATOM     18  C   UNL A   1      32.315  23.865  22.969  1.00  0.00     0.033 C 
ATOM     19  C   UNL A   1      31.014  25.677  24.167  1.00  0.00     0.064 C 
ATOM     20  C   UNL A   1      32.926  23.197  21.747  1.00  0.00     0.055 C 
ATOM     21  C   UNL A   1      30.331  24.492  24.824  1.00  0.00     0.114 C 
ATOM     22  C   UNL A   1      31.377  23.467  25.195  1.00  0.00     0.232 C 
ATOM     23  O   UNL A   1      31.345  22.947  26.312  1.00  0.00    -0.274 OA
BRANCH  19  24
ATOM     24  C   UNL A   1      31.831  26.511  25.169  1.00  0.00    -0.039 A 
ATOM     25  C   UNL A   1      33.247  26.539  25.261  1.00  0.00     0.011 A 
ATOM     26  C   UNL A   1      31.135  27.296  26.077  1.00  0.00     0.011 A 
ATOM     27  C   UNL A   1      33.942  27.437  26.089  1.00  0.00     0.086 A 
ATOM     28  C   UNL A   1      31.830  28.165  26.915  1.00  0.00     0.086 A 
ATOM     29  C   UNL A   1      33.209  28.297  26.878  1.00  0.00     0.269 A 
BRANCH  29  30
ATOM     30  N   UNL A   1      33.831  29.443  27.539  1.00  0.00     0.062 N 
ATOM     31  O   UNL A   1      34.987  29.309  27.959  1.00  0.00    -0.258 OA
ATOM     32  O   UNL A   1      33.167  30.491  27.598  1.00  0.00    -0.258 OA
ENDBRANCH  29  30
ENDBRANCH  19  24
ENDBRANCH   7  12
ENDBRANCH   3   6
ENDBRANCH   1   2
BRANCH   1  33
ATOM     33  C   UNL A   1      38.769  21.326  25.768  1.00  0.00     0.042 C 
BRANCH  33  34
ATOM     34  C   UNL A   1      38.994  19.793  25.780  1.00  0.00     0.118 C 
BRANCH  34  35
ATOM     35  N   UNL A   1      40.346  19.232  25.917  1.00  0.00    -0.352 N 
ATOM     36  C   UNL A   1      41.568  19.626  26.442  1.00  0.00     0.251 C 
ATOM     37  H   UNL A   1      40.397  18.327  25.531  1.00  0.00     0.163 HD
ATOM     38  O   UNL A   1      42.409  18.739  26.609  1.00  0.00    -0.269 OA
BRANCH  36  39
ATOM     39  C   UNL A   1      41.980  21.027  26.744  1.00  0.00     0.039 A 
ATOM     40  C   UNL A   1      42.216  21.921  25.672  1.00  0.00     0.014 A 
ATOM     41  C   UNL A   1      42.068  21.533  28.030  1.00  0.00     0.014 A 
ATOM     42  C   UNL A   1      42.424  23.310  25.882  1.00  0.00     0.010 A 
ATOM     43  C   UNL A   1      42.163  22.927  28.224  1.00  0.00     0.010 A 
ATOM     44  C   UNL A   1      42.364  23.855  27.170  1.00  0.00    -0.014 A 
BRANCH  44  45
ATOM     45  C   UNL A   1      42.612  25.320  27.495  1.00  0.00     0.031 A 
ATOM     46  C   UNL A   1      43.964  25.912  27.125  1.00  0.00     0.074 A 
ATOM     47  C   UNL A   1      41.770  26.135  28.179  1.00  0.00     0.049 A 
ATOM     48  N   UNL A   1      44.546  27.017  27.529  1.00  0.00    -0.248 NA
ATOM     49  C   UNL A   1      44.825  25.077  26.273  1.00  0.00     0.031 C 
ATOM     50  C   UNL A   1      40.455  25.787  28.717  1.00  0.00     0.029 A 
ATOM     51  N   UNL A   1      41.929  27.458  28.560  1.00  0.00    -0.354 N 
ATOM     52  C   UNL A   1      45.856  26.923  27.076  1.00  0.00     0.074 A 
ATOM     53  C   UNL A   1      46.012  25.594  26.532  1.00  0.00     0.031 C 
ATOM     54  C   UNL A   1      39.924  26.865  29.331  1.00  0.00     0.029 A 
ATOM     55  C   UNL A   1      40.860  27.987  29.253  1.00  0.00     0.049 A 
ATOM     56  H   UNL A   1      42.738  27.979  28.353  1.00  0.00     0.167 HD
ATOM     57  C   UNL A   1      46.828  27.865  26.999  1.00  0.00     0.037 A 
ATOM     58  C   UNL A   1      40.653  29.229  29.753  1.00  0.00     0.037 A 
ATOM     59  C   UNL A   1      46.657  29.238  27.372  1.00  0.00     0.049 A 
ATOM     60  C   UNL A   1      41.699  30.314  29.579  1.00  0.00     0.074 A 
ATOM     61  C   UNL A   1      47.540  30.292  27.217  1.00  0.00     0.029 A 
ATOM     62  N   UNL A   1      45.505  29.758  27.937  1.00  0.00    -0.354 N 
ATOM     63  N   UNL A   1      42.899  30.241  29.058  1.00  0.00    -0.248 NA
ATOM     64  C   UNL A   1      41.344  31.669  30.043  1.00  0.00     0.031 C 
ATOM     65  C   UNL A   1      46.926  31.451  27.705  1.00  0.00     0.029 A 
ATOM     66  C   UNL A   1      45.647  31.122  28.121  1.00  0.00     0.049 A 
ATOM     67  H   UNL A   1      44.705  29.235  28.172  1.00  0.00     0.167 HD
ATOM     68  C   UNL A   1      43.412  31.535  29.080  1.00  0.00     0.074 A 
ATOM     69  C   UNL A   1      42.397  32.380  29.665  1.00  0.00     0.031 C 
ATOM     70  C   UNL A   1      44.618  31.979  28.649  1.00  0.00     0.037 A 
BRANCH  57  71
ATOM     71  C   UNL A   1      48.142  27.436  26.403  1.00  0.00     0.064 A 
ATOM     72  C   UNL A   1      49.216  27.027  27.211  1.00  0.00     0.173 A 
ATOM     73  C   UNL A   1      48.343  27.470  25.016  1.00  0.00     0.173 A 
ATOM     74  F   UNL A   1      49.079  26.979  28.546  1.00  0.00    -0.203 F 
ATOM     75  C   UNL A   1      50.466  26.760  26.664  1.00  0.00     0.198 A 
ATOM     76  C   UNL A   1      49.581  27.145  24.466  1.00  0.00     0.198 A 
ATOM     77  F   UNL A   1      47.347  27.829  24.193  1.00  0.00    -0.203 F 
ATOM     78  F   UNL A   1      51.503  26.491  27.469  1.00  0.00    -0.200 F 
ATOM     79  C   UNL A   1      50.647  26.814  25.291  1.00  0.00     0.200 A 
ATOM     80  F   UNL A   1      49.751  27.173  23.137  1.00  0.00    -0.200 F 
ATOM     81  F   UNL A   1      51.853  26.562  24.764  1.00  0.00    -0.200 F 
ENDBRANCH  57  71
BRANCH  58  82
ATOM     82  C   UNL A   1      39.360  29.577  30.417  1.00  0.00     0.064 A 
ATOM     83  C   UNL A   1      38.340  30.222  29.698  1.00  0.00     0.173 A 
ATOM     84  C   UNL A   1      39.141  29.349  31.782  1.00  0.00     0.173 A 
ATOM     85  F   UNL A   1      38.514  30.504  28.398  1.00  0.00    -0.203 F 
ATOM     86  C   UNL A   1      37.168  30.649  30.322  1.00  0.00     0.198 A 
ATOM     87  C   UNL A   1      37.955  29.752  32.401  1.00  0.00     0.198 A 
ATOM     88  F   UNL A   1      40.084  28.749  32.523  1.00  0.00    -0.203 F 
ATOM     89  F   UNL A   1      36.244  31.320  29.622  1.00  0.00    -0.200 F 
ATOM     90  C   UNL A   1      36.975  30.409  31.673  1.00  0.00     0.200 A 
ATOM     91  F   UNL A   1      37.769  29.518  33.707  1.00  0.00    -0.200 F 
ATOM     92  F   UNL A   1      35.852  30.825  32.275  1.00  0.00    -0.200 F 
ENDBRANCH  58  82
BRANCH  70  93
ATOM     93  C   UNL A   1      44.897  33.456  28.688  1.00  0.00     0.064 A 
ATOM     94  C   UNL A   1      45.601  34.059  29.740  1.00  0.00     0.173 A 
ATOM     95  C   UNL A   1      44.511  34.270  27.610  1.00  0.00     0.173 A 
ATOM     96  F   UNL A   1      45.991  33.329  30.797  1.00  0.00    -0.203 F 
ATOM     97  C   UNL A   1      45.885  35.423  29.724  1.00  0.00     0.198 A 
ATOM     98  C   UNL A   1      44.823  35.627  27.583  1.00  0.00     0.198 A 
ATOM     99  F   UNL A   1      43.845  33.745  26.569  1.00  0.00    -0.203 F 
ATOM    100  F   UNL A   1      46.524  35.984  30.760  1.00  0.00    -0.200 F 
ATOM    101  C   UNL A   1      45.503  36.204  28.644  1.00  0.00     0.200 A 
ATOM    102  F   UNL A   1      44.469  36.374  26.528  1.00  0.00    -0.200 F 
ATOM    103  F   UNL A   1      45.790  37.513  28.625  1.00  0.00    -0.200 F 
ENDBRANCH  70  93
ENDBRANCH  44  45
ENDBRANCH  36  39
ENDBRANCH  34  35
ENDBRANCH  33  34
ENDBRANCH   1  33
TORSDOF 13
ENDMDL
