MODEL 1
REMARK VINA RESULT:     -11.8      0.000      0.000
REMARK SMILES O=C(NCCCNC(=O)c1sccc1NS(=O)(=O)N1CCCC1)c1ccc(-c2c3nc(c(-c4c(F)c(F)c(F)c(F)c4F)c4ccc([nH]4)c(-c4c(F)c(F)c(F)c(F)c4F)c4nc(c(-c5c(F)c(F)c(F)c(F)c5F)c5ccc2[nH]5)C=C4)C=C3)cc1
REMARK SMILES IDX 5 1 4 2 3 3 1 4 2 5 24 7 25 8 86 9 26 10 85 11 27 12 28 13
REMARK SMILES IDX 29 14 79 15 30 16 84 17 78 18 80 19 31 20 83 21 77 22 76 23
REMARK SMILES IDX 32 25 64 26 44 27 63 28 45 29 48 30 62 31 81 32 46 33 47 34
REMARK SMILES IDX 61 36 82 37 49 38 33 39 34 40 42 41 35 42 36 43 40 44 43 45
REMARK SMILES IDX 37 46 38 47 41 48 39 49 65 50 66 51 74 52 67 53 68 54 72 55
REMARK SMILES IDX 75 56 69 57 70 58 73 59 71 60 50 61 51 62 59 63 52 64 53 65
REMARK SMILES IDX 57 66 60 67 54 68 55 69 58 70 56 71 6 72 7 73 8 74 9 76
REMARK SMILES IDX 10 77 11 78 14 79 12 80 13 81 15 82 16 84 17 85 18 86 19 87
REMARK SMILES IDX 20 88 23 89 21 90 22 91
REMARK H PARENT 3 6 80 24 48 35 7 75 15 83
REMARK Flexibility Score: inf
ROOT
ATOM      1  C   UNL A   1      31.523  31.498  26.501  1.00  0.00     0.042 C 
ENDROOT
BRANCH   1   2
ATOM      2  C   UNL A   1      32.773  32.251  26.897  1.00  0.00     0.118 C 
BRANCH   2   3
ATOM      3  N   UNL A   1      32.489  33.614  27.328  1.00  0.00    -0.352 N 
ATOM      4  O   UNL A   1      32.529  35.410  28.689  1.00  0.00    -0.269 OA
ATOM      5  C   UNL A   1      33.026  34.339  28.360  1.00  0.00     0.251 C 
ATOM      6  H   UNL A   1      31.808  34.087  26.795  1.00  0.00     0.163 HD
BRANCH   5   7
ATOM      7  C   UNL A   1      34.204  33.818  29.079  1.00  0.00     0.039 A 
ATOM      8  C   UNL A   1      34.057  32.810  30.033  1.00  0.00     0.014 A 
ATOM      9  C   UNL A   1      35.472  34.322  28.774  1.00  0.00     0.014 A 
ATOM     10  C   UNL A   1      35.145  32.408  30.787  1.00  0.00     0.010 A 
ATOM     11  C   UNL A   1      36.589  33.828  29.450  1.00  0.00     0.010 A 
ATOM     12  C   UNL A   1      36.428  32.873  30.466  1.00  0.00    -0.014 A 
BRANCH  12  13
ATOM     13  C   UNL A   1      37.595  32.222  31.102  1.00  0.00     0.031 A 
ATOM     14  C   UNL A   1      38.345  31.121  30.419  1.00  0.00     0.074 A 
ATOM     15  C   UNL A   1      37.958  32.657  32.325  1.00  0.00     0.049 A 
ATOM     16  N   UNL A   1      39.362  30.428  30.862  1.00  0.00    -0.248 NA
ATOM     17  C   UNL A   1      37.898  30.736  29.072  1.00  0.00     0.031 C 
ATOM     18  C   UNL A   1      37.273  33.714  33.078  1.00  0.00     0.029 A 
ATOM     19  N   UNL A   1      38.983  32.278  33.149  1.00  0.00    -0.354 N 
ATOM     20  C   UNL A   1      39.659  29.510  29.866  1.00  0.00     0.074 A 
ATOM     21  C   UNL A   1      38.712  29.726  28.793  1.00  0.00     0.031 C 
ATOM     22  C   UNL A   1      37.914  33.920  34.236  1.00  0.00     0.029 A 
ATOM     23  C   UNL A   1      39.000  32.956  34.344  1.00  0.00     0.049 A 
ATOM     24  H   UNL A   1      39.643  31.588  32.910  1.00  0.00     0.167 HD
ATOM     25  C   UNL A   1      40.639  28.575  29.862  1.00  0.00     0.037 A 
ATOM     26  C   UNL A   1      39.775  32.790  35.429  1.00  0.00     0.037 A 
ATOM     27  C   UNL A   1      41.590  28.400  30.930  1.00  0.00     0.049 A 
ATOM     28  C   UNL A   1      40.829  31.723  35.398  1.00  0.00     0.074 A 
ATOM     29  C   UNL A   1      42.677  27.545  30.982  1.00  0.00     0.029 A 
ATOM     30  N   UNL A   1      41.559  29.082  32.137  1.00  0.00    -0.354 N 
ATOM     31  N   UNL A   1      41.146  30.906  34.423  1.00  0.00    -0.248 NA
ATOM     32  C   UNL A   1      41.623  31.543  36.619  1.00  0.00     0.031 C 
ATOM     33  C   UNL A   1      43.267  27.666  32.243  1.00  0.00     0.029 A 
ATOM     34  C   UNL A   1      42.579  28.632  32.960  1.00  0.00     0.049 A 
ATOM     35  H   UNL A   1      40.909  29.783  32.375  1.00  0.00     0.167 HD
ATOM     36  C   UNL A   1      42.176  30.118  34.909  1.00  0.00     0.074 A 
ATOM     37  C   UNL A   1      42.453  30.575  36.255  1.00  0.00     0.031 C 
ATOM     38  C   UNL A   1      42.826  29.097  34.300  1.00  0.00     0.037 A 
BRANCH  25  39
ATOM     39  C   UNL A   1      40.735  27.648  28.688  1.00  0.00     0.064 A 
ATOM     40  C   UNL A   1      39.965  26.480  28.600  1.00  0.00     0.173 A 
ATOM     41  C   UNL A   1      41.536  27.990  27.587  1.00  0.00     0.173 A 
ATOM     42  F   UNL A   1      39.188  26.105  29.628  1.00  0.00    -0.203 F 
ATOM     43  C   UNL A   1      39.995  25.687  27.455  1.00  0.00     0.198 A 
ATOM     44  C   UNL A   1      41.547  27.207  26.436  1.00  0.00     0.198 A 
ATOM     45  F   UNL A   1      42.288  29.101  27.618  1.00  0.00    -0.203 F 
ATOM     46  F   UNL A   1      39.262  24.565  27.399  1.00  0.00    -0.200 F 
ATOM     47  C   UNL A   1      40.777  26.057  26.371  1.00  0.00     0.200 A 
ATOM     48  F   UNL A   1      42.294  27.574  25.385  1.00  0.00    -0.200 F 
ATOM     49  F   UNL A   1      40.787  25.304  25.262  1.00  0.00    -0.200 F 
ENDBRANCH  25  39
BRANCH  26  50
ATOM     50  C   UNL A   1      39.538  33.612  36.642  1.00  0.00     0.064 A 
ATOM     51  C   UNL A   1      40.118  34.879  36.786  1.00  0.00     0.173 A 
ATOM     52  C   UNL A   1      38.722  33.146  37.686  1.00  0.00     0.173 A 
ATOM     53  F   UNL A   1      40.919  35.362  35.824  1.00  0.00    -0.203 F 
ATOM     54  C   UNL A   1      39.909  35.638  37.935  1.00  0.00     0.198 A 
ATOM     55  C   UNL A   1      38.486  33.919  38.818  1.00  0.00     0.198 A 
ATOM     56  F   UNL A   1      38.138  31.942  37.595  1.00  0.00    -0.203 F 
ATOM     57  F   UNL A   1      40.515  36.825  38.070  1.00  0.00    -0.200 F 
ATOM     58  C   UNL A   1      39.089  35.160  38.947  1.00  0.00     0.200 A 
ATOM     59  F   UNL A   1      37.677  33.461  39.783  1.00  0.00    -0.200 F 
ATOM     60  F   UNL A   1      38.886  35.893  40.051  1.00  0.00    -0.200 F 
ENDBRANCH  26  50
BRANCH  38  61
ATOM     61  C   UNL A   1      43.896  28.410  35.093  1.00  0.00     0.064 A 
ATOM     62  C   UNL A   1      43.614  27.270  35.859  1.00  0.00     0.173 A 
ATOM     63  C   UNL A   1      45.219  28.874  35.058  1.00  0.00     0.173 A 
ATOM     64  F   UNL A   1      42.359  26.805  35.939  1.00  0.00    -0.203 F 
ATOM     65  C   UNL A   1      44.618  26.629  36.580  1.00  0.00     0.198 A 
ATOM     66  C   UNL A   1      46.225  28.213  35.756  1.00  0.00     0.198 A 
ATOM     67  F   UNL A   1      45.537  29.960  34.337  1.00  0.00    -0.203 F 
ATOM     68  F   UNL A   1      44.319  25.568  37.342  1.00  0.00    -0.200 F 
ATOM     69  C   UNL A   1      45.923  27.095  36.520  1.00  0.00     0.200 A 
ATOM     70  F   UNL A   1      47.488  28.657  35.689  1.00  0.00    -0.200 F 
ATOM     71  F   UNL A   1      46.890  26.471  37.206  1.00  0.00    -0.200 F 
ENDBRANCH  38  61
ENDBRANCH  12  13
ENDBRANCH   5   7
ENDBRANCH   2   3
ENDBRANCH   1   2
BRANCH   1  72
ATOM     72  C   UNL A   1      31.778  30.036  26.200  1.00  0.00     0.118 C 
BRANCH  72  73
ATOM     73  N   UNL A   1      32.632  29.813  25.046  1.00  0.00    -0.351 N 
ATOM     74  C   UNL A   1      32.358  29.081  23.914  1.00  0.00     0.263 C 
ATOM     75  H   UNL A   1      33.520  30.239  25.080  1.00  0.00     0.163 HD
ATOM     76  O   UNL A   1      33.267  28.894  23.109  1.00  0.00    -0.268 OA
BRANCH  74  77
ATOM     77  C   UNL A   1      31.024  28.551  23.773  1.00  0.00     0.116 A 
ATOM     78  S   UNL A   1      29.828  29.640  23.203  1.00  0.00    -0.136 S 
ATOM     79  C   UNL A   1      30.537  27.267  23.988  1.00  0.00     0.073 A 
ATOM     80  C   UNL A   1      28.681  28.397  23.078  1.00  0.00     0.068 A 
ATOM     81  C   UNL A   1      29.194  27.192  23.501  1.00  0.00     0.039 A 
BRANCH  79  82
ATOM     82  N   UNL A   1      31.233  26.212  24.660  1.00  0.00    -0.269 N 
ATOM     83  H   UNL A   1      31.425  25.399  24.139  1.00  0.00     0.181 HD
BRANCH  82  84
ATOM     84  S   UNL A   1      31.754  26.233  26.274  1.00  0.00     0.301 S 
ATOM     85  O   UNL A   1      33.118  26.724  26.330  1.00  0.00    -0.189 OA
ATOM     86  O   UNL A   1      30.703  26.898  26.996  1.00  0.00    -0.189 OA
BRANCH  84  87
ATOM     87  N   UNL A   1      31.782  24.630  26.740  1.00  0.00    -0.185 NA
ATOM     88  C   UNL A   1      32.993  23.846  26.499  1.00  0.00     0.104 C 
ATOM     89  C   UNL A   1      30.625  23.752  26.467  1.00  0.00     0.104 C 
ATOM     90  C   UNL A   1      32.599  23.010  25.292  1.00  0.00     0.018 C 
ATOM     91  C   UNL A   1      31.182  22.590  25.639  1.00  0.00     0.018 C 
ENDBRANCH  84  87
ENDBRANCH  82  84
ENDBRANCH  79  82
ENDBRANCH  74  77
ENDBRANCH  72  73
ENDBRANCH   1  72
TORSDOF 13
ENDMDL
MODEL 2
REMARK VINA RESULT:     -11.8      5.745     11.198
REMARK SMILES O=C(NCCCNC(=O)c1sccc1NS(=O)(=O)N1CCCC1)c1ccc(-c2c3nc(c(-c4c(F)c(F)c(F)c(F)c4F)c4ccc([nH]4)c(-c4c(F)c(F)c(F)c(F)c4F)c4nc(c(-c5c(F)c(F)c(F)c(F)c5F)c5ccc2[nH]5)C=C4)C=C3)cc1
REMARK SMILES IDX 5 1 4 2 3 3 1 4 2 5 24 7 25 8 86 9 26 10 85 11 27 12 28 13
REMARK SMILES IDX 29 14 79 15 30 16 84 17 78 18 80 19 31 20 83 21 77 22 76 23
REMARK SMILES IDX 32 25 64 26 44 27 63 28 45 29 48 30 62 31 81 32 46 33 47 34
REMARK SMILES IDX 61 36 82 37 49 38 33 39 34 40 42 41 35 42 36 43 40 44 43 45
REMARK SMILES IDX 37 46 38 47 41 48 39 49 65 50 66 51 74 52 67 53 68 54 72 55
REMARK SMILES IDX 75 56 69 57 70 58 73 59 71 60 50 61 51 62 59 63 52 64 53 65
REMARK SMILES IDX 57 66 60 67 54 68 55 69 58 70 56 71 6 72 7 73 8 74 9 76
REMARK SMILES IDX 10 77 11 78 14 79 12 80 13 81 15 82 16 84 17 85 18 86 19 87
REMARK SMILES IDX 20 88 23 89 21 90 22 91
REMARK H PARENT 3 6 80 24 48 35 7 75 15 83
REMARK Flexibility Score: inf
ROOT
ATOM      1  C   UNL A   1      37.843  19.906  24.845  1.00  0.00     0.042 C 
ENDROOT
BRANCH   1   2
ATOM      2  C   UNL A   1      38.970  20.346  25.752  1.00  0.00     0.118 C 
BRANCH   2   3
ATOM      3  N   UNL A   1      40.001  19.326  25.893  1.00  0.00    -0.352 N 
ATOM      4  O   UNL A   1      42.093  18.491  25.993  1.00  0.00    -0.269 OA
ATOM      5  C   UNL A   1      41.352  19.464  26.085  1.00  0.00     0.251 C 
ATOM      6  H   UNL A   1      39.679  18.396  25.844  1.00  0.00     0.163 HD
BRANCH   5   7
ATOM      7  C   UNL A   1      41.910  20.793  26.397  1.00  0.00     0.039 A 
ATOM      8  C   UNL A   1      42.117  21.725  25.379  1.00  0.00     0.014 A 
ATOM      9  C   UNL A   1      42.202  21.120  27.725  1.00  0.00     0.014 A 
ATOM     10  C   UNL A   1      42.749  22.925  25.659  1.00  0.00     0.010 A 
ATOM     11  C   UNL A   1      42.727  22.379  28.023  1.00  0.00     0.010 A 
ATOM     12  C   UNL A   1      43.009  23.284  26.988  1.00  0.00    -0.014 A 
BRANCH  12  13
ATOM     13  C   UNL A   1      43.428  24.674  27.275  1.00  0.00     0.031 A 
ATOM     14  C   UNL A   1      42.471  25.680  27.835  1.00  0.00     0.074 A 
ATOM     15  C   UNL A   1      44.707  25.004  27.009  1.00  0.00     0.049 A 
ATOM     16  N   UNL A   1      42.677  26.943  28.104  1.00  0.00    -0.248 NA
ATOM     17  C   UNL A   1      41.104  25.220  28.126  1.00  0.00     0.031 C 
ATOM     18  C   UNL A   1      45.710  24.094  26.442  1.00  0.00     0.029 A 
ATOM     19  N   UNL A   1      45.389  26.179  27.179  1.00  0.00    -0.354 N 
ATOM     20  C   UNL A   1      41.466  27.436  28.567  1.00  0.00     0.074 A 
ATOM     21  C   UNL A   1      40.523  26.339  28.539  1.00  0.00     0.031 C 
ATOM     22  C   UNL A   1      46.882  24.733  26.341  1.00  0.00     0.029 A 
ATOM     23  C   UNL A   1      46.695  26.116  26.755  1.00  0.00     0.049 A 
ATOM     24  H   UNL A   1      44.984  26.989  27.566  1.00  0.00     0.167 HD
ATOM     25  C   UNL A   1      41.182  28.695  28.974  1.00  0.00     0.037 A 
ATOM     26  C   UNL A   1      47.629  27.079  26.665  1.00  0.00     0.037 A 
ATOM     27  C   UNL A   1      42.148  29.764  29.023  1.00  0.00     0.049 A 
ATOM     28  C   UNL A   1      47.266  28.469  27.098  1.00  0.00     0.074 A 
ATOM     29  C   UNL A   1      41.984  31.050  29.508  1.00  0.00     0.029 A 
ATOM     30  N   UNL A   1      43.451  29.674  28.558  1.00  0.00    -0.354 N 
ATOM     31  N   UNL A   1      46.137  28.908  27.598  1.00  0.00    -0.248 NA
ATOM     32  C   UNL A   1      48.299  29.500  26.941  1.00  0.00     0.031 C 
ATOM     33  C   UNL A   1      43.169  31.755  29.280  1.00  0.00     0.029 A 
ATOM     34  C   UNL A   1      44.088  30.896  28.700  1.00  0.00     0.049 A 
ATOM     35  H   UNL A   1      43.864  28.862  28.183  1.00  0.00     0.167 HD
ATOM     36  C   UNL A   1      46.322  30.263  27.819  1.00  0.00     0.074 A 
ATOM     37  C   UNL A   1      47.683  30.568  27.428  1.00  0.00     0.031 C 
ATOM     38  C   UNL A   1      45.440  31.176  28.291  1.00  0.00     0.037 A 
BRANCH  25  39
ATOM     39  C   UNL A   1      39.775  29.012  29.384  1.00  0.00     0.064 A 
ATOM     40  C   UNL A   1      38.809  29.427  28.457  1.00  0.00     0.173 A 
ATOM     41  C   UNL A   1      39.364  28.796  30.709  1.00  0.00     0.173 A 
ATOM     42  F   UNL A   1      39.152  29.654  27.180  1.00  0.00    -0.203 F 
ATOM     43  C   UNL A   1      37.483  29.618  28.842  1.00  0.00     0.198 A 
ATOM     44  C   UNL A   1      38.035  28.968  31.085  1.00  0.00     0.198 A 
ATOM     45  F   UNL A   1      40.249  28.393  31.633  1.00  0.00    -0.203 F 
ATOM     46  F   UNL A   1      36.579  30.031  27.943  1.00  0.00    -0.200 F 
ATOM     47  C   UNL A   1      37.096  29.378  30.152  1.00  0.00     0.200 A 
ATOM     48  F   UNL A   1      37.661  28.721  32.349  1.00  0.00    -0.200 F 
ATOM     49  F   UNL A   1      35.816  29.541  30.514  1.00  0.00    -0.200 F 
ENDBRANCH  25  39
BRANCH  26  50
ATOM     50  C   UNL A   1      48.962  26.767  26.091  1.00  0.00     0.064 A 
ATOM     51  C   UNL A   1      49.246  27.007  24.741  1.00  0.00     0.173 A 
ATOM     52  C   UNL A   1      49.983  26.221  26.886  1.00  0.00     0.173 A 
ATOM     53  F   UNL A   1      48.298  27.512  23.937  1.00  0.00    -0.203 F 
ATOM     54  C   UNL A   1      50.492  26.693  24.203  1.00  0.00     0.198 A 
ATOM     55  C   UNL A   1      51.238  25.940  26.356  1.00  0.00     0.198 A 
ATOM     56  F   UNL A   1      49.764  25.978  28.187  1.00  0.00    -0.203 F 
ATOM     57  F   UNL A   1      50.722  26.886  22.897  1.00  0.00    -0.200 F 
ATOM     58  C   UNL A   1      51.488  26.165  25.011  1.00  0.00     0.200 A 
ATOM     59  F   UNL A   1      52.203  25.450  27.145  1.00  0.00    -0.200 F 
ATOM     60  F   UNL A   1      52.688  25.867  24.492  1.00  0.00    -0.200 F 
ENDBRANCH  26  50
BRANCH  38  61
ATOM     61  C   UNL A   1      45.927  32.589  28.405  1.00  0.00     0.064 A 
ATOM     62  C   UNL A   1      46.593  33.038  29.554  1.00  0.00     0.173 A 
ATOM     63  C   UNL A   1      45.757  33.489  27.344  1.00  0.00     0.173 A 
ATOM     64  F   UNL A   1      46.758  32.217  30.602  1.00  0.00    -0.203 F 
ATOM     65  C   UNL A   1      47.056  34.347  29.644  1.00  0.00     0.198 A 
ATOM     66  C   UNL A   1      46.247  34.789  27.426  1.00  0.00     0.198 A 
ATOM     67  F   UNL A   1      45.128  33.104  26.223  1.00  0.00    -0.203 F 
ATOM     68  F   UNL A   1      47.650  34.769  30.770  1.00  0.00    -0.200 F 
ATOM     69  C   UNL A   1      46.891  35.218  28.578  1.00  0.00     0.200 A 
ATOM     70  F   UNL A   1      46.098  35.627  26.391  1.00  0.00    -0.200 F 
ATOM     71  F   UNL A   1      47.346  36.476  28.663  1.00  0.00    -0.200 F 
ENDBRANCH  38  61
ENDBRANCH  12  13
ENDBRANCH   5   7
ENDBRANCH   2   3
ENDBRANCH   1   2
BRANCH   1  72
ATOM     72  C   UNL A   1      36.741  20.937  24.720  1.00  0.00     0.118 C 
BRANCH  72  73
ATOM     73  N   UNL A   1      35.985  21.143  25.943  1.00  0.00    -0.351 N 
ATOM     74  C   UNL A   1      34.620  21.129  26.112  1.00  0.00     0.263 C 
ATOM     75  H   UNL A   1      36.518  21.316  26.754  1.00  0.00     0.163 HD
ATOM     76  O   UNL A   1      34.166  21.466  27.203  1.00  0.00    -0.268 OA
BRANCH  74  77
ATOM     77  C   UNL A   1      33.814  20.753  24.976  1.00  0.00     0.116 A 
ATOM     78  S   UNL A   1      33.695  19.074  24.649  1.00  0.00    -0.136 S 
ATOM     79  C   UNL A   1      33.069  21.536  24.102  1.00  0.00     0.073 A 
ATOM     80  C   UNL A   1      32.529  19.338  23.446  1.00  0.00     0.068 A 
ATOM     81  C   UNL A   1      32.274  20.680  23.276  1.00  0.00     0.039 A 
BRANCH  79  82
ATOM     82  N   UNL A   1      33.142  22.961  23.987  1.00  0.00    -0.269 N 
ATOM     83  H   UNL A   1      32.320  23.468  24.182  1.00  0.00     0.181 HD
BRANCH  82  84
ATOM     84  S   UNL A   1      34.514  23.855  23.545  1.00  0.00     0.301 S 
ATOM     85  O   UNL A   1      35.250  24.224  24.739  1.00  0.00    -0.189 OA
ATOM     86  O   UNL A   1      35.140  23.085  22.504  1.00  0.00    -0.189 OA
BRANCH  84  87
ATOM     87  N   UNL A   1      33.914  25.261  22.874  1.00  0.00    -0.185 NA
ATOM     88  C   UNL A   1      33.685  26.415  23.743  1.00  0.00     0.104 C 
ATOM     89  C   UNL A   1      32.803  25.211  21.901  1.00  0.00     0.104 C 
ATOM     90  C   UNL A   1      32.174  26.396  23.909  1.00  0.00     0.018 C 
ATOM     91  C   UNL A   1      31.698  26.087  22.501  1.00  0.00     0.018 C 
ENDBRANCH  84  87
ENDBRANCH  82  84
ENDBRANCH  79  82
ENDBRANCH  74  77
ENDBRANCH  72  73
ENDBRANCH   1  72
TORSDOF 13
ENDMDL
MODEL 3
REMARK VINA RESULT:     -11.7      2.082      4.044
REMARK SMILES O=C(NCCCNC(=O)c1sccc1NS(=O)(=O)N1CCCC1)c1ccc(-c2c3nc(c(-c4c(F)c(F)c(F)c(F)c4F)c4ccc([nH]4)c(-c4c(F)c(F)c(F)c(F)c4F)c4nc(c(-c5c(F)c(F)c(F)c(F)c5F)c5ccc2[nH]5)C=C4)C=C3)cc1
REMARK SMILES IDX 5 1 4 2 3 3 1 4 2 5 24 7 25 8 86 9 26 10 85 11 27 12 28 13
REMARK SMILES IDX 29 14 79 15 30 16 84 17 78 18 80 19 31 20 83 21 77 22 76 23
REMARK SMILES IDX 32 25 64 26 44 27 63 28 45 29 48 30 62 31 81 32 46 33 47 34
REMARK SMILES IDX 61 36 82 37 49 38 33 39 34 40 42 41 35 42 36 43 40 44 43 45
REMARK SMILES IDX 37 46 38 47 41 48 39 49 65 50 66 51 74 52 67 53 68 54 72 55
REMARK SMILES IDX 75 56 69 57 70 58 73 59 71 60 50 61 51 62 59 63 52 64 53 65
REMARK SMILES IDX 57 66 60 67 54 68 55 69 58 70 56 71 6 72 7 73 8 74 9 76
REMARK SMILES IDX 10 77 11 78 14 79 12 80 13 81 15 82 16 84 17 85 18 86 19 87
REMARK SMILES IDX 20 88 23 89 21 90 22 91
REMARK H PARENT 3 6 80 24 48 35 7 75 15 83
REMARK Flexibility Score: inf
ROOT
ATOM      1  C   UNL A   1      33.712  28.719  23.641  1.00  0.00     0.042 C 
ENDROOT
BRANCH   1   2
ATOM      2  C   UNL A   1      33.807  28.905  25.138  1.00  0.00     0.118 C 
BRANCH   2   3
ATOM      3  N   UNL A   1      33.090  30.088  25.599  1.00  0.00    -0.352 N 
ATOM      4  O   UNL A   1      32.459  31.700  27.043  1.00  0.00    -0.269 OA
ATOM      5  C   UNL A   1      33.282  30.849  26.723  1.00  0.00     0.251 C 
ATOM      6  H   UNL A   1      32.356  30.386  25.013  1.00  0.00     0.163 HD
BRANCH   5   7
ATOM      7  C   UNL A   1      34.484  30.634  27.550  1.00  0.00     0.039 A 
ATOM      8  C   UNL A   1      34.665  29.427  28.228  1.00  0.00     0.014 A 
ATOM      9  C   UNL A   1      35.454  31.638  27.626  1.00  0.00     0.014 A 
ATOM     10  C   UNL A   1      35.733  29.274  29.094  1.00  0.00     0.010 A 
ATOM     11  C   UNL A   1      36.594  31.435  28.405  1.00  0.00     0.010 A 
ATOM     12  C   UNL A   1      36.734  30.253  29.149  1.00  0.00    -0.014 A 
BRANCH  12  13
ATOM     13  C   UNL A   1      37.989  29.941  29.868  1.00  0.00     0.031 A 
ATOM     14  C   UNL A   1      39.028  29.041  29.275  1.00  0.00     0.074 A 
ATOM     15  C   UNL A   1      38.162  30.496  31.084  1.00  0.00     0.049 A 
ATOM     16  N   UNL A   1      40.160  28.644  29.796  1.00  0.00    -0.248 NA
ATOM     17  C   UNL A   1      38.768  28.508  27.928  1.00  0.00     0.031 C 
ATOM     18  C   UNL A   1      37.193  31.372  31.753  1.00  0.00     0.029 A 
ATOM     19  N   UNL A   1      39.202  30.418  31.971  1.00  0.00    -0.354 N 
ATOM     20  C   UNL A   1      40.733  27.795  28.861  1.00  0.00     0.074 A 
ATOM     21  C   UNL A   1      39.824  27.727  27.736  1.00  0.00     0.031 C 
ATOM     22  C   UNL A   1      37.696  31.774  32.927  1.00  0.00     0.029 A 
ATOM     23  C   UNL A   1      38.981  31.120  33.131  1.00  0.00     0.049 A 
ATOM     24  H   UNL A   1      40.025  29.908  31.796  1.00  0.00     0.167 HD
ATOM     25  C   UNL A   1      41.914  27.139  28.947  1.00  0.00     0.037 A 
ATOM     26  C   UNL A   1      39.710  31.194  34.258  1.00  0.00     0.037 A 
ATOM     27  C   UNL A   1      42.817  27.247  30.065  1.00  0.00     0.049 A 
ATOM     28  C   UNL A   1      40.997  30.427  34.326  1.00  0.00     0.074 A 
ATOM     29  C   UNL A   1      44.079  26.696  30.208  1.00  0.00     0.029 A 
ATOM     30  N   UNL A   1      42.548  27.942  31.235  1.00  0.00    -0.354 N 
ATOM     31  N   UNL A   1      41.563  29.683  33.408  1.00  0.00    -0.248 NA
ATOM     32  C   UNL A   1      41.741  30.497  35.590  1.00  0.00     0.031 C 
ATOM     33  C   UNL A   1      44.547  27.007  31.488  1.00  0.00     0.029 A 
ATOM     34  C   UNL A   1      43.600  27.793  32.124  1.00  0.00     0.049 A 
ATOM     35  H   UNL A   1      41.731  28.464  31.408  1.00  0.00     0.167 HD
ATOM     36  C   UNL A   1      42.728  29.197  33.978  1.00  0.00     0.074 A 
ATOM     37  C   UNL A   1      42.806  29.757  35.312  1.00  0.00     0.031 C 
ATOM     38  C   UNL A   1      43.647  28.353  33.450  1.00  0.00     0.037 A 
BRANCH  25  39
ATOM     39  C   UNL A   1      42.305  26.224  27.825  1.00  0.00     0.064 A 
ATOM     40  C   UNL A   1      43.202  26.621  26.825  1.00  0.00     0.173 A 
ATOM     41  C   UNL A   1      41.851  24.895  27.812  1.00  0.00     0.173 A 
ATOM     42  F   UNL A   1      43.660  27.881  26.789  1.00  0.00    -0.203 F 
ATOM     43  C   UNL A   1      43.630  25.722  25.849  1.00  0.00     0.198 A 
ATOM     44  C   UNL A   1      42.297  23.995  26.848  1.00  0.00     0.198 A 
ATOM     45  F   UNL A   1      40.995  24.465  28.751  1.00  0.00    -0.203 F 
ATOM     46  F   UNL A   1      44.477  26.127  24.892  1.00  0.00    -0.200 F 
ATOM     47  C   UNL A   1      43.185  24.408  25.868  1.00  0.00     0.200 A 
ATOM     48  F   UNL A   1      41.876  22.722  26.878  1.00  0.00    -0.200 F 
ATOM     49  F   UNL A   1      43.615  23.540  24.942  1.00  0.00    -0.200 F 
ENDBRANCH  25  39
BRANCH  26  50
ATOM     50  C   UNL A   1      39.207  31.972  35.417  1.00  0.00     0.064 A 
ATOM     51  C   UNL A   1      38.412  31.373  36.404  1.00  0.00     0.173 A 
ATOM     52  C   UNL A   1      39.512  33.335  35.563  1.00  0.00     0.173 A 
ATOM     53  F   UNL A   1      38.078  30.078  36.301  1.00  0.00    -0.203 F 
ATOM     54  C   UNL A   1      37.925  32.113  37.479  1.00  0.00     0.198 A 
ATOM     55  C   UNL A   1      39.054  34.064  36.656  1.00  0.00     0.198 A 
ATOM     56  F   UNL A   1      40.275  33.953  34.650  1.00  0.00    -0.203 F 
ATOM     57  F   UNL A   1      37.125  31.530  38.383  1.00  0.00    -0.200 F 
ATOM     58  C   UNL A   1      38.250  33.455  37.608  1.00  0.00     0.200 A 
ATOM     59  F   UNL A   1      39.389  35.354  36.786  1.00  0.00    -0.200 F 
ATOM     60  F   UNL A   1      37.784  34.165  38.645  1.00  0.00    -0.200 F 
ENDBRANCH  26  50
BRANCH  38  61
ATOM     61  C   UNL A   1      44.808  27.987  34.323  1.00  0.00     0.064 A 
ATOM     62  C   UNL A   1      45.962  28.783  34.370  1.00  0.00     0.173 A 
ATOM     63  C   UNL A   1      44.754  26.851  35.144  1.00  0.00     0.173 A 
ATOM     64  F   UNL A   1      46.066  29.865  33.585  1.00  0.00    -0.203 F 
ATOM     65  C   UNL A   1      47.029  28.443  35.196  1.00  0.00     0.198 A 
ATOM     66  C   UNL A   1      45.812  26.532  35.991  1.00  0.00     0.198 A 
ATOM     67  F   UNL A   1      43.670  26.061  35.135  1.00  0.00    -0.203 F 
ATOM     68  F   UNL A   1      48.140  29.193  35.191  1.00  0.00    -0.200 F 
ATOM     69  C   UNL A   1      46.949  27.325  36.011  1.00  0.00     0.200 A 
ATOM     70  F   UNL A   1      45.729  25.457  36.787  1.00  0.00    -0.200 F 
ATOM     71  F   UNL A   1      47.975  27.005  36.813  1.00  0.00    -0.200 F 
ENDBRANCH  38  61
ENDBRANCH  12  13
ENDBRANCH   5   7
ENDBRANCH   2   3
ENDBRANCH   1   2
BRANCH   1  72
ATOM     72  C   UNL A   1      33.773  27.267  23.216  1.00  0.00     0.118 C 
BRANCH  72  73
ATOM     73  N   UNL A   1      33.025  26.976  22.005  1.00  0.00    -0.351 N 
ATOM     74  C   UNL A   1      31.818  26.326  21.887  1.00  0.00     0.263 C 
ATOM     75  H   UNL A   1      33.434  27.283  21.163  1.00  0.00     0.163 HD
ATOM     76  O   UNL A   1      31.414  26.052  20.759  1.00  0.00    -0.268 OA
BRANCH  74  77
ATOM     77  C   UNL A   1      31.129  25.977  23.106  1.00  0.00     0.116 A 
ATOM     78  S   UNL A   1      31.632  24.529  23.876  1.00  0.00    -0.136 S 
ATOM     79  C   UNL A   1      30.130  26.648  23.799  1.00  0.00     0.073 A 
ATOM     80  C   UNL A   1      30.650  24.844  25.223  1.00  0.00     0.068 A 
ATOM     81  C   UNL A   1      29.930  26.005  25.061  1.00  0.00     0.039 A 
BRANCH  79  82
ATOM     82  N   UNL A   1      29.365  27.752  23.303  1.00  0.00    -0.269 N 
ATOM     83  H   UNL A   1      28.428  27.574  23.059  1.00  0.00     0.181 HD
BRANCH  82  84
ATOM     84  S   UNL A   1      29.928  29.339  23.097  1.00  0.00     0.301 S 
ATOM     85  O   UNL A   1      30.535  29.796  24.333  1.00  0.00    -0.189 OA
ATOM     86  O   UNL A   1      30.682  29.311  21.873  1.00  0.00    -0.189 OA
BRANCH  84  87
ATOM     87  N   UNL A   1      28.553  30.255  22.849  1.00  0.00    -0.185 NA
ATOM     88  C   UNL A   1      28.023  30.375  21.491  1.00  0.00     0.104 C 
ATOM     89  C   UNL A   1      28.405  31.572  23.501  1.00  0.00     0.104 C 
ATOM     90  C   UNL A   1      28.468  31.774  21.096  1.00  0.00     0.018 C 
ATOM     91  C   UNL A   1      28.191  32.570  22.359  1.00  0.00     0.018 C 
ENDBRANCH  84  87
ENDBRANCH  82  84
ENDBRANCH  79  82
ENDBRANCH  74  77
ENDBRANCH  72  73
ENDBRANCH   1  72
TORSDOF 13
ENDMDL
