MODEL 1
REMARK VINA RESULT:     -11.0      0.000      0.000
REMARK SMILES [NH3+]C[C@H]1C[C@]1(C(=O)NCCCNC(=O)c1ccc(-c2c3nc(c(-c4c(F)c(F)c(F)c(F)c4F)c4ccc([nH]4)c(-c4c(F)c(F)c(F)c(F)c4F)c4nc(c(-c5c(F)c(F)c(F)c(F)c5F)c5ccc2[nH]5)C=C4)C=C3)cc1)c1ccccc1
REMARK SMILES IDX 10 1 9 2 8 3 6 4 7 5 5 7 3 8 4 9 2 10 1 11 78 15 79 16 83 17
REMARK SMILES IDX 80 18 82 19 81 20 11 21 12 22 13 23 14 25 15 26 16 27 77 28
REMARK SMILES IDX 17 29 76 30 18 31 19 32 20 33 70 34 21 35 75 36 69 37 71 38
REMARK SMILES IDX 22 39 74 40 68 41 67 42 23 44 55 45 35 46 54 47 36 48 39 49
REMARK SMILES IDX 53 50 72 51 37 52 38 53 52 55 73 56 40 57 24 58 25 59 33 60
REMARK SMILES IDX 26 61 27 62 31 63 34 64 28 65 29 66 32 67 30 68 56 69 57 70
REMARK SMILES IDX 65 71 58 72 59 73 63 74 66 75 60 76 61 77 64 78 62 79 41 80
REMARK SMILES IDX 42 81 50 82 43 83 44 84 48 85 51 86 45 87 46 88 49 89 47 90
REMARK H PARENT 8 6 1 12 1 13 1 14 12 24 71 43 39 54
REMARK Flexibility Score: inf
ROOT
ATOM      1  C   UNL A   1      41.501  20.120  27.297  1.00  0.00     0.042 C 
ENDROOT
BRANCH   1   2
ATOM      2  C   UNL A   1      42.564  20.043  26.204  1.00  0.00     0.117 C 
BRANCH   2   3
ATOM      3  N   UNL A   1      42.681  21.276  25.460  1.00  0.00    -0.355 N 
ATOM      4  C   UNL A   1      43.673  22.123  25.061  1.00  0.00     0.231 C 
ATOM      5  O   UNL A   1      43.265  22.966  24.252  1.00  0.00    -0.274 OA
ATOM      6  H   UNL A   1      41.799  21.593  25.157  1.00  0.00     0.163 HD
BRANCH   4   7
ATOM      7  C   UNL A   1      45.160  22.111  25.438  1.00  0.00     0.083 C 
ATOM      8  C   UNL A   1      46.208  20.976  25.340  1.00  0.00     0.065 C 
ATOM      9  C   UNL A   1      46.101  21.984  24.231  1.00  0.00     0.033 C 
BRANCH   8  10
ATOM     10  C   UNL A   1      45.901  19.529  25.250  1.00  0.00     0.263 C 
BRANCH  10  11
ATOM     11  N   UNL A   1      46.761  18.749  26.126  1.00  0.00    -0.357 N 
ATOM     12  H   UNL A   1      46.262  17.917  26.442  1.00  0.00     0.344 HD
ATOM     13  H   UNL A   1      47.026  19.313  26.933  1.00  0.00     0.344 HD
ATOM     14  H   UNL A   1      47.600  18.469  25.616  1.00  0.00     0.344 HD
ENDBRANCH  10  11
ENDBRANCH   8  10
BRANCH   7  15
ATOM     15  C   UNL A   1      45.514  23.101  26.614  1.00  0.00    -0.032 A 
ATOM     16  C   UNL A   1      46.562  24.039  26.474  1.00  0.00     0.005 A 
ATOM     17  C   UNL A   1      44.846  23.105  27.852  1.00  0.00     0.005 A 
ATOM     18  C   UNL A   1      46.976  24.858  27.529  1.00  0.00     0.000 A 
ATOM     19  C   UNL A   1      45.233  23.946  28.902  1.00  0.00     0.000 A 
ATOM     20  C   UNL A   1      46.313  24.807  28.747  1.00  0.00     0.000 A 
ENDBRANCH   7  15
ENDBRANCH   4   7
ENDBRANCH   2   3
ENDBRANCH   1   2
BRANCH   1  21
ATOM     21  C   UNL A   1      40.840  21.485  27.451  1.00  0.00     0.118 C 
BRANCH  21  22
ATOM     22  N   UNL A   1      39.679  21.649  26.592  1.00  0.00    -0.352 N 
ATOM     23  C   UNL A   1      38.891  22.746  26.360  1.00  0.00     0.251 C 
ATOM     24  H   UNL A   1      39.417  20.842  26.094  1.00  0.00     0.163 HD
ATOM     25  O   UNL A   1      37.831  22.606  25.748  1.00  0.00    -0.269 OA
BRANCH  23  26
ATOM     26  C   UNL A   1      39.277  24.086  26.852  1.00  0.00     0.039 A 
ATOM     27  C   UNL A   1      38.907  24.453  28.150  1.00  0.00     0.014 A 
ATOM     28  C   UNL A   1      39.960  24.997  26.041  1.00  0.00     0.014 A 
ATOM     29  C   UNL A   1      39.278  25.700  28.653  1.00  0.00     0.010 A 
ATOM     30  C   UNL A   1      40.402  26.208  26.572  1.00  0.00     0.010 A 
ATOM     31  C   UNL A   1      40.064  26.574  27.882  1.00  0.00    -0.014 A 
BRANCH  31  32
ATOM     32  C   UNL A   1      40.549  27.858  28.449  1.00  0.00     0.031 A 
ATOM     33  C   UNL A   1      42.008  28.063  28.750  1.00  0.00     0.074 A 
ATOM     34  C   UNL A   1      39.659  28.827  28.735  1.00  0.00     0.049 A 
ATOM     35  N   UNL A   1      42.608  29.112  29.253  1.00  0.00    -0.248 NA
ATOM     36  C   UNL A   1      42.907  26.932  28.475  1.00  0.00     0.031 C 
ATOM     37  C   UNL A   1      38.210  28.724  28.549  1.00  0.00     0.029 A 
ATOM     38  N   UNL A   1      39.838  30.089  29.244  1.00  0.00    -0.354 N 
ATOM     39  C   UNL A   1      43.949  28.766  29.363  1.00  0.00     0.074 A 
ATOM     40  C   UNL A   1      44.065  27.391  28.928  1.00  0.00     0.031 C 
ATOM     41  C   UNL A   1      37.637  29.883  28.907  1.00  0.00     0.029 A 
ATOM     42  C   UNL A   1      38.671  30.800  29.376  1.00  0.00     0.049 A 
ATOM     43  H   UNL A   1      40.720  30.450  29.491  1.00  0.00     0.167 HD
ATOM     44  C   UNL A   1      44.990  29.533  29.766  1.00  0.00     0.037 A 
ATOM     45  C   UNL A   1      38.458  32.052  29.823  1.00  0.00     0.037 A 
ATOM     46  C   UNL A   1      44.873  30.908  30.178  1.00  0.00     0.049 A 
ATOM     47  C   UNL A   1      39.635  32.886  30.248  1.00  0.00     0.074 A 
ATOM     48  C   UNL A   1      45.876  31.789  30.543  1.00  0.00     0.029 A 
ATOM     49  N   UNL A   1      43.675  31.601  30.284  1.00  0.00    -0.354 N 
ATOM     50  N   UNL A   1      40.908  32.573  30.271  1.00  0.00    -0.248 NA
ATOM     51  C   UNL A   1      39.343  34.255  30.698  1.00  0.00     0.031 C 
ATOM     52  C   UNL A   1      45.282  33.002  30.912  1.00  0.00     0.029 A 
ATOM     53  C   UNL A   1      43.913  32.892  30.730  1.00  0.00     0.049 A 
ATOM     54  H   UNL A   1      42.788  31.230  30.074  1.00  0.00     0.167 HD
ATOM     55  C   UNL A   1      41.570  33.707  30.720  1.00  0.00     0.074 A 
ATOM     56  C   UNL A   1      40.560  34.725  30.929  1.00  0.00     0.031 C 
ATOM     57  C   UNL A   1      42.895  33.889  30.942  1.00  0.00     0.037 A 
BRANCH  44  58
ATOM     58  C   UNL A   1      46.353  28.903  29.775  1.00  0.00     0.064 A 
ATOM     59  C   UNL A   1      46.869  28.281  30.924  1.00  0.00     0.173 A 
ATOM     60  C   UNL A   1      47.141  28.887  28.614  1.00  0.00     0.173 A 
ATOM     61  F   UNL A   1      46.163  28.278  32.064  1.00  0.00    -0.203 F 
ATOM     62  C   UNL A   1      48.132  27.694  30.918  1.00  0.00     0.198 A 
ATOM     63  C   UNL A   1      48.391  28.272  28.603  1.00  0.00     0.198 A 
ATOM     64  F   UNL A   1      46.695  29.461  27.486  1.00  0.00    -0.203 F 
ATOM     65  F   UNL A   1      48.622  27.150  32.040  1.00  0.00    -0.200 F 
ATOM     66  C   UNL A   1      48.888  27.683  29.756  1.00  0.00     0.200 A 
ATOM     67  F   UNL A   1      49.115  28.251  27.475  1.00  0.00    -0.200 F 
ATOM     68  F   UNL A   1      50.100  27.111  29.749  1.00  0.00    -0.200 F 
ENDBRANCH  44  58
BRANCH  45  69
ATOM     69  C   UNL A   1      37.079  32.603  29.856  1.00  0.00     0.064 A 
ATOM     70  C   UNL A   1      36.549  33.280  28.749  1.00  0.00     0.173 A 
ATOM     71  C   UNL A   1      36.265  32.467  30.989  1.00  0.00     0.173 A 
ATOM     72  F   UNL A   1      37.297  33.454  27.649  1.00  0.00    -0.203 F 
ATOM     73  C   UNL A   1      35.265  33.819  28.782  1.00  0.00     0.198 A 
ATOM     74  C   UNL A   1      34.969  32.980  31.010  1.00  0.00     0.198 A 
ATOM     75  F   UNL A   1      36.723  31.820  32.071  1.00  0.00    -0.203 F 
ATOM     76  F   UNL A   1      34.799  34.501  27.726  1.00  0.00    -0.200 F 
ATOM     77  C   UNL A   1      34.473  33.663  29.910  1.00  0.00     0.200 A 
ATOM     78  F   UNL A   1      34.203  32.814  32.096  1.00  0.00    -0.200 F 
ATOM     79  F   UNL A   1      33.236  34.176  29.940  1.00  0.00    -0.200 F 
ENDBRANCH  45  69
BRANCH  57  80
ATOM     80  C   UNL A   1      43.323  35.247  31.423  1.00  0.00     0.064 A 
ATOM     81  C   UNL A   1      43.322  35.576  32.787  1.00  0.00     0.173 A 
ATOM     82  C   UNL A   1      43.745  36.225  30.511  1.00  0.00     0.173 A 
ATOM     83  F   UNL A   1      42.911  34.680  33.697  1.00  0.00    -0.203 F 
ATOM     84  C   UNL A   1      43.690  36.848  33.216  1.00  0.00     0.198 A 
ATOM     85  C   UNL A   1      44.144  37.485  30.947  1.00  0.00     0.198 A 
ATOM     86  F   UNL A   1      43.772  35.958  29.196  1.00  0.00    -0.203 F 
ATOM     87  F   UNL A   1      43.621  37.160  34.517  1.00  0.00    -0.200 F 
ATOM     88  C   UNL A   1      44.105  37.800  32.297  1.00  0.00     0.200 A 
ATOM     89  F   UNL A   1      44.557  38.401  30.058  1.00  0.00    -0.200 F 
ATOM     90  F   UNL A   1      44.457  39.024  32.711  1.00  0.00    -0.200 F 
ENDBRANCH  57  80
ENDBRANCH  31  32
ENDBRANCH  23  26
ENDBRANCH  21  22
ENDBRANCH   1  21
TORSDOF 13
ENDMDL
MODEL 2
REMARK VINA RESULT:     -10.9      4.040      9.811
REMARK SMILES [NH3+]C[C@H]1C[C@]1(C(=O)NCCCNC(=O)c1ccc(-c2c3nc(c(-c4c(F)c(F)c(F)c(F)c4F)c4ccc([nH]4)c(-c4c(F)c(F)c(F)c(F)c4F)c4nc(c(-c5c(F)c(F)c(F)c(F)c5F)c5ccc2[nH]5)C=C4)C=C3)cc1)c1ccccc1
REMARK SMILES IDX 10 1 9 2 8 3 6 4 7 5 5 7 3 8 4 9 2 10 1 11 78 15 79 16 83 17
REMARK SMILES IDX 80 18 82 19 81 20 11 21 12 22 13 23 14 25 15 26 16 27 77 28
REMARK SMILES IDX 17 29 76 30 18 31 19 32 20 33 70 34 21 35 75 36 69 37 71 38
REMARK SMILES IDX 22 39 74 40 68 41 67 42 23 44 55 45 35 46 54 47 36 48 39 49
REMARK SMILES IDX 53 50 72 51 37 52 38 53 52 55 73 56 40 57 24 58 25 59 33 60
REMARK SMILES IDX 26 61 27 62 31 63 34 64 28 65 29 66 32 67 30 68 56 69 57 70
REMARK SMILES IDX 65 71 58 72 59 73 63 74 66 75 60 76 61 77 64 78 62 79 41 80
REMARK SMILES IDX 42 81 50 82 43 83 44 84 48 85 51 86 45 87 46 88 49 89 47 90
REMARK H PARENT 8 6 1 12 1 13 1 14 12 24 71 43 39 54
REMARK Flexibility Score: inf
ROOT
ATOM      1  C   UNL A   1      33.936  27.909  25.665  1.00  0.00     0.042 C 
ENDROOT
BRANCH   1   2
ATOM      2  C   UNL A   1      32.952  26.954  24.995  1.00  0.00     0.117 C 
BRANCH   2   3
ATOM      3  N   UNL A   1      33.328  26.636  23.637  1.00  0.00    -0.355 N 
ATOM      4  C   UNL A   1      33.555  25.518  22.888  1.00  0.00     0.231 C 
ATOM      5  O   UNL A   1      33.667  25.781  21.685  1.00  0.00    -0.274 OA
ATOM      6  H   UNL A   1      33.458  27.453  23.104  1.00  0.00     0.163 HD
BRANCH   4   7
ATOM      7  C   UNL A   1      33.625  24.054  23.341  1.00  0.00     0.083 C 
ATOM      8  C   UNL A   1      32.498  23.084  23.773  1.00  0.00     0.065 C 
ATOM      9  C   UNL A   1      32.983  23.071  22.350  1.00  0.00     0.033 C 
BRANCH   8  10
ATOM     10  C   UNL A   1      31.151  23.488  24.242  1.00  0.00     0.263 C 
BRANCH  10  11
ATOM     11  N   UNL A   1      30.278  23.817  23.126  1.00  0.00    -0.357 N 
ATOM     12  H   UNL A   1      29.987  22.958  22.657  1.00  0.00     0.344 HD
ATOM     13  H   UNL A   1      30.778  24.412  22.466  1.00  0.00     0.344 HD
ATOM     14  H   UNL A   1      29.455  24.310  23.473  1.00  0.00     0.344 HD
ENDBRANCH  10  11
ENDBRANCH   8  10
BRANCH   7  15
ATOM     15  C   UNL A   1      34.984  23.683  24.049  1.00  0.00    -0.032 A 
ATOM     16  C   UNL A   1      35.870  22.749  23.466  1.00  0.00     0.005 A 
ATOM     17  C   UNL A   1      35.389  24.226  25.284  1.00  0.00     0.005 A 
ATOM     18  C   UNL A   1      37.030  22.314  24.114  1.00  0.00     0.000 A 
ATOM     19  C   UNL A   1      36.566  23.821  25.922  1.00  0.00     0.000 A 
ATOM     20  C   UNL A   1      37.376  22.848  25.348  1.00  0.00     0.000 A 
ENDBRANCH   7  15
ENDBRANCH   4   7
ENDBRANCH   2   3
ENDBRANCH   1   2
BRANCH   1  21
ATOM     21  C   UNL A   1      33.630  28.220  27.126  1.00  0.00     0.118 C 
BRANCH  21  22
ATOM     22  N   UNL A   1      33.579  29.647  27.400  1.00  0.00    -0.352 N 
ATOM     23  C   UNL A   1      34.497  30.474  27.993  1.00  0.00     0.251 C 
ATOM     24  H   UNL A   1      32.749  30.092  27.112  1.00  0.00     0.163 HD
ATOM     25  O   UNL A   1      34.160  31.616  28.311  1.00  0.00    -0.269 OA
BRANCH  23  26
ATOM     26  C   UNL A   1      35.872  30.013  28.280  1.00  0.00     0.039 A 
ATOM     27  C   UNL A   1      36.832  30.105  27.268  1.00  0.00     0.014 A 
ATOM     28  C   UNL A   1      36.216  29.455  29.515  1.00  0.00     0.014 A 
ATOM     29  C   UNL A   1      38.145  29.703  27.516  1.00  0.00     0.010 A 
ATOM     30  C   UNL A   1      37.545  29.133  29.788  1.00  0.00     0.010 A 
ATOM     31  C   UNL A   1      38.522  29.250  28.791  1.00  0.00    -0.014 A 
BRANCH  31  32
ATOM     32  C   UNL A   1      39.939  28.918  29.089  1.00  0.00     0.031 A 
ATOM     33  C   UNL A   1      40.809  29.880  29.850  1.00  0.00     0.074 A 
ATOM     34  C   UNL A   1      40.453  27.761  28.631  1.00  0.00     0.049 A 
ATOM     35  N   UNL A   1      42.067  29.762  30.194  1.00  0.00    -0.248 NA
ATOM     36  C   UNL A   1      40.195  31.153  30.256  1.00  0.00     0.031 C 
ATOM     37  C   UNL A   1      39.728  26.776  27.826  1.00  0.00     0.029 A 
ATOM     38  N   UNL A   1      41.705  27.216  28.773  1.00  0.00    -0.354 N 
ATOM     39  C   UNL A   1      42.396  30.944  30.844  1.00  0.00     0.074 A 
ATOM     40  C   UNL A   1      41.223  31.789  30.799  1.00  0.00     0.031 C 
ATOM     41  C   UNL A   1      40.536  25.734  27.574  1.00  0.00     0.029 A 
ATOM     42  C   UNL A   1      41.842  25.990  28.171  1.00  0.00     0.049 A 
ATOM     43  H   UNL A   1      42.435  27.662  29.261  1.00  0.00     0.167 HD
ATOM     44  C   UNL A   1      43.561  31.282  31.446  1.00  0.00     0.037 A 
ATOM     45  C   UNL A   1      42.903  25.162  28.110  1.00  0.00     0.037 A 
ATOM     46  C   UNL A   1      44.721  30.429  31.508  1.00  0.00     0.049 A 
ATOM     47  C   UNL A   1      44.178  25.556  28.802  1.00  0.00     0.074 A 
ATOM     48  C   UNL A   1      45.926  30.654  32.149  1.00  0.00     0.029 A 
ATOM     49  N   UNL A   1      44.818  29.185  30.900  1.00  0.00    -0.354 N 
ATOM     50  N   UNL A   1      44.450  26.643  29.483  1.00  0.00    -0.248 NA
ATOM     51  C   UNL A   1      45.292  24.600  28.725  1.00  0.00     0.031 C 
ATOM     52  C   UNL A   1      46.769  29.566  31.892  1.00  0.00     0.029 A 
ATOM     53  C   UNL A   1      46.072  28.641  31.132  1.00  0.00     0.049 A 
ATOM     54  H   UNL A   1      44.102  28.754  30.380  1.00  0.00     0.167 HD
ATOM     55  C   UNL A   1      45.755  26.495  29.930  1.00  0.00     0.074 A 
ATOM     56  C   UNL A   1      46.211  25.200  29.467  1.00  0.00     0.031 C 
ATOM     57  C   UNL A   1      46.512  27.355  30.656  1.00  0.00     0.037 A 
BRANCH  44  58
ATOM     58  C   UNL A   1      43.641  32.634  32.095  1.00  0.00     0.064 A 
ATOM     59  C   UNL A   1      43.292  32.825  33.442  1.00  0.00     0.173 A 
ATOM     60  C   UNL A   1      44.104  33.746  31.376  1.00  0.00     0.173 A 
ATOM     61  F   UNL A   1      42.832  31.799  34.171  1.00  0.00    -0.203 F 
ATOM     62  C   UNL A   1      43.377  34.083  34.034  1.00  0.00     0.198 A 
ATOM     63  C   UNL A   1      44.217  34.996  31.980  1.00  0.00     0.198 A 
ATOM     64  F   UNL A   1      44.456  33.620  30.087  1.00  0.00    -0.203 F 
ATOM     65  F   UNL A   1      42.992  34.249  35.307  1.00  0.00    -0.200 F 
ATOM     66  C   UNL A   1      43.846  35.165  33.305  1.00  0.00     0.200 A 
ATOM     67  F   UNL A   1      44.683  36.039  31.278  1.00  0.00    -0.200 F 
ATOM     68  F   UNL A   1      43.935  36.373  33.879  1.00  0.00    -0.200 F 
ENDBRANCH  44  58
BRANCH  45  69
ATOM     69  C   UNL A   1      42.790  23.864  27.396  1.00  0.00     0.064 A 
ATOM     70  C   UNL A   1      43.185  23.744  26.057  1.00  0.00     0.173 A 
ATOM     71  C   UNL A   1      42.287  22.721  28.034  1.00  0.00     0.173 A 
ATOM     72  F   UNL A   1      43.653  24.814  25.398  1.00  0.00    -0.203 F 
ATOM     73  C   UNL A   1      43.061  22.535  25.375  1.00  0.00     0.198 A 
ATOM     74  C   UNL A   1      42.191  21.505  27.361  1.00  0.00     0.198 A 
ATOM     75  F   UNL A   1      41.904  22.783  29.318  1.00  0.00    -0.203 F 
ATOM     76  F   UNL A   1      43.403  22.459  24.082  1.00  0.00    -0.200 F 
ATOM     77  C   UNL A   1      42.570  21.415  26.029  1.00  0.00     0.200 A 
ATOM     78  F   UNL A   1      41.731  20.422  28.001  1.00  0.00    -0.200 F 
ATOM     79  F   UNL A   1      42.455  20.251  25.376  1.00  0.00    -0.200 F 
ENDBRANCH  45  69
BRANCH  57  80
ATOM     80  C   UNL A   1      47.903  26.909  31.003  1.00  0.00     0.064 A 
ATOM     81  C   UNL A   1      48.157  26.100  32.122  1.00  0.00     0.173 A 
ATOM     82  C   UNL A   1      48.993  27.288  30.206  1.00  0.00     0.173 A 
ATOM     83  F   UNL A   1      47.150  25.725  32.925  1.00  0.00    -0.203 F 
ATOM     84  C   UNL A   1      49.455  25.721  32.450  1.00  0.00     0.198 A 
ATOM     85  C   UNL A   1      50.286  26.879  30.519  1.00  0.00     0.198 A 
ATOM     86  F   UNL A   1      48.804  28.054  29.121  1.00  0.00    -0.203 F 
ATOM     87  F   UNL A   1      49.680  25.001  33.558  1.00  0.00    -0.200 F 
ATOM     88  C   UNL A   1      50.518  26.106  31.647  1.00  0.00     0.200 A 
ATOM     89  F   UNL A   1      51.311  27.241  29.735  1.00  0.00    -0.200 F 
ATOM     90  F   UNL A   1      51.767  25.741  31.965  1.00  0.00    -0.200 F 
ENDBRANCH  57  80
ENDBRANCH  31  32
ENDBRANCH  23  26
ENDBRANCH  21  22
ENDBRANCH   1  21
TORSDOF 13
ENDMDL
MODEL 3
REMARK VINA RESULT:     -10.9      4.149      9.985
REMARK SMILES [NH3+]C[C@H]1C[C@]1(C(=O)NCCCNC(=O)c1ccc(-c2c3nc(c(-c4c(F)c(F)c(F)c(F)c4F)c4ccc([nH]4)c(-c4c(F)c(F)c(F)c(F)c4F)c4nc(c(-c5c(F)c(F)c(F)c(F)c5F)c5ccc2[nH]5)C=C4)C=C3)cc1)c1ccccc1
REMARK SMILES IDX 10 1 9 2 8 3 6 4 7 5 5 7 3 8 4 9 2 10 1 11 78 15 79 16 83 17
REMARK SMILES IDX 80 18 82 19 81 20 11 21 12 22 13 23 14 25 15 26 16 27 77 28
REMARK SMILES IDX 17 29 76 30 18 31 19 32 20 33 70 34 21 35 75 36 69 37 71 38
REMARK SMILES IDX 22 39 74 40 68 41 67 42 23 44 55 45 35 46 54 47 36 48 39 49
REMARK SMILES IDX 53 50 72 51 37 52 38 53 52 55 73 56 40 57 24 58 25 59 33 60
REMARK SMILES IDX 26 61 27 62 31 63 34 64 28 65 29 66 32 67 30 68 56 69 57 70
REMARK SMILES IDX 65 71 58 72 59 73 63 74 66 75 60 76 61 77 64 78 62 79 41 80
REMARK SMILES IDX 42 81 50 82 43 83 44 84 48 85 51 86 45 87 46 88 49 89 47 90
REMARK H PARENT 8 6 1 12 1 13 1 14 12 24 71 43 39 54
REMARK Flexibility Score: inf
ROOT
ATOM      1  C   UNL A   1      33.909  27.890  25.718  1.00  0.00     0.042 C 
ENDROOT
BRANCH   1   2
ATOM      2  C   UNL A   1      32.894  27.038  24.959  1.00  0.00     0.117 C 
BRANCH   2   3
ATOM      3  N   UNL A   1      33.323  26.735  23.614  1.00  0.00    -0.355 N 
ATOM      4  C   UNL A   1      33.583  25.625  22.864  1.00  0.00     0.231 C 
ATOM      5  O   UNL A   1      33.740  25.900  21.668  1.00  0.00    -0.274 OA
ATOM      6  H   UNL A   1      33.469  27.558  23.093  1.00  0.00     0.163 HD
BRANCH   4   7
ATOM      7  C   UNL A   1      33.642  24.157  23.304  1.00  0.00     0.083 C 
ATOM      8  C   UNL A   1      32.509  23.195  23.737  1.00  0.00     0.065 C 
ATOM      9  C   UNL A   1      32.983  23.188  22.311  1.00  0.00     0.033 C 
BRANCH   8  10
ATOM     10  C   UNL A   1      31.170  23.608  24.219  1.00  0.00     0.263 C 
BRANCH  10  11
ATOM     11  N   UNL A   1      30.274  23.899  23.110  1.00  0.00    -0.357 N 
ATOM     12  H   UNL A   1      30.426  24.857  22.791  1.00  0.00     0.344 HD
ATOM     13  H   UNL A   1      29.307  23.793  23.416  1.00  0.00     0.344 HD
ATOM     14  H   UNL A   1      30.461  23.252  22.343  1.00  0.00     0.344 HD
ENDBRANCH  10  11
ENDBRANCH   8  10
BRANCH   7  15
ATOM     15  C   UNL A   1      35.003  23.768  24.001  1.00  0.00    -0.032 A 
ATOM     16  C   UNL A   1      35.912  22.892  23.366  1.00  0.00     0.005 A 
ATOM     17  C   UNL A   1      35.385  24.236  25.272  1.00  0.00     0.005 A 
ATOM     18  C   UNL A   1      37.076  22.439  23.995  1.00  0.00     0.000 A 
ATOM     19  C   UNL A   1      36.565  23.814  25.894  1.00  0.00     0.000 A 
ATOM     20  C   UNL A   1      37.400  22.897  25.265  1.00  0.00     0.000 A 
ENDBRANCH   7  15
ENDBRANCH   4   7
ENDBRANCH   2   3
ENDBRANCH   1   2
BRANCH   1  21
ATOM     21  C   UNL A   1      33.481  28.291  27.125  1.00  0.00     0.118 C 
BRANCH  21  22
ATOM     22  N   UNL A   1      33.456  29.732  27.319  1.00  0.00    -0.352 N 
ATOM     23  C   UNL A   1      34.365  30.565  27.916  1.00  0.00     0.251 C 
ATOM     24  H   UNL A   1      32.657  30.182  26.961  1.00  0.00     0.163 HD
ATOM     25  O   UNL A   1      34.045  31.732  28.153  1.00  0.00    -0.269 OA
BRANCH  23  26
ATOM     26  C   UNL A   1      35.708  30.085  28.304  1.00  0.00     0.039 A 
ATOM     27  C   UNL A   1      36.742  30.165  27.367  1.00  0.00     0.014 A 
ATOM     28  C   UNL A   1      35.952  29.521  29.560  1.00  0.00     0.014 A 
ATOM     29  C   UNL A   1      38.027  29.744  27.711  1.00  0.00     0.010 A 
ATOM     30  C   UNL A   1      37.251  29.180  29.931  1.00  0.00     0.010 A 
ATOM     31  C   UNL A   1      38.302  29.285  29.010  1.00  0.00    -0.014 A 
BRANCH  31  32
ATOM     32  C   UNL A   1      39.688  28.933  29.413  1.00  0.00     0.031 A 
ATOM     33  C   UNL A   1      40.475  29.834  30.324  1.00  0.00     0.074 A 
ATOM     34  C   UNL A   1      40.253  27.816  28.916  1.00  0.00     0.049 A 
ATOM     35  N   UNL A   1      41.697  29.691  30.773  1.00  0.00    -0.248 NA
ATOM     36  C   UNL A   1      39.815  31.070  30.768  1.00  0.00     0.031 C 
ATOM     37  C   UNL A   1      39.615  26.895  27.973  1.00  0.00     0.029 A 
ATOM     38  N   UNL A   1      41.491  27.264  29.132  1.00  0.00    -0.354 N 
ATOM     39  C   UNL A   1      41.954  30.820  31.541  1.00  0.00     0.074 A 
ATOM     40  C   UNL A   1      40.782  31.664  31.452  1.00  0.00     0.031 C 
ATOM     41  C   UNL A   1      40.451  25.878  27.717  1.00  0.00     0.029 A 
ATOM     42  C   UNL A   1      41.694  26.088  28.451  1.00  0.00     0.049 A 
ATOM     43  H   UNL A   1      42.168  27.672  29.718  1.00  0.00     0.167 HD
ATOM     44  C   UNL A   1      43.055  31.112  32.273  1.00  0.00     0.037 A 
ATOM     45  C   UNL A   1      42.764  25.270  28.425  1.00  0.00     0.037 A 
ATOM     46  C   UNL A   1      44.211  30.259  32.376  1.00  0.00     0.049 A 
ATOM     47  C   UNL A   1      43.966  25.611  29.261  1.00  0.00     0.074 A 
ATOM     48  C   UNL A   1      45.349  30.435  33.142  1.00  0.00     0.029 A 
ATOM     49  N   UNL A   1      44.376  29.066  31.685  1.00  0.00    -0.354 N 
ATOM     50  N   UNL A   1      44.164  26.642  30.047  1.00  0.00    -0.248 NA
ATOM     51  C   UNL A   1      45.090  24.666  29.215  1.00  0.00     0.031 C 
ATOM     52  C   UNL A   1      46.222  29.372  32.882  1.00  0.00     0.029 A 
ATOM     53  C   UNL A   1      45.607  28.508  31.991  1.00  0.00     0.049 A 
ATOM     54  H   UNL A   1      43.715  28.675  31.069  1.00  0.00     0.167 HD
ATOM     55  C   UNL A   1      45.423  26.462  30.601  1.00  0.00     0.074 A 
ATOM     56  C   UNL A   1      45.931  25.207  30.083  1.00  0.00     0.031 C 
ATOM     57  C   UNL A   1      46.101  27.264  31.459  1.00  0.00     0.037 A 
BRANCH  44  58
ATOM     58  C   UNL A   1      43.061  32.409  33.030  1.00  0.00     0.064 A 
ATOM     59  C   UNL A   1      43.562  33.591  32.460  1.00  0.00     0.173 A 
ATOM     60  C   UNL A   1      42.528  32.484  34.325  1.00  0.00     0.173 A 
ATOM     61  F   UNL A   1      44.094  33.573  31.229  1.00  0.00    -0.203 F 
ATOM     62  C   UNL A   1      43.556  34.790  33.169  1.00  0.00     0.198 A 
ATOM     63  C   UNL A   1      42.495  33.690  35.020  1.00  0.00     0.198 A 
ATOM     64  F   UNL A   1      42.030  31.387  34.916  1.00  0.00    -0.203 F 
ATOM     65  F   UNL A   1      44.084  35.893  32.622  1.00  0.00    -0.200 F 
ATOM     66  C   UNL A   1      43.016  34.840  34.445  1.00  0.00     0.200 A 
ATOM     67  F   UNL A   1      41.960  33.741  36.248  1.00  0.00    -0.200 F 
ATOM     68  F   UNL A   1      43.003  35.996  35.123  1.00  0.00    -0.200 F 
ENDBRANCH  44  58
BRANCH  45  69
ATOM     69  C   UNL A   1      42.729  24.032  27.605  1.00  0.00     0.064 A 
ATOM     70  C   UNL A   1      42.411  22.796  28.185  1.00  0.00     0.173 A 
ATOM     71  C   UNL A   1      43.013  24.056  26.233  1.00  0.00     0.173 A 
ATOM     72  F   UNL A   1      42.152  22.719  29.498  1.00  0.00    -0.203 F 
ATOM     73  C   UNL A   1      42.399  21.627  27.426  1.00  0.00     0.198 A 
ATOM     74  C   UNL A   1      42.971  22.892  25.469  1.00  0.00     0.198 A 
ATOM     75  F   UNL A   1      43.315  25.216  25.630  1.00  0.00    -0.203 F 
ATOM     76  F   UNL A   1      42.136  20.452  28.014  1.00  0.00    -0.200 F 
ATOM     77  C   UNL A   1      42.673  21.677  26.067  1.00  0.00     0.200 A 
ATOM     78  F   UNL A   1      43.222  22.946  24.154  1.00  0.00    -0.200 F 
ATOM     79  F   UNL A   1      42.656  20.554  25.337  1.00  0.00    -0.200 F 
ENDBRANCH  45  69
BRANCH  57  80
ATOM     80  C   UNL A   1      47.458  26.794  31.899  1.00  0.00     0.064 A 
ATOM     81  C   UNL A   1      47.617  25.937  32.999  1.00  0.00     0.173 A 
ATOM     82  C   UNL A   1      48.610  27.199  31.210  1.00  0.00     0.173 A 
ATOM     83  F   UNL A   1      46.547  25.535  33.702  1.00  0.00    -0.203 F 
ATOM     84  C   UNL A   1      48.883  25.536  33.416  1.00  0.00     0.198 A 
ATOM     85  C   UNL A   1      49.872  26.769  31.609  1.00  0.00     0.198 A 
ATOM     86  F   UNL A   1      48.512  28.012  30.147  1.00  0.00    -0.203 F 
ATOM     87  F   UNL A   1      49.015  24.768  34.506  1.00  0.00    -0.200 F 
ATOM     88  C   UNL A   1      50.009  25.947  32.718  1.00  0.00     0.200 A 
ATOM     89  F   UNL A   1      50.959  27.157  30.927  1.00  0.00    -0.200 F 
ATOM     90  F   UNL A   1      51.227  25.561  33.121  1.00  0.00    -0.200 F 
ENDBRANCH  57  80
ENDBRANCH  31  32
ENDBRANCH  23  26
ENDBRANCH  21  22
ENDBRANCH   1  21
TORSDOF 13
ENDMDL
