MODEL 1
REMARK VINA RESULT:     -13.3      0.000      0.000
REMARK SMILES COc1cc(NS(=O)(=O)c2cc(C(=O)NCCCNC(=O)c3ccc(-c4c5nc(c(-c6c(F)c(F)c(F)c(F)c6F)c6ccc([nH]6)c(-c6c(F)c(F)c(F)c(F)c6F)c6nc(c(-c7c(F)c(F)c(F)c(F)c7F)c7ccc4[nH]7)C=C6)C=C5)cc3)cc(C)c2C)ccc1N1CCCC1=O
REMARK SMILES IDX 16 1 15 2 13 3 14 4 12 6 10 7 11 8 88 9 86 10 89 11 85 12
REMARK SMILES IDX 87 13 7 14 8 15 9 16 6 17 5 19 3 20 4 21 92 22 91 23 90 24
REMARK SMILES IDX 2 25 1 26 93 27 94 28 97 29 95 30 96 31 98 32 17 33 18 34
REMARK SMILES IDX 19 35 20 36 21 38 22 39 23 40 84 41 24 42 83 43 25 44 26 45
REMARK SMILES IDX 27 46 77 47 28 48 82 49 76 50 78 51 29 52 81 53 75 54 74 55
REMARK SMILES IDX 30 57 62 58 42 59 61 60 43 61 46 62 60 63 79 64 44 65 45 66
REMARK SMILES IDX 59 68 80 69 47 70 31 71 32 72 40 73 33 74 34 75 38 76 41 77
REMARK SMILES IDX 35 78 36 79 39 80 37 81 63 82 64 83 72 84 65 85 66 86 70 87
REMARK SMILES IDX 73 88 67 89 68 90 71 91 69 92 48 93 49 94 57 95 50 96 51 97
REMARK SMILES IDX 55 98 58 99 52 100 53 101 56 102 54 103
REMARK H PARENT 15 5 6 18 19 37 78 56 46 67
REMARK Flexibility Score: inf
ROOT
ATOM      1  C   UNL A   1      31.213  31.291  26.404  1.00  0.00     0.118 C 
ENDROOT
BRANCH   1   2
ATOM      2  N   UNL A   1      32.253  30.508  27.036  1.00  0.00    -0.352 N 
ATOM      3  C   UNL A   1      32.923  29.369  26.677  1.00  0.00     0.251 C 
ATOM      4  O   UNL A   1      33.823  29.009  27.439  1.00  0.00    -0.269 OA
ATOM      5  H   UNL A   1      32.537  30.869  27.906  1.00  0.00     0.163 HD
BRANCH   3   6
ATOM      6  C   UNL A   1      32.637  28.540  25.466  1.00  0.00     0.041 A 
ATOM      7  C   UNL A   1      31.032  27.049  24.370  1.00  0.00     0.091 A 
ATOM      8  C   UNL A   1      31.454  27.792  25.488  1.00  0.00     0.036 A 
ATOM      9  C   UNL A   1      31.753  27.096  23.163  1.00  0.00    -0.028 A 
ATOM     10  C   UNL A   1      33.019  27.718  23.187  1.00  0.00    -0.046 A 
ATOM     11  C   UNL A   1      31.241  26.518  21.873  1.00  0.00     0.046 C 
ATOM     12  C   UNL A   1      33.422  28.458  24.317  1.00  0.00     0.017 A 
ATOM     13  C   UNL A   1      33.971  27.627  22.021  1.00  0.00     0.044 C 
BRANCH   7  14
ATOM     14  S   UNL A   1      29.683  25.910  24.672  1.00  0.00     0.262 S 
ATOM     15  O   UNL A   1      28.548  26.389  23.916  1.00  0.00    -0.201 OA
ATOM     16  O   UNL A   1      29.597  25.695  26.102  1.00  0.00    -0.201 OA
BRANCH  14  17
ATOM     17  N   UNL A   1      30.119  24.444  23.983  1.00  0.00    -0.279 N 
ATOM     18  H   UNL A   1      29.507  24.059  23.315  1.00  0.00     0.180 HD
BRANCH  17  19
ATOM     19  C   UNL A   1      31.301  23.708  24.285  1.00  0.00     0.053 A 
ATOM     20  C   UNL A   1      33.184  23.087  25.681  1.00  0.00     0.144 A 
ATOM     21  C   UNL A   1      31.896  23.633  25.541  1.00  0.00     0.075 A 
ATOM     22  C   UNL A   1      33.837  22.476  24.593  1.00  0.00     0.086 A 
ATOM     23  C   UNL A   1      33.174  22.472  23.359  1.00  0.00     0.032 A 
ATOM     24  C   UNL A   1      31.920  23.072  23.209  1.00  0.00     0.029 A 
BRANCH  20  25
ATOM     25  O   UNL A   1      33.752  23.287  26.915  1.00  0.00    -0.494 OA
ATOM     26  C   UNL A   1      33.605  22.166  27.787  1.00  0.00     0.278 C 
ENDBRANCH  20  25
BRANCH  22  27
ATOM     27  N   UNL A   1      35.124  21.887  24.675  1.00  0.00    -0.309 N 
ATOM     28  C   UNL A   1      36.332  22.677  24.712  1.00  0.00     0.126 C 
ATOM     29  C   UNL A   1      35.396  20.524  24.848  1.00  0.00     0.227 C 
ATOM     30  C   UNL A   1      37.447  21.670  24.530  1.00  0.00     0.032 C 
ATOM     31  C   UNL A   1      36.875  20.393  25.117  1.00  0.00     0.102 C 
ATOM     32  O   UNL A   1      34.631  19.574  24.819  1.00  0.00    -0.275 OA
ENDBRANCH  22  27
ENDBRANCH  17  19
ENDBRANCH  14  17
ENDBRANCH   7  14
ENDBRANCH   3   6
ENDBRANCH   1   2
BRANCH   1  33
ATOM     33  C   UNL A   1      31.499  32.792  26.478  1.00  0.00     0.042 C 
BRANCH  33  34
ATOM     34  C   UNL A   1      32.602  33.167  27.464  1.00  0.00     0.118 C 
BRANCH  34  35
ATOM     35  N   UNL A   1      32.497  34.551  27.898  1.00  0.00    -0.352 N 
ATOM     36  C   UNL A   1      33.073  35.218  28.947  1.00  0.00     0.251 C 
ATOM     37  H   UNL A   1      31.909  35.107  27.339  1.00  0.00     0.163 HD
ATOM     38  O   UNL A   1      32.614  36.311  29.275  1.00  0.00    -0.269 OA
BRANCH  36  39
ATOM     39  C   UNL A   1      34.235  34.671  29.686  1.00  0.00     0.039 A 
ATOM     40  C   UNL A   1      35.493  34.710  29.070  1.00  0.00     0.014 A 
ATOM     41  C   UNL A   1      34.092  34.016  30.912  1.00  0.00     0.014 A 
ATOM     42  C   UNL A   1      36.598  34.116  29.684  1.00  0.00     0.010 A 
ATOM     43  C   UNL A   1      35.208  33.487  31.559  1.00  0.00     0.010 A 
ATOM     44  C   UNL A   1      36.468  33.508  30.940  1.00  0.00    -0.014 A 
BRANCH  44  45
ATOM     45  C   UNL A   1      37.616  32.831  31.596  1.00  0.00     0.031 A 
ATOM     46  C   UNL A   1      38.298  31.678  30.908  1.00  0.00     0.074 A 
ATOM     47  C   UNL A   1      38.010  33.212  32.825  1.00  0.00     0.049 A 
ATOM     48  N   UNL A   1      39.236  30.881  31.355  1.00  0.00    -0.248 NA
ATOM     49  C   UNL A   1      37.840  31.358  29.547  1.00  0.00     0.031 C 
ATOM     50  C   UNL A   1      37.412  34.292  33.609  1.00  0.00     0.029 A 
ATOM     51  N   UNL A   1      39.003  32.722  33.636  1.00  0.00    -0.354 N 
ATOM     52  C   UNL A   1      39.450  29.948  30.348  1.00  0.00     0.074 A 
ATOM     53  C   UNL A   1      38.523  30.255  29.281  1.00  0.00     0.031 C 
ATOM     54  C   UNL A   1      38.059  34.394  34.781  1.00  0.00     0.029 A 
ATOM     55  C   UNL A   1      39.095  33.368  34.844  1.00  0.00     0.049 A 
ATOM     56  H   UNL A   1      39.593  31.978  33.376  1.00  0.00     0.167 HD
ATOM     57  C   UNL A   1      40.351  28.937  30.309  1.00  0.00     0.037 A 
ATOM     58  C   UNL A   1      39.922  33.153  35.885  1.00  0.00     0.037 A 
ATOM     59  C   UNL A   1      41.310  28.666  31.348  1.00  0.00     0.049 A 
ATOM     60  C   UNL A   1      40.950  32.058  35.794  1.00  0.00     0.074 A 
ATOM     61  C   UNL A   1      42.295  27.695  31.385  1.00  0.00     0.029 A 
ATOM     62  N   UNL A   1      41.412  29.386  32.529  1.00  0.00    -0.354 N 
ATOM     63  N   UNL A   1      41.163  31.203  34.825  1.00  0.00    -0.248 NA
ATOM     64  C   UNL A   1      41.859  31.908  36.938  1.00  0.00     0.031 C 
ATOM     65  C   UNL A   1      42.983  27.816  32.598  1.00  0.00     0.029 A 
ATOM     66  C   UNL A   1      42.447  28.884  33.300  1.00  0.00     0.049 A 
ATOM     67  H   UNL A   1      40.834  30.142  32.781  1.00  0.00     0.167 HD
ATOM     68  C   UNL A   1      42.246  30.435  35.226  1.00  0.00     0.074 A 
ATOM     69  C   UNL A   1      42.653  30.930  36.525  1.00  0.00     0.031 C 
ATOM     70  C   UNL A   1      42.850  29.409  34.578  1.00  0.00     0.037 A 
BRANCH  57  71
ATOM     71  C   UNL A   1      40.346  28.050  29.099  1.00  0.00     0.064 A 
ATOM     72  C   UNL A   1      41.099  28.362  27.956  1.00  0.00     0.173 A 
ATOM     73  C   UNL A   1      39.602  26.861  29.090  1.00  0.00     0.173 A 
ATOM     74  F   UNL A   1      41.816  29.495  27.910  1.00  0.00    -0.203 F 
ATOM     75  C   UNL A   1      41.083  27.530  26.839  1.00  0.00     0.198 A 
ATOM     76  C   UNL A   1      39.610  26.018  27.982  1.00  0.00     0.198 A 
ATOM     77  F   UNL A   1      38.870  26.513  30.159  1.00  0.00    -0.203 F 
ATOM     78  F   UNL A   1      41.771  27.874  25.742  1.00  0.00    -0.200 F 
ATOM     79  C   UNL A   1      40.344  26.357  26.855  1.00  0.00     0.200 A 
ATOM     80  F   UNL A   1      38.904  24.879  28.001  1.00  0.00    -0.200 F 
ATOM     81  F   UNL A   1      40.333  25.557  25.780  1.00  0.00    -0.200 F 
ENDBRANCH  57  71
BRANCH  58  82
ATOM     82  C   UNL A   1      39.838  34.020  37.086  1.00  0.00     0.064 A 
ATOM     83  C   UNL A   1      40.562  35.218  37.155  1.00  0.00     0.173 A 
ATOM     84  C   UNL A   1      39.038  33.676  38.184  1.00  0.00     0.173 A 
ATOM     85  F   UNL A   1      41.356  35.579  36.136  1.00  0.00    -0.203 F 
ATOM     86  C   UNL A   1      40.503  36.031  38.284  1.00  0.00     0.198 A 
ATOM     87  C   UNL A   1      38.961  34.501  39.304  1.00  0.00     0.198 A 
ATOM     88  F   UNL A   1      38.321  32.542  38.164  1.00  0.00    -0.203 F 
ATOM     89  F   UNL A   1      41.235  37.152  38.339  1.00  0.00    -0.200 F 
ATOM     90  C   UNL A   1      39.699  35.674  39.355  1.00  0.00     0.200 A 
ATOM     91  F   UNL A   1      38.172  34.160  40.333  1.00  0.00    -0.200 F 
ATOM     92  F   UNL A   1      39.638  36.459  40.440  1.00  0.00    -0.200 F 
ENDBRANCH  58  82
BRANCH  70  93
ATOM     93  C   UNL A   1      44.045  28.791  35.238  1.00  0.00     0.064 A 
ATOM     94  C   UNL A   1      43.918  27.715  36.127  1.00  0.00     0.173 A 
ATOM     95  C   UNL A   1      45.335  29.259  34.946  1.00  0.00     0.173 A 
ATOM     96  F   UNL A   1      42.704  27.244  36.449  1.00  0.00    -0.203 F 
ATOM     97  C   UNL A   1      45.042  27.142  36.718  1.00  0.00     0.198 A 
ATOM     98  C   UNL A   1      46.456  28.670  35.520  1.00  0.00     0.198 A 
ATOM     99  F   UNL A   1      45.505  30.284  34.097  1.00  0.00    -0.203 F 
ATOM    100  F   UNL A   1      44.897  26.141  37.596  1.00  0.00    -0.200 F 
ATOM    101  C   UNL A   1      46.309  27.616  36.410  1.00  0.00     0.200 A 
ATOM    102  F   UNL A   1      47.680  29.123  35.216  1.00  0.00    -0.200 F 
ATOM    103  F   UNL A   1      47.389  27.061  36.978  1.00  0.00    -0.200 F 
ENDBRANCH  70  93
ENDBRANCH  44  45
ENDBRANCH  36  39
ENDBRANCH  34  35
ENDBRANCH  33  34
ENDBRANCH   1  33
TORSDOF 15
ENDMDL
MODEL 2
REMARK VINA RESULT:     -13.1      5.283     11.009
REMARK SMILES COc1cc(NS(=O)(=O)c2cc(C(=O)NCCCNC(=O)c3ccc(-c4c5nc(c(-c6c(F)c(F)c(F)c(F)c6F)c6ccc([nH]6)c(-c6c(F)c(F)c(F)c(F)c6F)c6nc(c(-c7c(F)c(F)c(F)c(F)c7F)c7ccc4[nH]7)C=C6)C=C5)cc3)cc(C)c2C)ccc1N1CCCC1=O
REMARK SMILES IDX 16 1 15 2 13 3 14 4 12 6 10 7 11 8 88 9 86 10 89 11 85 12
REMARK SMILES IDX 87 13 7 14 8 15 9 16 6 17 5 19 3 20 4 21 92 22 91 23 90 24
REMARK SMILES IDX 2 25 1 26 93 27 94 28 97 29 95 30 96 31 98 32 17 33 18 34
REMARK SMILES IDX 19 35 20 36 21 38 22 39 23 40 84 41 24 42 83 43 25 44 26 45
REMARK SMILES IDX 27 46 77 47 28 48 82 49 76 50 78 51 29 52 81 53 75 54 74 55
REMARK SMILES IDX 30 57 62 58 42 59 61 60 43 61 46 62 60 63 79 64 44 65 45 66
REMARK SMILES IDX 59 68 80 69 47 70 31 71 32 72 40 73 33 74 34 75 38 76 41 77
REMARK SMILES IDX 35 78 36 79 39 80 37 81 63 82 64 83 72 84 65 85 66 86 70 87
REMARK SMILES IDX 73 88 67 89 68 90 71 91 69 92 48 93 49 94 57 95 50 96 51 97
REMARK SMILES IDX 55 98 58 99 52 100 53 101 56 102 54 103
REMARK H PARENT 15 5 6 18 19 37 78 56 46 67
REMARK Flexibility Score: inf
ROOT
ATOM      1  C   UNL A   1      37.508  20.445  24.381  1.00  0.00     0.118 C 
ENDROOT
BRANCH   1   2
ATOM      2  N   UNL A   1      37.772  21.791  24.842  1.00  0.00    -0.352 N 
ATOM      3  C   UNL A   1      36.976  22.791  25.332  1.00  0.00     0.251 C 
ATOM      4  O   UNL A   1      37.559  23.811  25.708  1.00  0.00    -0.269 OA
ATOM      5  H   UNL A   1      38.723  22.039  24.792  1.00  0.00     0.163 HD
BRANCH   3   6
ATOM      6  C   UNL A   1      35.484  22.745  25.425  1.00  0.00     0.041 A 
ATOM      7  C   UNL A   1      33.391  22.450  24.189  1.00  0.00     0.091 A 
ATOM      8  C   UNL A   1      34.789  22.600  24.219  1.00  0.00     0.036 A 
ATOM      9  C   UNL A   1      32.652  22.365  25.383  1.00  0.00    -0.028 A 
ATOM     10  C   UNL A   1      33.325  22.666  26.585  1.00  0.00    -0.046 A 
ATOM     11  C   UNL A   1      31.200  21.977  25.429  1.00  0.00     0.046 C 
ATOM     12  C   UNL A   1      34.727  22.812  26.593  1.00  0.00     0.017 A 
ATOM     13  C   UNL A   1      32.586  22.831  27.890  1.00  0.00     0.044 C 
BRANCH   7  14
ATOM     14  S   UNL A   1      32.638  22.597  22.570  1.00  0.00     0.262 S 
ATOM     15  O   UNL A   1      31.958  21.348  22.304  1.00  0.00    -0.201 OA
ATOM     16  O   UNL A   1      33.641  23.114  21.661  1.00  0.00    -0.201 OA
BRANCH  14  17
ATOM     17  N   UNL A   1      31.441  23.765  22.692  1.00  0.00    -0.279 N 
ATOM     18  H   UNL A   1      30.551  23.537  22.339  1.00  0.00     0.180 HD
BRANCH  17  19
ATOM     19  C   UNL A   1      31.605  25.061  23.262  1.00  0.00     0.053 A 
ATOM     20  C   UNL A   1      32.846  27.087  23.743  1.00  0.00     0.144 A 
ATOM     21  C   UNL A   1      32.636  25.944  22.953  1.00  0.00     0.075 A 
ATOM     22  C   UNL A   1      31.942  27.442  24.764  1.00  0.00     0.086 A 
ATOM     23  C   UNL A   1      30.853  26.590  24.989  1.00  0.00     0.032 A 
ATOM     24  C   UNL A   1      30.682  25.421  24.243  1.00  0.00     0.029 A 
BRANCH  20  25
ATOM     25  O   UNL A   1      34.025  27.743  23.488  1.00  0.00    -0.494 OA
ATOM     26  C   UNL A   1      33.933  28.652  22.390  1.00  0.00     0.278 C 
ENDBRANCH  20  25
BRANCH  22  27
ATOM     27  N   UNL A   1      32.085  28.594  25.578  1.00  0.00    -0.309 N 
ATOM     28  C   UNL A   1      33.011  28.644  26.686  1.00  0.00     0.126 C 
ATOM     29  C   UNL A   1      31.470  29.834  25.365  1.00  0.00     0.227 C 
ATOM     30  C   UNL A   1      32.650  29.918  27.420  1.00  0.00     0.032 C 
ATOM     31  C   UNL A   1      32.092  30.814  26.331  1.00  0.00     0.102 C 
ATOM     32  O   UNL A   1      30.605  30.139  24.561  1.00  0.00    -0.275 OA
ENDBRANCH  22  27
ENDBRANCH  17  19
ENDBRANCH  14  17
ENDBRANCH   7  14
ENDBRANCH   3   6
ENDBRANCH   1   2
BRANCH   1  33
ATOM     33  C   UNL A   1      38.275  19.399  25.192  1.00  0.00     0.042 C 
BRANCH  33  34
ATOM     34  C   UNL A   1      39.443  19.968  25.994  1.00  0.00     0.118 C 
BRANCH  34  35
ATOM     35  N   UNL A   1      40.560  19.039  26.060  1.00  0.00    -0.352 N 
ATOM     36  C   UNL A   1      41.914  19.249  26.064  1.00  0.00     0.251 C 
ATOM     37  H   UNL A   1      40.298  18.092  26.110  1.00  0.00     0.163 HD
ATOM     38  O   UNL A   1      42.660  18.298  25.843  1.00  0.00    -0.269 OA
BRANCH  36  39
ATOM     39  C   UNL A   1      42.504  20.581  26.341  1.00  0.00     0.039 A 
ATOM     40  C   UNL A   1      42.587  21.007  27.673  1.00  0.00     0.014 A 
ATOM     41  C   UNL A   1      42.861  21.460  25.316  1.00  0.00     0.014 A 
ATOM     42  C   UNL A   1      43.041  22.293  27.976  1.00  0.00     0.010 A 
ATOM     43  C   UNL A   1      43.383  22.717  25.620  1.00  0.00     0.010 A 
ATOM     44  C   UNL A   1      43.453  23.157  26.951  1.00  0.00    -0.014 A 
BRANCH  44  45
ATOM     45  C   UNL A   1      43.900  24.544  27.240  1.00  0.00     0.031 A 
ATOM     46  C   UNL A   1      42.909  25.558  27.748  1.00  0.00     0.074 A 
ATOM     47  C   UNL A   1      45.173  24.907  26.998  1.00  0.00     0.049 A 
ATOM     48  N   UNL A   1      43.065  26.843  27.949  1.00  0.00    -0.248 NA
ATOM     49  C   UNL A   1      41.552  25.068  28.035  1.00  0.00     0.031 C 
ATOM     50  C   UNL A   1      46.218  24.028  26.477  1.00  0.00     0.029 A 
ATOM     51  N   UNL A   1      45.799  26.119  27.146  1.00  0.00    -0.354 N 
ATOM     52  C   UNL A   1      41.821  27.316  28.348  1.00  0.00     0.074 A 
ATOM     53  C   UNL A   1      40.912  26.191  28.328  1.00  0.00     0.031 C 
ATOM     54  C   UNL A   1      47.362  24.723  26.364  1.00  0.00     0.029 A 
ATOM     55  C   UNL A   1      47.121  26.104  26.774  1.00  0.00     0.049 A 
ATOM     56  H   UNL A   1      45.344  26.923  27.488  1.00  0.00     0.167 HD
ATOM     57  C   UNL A   1      41.471  28.573  28.715  1.00  0.00     0.037 A 
ATOM     58  C   UNL A   1      48.033  27.094  26.763  1.00  0.00     0.037 A 
ATOM     59  C   UNL A   1      42.389  29.680  28.788  1.00  0.00     0.049 A 
ATOM     60  C   UNL A   1      47.633  28.468  27.227  1.00  0.00     0.074 A 
ATOM     61  C   UNL A   1      42.145  30.981  29.191  1.00  0.00     0.029 A 
ATOM     62  N   UNL A   1      43.735  29.606  28.463  1.00  0.00    -0.354 N 
ATOM     63  N   UNL A   1      46.462  28.896  27.631  1.00  0.00    -0.248 NA
ATOM     64  C   UNL A   1      48.685  29.493  27.244  1.00  0.00     0.031 C 
ATOM     65  C   UNL A   1      43.342  31.700  29.093  1.00  0.00     0.029 A 
ATOM     66  C   UNL A   1      44.337  30.838  28.661  1.00  0.00     0.049 A 
ATOM     67  H   UNL A   1      44.195  28.798  28.139  1.00  0.00     0.167 HD
ATOM     68  C   UNL A   1      46.642  30.226  27.979  1.00  0.00     0.074 A 
ATOM     69  C   UNL A   1      48.038  30.535  27.747  1.00  0.00     0.031 C 
ATOM     70  C   UNL A   1      45.732  31.115  28.448  1.00  0.00     0.037 A 
BRANCH  57  71
ATOM     71  C   UNL A   1      40.035  28.816  29.073  1.00  0.00     0.064 A 
ATOM     72  C   UNL A   1      39.091  29.196  28.105  1.00  0.00     0.173 A 
ATOM     73  C   UNL A   1      39.589  28.643  30.392  1.00  0.00     0.173 A 
ATOM     74  F   UNL A   1      39.471  29.389  26.833  1.00  0.00    -0.203 F 
ATOM     75  C   UNL A   1      37.761  29.421  28.452  1.00  0.00     0.198 A 
ATOM     76  C   UNL A   1      38.253  28.841  30.729  1.00  0.00     0.198 A 
ATOM     77  F   UNL A   1      40.449  28.274  31.353  1.00  0.00    -0.203 F 
ATOM     78  F   UNL A   1      36.889  29.830  27.520  1.00  0.00    -0.200 F 
ATOM     79  C   UNL A   1      37.342  29.238  29.761  1.00  0.00     0.200 A 
ATOM     80  F   UNL A   1      37.846  28.654  31.992  1.00  0.00    -0.200 F 
ATOM     81  F   UNL A   1      36.061  29.452  30.091  1.00  0.00    -0.200 F 
ENDBRANCH  57  71
BRANCH  58  82
ATOM     82  C   UNL A   1      49.426  26.811  26.335  1.00  0.00     0.064 A 
ATOM     83  C   UNL A   1      49.818  27.009  25.004  1.00  0.00     0.173 A 
ATOM     84  C   UNL A   1      50.388  26.341  27.238  1.00  0.00     0.173 A 
ATOM     85  F   UNL A   1      48.926  27.439  24.101  1.00  0.00    -0.203 F 
ATOM     86  C   UNL A   1      51.118  26.731  24.589  1.00  0.00     0.198 A 
ATOM     87  C   UNL A   1      51.695  26.085  26.827  1.00  0.00     0.198 A 
ATOM     88  F   UNL A   1      50.063  26.142  28.524  1.00  0.00    -0.203 F 
ATOM     89  F   UNL A   1      51.458  26.893  23.303  1.00  0.00    -0.200 F 
ATOM     90  C   UNL A   1      52.056  26.274  25.502  1.00  0.00     0.200 A 
ATOM     91  F   UNL A   1      52.603  25.657  27.715  1.00  0.00    -0.200 F 
ATOM     92  F   UNL A   1      53.309  26.011  25.102  1.00  0.00    -0.200 F 
ENDBRANCH  58  82
BRANCH  70  93
ATOM     93  C   UNL A   1      46.229  32.487  28.790  1.00  0.00     0.064 A 
ATOM     94  C   UNL A   1      46.260  33.515  27.838  1.00  0.00     0.173 A 
ATOM     95  C   UNL A   1      46.643  32.782  30.097  1.00  0.00     0.173 A 
ATOM     96  F   UNL A   1      45.888  33.276  26.572  1.00  0.00    -0.203 F 
ATOM     97  C   UNL A   1      46.709  34.789  28.180  1.00  0.00     0.198 A 
ATOM     98  C   UNL A   1      47.069  34.062  30.440  1.00  0.00     0.198 A 
ATOM     99  F   UNL A   1      46.627  31.831  31.043  1.00  0.00    -0.203 F 
ATOM    100  F   UNL A   1      46.769  35.748  27.246  1.00  0.00    -0.200 F 
ATOM    101  C   UNL A   1      47.108  35.062  29.481  1.00  0.00     0.200 A 
ATOM    102  F   UNL A   1      47.446  34.326  31.698  1.00  0.00    -0.200 F 
ATOM    103  F   UNL A   1      47.537  36.289  29.807  1.00  0.00    -0.200 F 
ENDBRANCH  70  93
ENDBRANCH  44  45
ENDBRANCH  36  39
ENDBRANCH  34  35
ENDBRANCH  33  34
ENDBRANCH   1  33
TORSDOF 15
ENDMDL
MODEL 3
REMARK VINA RESULT:     -12.9      0.594      6.905
REMARK SMILES COc1cc(NS(=O)(=O)c2cc(C(=O)NCCCNC(=O)c3ccc(-c4c5nc(c(-c6c(F)c(F)c(F)c(F)c6F)c6ccc([nH]6)c(-c6c(F)c(F)c(F)c(F)c6F)c6nc(c(-c7c(F)c(F)c(F)c(F)c7F)c7ccc4[nH]7)C=C6)C=C5)cc3)cc(C)c2C)ccc1N1CCCC1=O
REMARK SMILES IDX 16 1 15 2 13 3 14 4 12 6 10 7 11 8 88 9 86 10 89 11 85 12
REMARK SMILES IDX 87 13 7 14 8 15 9 16 6 17 5 19 3 20 4 21 92 22 91 23 90 24
REMARK SMILES IDX 2 25 1 26 93 27 94 28 97 29 95 30 96 31 98 32 17 33 18 34
REMARK SMILES IDX 19 35 20 36 21 38 22 39 23 40 84 41 24 42 83 43 25 44 26 45
REMARK SMILES IDX 27 46 77 47 28 48 82 49 76 50 78 51 29 52 81 53 75 54 74 55
REMARK SMILES IDX 30 57 62 58 42 59 61 60 43 61 46 62 60 63 79 64 44 65 45 66
REMARK SMILES IDX 59 68 80 69 47 70 31 71 32 72 40 73 33 74 34 75 38 76 41 77
REMARK SMILES IDX 35 78 36 79 39 80 37 81 63 82 64 83 72 84 65 85 66 86 70 87
REMARK SMILES IDX 73 88 67 89 68 90 71 91 69 92 48 93 49 94 57 95 50 96 51 97
REMARK SMILES IDX 55 98 58 99 52 100 53 101 56 102 54 103
REMARK H PARENT 15 5 6 18 19 37 78 56 46 67
REMARK Flexibility Score: inf
ROOT
ATOM      1  C   UNL A   1      31.276  31.348  26.481  1.00  0.00     0.118 C 
ENDROOT
BRANCH   1   2
ATOM      2  N   UNL A   1      32.404  30.620  27.022  1.00  0.00    -0.352 N 
ATOM      3  C   UNL A   1      33.102  29.520  26.603  1.00  0.00     0.251 C 
ATOM      4  O   UNL A   1      34.079  29.207  27.288  1.00  0.00    -0.269 OA
ATOM      5  H   UNL A   1      32.737  30.994  27.869  1.00  0.00     0.163 HD
BRANCH   3   6
ATOM      6  C   UNL A   1      32.764  28.679  25.413  1.00  0.00     0.041 A 
ATOM      7  C   UNL A   1      31.115  27.176  24.404  1.00  0.00     0.091 A 
ATOM      8  C   UNL A   1      31.585  27.930  25.495  1.00  0.00     0.036 A 
ATOM      9  C   UNL A   1      31.782  27.212  23.166  1.00  0.00    -0.028 A 
ATOM     10  C   UNL A   1      33.046  27.835  23.128  1.00  0.00    -0.046 A 
ATOM     11  C   UNL A   1      31.214  26.621  21.905  1.00  0.00     0.046 C 
ATOM     12  C   UNL A   1      33.498  28.586  24.232  1.00  0.00     0.017 A 
ATOM     13  C   UNL A   1      33.947  27.734  21.922  1.00  0.00     0.044 C 
BRANCH   7  14
ATOM     14  S   UNL A   1      29.782  26.039  24.776  1.00  0.00     0.262 S 
ATOM     15  O   UNL A   1      28.641  26.452  23.988  1.00  0.00    -0.201 OA
ATOM     16  O   UNL A   1      29.694  25.914  26.216  1.00  0.00    -0.201 OA
BRANCH  14  17
ATOM     17  N   UNL A   1      30.240  24.538  24.183  1.00  0.00    -0.279 N 
ATOM     18  H   UNL A   1      29.603  24.070  23.598  1.00  0.00     0.180 HD
BRANCH  17  19
ATOM     19  C   UNL A   1      31.477  23.884  24.457  1.00  0.00     0.053 A 
ATOM     20  C   UNL A   1      33.312  23.206  25.889  1.00  0.00     0.144 A 
ATOM     21  C   UNL A   1      31.982  23.633  25.729  1.00  0.00     0.075 A 
ATOM     22  C   UNL A   1      34.112  22.885  24.774  1.00  0.00     0.086 A 
ATOM     23  C   UNL A   1      33.546  23.049  23.502  1.00  0.00     0.032 A 
ATOM     24  C   UNL A   1      32.244  23.533  23.346  1.00  0.00     0.029 A 
BRANCH  20  25
ATOM     25  O   UNL A   1      33.760  23.224  27.186  1.00  0.00    -0.494 OA
ATOM     26  C   UNL A   1      33.406  22.050  27.917  1.00  0.00     0.278 C 
ENDBRANCH  20  25
BRANCH  22  27
ATOM     27  N   UNL A   1      35.451  22.428  24.869  1.00  0.00    -0.309 N 
ATOM     28  C   UNL A   1      36.565  23.333  25.021  1.00  0.00     0.126 C 
ATOM     29  C   UNL A   1      35.859  21.091  24.950  1.00  0.00     0.227 C 
ATOM     30  C   UNL A   1      37.787  22.464  24.813  1.00  0.00     0.032 C 
ATOM     31  C   UNL A   1      37.334  21.092  25.274  1.00  0.00     0.102 C 
ATOM     32  O   UNL A   1      35.202  20.072  24.814  1.00  0.00    -0.275 OA
ENDBRANCH  22  27
ENDBRANCH  17  19
ENDBRANCH  14  17
ENDBRANCH   7  14
ENDBRANCH   3   6
ENDBRANCH   1   2
BRANCH   1  33
ATOM     33  C   UNL A   1      31.417  32.858  26.680  1.00  0.00     0.042 C 
BRANCH  33  34
ATOM     34  C   UNL A   1      32.732  33.278  27.333  1.00  0.00     0.118 C 
BRANCH  34  35
ATOM     35  N   UNL A   1      32.639  34.595  27.944  1.00  0.00    -0.352 N 
ATOM     36  C   UNL A   1      33.207  35.108  29.080  1.00  0.00     0.251 C 
ATOM     37  H   UNL A   1      32.067  35.229  27.455  1.00  0.00     0.163 HD
ATOM     38  O   UNL A   1      32.758  36.155  29.543  1.00  0.00    -0.269 OA
BRANCH  36  39
ATOM     39  C   UNL A   1      34.350  34.450  29.756  1.00  0.00     0.039 A 
ATOM     40  C   UNL A   1      35.627  34.598  29.198  1.00  0.00     0.014 A 
ATOM     41  C   UNL A   1      34.174  33.598  30.849  1.00  0.00     0.014 A 
ATOM     42  C   UNL A   1      36.718  33.914  29.741  1.00  0.00     0.010 A 
ATOM     43  C   UNL A   1      35.274  32.974  31.437  1.00  0.00     0.010 A 
ATOM     44  C   UNL A   1      36.552  33.103  30.873  1.00  0.00    -0.014 A 
BRANCH  44  45
ATOM     45  C   UNL A   1      37.685  32.332  31.445  1.00  0.00     0.031 A 
ATOM     46  C   UNL A   1      38.214  32.680  32.811  1.00  0.00     0.074 A 
ATOM     47  C   UNL A   1      38.273  31.361  30.721  1.00  0.00     0.049 A 
ATOM     48  N   UNL A   1      39.263  32.211  33.440  1.00  0.00    -0.248 NA
ATOM     49  C   UNL A   1      37.485  33.718  33.556  1.00  0.00     0.031 C 
ATOM     50  C   UNL A   1      37.875  30.951  29.376  1.00  0.00     0.029 A 
ATOM     51  N   UNL A   1      39.341  30.550  31.015  1.00  0.00    -0.354 N 
ATOM     52  C   UNL A   1      39.338  32.923  34.631  1.00  0.00     0.074 A 
ATOM     53  C   UNL A   1      38.251  33.877  34.625  1.00  0.00     0.031 C 
ATOM     54  C   UNL A   1      38.677  29.955  28.964  1.00  0.00     0.029 A 
ATOM     55  C   UNL A   1      39.664  29.679  30.005  1.00  0.00     0.049 A 
ATOM     56  H   UNL A   1      39.829  30.590  31.869  1.00  0.00     0.167 HD
ATOM     57  C   UNL A   1      40.223  32.781  35.647  1.00  0.00     0.037 A 
ATOM     58  C   UNL A   1      40.647  28.763  29.927  1.00  0.00     0.037 A 
ATOM     59  C   UNL A   1      41.271  31.794  35.677  1.00  0.00     0.049 A 
ATOM     60  C   UNL A   1      41.583  28.588  31.091  1.00  0.00     0.074 A 
ATOM     61  C   UNL A   1      42.191  31.538  36.678  1.00  0.00     0.029 A 
ATOM     62  N   UNL A   1      41.524  30.887  34.659  1.00  0.00    -0.354 N 
ATOM     63  N   UNL A   1      41.625  29.245  32.224  1.00  0.00    -0.248 NA
ATOM     64  C   UNL A   1      42.602  27.536  30.969  1.00  0.00     0.031 C 
ATOM     65  C   UNL A   1      43.013  30.486  36.258  1.00  0.00     0.029 A 
ATOM     66  C   UNL A   1      42.582  30.066  35.010  1.00  0.00     0.049 A 
ATOM     67  H   UNL A   1      41.024  30.834  33.812  1.00  0.00     0.167 HD
ATOM     68  C   UNL A   1      42.649  28.669  32.961  1.00  0.00     0.074 A 
ATOM     69  C   UNL A   1      43.200  27.601  32.151  1.00  0.00     0.031 C 
ATOM     70  C   UNL A   1      43.096  28.995  34.199  1.00  0.00     0.037 A 
BRANCH  57  71
ATOM     71  C   UNL A   1      40.093  33.713  36.816  1.00  0.00     0.064 A 
ATOM     72  C   UNL A   1      40.728  34.965  36.830  1.00  0.00     0.173 A 
ATOM     73  C   UNL A   1      39.303  33.365  37.921  1.00  0.00     0.173 A 
ATOM     74  F   UNL A   1      41.505  35.339  35.803  1.00  0.00    -0.203 F 
ATOM     75  C   UNL A   1      40.600  35.820  37.922  1.00  0.00     0.198 A 
ATOM     76  C   UNL A   1      39.155  34.234  38.999  1.00  0.00     0.198 A 
ATOM     77  F   UNL A   1      38.670  32.182  37.954  1.00  0.00    -0.203 F 
ATOM     78  F   UNL A   1      41.255  36.989  37.935  1.00  0.00    -0.200 F 
ATOM     79  C   UNL A   1      39.810  35.457  39.002  1.00  0.00     0.200 A 
ATOM     80  F   UNL A   1      38.383  33.887  40.038  1.00  0.00    -0.200 F 
ATOM     81  F   UNL A   1      39.685  36.282  40.051  1.00  0.00    -0.200 F 
ENDBRANCH  57  71
BRANCH  58  82
ATOM     82  C   UNL A   1      40.771  27.912  28.717  1.00  0.00     0.064 A 
ATOM     83  C   UNL A   1      41.656  28.259  27.687  1.00  0.00     0.173 A 
ATOM     84  C   UNL A   1      40.014  26.742  28.564  1.00  0.00     0.173 A 
ATOM     85  F   UNL A   1      42.386  29.380  27.781  1.00  0.00    -0.203 F 
ATOM     86  C   UNL A   1      41.767  27.476  26.541  1.00  0.00     0.198 A 
ATOM     87  C   UNL A   1      40.143  25.947  27.427  1.00  0.00     0.198 A 
ATOM     88  F   UNL A   1      39.158  26.365  29.525  1.00  0.00    -0.203 F 
ATOM     89  F   UNL A   1      42.592  27.850  25.554  1.00  0.00    -0.200 F 
ATOM     90  C   UNL A   1      41.015  26.318  26.414  1.00  0.00     0.200 A 
ATOM     91  F   UNL A   1      39.425  24.821  27.313  1.00  0.00    -0.200 F 
ATOM     92  F   UNL A   1      41.125  25.563  25.312  1.00  0.00    -0.200 F 
ENDBRANCH  58  82
BRANCH  70  93
ATOM     93  C   UNL A   1      44.198  28.155  34.772  1.00  0.00     0.064 A 
ATOM     94  C   UNL A   1      43.928  27.022  35.551  1.00  0.00     0.173 A 
ATOM     95  C   UNL A   1      45.538  28.471  34.503  1.00  0.00     0.173 A 
ATOM     96  F   UNL A   1      42.663  26.691  35.847  1.00  0.00    -0.203 F 
ATOM     97  C   UNL A   1      44.966  26.245  36.062  1.00  0.00     0.198 A 
ATOM     98  C   UNL A   1      46.571  27.679  34.995  1.00  0.00     0.198 A 
ATOM     99  F   UNL A   1      45.844  29.543  33.758  1.00  0.00    -0.203 F 
ATOM    100  F   UNL A   1      44.689  25.189  36.838  1.00  0.00    -0.200 F 
ATOM    101  C   UNL A   1      46.285  26.570  35.778  1.00  0.00     0.200 A 
ATOM    102  F   UNL A   1      47.843  27.989  34.715  1.00  0.00    -0.200 F 
ATOM    103  F   UNL A   1      47.281  25.819  36.268  1.00  0.00    -0.200 F 
ENDBRANCH  70  93
ENDBRANCH  44  45
ENDBRANCH  36  39
ENDBRANCH  34  35
ENDBRANCH  33  34
ENDBRANCH   1  33
TORSDOF 15
ENDMDL
