MODEL 1
REMARK VINA RESULT:     -14.2      0.000      0.000
REMARK SMILES O=C(NCCCNC(=O)c1ccccc1-c1ccc(/C=C2/SC(=S)N(Cc3ccccc3)C2=O)o1)c1ccc(-c2c3nc(c(-c4c(F)c(F)c(F)c(F)c4F)c4ccc([nH]4)c(-c4c(F)c(F)c(F)c(F)c4F)c4nc(c(-c5c(F)c(F)c(F)c(F)c5F)c5ccc2[nH]5)C=C4)C=C3)cc1
REMARK SMILES IDX 6 1 5 2 4 3 3 4 1 5 2 6 36 8 37 9 98 10 38 11 97 12 39 13
REMARK SMILES IDX 40 14 41 15 91 16 42 17 96 18 90 19 92 20 43 21 95 22 89 23
REMARK SMILES IDX 88 24 44 26 76 27 56 28 75 29 57 30 60 31 74 32 93 33 58 34
REMARK SMILES IDX 59 35 73 37 94 38 61 39 45 40 46 41 54 42 47 43 48 44 52 45
REMARK SMILES IDX 55 46 49 47 50 48 53 49 51 50 77 51 78 52 86 53 79 54 80 55
REMARK SMILES IDX 84 56 87 57 81 58 82 59 85 60 83 61 62 62 63 63 71 64 64 65
REMARK SMILES IDX 65 66 69 67 72 68 66 69 67 70 70 71 68 72 7 73 8 74 9 76
REMARK SMILES IDX 10 77 11 78 15 79 12 80 14 81 13 82 16 83 17 84 35 85 18 86
REMARK SMILES IDX 19 87 20 88 21 89 22 90 33 91 23 92 25 93 34 94 24 95 26 96
REMARK SMILES IDX 27 97 28 98 32 99 29 100 31 101 30 102
REMARK H PARENT 3 7 92 25 60 36 7 75
REMARK Flexibility Score: inf
ROOT
ATOM      1  C   UNL A   1      36.764  21.001  24.908  1.00  0.00     0.118 C 
ENDROOT
BRANCH   1   2
ATOM      2  C   UNL A   1      37.771  19.882  25.041  1.00  0.00     0.042 C 
BRANCH   2   3
ATOM      3  C   UNL A   1      39.030  20.305  25.776  1.00  0.00     0.118 C 
BRANCH   3   4
ATOM      4  N   UNL A   1      40.053  19.262  25.829  1.00  0.00    -0.352 N 
ATOM      5  O   UNL A   1      42.116  18.351  25.888  1.00  0.00    -0.269 OA
ATOM      6  C   UNL A   1      41.410  19.343  26.046  1.00  0.00     0.251 C 
ATOM      7  H   UNL A   1      39.714  18.348  25.686  1.00  0.00     0.163 HD
BRANCH   6   8
ATOM      8  C   UNL A   1      42.020  20.634  26.430  1.00  0.00     0.039 A 
ATOM      9  C   UNL A   1      42.159  20.967  27.772  1.00  0.00     0.014 A 
ATOM     10  C   UNL A   1      42.431  21.537  25.445  1.00  0.00     0.014 A 
ATOM     11  C   UNL A   1      42.446  22.273  28.128  1.00  0.00     0.010 A 
ATOM     12  C   UNL A   1      42.885  22.809  25.815  1.00  0.00     0.010 A 
ATOM     13  C   UNL A   1      42.847  23.206  27.159  1.00  0.00    -0.014 A 
BRANCH  13  14
ATOM     14  C   UNL A   1      43.274  24.553  27.621  1.00  0.00     0.031 A 
ATOM     15  C   UNL A   1      44.720  24.965  27.628  1.00  0.00     0.074 A 
ATOM     16  C   UNL A   1      42.316  25.440  27.959  1.00  0.00     0.049 A 
ATOM     17  N   UNL A   1      45.243  26.124  27.946  1.00  0.00    -0.248 NA
ATOM     18  C   UNL A   1      45.712  23.952  27.238  1.00  0.00     0.031 C 
ATOM     19  C   UNL A   1      40.879  25.147  28.004  1.00  0.00     0.029 A 
ATOM     20  N   UNL A   1      42.389  26.769  28.284  1.00  0.00    -0.354 N 
ATOM     21  C   UNL A   1      46.617  25.975  27.810  1.00  0.00     0.074 A 
ATOM     22  C   UNL A   1      46.854  24.604  27.412  1.00  0.00     0.031 C 
ATOM     23  C   UNL A   1      40.205  26.275  28.257  1.00  0.00     0.029 A 
ATOM     24  C   UNL A   1      41.160  27.350  28.486  1.00  0.00     0.049 A 
ATOM     25  H   UNL A   1      43.238  27.259  28.366  1.00  0.00     0.167 HD
ATOM     26  C   UNL A   1      47.588  26.903  27.992  1.00  0.00     0.037 A 
ATOM     27  C   UNL A   1      40.833  28.604  28.843  1.00  0.00     0.037 A 
ATOM     28  C   UNL A   1      47.342  28.270  28.380  1.00  0.00     0.049 A 
ATOM     29  C   UNL A   1      41.932  29.602  29.053  1.00  0.00     0.074 A 
ATOM     30  C   UNL A   1      48.256  29.288  28.593  1.00  0.00     0.029 A 
ATOM     31  N   UNL A   1      46.085  28.813  28.611  1.00  0.00    -0.354 N 
ATOM     32  N   UNL A   1      43.226  29.446  28.914  1.00  0.00    -0.248 NA
ATOM     33  C   UNL A   1      41.527  30.949  29.474  1.00  0.00     0.031 C 
ATOM     34  C   UNL A   1      47.558  30.433  28.990  1.00  0.00     0.029 A 
ATOM     35  C   UNL A   1      46.203  30.146  28.975  1.00  0.00     0.049 A 
ATOM     36  H   UNL A   1      45.235  28.323  28.527  1.00  0.00     0.167 HD
ATOM     37  C   UNL A   1      43.790  30.674  29.223  1.00  0.00     0.074 A 
ATOM     38  C   UNL A   1      42.694  31.574  29.520  1.00  0.00     0.031 C 
ATOM     39  C   UNL A   1      45.099  31.024  29.269  1.00  0.00     0.037 A 
BRANCH  26  40
ATOM     40  C   UNL A   1      49.014  26.476  27.784  1.00  0.00     0.064 A 
ATOM     41  C   UNL A   1      49.576  26.386  26.501  1.00  0.00     0.173 A 
ATOM     42  C   UNL A   1      49.848  26.213  28.882  1.00  0.00     0.173 A 
ATOM     43  F   UNL A   1      48.821  26.617  25.416  1.00  0.00    -0.203 F 
ATOM     44  C   UNL A   1      50.911  26.031  26.326  1.00  0.00     0.198 A 
ATOM     45  C   UNL A   1      51.190  25.886  28.704  1.00  0.00     0.198 A 
ATOM     46  F   UNL A   1      49.366  26.292  30.132  1.00  0.00    -0.203 F 
ATOM     47  F   UNL A   1      51.415  25.915  25.088  1.00  0.00    -0.200 F 
ATOM     48  C   UNL A   1      51.719  25.790  27.426  1.00  0.00     0.200 A 
ATOM     49  F   UNL A   1      51.973  25.667  29.769  1.00  0.00    -0.200 F 
ATOM     50  F   UNL A   1      53.008  25.460  27.255  1.00  0.00    -0.200 F 
ENDBRANCH  26  40
BRANCH  27  51
ATOM     51  C   UNL A   1      39.406  28.966  29.049  1.00  0.00     0.064 A 
ATOM     52  C   UNL A   1      38.801  28.859  30.308  1.00  0.00     0.173 A 
ATOM     53  C   UNL A   1      38.618  29.430  27.984  1.00  0.00     0.173 A 
ATOM     54  F   UNL A   1      39.508  28.406  31.354  1.00  0.00    -0.203 F 
ATOM     55  C   UNL A   1      37.458  29.181  30.489  1.00  0.00     0.198 A 
ATOM     56  C   UNL A   1      37.286  29.787  28.174  1.00  0.00     0.198 A 
ATOM     57  F   UNL A   1      39.151  29.559  26.759  1.00  0.00    -0.203 F 
ATOM     58  F   UNL A   1      36.889  29.020  31.692  1.00  0.00    -0.200 F 
ATOM     59  C   UNL A   1      36.703  29.651  29.424  1.00  0.00     0.200 A 
ATOM     60  F   UNL A   1      36.570  30.263  27.147  1.00  0.00    -0.200 F 
ATOM     61  F   UNL A   1      35.413  29.967  29.601  1.00  0.00    -0.200 F 
ENDBRANCH  27  51
BRANCH  39  62
ATOM     62  C   UNL A   1      45.404  32.448  29.631  1.00  0.00     0.064 A 
ATOM     63  C   UNL A   1      45.459  33.457  28.656  1.00  0.00     0.173 A 
ATOM     64  C   UNL A   1      45.644  32.806  30.964  1.00  0.00     0.173 A 
ATOM     65  F   UNL A   1      45.256  33.160  27.364  1.00  0.00    -0.203 F 
ATOM     66  C   UNL A   1      45.780  34.766  29.003  1.00  0.00     0.198 A 
ATOM     67  C   UNL A   1      45.933  34.123  31.311  1.00  0.00     0.198 A 
ATOM     68  F   UNL A   1      45.599  31.879  31.933  1.00  0.00    -0.203 F 
ATOM     69  F   UNL A   1      45.890  35.701  28.048  1.00  0.00    -0.200 F 
ATOM     70  C   UNL A   1      46.011  35.099  30.328  1.00  0.00     0.200 A 
ATOM     71  F   UNL A   1      46.145  34.446  32.594  1.00  0.00    -0.200 F 
ATOM     72  F   UNL A   1      46.323  36.359  30.660  1.00  0.00    -0.200 F 
ENDBRANCH  39  62
ENDBRANCH  13  14
ENDBRANCH   6   8
ENDBRANCH   3   4
ENDBRANCH   2   3
ENDBRANCH   1   2
BRANCH   1  73
ATOM     73  N   UNL A   1      35.905  21.150  26.072  1.00  0.00    -0.352 N 
ATOM     74  C   UNL A   1      34.543  21.019  26.157  1.00  0.00     0.252 C 
ATOM     75  H   UNL A   1      36.365  21.375  26.914  1.00  0.00     0.163 HD
ATOM     76  O   UNL A   1      33.975  21.174  27.233  1.00  0.00    -0.269 OA
BRANCH  74  77
ATOM     77  C   UNL A   1      33.749  20.745  24.941  1.00  0.00     0.050 A 
ATOM     78  C   UNL A   1      33.479  19.398  24.670  1.00  0.00     0.014 A 
ATOM     79  C   UNL A   1      33.258  21.766  24.105  1.00  0.00     0.030 A 
ATOM     80  C   UNL A   1      32.672  19.058  23.588  1.00  0.00     0.001 A 
ATOM     81  C   UNL A   1      32.433  21.405  23.033  1.00  0.00     0.013 A 
ATOM     82  C   UNL A   1      32.140  20.061  22.778  1.00  0.00     0.001 A 
BRANCH  79  83
ATOM     83  C   UNL A   1      33.563  23.167  24.346  1.00  0.00     0.135 A 
ATOM     84  C   UNL A   1      34.523  24.030  23.873  1.00  0.00     0.051 A 
ATOM     85  O   UNL A   1      32.861  23.757  25.359  1.00  0.00    -0.457 OA
ATOM     86  C   UNL A   1      34.421  25.198  24.662  1.00  0.00     0.051 A 
ATOM     87  C   UNL A   1      33.397  25.002  25.583  1.00  0.00     0.128 A 
BRANCH  87  88
ATOM     88  C   UNL A   1      32.981  25.877  26.622  1.00  0.00     0.068 C 
ATOM     89  C   UNL A   1      32.274  26.978  26.347  1.00  0.00     0.084 C 
ATOM     90  S   UNL A   1      32.092  28.319  27.407  1.00  0.00    -0.054 SA
ATOM     91  C   UNL A   1      31.693  27.320  25.028  1.00  0.00     0.266 C 
ATOM     92  C   UNL A   1      31.761  29.417  26.058  1.00  0.00     0.148 C 
ATOM     93  N   UNL A   1      31.609  28.690  24.897  1.00  0.00    -0.288 N 
ATOM     94  O   UNL A   1      31.307  26.493  24.211  1.00  0.00    -0.268 OA
ATOM     95  S   UNL A   1      31.662  31.068  26.266  1.00  0.00    -0.052 S 
BRANCH  93  96
ATOM     96  C   UNL A   1      31.306  29.232  23.576  1.00  0.00     0.163 C 
BRANCH  96  97
ATOM     97  C   UNL A   1      29.827  29.531  23.394  1.00  0.00    -0.028 A 
ATOM     98  C   UNL A   1      29.336  30.829  23.591  1.00  0.00     0.005 A 
ATOM     99  C   UNL A   1      28.911  28.514  23.076  1.00  0.00     0.005 A 
ATOM    100  C   UNL A   1      27.968  31.096  23.477  1.00  0.00     0.000 A 
ATOM    101  C   UNL A   1      27.548  28.786  22.945  1.00  0.00     0.000 A 
ATOM    102  C   UNL A   1      27.076  30.076  23.153  1.00  0.00     0.000 A 
ENDBRANCH  96  97
ENDBRANCH  93  96
ENDBRANCH  87  88
ENDBRANCH  79  83
ENDBRANCH  74  77
ENDBRANCH   1  73
TORSDOF 14
ENDMDL
MODEL 2
REMARK VINA RESULT:     -14.1      0.673      2.055
REMARK SMILES O=C(NCCCNC(=O)c1ccccc1-c1ccc(/C=C2/SC(=S)N(Cc3ccccc3)C2=O)o1)c1ccc(-c2c3nc(c(-c4c(F)c(F)c(F)c(F)c4F)c4ccc([nH]4)c(-c4c(F)c(F)c(F)c(F)c4F)c4nc(c(-c5c(F)c(F)c(F)c(F)c5F)c5ccc2[nH]5)C=C4)C=C3)cc1
REMARK SMILES IDX 6 1 5 2 4 3 3 4 1 5 2 6 36 8 37 9 98 10 38 11 97 12 39 13
REMARK SMILES IDX 40 14 41 15 91 16 42 17 96 18 90 19 92 20 43 21 95 22 89 23
REMARK SMILES IDX 88 24 44 26 76 27 56 28 75 29 57 30 60 31 74 32 93 33 58 34
REMARK SMILES IDX 59 35 73 37 94 38 61 39 45 40 46 41 54 42 47 43 48 44 52 45
REMARK SMILES IDX 55 46 49 47 50 48 53 49 51 50 77 51 78 52 86 53 79 54 80 55
REMARK SMILES IDX 84 56 87 57 81 58 82 59 85 60 83 61 62 62 63 63 71 64 64 65
REMARK SMILES IDX 65 66 69 67 72 68 66 69 67 70 70 71 68 72 7 73 8 74 9 76
REMARK SMILES IDX 10 77 11 78 15 79 12 80 14 81 13 82 16 83 17 84 35 85 18 86
REMARK SMILES IDX 19 87 20 88 21 89 22 90 33 91 23 92 25 93 34 94 24 95 26 96
REMARK SMILES IDX 27 97 28 98 32 99 29 100 31 101 30 102
REMARK H PARENT 3 7 92 25 60 36 7 75
REMARK Flexibility Score: inf
ROOT
ATOM      1  C   UNL A   1      36.718  21.052  24.872  1.00  0.00     0.118 C 
ENDROOT
BRANCH   1   2
ATOM      2  C   UNL A   1      37.755  19.959  24.991  1.00  0.00     0.042 C 
BRANCH   2   3
ATOM      3  C   UNL A   1      39.023  20.422  25.685  1.00  0.00     0.118 C 
BRANCH   3   4
ATOM      4  N   UNL A   1      40.023  19.366  25.839  1.00  0.00    -0.352 N 
ATOM      5  O   UNL A   1      42.064  18.422  26.019  1.00  0.00    -0.269 OA
ATOM      6  C   UNL A   1      41.375  19.436  26.087  1.00  0.00     0.251 C 
ATOM      7  H   UNL A   1      39.669  18.451  25.752  1.00  0.00     0.163 HD
BRANCH   6   8
ATOM      8  C   UNL A   1      42.002  20.739  26.395  1.00  0.00     0.039 A 
ATOM      9  C   UNL A   1      42.283  21.084  27.711  1.00  0.00     0.014 A 
ATOM     10  C   UNL A   1      42.287  21.642  25.365  1.00  0.00     0.014 A 
ATOM     11  C   UNL A   1      42.585  22.397  28.026  1.00  0.00     0.010 A 
ATOM     12  C   UNL A   1      42.758  22.924  25.676  1.00  0.00     0.010 A 
ATOM     13  C   UNL A   1      42.861  23.330  27.015  1.00  0.00    -0.014 A 
BRANCH  13  14
ATOM     14  C   UNL A   1      43.315  24.686  27.419  1.00  0.00     0.031 A 
ATOM     15  C   UNL A   1      44.717  25.163  27.158  1.00  0.00     0.074 A 
ATOM     16  C   UNL A   1      42.404  25.523  27.958  1.00  0.00     0.049 A 
ATOM     17  N   UNL A   1      45.243  26.339  27.400  1.00  0.00    -0.248 NA
ATOM     18  C   UNL A   1      45.655  24.202  26.559  1.00  0.00     0.031 C 
ATOM     19  C   UNL A   1      41.017  25.165  28.272  1.00  0.00     0.029 A 
ATOM     20  N   UNL A   1      42.484  26.848  28.297  1.00  0.00    -0.354 N 
ATOM     21  C   UNL A   1      46.570  26.254  26.998  1.00  0.00     0.074 A 
ATOM     22  C   UNL A   1      46.781  24.902  26.527  1.00  0.00     0.031 C 
ATOM     23  C   UNL A   1      40.358  26.257  28.678  1.00  0.00     0.029 A 
ATOM     24  C   UNL A   1      41.295  27.370  28.746  1.00  0.00     0.049 A 
ATOM     25  H   UNL A   1      43.313  27.375  28.226  1.00  0.00     0.167 HD
ATOM     26  C   UNL A   1      47.519  27.222  27.013  1.00  0.00     0.037 A 
ATOM     27  C   UNL A   1      40.992  28.602  29.191  1.00  0.00     0.037 A 
ATOM     28  C   UNL A   1      47.296  28.569  27.476  1.00  0.00     0.049 A 
ATOM     29  C   UNL A   1      42.069  29.645  29.211  1.00  0.00     0.074 A 
ATOM     30  C   UNL A   1      48.193  29.623  27.535  1.00  0.00     0.029 A 
ATOM     31  N   UNL A   1      46.087  29.051  27.958  1.00  0.00    -0.354 N 
ATOM     32  N   UNL A   1      43.317  29.550  28.822  1.00  0.00    -0.248 NA
ATOM     33  C   UNL A   1      41.699  30.964  29.736  1.00  0.00     0.031 C 
ATOM     34  C   UNL A   1      47.538  30.729  28.088  1.00  0.00     0.029 A 
ATOM     35  C   UNL A   1      46.219  30.381  28.327  1.00  0.00     0.049 A 
ATOM     36  H   UNL A   1      45.257  28.525  28.027  1.00  0.00     0.167 HD
ATOM     37  C   UNL A   1      43.880  30.796  29.048  1.00  0.00     0.074 A 
ATOM     38  C   UNL A   1      42.826  31.641  29.573  1.00  0.00     0.031 C 
ATOM     39  C   UNL A   1      45.157  31.204  28.849  1.00  0.00     0.037 A 
BRANCH  26  40
ATOM     40  C   UNL A   1      48.894  26.863  26.523  1.00  0.00     0.064 A 
ATOM     41  C   UNL A   1      49.861  26.316  27.381  1.00  0.00     0.173 A 
ATOM     42  C   UNL A   1      49.230  27.010  25.168  1.00  0.00     0.173 A 
ATOM     43  F   UNL A   1      49.597  26.164  28.687  1.00  0.00    -0.203 F 
ATOM     44  C   UNL A   1      51.117  25.949  26.903  1.00  0.00     0.198 A 
ATOM     45  C   UNL A   1      50.477  26.615  24.689  1.00  0.00     0.198 A 
ATOM     46  F   UNL A   1      48.341  27.521  24.303  1.00  0.00    -0.203 F 
ATOM     47  F   UNL A   1      52.038  25.464  27.749  1.00  0.00    -0.200 F 
ATOM     48  C   UNL A   1      51.421  26.090  25.558  1.00  0.00     0.200 A 
ATOM     49  F   UNL A   1      50.764  26.740  23.386  1.00  0.00    -0.200 F 
ATOM     50  F   UNL A   1      52.627  25.724  25.099  1.00  0.00    -0.200 F 
ENDBRANCH  26  40
BRANCH  27  51
ATOM     51  C   UNL A   1      39.618  28.896  29.677  1.00  0.00     0.064 A 
ATOM     52  C   UNL A   1      38.644  29.433  28.826  1.00  0.00     0.173 A 
ATOM     53  C   UNL A   1      39.253  28.640  31.008  1.00  0.00     0.173 A 
ATOM     54  F   UNL A   1      38.947  29.710  27.549  1.00  0.00    -0.203 F 
ATOM     55  C   UNL A   1      37.364  29.724  29.294  1.00  0.00     0.198 A 
ATOM     56  C   UNL A   1      37.963  28.896  31.464  1.00  0.00     0.198 A 
ATOM     57  F   UNL A   1      40.146  28.118  31.862  1.00  0.00    -0.203 F 
ATOM     58  F   UNL A   1      36.465  30.286  28.473  1.00  0.00    -0.200 F 
ATOM     59  C   UNL A   1      37.023  29.449  30.610  1.00  0.00     0.200 A 
ATOM     60  F   UNL A   1      37.633  28.606  32.729  1.00  0.00    -0.200 F 
ATOM     61  F   UNL A   1      35.789  29.723  31.056  1.00  0.00    -0.200 F 
ENDBRANCH  27  51
BRANCH  39  62
ATOM     62  C   UNL A   1      45.468  32.633  29.182  1.00  0.00     0.064 A 
ATOM     63  C   UNL A   1      45.937  33.007  30.451  1.00  0.00     0.173 A 
ATOM     64  C   UNL A   1      45.295  33.640  28.221  1.00  0.00     0.173 A 
ATOM     65  F   UNL A   1      46.101  32.082  31.409  1.00  0.00    -0.203 F 
ATOM     66  C   UNL A   1      46.186  34.342  30.755  1.00  0.00     0.198 A 
ATOM     67  C   UNL A   1      45.576  34.970  28.520  1.00  0.00     0.198 A 
ATOM     68  F   UNL A   1      44.853  33.334  26.993  1.00  0.00    -0.203 F 
ATOM     69  F   UNL A   1      46.573  34.683  31.993  1.00  0.00    -0.200 F 
ATOM     70  C   UNL A   1      46.010  35.321  29.790  1.00  0.00     0.200 A 
ATOM     71  F   UNL A   1      45.416  35.914  27.583  1.00  0.00    -0.200 F 
ATOM     72  F   UNL A   1      46.247  36.606  30.085  1.00  0.00    -0.200 F 
ENDBRANCH  39  62
ENDBRANCH  13  14
ENDBRANCH   6   8
ENDBRANCH   3   4
ENDBRANCH   2   3
ENDBRANCH   1   2
BRANCH   1  73
ATOM     73  N   UNL A   1      35.858  21.165  26.041  1.00  0.00    -0.352 N 
ATOM     74  C   UNL A   1      34.500  20.999  26.126  1.00  0.00     0.252 C 
ATOM     75  H   UNL A   1      36.314  21.391  26.884  1.00  0.00     0.163 HD
ATOM     76  O   UNL A   1      33.931  21.126  27.206  1.00  0.00    -0.269 OA
BRANCH  74  77
ATOM     77  C   UNL A   1      33.711  20.720  24.909  1.00  0.00     0.050 A 
ATOM     78  C   UNL A   1      33.450  19.371  24.637  1.00  0.00     0.014 A 
ATOM     79  C   UNL A   1      33.215  21.738  24.072  1.00  0.00     0.030 A 
ATOM     80  C   UNL A   1      32.647  19.026  23.553  1.00  0.00     0.001 A 
ATOM     81  C   UNL A   1      32.394  21.372  22.998  1.00  0.00     0.013 A 
ATOM     82  C   UNL A   1      32.110  20.026  22.743  1.00  0.00     0.001 A 
BRANCH  79  83
ATOM     83  C   UNL A   1      33.510  23.141  24.314  1.00  0.00     0.135 A 
ATOM     84  C   UNL A   1      34.449  24.017  23.824  1.00  0.00     0.051 A 
ATOM     85  O   UNL A   1      32.827  23.718  25.347  1.00  0.00    -0.457 OA
ATOM     86  C   UNL A   1      34.353  25.179  24.622  1.00  0.00     0.051 A 
ATOM     87  C   UNL A   1      33.354  24.967  25.566  1.00  0.00     0.128 A 
BRANCH  87  88
ATOM     88  C   UNL A   1      32.953  25.831  26.620  1.00  0.00     0.068 C 
ATOM     89  C   UNL A   1      32.262  26.948  26.363  1.00  0.00     0.084 C 
ATOM     90  S   UNL A   1      32.104  28.274  27.445  1.00  0.00    -0.054 SA
ATOM     91  C   UNL A   1      31.685  27.319  25.051  1.00  0.00     0.266 C 
ATOM     92  C   UNL A   1      31.787  29.398  26.114  1.00  0.00     0.148 C 
ATOM     93  N   UNL A   1      31.621  28.692  24.942  1.00  0.00    -0.288 N 
ATOM     94  O   UNL A   1      31.285  26.511  24.222  1.00  0.00    -0.268 OA
ATOM     95  S   UNL A   1      31.713  31.047  26.349  1.00  0.00    -0.052 S 
BRANCH  93  96
ATOM     96  C   UNL A   1      31.324  29.260  23.631  1.00  0.00     0.163 C 
BRANCH  96  97
ATOM     97  C   UNL A   1      29.854  29.608  23.466  1.00  0.00    -0.028 A 
ATOM     98  C   UNL A   1      28.940  28.640  23.029  1.00  0.00     0.005 A 
ATOM     99  C   UNL A   1      29.383  30.912  23.698  1.00  0.00     0.005 A 
ATOM    100  C   UNL A   1      27.596  28.971  22.825  1.00  0.00     0.000 A 
ATOM    101  C   UNL A   1      28.038  31.237  23.511  1.00  0.00     0.000 A 
ATOM    102  C   UNL A   1      27.146  30.267  23.068  1.00  0.00     0.000 A 
ENDBRANCH  96  97
ENDBRANCH  93  96
ENDBRANCH  87  88
ENDBRANCH  79  83
ENDBRANCH  74  77
ENDBRANCH   1  73
TORSDOF 14
ENDMDL
MODEL 3
REMARK VINA RESULT:     -13.6      0.757      7.127
REMARK SMILES O=C(NCCCNC(=O)c1ccccc1-c1ccc(/C=C2/SC(=S)N(Cc3ccccc3)C2=O)o1)c1ccc(-c2c3nc(c(-c4c(F)c(F)c(F)c(F)c4F)c4ccc([nH]4)c(-c4c(F)c(F)c(F)c(F)c4F)c4nc(c(-c5c(F)c(F)c(F)c(F)c5F)c5ccc2[nH]5)C=C4)C=C3)cc1
REMARK SMILES IDX 6 1 5 2 4 3 3 4 1 5 2 6 36 8 37 9 98 10 38 11 97 12 39 13
REMARK SMILES IDX 40 14 41 15 91 16 42 17 96 18 90 19 92 20 43 21 95 22 89 23
REMARK SMILES IDX 88 24 44 26 76 27 56 28 75 29 57 30 60 31 74 32 93 33 58 34
REMARK SMILES IDX 59 35 73 37 94 38 61 39 45 40 46 41 54 42 47 43 48 44 52 45
REMARK SMILES IDX 55 46 49 47 50 48 53 49 51 50 77 51 78 52 86 53 79 54 80 55
REMARK SMILES IDX 84 56 87 57 81 58 82 59 85 60 83 61 62 62 63 63 71 64 64 65
REMARK SMILES IDX 65 66 69 67 72 68 66 69 67 70 70 71 68 72 7 73 8 74 9 76
REMARK SMILES IDX 10 77 11 78 15 79 12 80 14 81 13 82 16 83 17 84 35 85 18 86
REMARK SMILES IDX 19 87 20 88 21 89 22 90 33 91 23 92 25 93 34 94 24 95 26 96
REMARK SMILES IDX 27 97 28 98 32 99 29 100 31 101 30 102
REMARK H PARENT 3 7 92 25 60 36 7 75
REMARK Flexibility Score: inf
ROOT
ATOM      1  C   UNL A   1      36.629  20.963  24.774  1.00  0.00     0.118 C 
ENDROOT
BRANCH   1   2
ATOM      2  C   UNL A   1      37.699  19.904  24.911  1.00  0.00     0.042 C 
BRANCH   2   3
ATOM      3  C   UNL A   1      38.928  20.400  25.652  1.00  0.00     0.118 C 
BRANCH   3   4
ATOM      4  N   UNL A   1      39.933  19.361  25.875  1.00  0.00    -0.352 N 
ATOM      5  O   UNL A   1      41.978  18.445  26.135  1.00  0.00    -0.269 OA
ATOM      6  C   UNL A   1      41.280  19.455  26.140  1.00  0.00     0.251 C 
ATOM      7  H   UNL A   1      39.587  18.440  25.829  1.00  0.00     0.163 HD
BRANCH   6   8
ATOM      8  C   UNL A   1      41.892  20.777  26.392  1.00  0.00     0.039 A 
ATOM      9  C   UNL A   1      42.120  21.204  27.695  1.00  0.00     0.014 A 
ATOM     10  C   UNL A   1      42.216  21.617  25.321  1.00  0.00     0.014 A 
ATOM     11  C   UNL A   1      42.407  22.535  27.940  1.00  0.00     0.010 A 
ATOM     12  C   UNL A   1      42.672  22.917  25.570  1.00  0.00     0.010 A 
ATOM     13  C   UNL A   1      42.721  23.405  26.884  1.00  0.00    -0.014 A 
BRANCH  13  14
ATOM     14  C   UNL A   1      43.156  24.785  27.222  1.00  0.00     0.031 A 
ATOM     15  C   UNL A   1      42.234  25.763  27.898  1.00  0.00     0.074 A 
ATOM     16  C   UNL A   1      44.440  25.121  26.983  1.00  0.00     0.049 A 
ATOM     17  N   UNL A   1      42.487  26.981  28.308  1.00  0.00    -0.248 NA
ATOM     18  C   UNL A   1      40.849  25.328  28.137  1.00  0.00     0.031 C 
ATOM     19  C   UNL A   1      45.423  24.259  26.319  1.00  0.00     0.029 A 
ATOM     20  N   UNL A   1      45.155  26.245  27.303  1.00  0.00    -0.354 N 
ATOM     21  C   UNL A   1      41.296  27.462  28.839  1.00  0.00     0.074 A 
ATOM     22  C   UNL A   1      40.309  26.417  28.669  1.00  0.00     0.031 C 
ATOM     23  C   UNL A   1      46.624  24.848  26.353  1.00  0.00     0.029 A 
ATOM     24  C   UNL A   1      46.482  26.166  26.953  1.00  0.00     0.049 A 
ATOM     25  H   UNL A   1      44.758  27.031  27.741  1.00  0.00     0.167 HD
ATOM     26  C   UNL A   1      41.055  28.661  29.422  1.00  0.00     0.037 A 
ATOM     27  C   UNL A   1      47.474  27.065  27.076  1.00  0.00     0.037 A 
ATOM     28  C   UNL A   1      42.048  29.693  29.594  1.00  0.00     0.049 A 
ATOM     29  C   UNL A   1      47.171  28.390  27.710  1.00  0.00     0.074 A 
ATOM     30  C   UNL A   1      41.905  30.944  30.169  1.00  0.00     0.029 A 
ATOM     31  N   UNL A   1      43.373  29.591  29.194  1.00  0.00    -0.354 N 
ATOM     32  N   UNL A   1      46.041  28.825  28.211  1.00  0.00    -0.248 NA
ATOM     33  C   UNL A   1      48.278  29.350  27.791  1.00  0.00     0.031 C 
ATOM     34  C   UNL A   1      43.130  31.613  30.082  1.00  0.00     0.029 A 
ATOM     35  C   UNL A   1      44.053  30.761  29.499  1.00  0.00     0.049 A 
ATOM     36  H   UNL A   1      43.772  28.803  28.758  1.00  0.00     0.167 HD
ATOM     37  C   UNL A   1      46.301  30.106  28.674  1.00  0.00     0.074 A 
ATOM     38  C   UNL A   1      47.705  30.361  28.427  1.00  0.00     0.031 C 
ATOM     39  C   UNL A   1      45.451  30.996  29.242  1.00  0.00     0.037 A 
BRANCH  26  40
ATOM     40  C   UNL A   1      39.661  28.936  29.912  1.00  0.00     0.064 A 
ATOM     41  C   UNL A   1      39.285  28.684  31.240  1.00  0.00     0.173 A 
ATOM     42  C   UNL A   1      38.707  29.515  29.061  1.00  0.00     0.173 A 
ATOM     43  F   UNL A   1      40.155  28.122  32.092  1.00  0.00    -0.203 F 
ATOM     44  C   UNL A   1      38.002  28.984  31.691  1.00  0.00     0.198 A 
ATOM     45  C   UNL A   1      37.433  29.839  29.523  1.00  0.00     0.198 A 
ATOM     46  F   UNL A   1      39.014  29.784  27.783  1.00  0.00    -0.203 F 
ATOM     47  F   UNL A   1      37.654  28.699  32.955  1.00  0.00    -0.200 F 
ATOM     48  C   UNL A   1      37.081  29.569  30.836  1.00  0.00     0.200 A 
ATOM     49  F   UNL A   1      36.549  30.418  28.699  1.00  0.00    -0.200 F 
ATOM     50  F   UNL A   1      35.850  29.868  31.277  1.00  0.00    -0.200 F 
ENDBRANCH  26  40
BRANCH  27  51
ATOM     51  C   UNL A   1      48.831  26.744  26.560  1.00  0.00     0.064 A 
ATOM     52  C   UNL A   1      49.163  26.940  25.213  1.00  0.00     0.173 A 
ATOM     53  C   UNL A   1      49.825  26.235  27.410  1.00  0.00     0.173 A 
ATOM     54  F   UNL A   1      48.243  27.409  24.357  1.00  0.00    -0.203 F 
ATOM     55  C   UNL A   1      50.430  26.617  24.732  1.00  0.00     0.198 A 
ATOM     56  C   UNL A   1      51.102  25.950  26.936  1.00  0.00     0.198 A 
ATOM     57  F   UNL A   1      49.561  26.038  28.710  1.00  0.00    -0.203 F 
ATOM     58  F   UNL A   1      50.707  26.765  23.429  1.00  0.00    -0.200 F 
ATOM     59  C   UNL A   1      51.400  26.129  25.595  1.00  0.00     0.200 A 
ATOM     60  F   UNL A   1      52.041  25.501  27.779  1.00  0.00    -0.200 F 
ATOM     61  F   UNL A   1      52.621  25.827  25.132  1.00  0.00    -0.200 F 
ENDBRANCH  27  51
BRANCH  39  62
ATOM     62  C   UNL A   1      46.034  32.316  29.654  1.00  0.00     0.064 A 
ATOM     63  C   UNL A   1      46.587  32.508  30.929  1.00  0.00     0.173 A 
ATOM     64  C   UNL A   1      46.039  33.399  28.764  1.00  0.00     0.173 A 
ATOM     65  F   UNL A   1      46.589  31.507  31.823  1.00  0.00    -0.203 F 
ATOM     66  C   UNL A   1      47.090  33.749  31.309  1.00  0.00     0.198 A 
ATOM     67  C   UNL A   1      46.572  34.630  29.136  1.00  0.00     0.198 A 
ATOM     68  F   UNL A   1      45.525  33.265  27.532  1.00  0.00    -0.203 F 
ATOM     69  F   UNL A   1      47.556  33.928  32.554  1.00  0.00    -0.200 F 
ATOM     70  C   UNL A   1      47.087  34.806  30.412  1.00  0.00     0.200 A 
ATOM     71  F   UNL A   1      46.578  35.647  28.265  1.00  0.00    -0.200 F 
ATOM     72  F   UNL A   1      47.569  36.001  30.781  1.00  0.00    -0.200 F 
ENDBRANCH  39  62
ENDBRANCH  13  14
ENDBRANCH   6   8
ENDBRANCH   3   4
ENDBRANCH   2   3
ENDBRANCH   1   2
BRANCH   1  73
ATOM     73  N   UNL A   1      35.750  21.053  25.930  1.00  0.00    -0.352 N 
ATOM     74  C   UNL A   1      34.394  20.859  25.994  1.00  0.00     0.252 C 
ATOM     75  H   UNL A   1      36.189  21.283  26.781  1.00  0.00     0.163 HD
ATOM     76  O   UNL A   1      33.808  20.970  27.066  1.00  0.00    -0.269 OA
BRANCH  74  77
ATOM     77  C   UNL A   1      33.629  20.571  24.764  1.00  0.00     0.050 A 
ATOM     78  C   UNL A   1      33.381  19.219  24.493  1.00  0.00     0.014 A 
ATOM     79  C   UNL A   1      33.142  21.582  23.914  1.00  0.00     0.030 A 
ATOM     80  C   UNL A   1      32.600  18.865  23.397  1.00  0.00     0.001 A 
ATOM     81  C   UNL A   1      32.343  21.207  22.827  1.00  0.00     0.013 A 
ATOM     82  C   UNL A   1      32.072  19.858  22.572  1.00  0.00     0.001 A 
BRANCH  79  83
ATOM     83  C   UNL A   1      33.425  22.988  24.156  1.00  0.00     0.135 A 
ATOM     84  C   UNL A   1      34.328  23.883  23.633  1.00  0.00     0.051 A 
ATOM     85  O   UNL A   1      32.777  23.545  25.222  1.00  0.00    -0.457 OA
ATOM     86  C   UNL A   1      34.247  25.037  24.445  1.00  0.00     0.051 A 
ATOM     87  C   UNL A   1      33.293  24.801  25.429  1.00  0.00     0.128 A 
BRANCH  87  88
ATOM     88  C   UNL A   1      32.924  25.650  26.506  1.00  0.00     0.068 C 
ATOM     89  C   UNL A   1      32.249  26.783  26.284  1.00  0.00     0.084 C 
ATOM     90  S   UNL A   1      32.130  28.089  27.395  1.00  0.00    -0.054 SA
ATOM     91  C   UNL A   1      31.658  27.192  24.989  1.00  0.00     0.266 C 
ATOM     92  C   UNL A   1      31.812  29.246  26.092  1.00  0.00     0.148 C 
ATOM     93  N   UNL A   1      31.617  28.567  24.909  1.00  0.00    -0.288 N 
ATOM     94  O   UNL A   1      31.230  26.408  24.150  1.00  0.00    -0.268 OA
ATOM     95  S   UNL A   1      31.771  30.890  26.362  1.00  0.00    -0.052 S 
BRANCH  93  96
ATOM     96  C   UNL A   1      31.309  29.168  23.615  1.00  0.00     0.163 C 
BRANCH  96  97
ATOM     97  C   UNL A   1      29.837  29.519  23.470  1.00  0.00    -0.028 A 
ATOM     98  C   UNL A   1      28.903  28.532  23.126  1.00  0.00     0.005 A 
ATOM     99  C   UNL A   1      29.384  30.840  23.627  1.00  0.00     0.005 A 
ATOM    100  C   UNL A   1      27.556  28.863  22.939  1.00  0.00     0.000 A 
ATOM    101  C   UNL A   1      28.037  31.165  23.458  1.00  0.00     0.000 A 
ATOM    102  C   UNL A   1      27.124  30.176  23.107  1.00  0.00     0.000 A 
ENDBRANCH  96  97
ENDBRANCH  93  96
ENDBRANCH  87  88
ENDBRANCH  79  83
ENDBRANCH  74  77
ENDBRANCH   1  73
TORSDOF 14
ENDMDL
