MODEL 1
REMARK VINA RESULT:     -12.3      0.000      0.000
REMARK SMILES O=C(CCn1ccnc1)N[C@H]1C=C[C@H](C(=O)NCCCNC(=O)c2ccc(-c3c4nc(c(-c5c(F)c(F)c(F)c(F)c5F)c5ccc([nH]5)c(-c5c(F)c(F)c(F)c(F)c5F)c5nc(c(-c6c(F)c(F)c(F)c(F)c6F)c6ccc3[nH]6)C=C5)C=C4)cc2)C1
REMARK SMILES IDX 18 1 17 2 15 3 16 4 14 6 11 7 12 8 87 9 13 10 10 11 1 12
REMARK SMILES IDX 2 13 3 15 4 16 5 17 6 18 9 19 7 20 8 21 19 22 20 23 21 24
REMARK SMILES IDX 22 25 23 27 24 28 25 29 86 30 26 31 85 32 27 33 28 34 29 35
REMARK SMILES IDX 79 36 30 37 84 38 78 39 80 40 31 41 83 42 77 43 76 44 32 46
REMARK SMILES IDX 64 47 44 48 63 49 45 50 48 51 62 52 81 53 46 54 47 55 61 57
REMARK SMILES IDX 82 58 49 59 33 60 34 61 42 62 35 63 36 64 40 65 43 66 37 67
REMARK SMILES IDX 38 68 41 69 39 70 65 71 66 72 74 73 67 74 68 75 72 76 75 77
REMARK SMILES IDX 69 78 70 79 73 80 71 81 50 82 51 83 59 84 52 85 53 86 57 87
REMARK SMILES IDX 60 88 54 89 55 90 58 91 56 92
REMARK H PARENT 17 5 10 14 21 26 80 45 48 56
REMARK Flexibility Score: inf
ROOT
ATOM      1  C   UNL A   1      36.306  21.351  25.278  1.00  0.00     0.117 C 
ENDROOT
BRANCH   1   2
ATOM      2  N   UNL A   1      35.538  21.412  26.515  1.00  0.00    -0.356 N 
ATOM      3  C   UNL A   1      34.215  21.719  26.703  1.00  0.00     0.227 C 
ATOM      4  O   UNL A   1      33.754  21.636  27.841  1.00  0.00    -0.274 OA
ATOM      5  H   UNL A   1      36.042  21.203  27.334  1.00  0.00     0.163 HD
BRANCH   3   6
ATOM      6  C   UNL A   1      33.396  22.173  25.494  1.00  0.00     0.103 C 
ATOM      7  C   UNL A   1      31.409  23.595  25.842  1.00  0.00     0.106 C 
ATOM      8  C   UNL A   1      31.045  22.197  25.454  1.00  0.00    -0.006 C 
ATOM      9  C   UNL A   1      32.934  23.623  25.673  1.00  0.00     0.047 C 
ATOM     10  C   UNL A   1      32.120  21.422  25.286  1.00  0.00    -0.016 C 
BRANCH   7  11
ATOM     11  N   UNL A   1      30.646  24.490  24.999  1.00  0.00    -0.350 N 
ATOM     12  O   UNL A   1      30.196  26.153  26.515  1.00  0.00    -0.275 OA
ATOM     13  C   UNL A   1      30.107  25.692  25.381  1.00  0.00     0.222 C 
ATOM     14  H   UNL A   1      30.502  24.211  24.065  1.00  0.00     0.164 HD
BRANCH  13  15
ATOM     15  C   UNL A   1      29.323  26.428  24.308  1.00  0.00     0.122 C 
BRANCH  15  16
ATOM     16  C   UNL A   1      30.171  27.300  23.381  1.00  0.00     0.133 C 
BRANCH  16  17
ATOM     17  N   UNL A   1      29.440  28.406  22.791  1.00  0.00    -0.337 N 
ATOM     18  C   UNL A   1      29.979  29.448  22.088  1.00  0.00     0.107 A 
ATOM     19  C   UNL A   1      28.110  28.667  22.963  1.00  0.00     0.199 A 
ATOM     20  C   UNL A   1      28.945  30.342  21.931  1.00  0.00     0.130 A 
ATOM     21  N   UNL A   1      27.793  29.850  22.488  1.00  0.00    -0.245 NA
ENDBRANCH  16  17
ENDBRANCH  15  16
ENDBRANCH  13  15
ENDBRANCH   7  11
ENDBRANCH   3   6
ENDBRANCH   1   2
BRANCH   1  22
ATOM     22  C   UNL A   1      37.068  22.639  24.961  1.00  0.00     0.042 C 
BRANCH  22  23
ATOM     23  C   UNL A   1      38.038  23.061  26.053  1.00  0.00     0.118 C 
BRANCH  23  24
ATOM     24  N   UNL A   1      39.233  22.216  26.128  1.00  0.00    -0.352 N 
ATOM     25  C   UNL A   1      40.553  22.601  26.250  1.00  0.00     0.251 C 
ATOM     26  H   UNL A   1      39.074  21.246  26.084  1.00  0.00     0.163 HD
ATOM     27  O   UNL A   1      41.461  21.824  25.954  1.00  0.00    -0.269 OA
BRANCH  25  28
ATOM     28  C   UNL A   1      40.871  23.957  26.727  1.00  0.00     0.039 A 
ATOM     29  C   UNL A   1      40.437  25.092  26.033  1.00  0.00     0.014 A 
ATOM     30  C   UNL A   1      41.597  24.087  27.907  1.00  0.00     0.014 A 
ATOM     31  C   UNL A   1      40.658  26.349  26.591  1.00  0.00     0.010 A 
ATOM     32  C   UNL A   1      41.668  25.305  28.534  1.00  0.00     0.010 A 
ATOM     33  C   UNL A   1      41.251  26.446  27.860  1.00  0.00    -0.014 A 
BRANCH  33  34
ATOM     34  C   UNL A   1      41.332  27.727  28.557  1.00  0.00     0.031 A 
ATOM     35  C   UNL A   1      42.492  28.569  28.158  1.00  0.00     0.074 A 
ATOM     36  C   UNL A   1      40.325  28.218  29.312  1.00  0.00     0.049 A 
ATOM     37  N   UNL A   1      43.486  28.945  28.894  1.00  0.00    -0.248 NA
ATOM     38  C   UNL A   1      42.634  28.937  26.740  1.00  0.00     0.031 C 
ATOM     39  C   UNL A   1      38.989  27.646  29.518  1.00  0.00     0.029 A 
ATOM     40  N   UNL A   1      40.241  29.408  29.970  1.00  0.00    -0.354 N 
ATOM     41  C   UNL A   1      44.282  29.755  28.087  1.00  0.00     0.074 A 
ATOM     42  C   UNL A   1      43.814  29.560  26.741  1.00  0.00     0.031 C 
ATOM     43  C   UNL A   1      38.169  28.584  30.040  1.00  0.00     0.029 A 
ATOM     44  C   UNL A   1      38.953  29.760  30.363  1.00  0.00     0.049 A 
ATOM     45  H   UNL A   1      41.027  29.973  30.152  1.00  0.00     0.167 HD
ATOM     46  C   UNL A   1      45.091  30.704  28.638  1.00  0.00     0.037 A 
ATOM     47  C   UNL A   1      38.556  30.943  30.893  1.00  0.00     0.037 A 
ATOM     48  C   UNL A   1      45.270  30.457  30.050  1.00  0.00     0.049 A 
ATOM     49  C   UNL A   1      39.771  31.622  31.401  1.00  0.00     0.074 A 
ATOM     50  C   UNL A   1      45.793  29.427  30.805  1.00  0.00     0.029 A 
ATOM     51  N   UNL A   1      44.526  31.216  30.918  1.00  0.00    -0.354 N 
ATOM     52  N   UNL A   1      40.455  31.219  32.433  1.00  0.00    -0.248 NA
ATOM     53  C   UNL A   1      40.471  32.526  30.502  1.00  0.00     0.031 C 
ATOM     54  C   UNL A   1      44.966  29.359  31.967  1.00  0.00     0.029 A 
ATOM     55  C   UNL A   1      44.031  30.392  31.893  1.00  0.00     0.049 A 
ATOM     56  H   UNL A   1      44.374  32.187  30.852  1.00  0.00     0.167 HD
ATOM     57  C   UNL A   1      41.777  31.431  32.075  1.00  0.00     0.074 A 
ATOM     58  C   UNL A   1      41.719  32.349  30.941  1.00  0.00     0.031 C 
ATOM     59  C   UNL A   1      42.762  30.610  32.545  1.00  0.00     0.037 A 
BRANCH  46  60
ATOM     60  C   UNL A   1      45.377  32.064  28.030  1.00  0.00     0.064 A 
ATOM     61  C   UNL A   1      44.292  32.939  27.791  1.00  0.00     0.173 A 
ATOM     62  C   UNL A   1      46.583  32.421  27.389  1.00  0.00     0.173 A 
ATOM     63  F   UNL A   1      43.093  32.711  28.347  1.00  0.00    -0.203 F 
ATOM     64  C   UNL A   1      44.380  34.005  26.890  1.00  0.00     0.198 A 
ATOM     65  C   UNL A   1      46.681  33.518  26.533  1.00  0.00     0.198 A 
ATOM     66  F   UNL A   1      47.689  31.675  27.469  1.00  0.00    -0.203 F 
ATOM     67  F   UNL A   1      43.282  34.710  26.586  1.00  0.00    -0.200 F 
ATOM     68  C   UNL A   1      45.571  34.285  26.252  1.00  0.00     0.200 A 
ATOM     69  F   UNL A   1      47.844  33.768  25.915  1.00  0.00    -0.200 F 
ATOM     70  F   UNL A   1      45.642  35.259  25.335  1.00  0.00    -0.200 F 
ENDBRANCH  46  60
BRANCH  47  71
ATOM     71  C   UNL A   1      37.257  31.649  30.789  1.00  0.00     0.064 A 
ATOM     72  C   UNL A   1      36.382  31.705  31.888  1.00  0.00     0.173 A 
ATOM     73  C   UNL A   1      36.982  32.529  29.727  1.00  0.00     0.173 A 
ATOM     74  F   UNL A   1      36.589  30.923  32.957  1.00  0.00    -0.203 F 
ATOM     75  C   UNL A   1      35.327  32.621  31.943  1.00  0.00     0.198 A 
ATOM     76  C   UNL A   1      35.923  33.439  29.778  1.00  0.00     0.198 A 
ATOM     77  F   UNL A   1      37.795  32.598  28.663  1.00  0.00    -0.203 F 
ATOM     78  F   UNL A   1      34.565  32.698  33.042  1.00  0.00    -0.200 F 
ATOM     79  C   UNL A   1      35.109  33.498  30.894  1.00  0.00     0.200 A 
ATOM     80  F   UNL A   1      35.742  34.306  28.772  1.00  0.00    -0.200 F 
ATOM     81  F   UNL A   1      34.146  34.426  30.977  1.00  0.00    -0.200 F 
ENDBRANCH  47  71
BRANCH  59  82
ATOM     82  C   UNL A   1      42.423  29.711  33.704  1.00  0.00     0.064 A 
ATOM     83  C   UNL A   1      41.865  28.425  33.585  1.00  0.00     0.173 A 
ATOM     84  C   UNL A   1      42.777  30.140  34.990  1.00  0.00     0.173 A 
ATOM     85  F   UNL A   1      41.594  27.895  32.386  1.00  0.00    -0.203 F 
ATOM     86  C   UNL A   1      41.619  27.636  34.708  1.00  0.00     0.198 A 
ATOM     87  C   UNL A   1      42.572  29.333  36.105  1.00  0.00     0.198 A 
ATOM     88  F   UNL A   1      43.362  31.337  35.163  1.00  0.00    -0.203 F 
ATOM     89  F   UNL A   1      41.059  26.426  34.571  1.00  0.00    -0.200 F 
ATOM     90  C   UNL A   1      41.978  28.089  35.967  1.00  0.00     0.200 A 
ATOM     91  F   UNL A   1      42.968  29.757  37.314  1.00  0.00    -0.200 F 
ATOM     92  F   UNL A   1      41.775  27.318  37.044  1.00  0.00    -0.200 F 
ENDBRANCH  59  82
ENDBRANCH  33  34
ENDBRANCH  25  28
ENDBRANCH  23  24
ENDBRANCH  22  23
ENDBRANCH   1  22
TORSDOF 14
ENDMDL
MODEL 2
REMARK VINA RESULT:     -12.2      1.045      2.043
REMARK SMILES O=C(CCn1ccnc1)N[C@H]1C=C[C@H](C(=O)NCCCNC(=O)c2ccc(-c3c4nc(c(-c5c(F)c(F)c(F)c(F)c5F)c5ccc([nH]5)c(-c5c(F)c(F)c(F)c(F)c5F)c5nc(c(-c6c(F)c(F)c(F)c(F)c6F)c6ccc3[nH]6)C=C5)C=C4)cc2)C1
REMARK SMILES IDX 18 1 17 2 15 3 16 4 14 6 11 7 12 8 87 9 13 10 10 11 1 12
REMARK SMILES IDX 2 13 3 15 4 16 5 17 6 18 9 19 7 20 8 21 19 22 20 23 21 24
REMARK SMILES IDX 22 25 23 27 24 28 25 29 86 30 26 31 85 32 27 33 28 34 29 35
REMARK SMILES IDX 79 36 30 37 84 38 78 39 80 40 31 41 83 42 77 43 76 44 32 46
REMARK SMILES IDX 64 47 44 48 63 49 45 50 48 51 62 52 81 53 46 54 47 55 61 57
REMARK SMILES IDX 82 58 49 59 33 60 34 61 42 62 35 63 36 64 40 65 43 66 37 67
REMARK SMILES IDX 38 68 41 69 39 70 65 71 66 72 74 73 67 74 68 75 72 76 75 77
REMARK SMILES IDX 69 78 70 79 73 80 71 81 50 82 51 83 59 84 52 85 53 86 57 87
REMARK SMILES IDX 60 88 54 89 55 90 58 91 56 92
REMARK H PARENT 17 5 10 14 21 26 80 45 48 56
REMARK Flexibility Score: inf
ROOT
ATOM      1  C   UNL A   1      36.898  21.790  25.758  1.00  0.00     0.117 C 
ENDROOT
BRANCH   1   2
ATOM      2  N   UNL A   1      35.960  20.697  25.540  1.00  0.00    -0.356 N 
ATOM      3  C   UNL A   1      34.780  20.690  24.841  1.00  0.00     0.227 C 
ATOM      4  O   UNL A   1      34.180  19.622  24.723  1.00  0.00    -0.274 OA
ATOM      5  H   UNL A   1      36.210  19.839  25.952  1.00  0.00     0.163 HD
BRANCH   3   6
ATOM      6  C   UNL A   1      34.264  22.014  24.275  1.00  0.00     0.103 C 
ATOM      7  C   UNL A   1      32.207  23.010  25.207  1.00  0.00     0.106 C 
ATOM      8  C   UNL A   1      31.992  22.441  23.841  1.00  0.00    -0.006 C 
ATOM      9  C   UNL A   1      33.726  22.905  25.399  1.00  0.00     0.047 C 
ATOM     10  C   UNL A   1      33.100  21.882  23.345  1.00  0.00    -0.016 C 
BRANCH   7  11
ATOM     11  N   UNL A   1      31.643  24.342  25.214  1.00  0.00    -0.350 N 
ATOM     12  O   UNL A   1      30.319  24.187  27.083  1.00  0.00    -0.275 OA
ATOM     13  C   UNL A   1      30.759  24.837  26.139  1.00  0.00     0.222 C 
ATOM     14  H   UNL A   1      31.920  24.949  24.490  1.00  0.00     0.164 HD
BRANCH  13  15
ATOM     15  C   UNL A   1      30.295  26.264  25.902  1.00  0.00     0.122 C 
BRANCH  15  16
ATOM     16  C   UNL A   1      31.370  27.204  25.356  1.00  0.00     0.133 C 
BRANCH  16  17
ATOM     17  N   UNL A   1      30.994  27.865  24.120  1.00  0.00    -0.337 N 
ATOM     18  C   UNL A   1      30.659  29.183  23.976  1.00  0.00     0.107 A 
ATOM     19  C   UNL A   1      30.773  27.248  22.921  1.00  0.00     0.199 A 
ATOM     20  C   UNL A   1      30.172  29.287  22.695  1.00  0.00     0.130 A 
ATOM     21  N   UNL A   1      30.236  28.077  22.054  1.00  0.00    -0.245 NA
ENDBRANCH  16  17
ENDBRANCH  15  16
ENDBRANCH  13  15
ENDBRANCH   7  11
ENDBRANCH   3   6
ENDBRANCH   1   2
BRANCH   1  22
ATOM     22  C   UNL A   1      38.342  21.450  25.383  1.00  0.00     0.042 C 
BRANCH  22  23
ATOM     23  C   UNL A   1      39.362  21.886  26.423  1.00  0.00     0.118 C 
BRANCH  23  24
ATOM     24  N   UNL A   1      40.742  21.862  25.929  1.00  0.00    -0.352 N 
ATOM     25  C   UNL A   1      41.648  22.901  25.859  1.00  0.00     0.251 C 
ATOM     26  H   UNL A   1      41.065  20.991  25.604  1.00  0.00     0.163 HD
ATOM     27  O   UNL A   1      42.628  22.827  25.117  1.00  0.00    -0.269 OA
BRANCH  25  28
ATOM     28  C   UNL A   1      41.430  24.109  26.671  1.00  0.00     0.039 A 
ATOM     29  C   UNL A   1      41.974  24.231  27.954  1.00  0.00     0.014 A 
ATOM     30  C   UNL A   1      40.684  25.147  26.120  1.00  0.00     0.014 A 
ATOM     31  C   UNL A   1      41.841  25.442  28.631  1.00  0.00     0.010 A 
ATOM     32  C   UNL A   1      40.695  26.384  26.711  1.00  0.00     0.010 A 
ATOM     33  C   UNL A   1      41.223  26.527  27.989  1.00  0.00    -0.014 A 
BRANCH  33  34
ATOM     34  C   UNL A   1      41.227  27.858  28.588  1.00  0.00     0.031 A 
ATOM     35  C   UNL A   1      42.292  28.760  28.071  1.00  0.00     0.074 A 
ATOM     36  C   UNL A   1      40.218  28.321  29.359  1.00  0.00     0.049 A 
ATOM     37  N   UNL A   1      43.284  29.269  28.726  1.00  0.00    -0.248 NA
ATOM     38  C   UNL A   1      42.337  29.031  26.625  1.00  0.00     0.031 C 
ATOM     39  C   UNL A   1      38.946  27.659  29.674  1.00  0.00     0.029 A 
ATOM     40  N   UNL A   1      40.065  29.547  29.935  1.00  0.00    -0.354 N 
ATOM     41  C   UNL A   1      43.970  30.079  27.823  1.00  0.00     0.074 A 
ATOM     42  C   UNL A   1      43.458  29.746  26.520  1.00  0.00     0.031 C 
ATOM     43  C   UNL A   1      38.075  28.564  30.170  1.00  0.00     0.029 A 
ATOM     44  C   UNL A   1      38.771  29.821  30.368  1.00  0.00     0.049 A 
ATOM     45  H   UNL A   1      40.807  30.185  30.035  1.00  0.00     0.167 HD
ATOM     46  C   UNL A   1      44.719  31.129  28.262  1.00  0.00     0.037 A 
ATOM     47  C   UNL A   1      38.300  31.004  30.833  1.00  0.00     0.037 A 
ATOM     48  C   UNL A   1      44.984  31.003  29.676  1.00  0.00     0.049 A 
ATOM     49  C   UNL A   1      39.475  31.816  31.228  1.00  0.00     0.074 A 
ATOM     50  C   UNL A   1      45.627  30.078  30.475  1.00  0.00     0.029 A 
ATOM     51  N   UNL A   1      44.219  31.762  30.526  1.00  0.00    -0.354 N 
ATOM     52  N   UNL A   1      40.238  31.548  32.249  1.00  0.00    -0.248 NA
ATOM     53  C   UNL A   1      40.053  32.704  30.232  1.00  0.00     0.031 C 
ATOM     54  C   UNL A   1      44.864  30.031  31.680  1.00  0.00     0.029 A 
ATOM     55  C   UNL A   1      43.842  30.976  31.582  1.00  0.00     0.049 A 
ATOM     56  H   UNL A   1      43.983  32.710  30.400  1.00  0.00     0.167 HD
ATOM     57  C   UNL A   1      41.519  31.839  31.808  1.00  0.00     0.074 A 
ATOM     58  C   UNL A   1      41.330  32.662  30.616  1.00  0.00     0.031 C 
ATOM     59  C   UNL A   1      42.590  31.138  32.283  1.00  0.00     0.037 A 
BRANCH  46  60
ATOM     60  C   UNL A   1      44.861  32.458  27.546  1.00  0.00     0.064 A 
ATOM     61  C   UNL A   1      46.044  32.709  26.815  1.00  0.00     0.173 A 
ATOM     62  C   UNL A   1      44.061  33.595  27.795  1.00  0.00     0.173 A 
ATOM     63  F   UNL A   1      46.886  31.711  26.510  1.00  0.00    -0.203 F 
ATOM     64  C   UNL A   1      46.449  34.004  26.474  1.00  0.00     0.198 A 
ATOM     65  C   UNL A   1      44.442  34.879  27.405  1.00  0.00     0.198 A 
ATOM     66  F   UNL A   1      42.937  33.541  28.515  1.00  0.00    -0.203 F 
ATOM     67  F   UNL A   1      47.651  34.199  25.916  1.00  0.00    -0.200 F 
ATOM     68  C   UNL A   1      45.652  35.089  26.781  1.00  0.00     0.200 A 
ATOM     69  F   UNL A   1      43.660  35.921  27.722  1.00  0.00    -0.200 F 
ATOM     70  F   UNL A   1      46.068  36.336  26.522  1.00  0.00    -0.200 F 
ENDBRANCH  46  60
BRANCH  47  71
ATOM     71  C   UNL A   1      36.942  31.592  30.748  1.00  0.00     0.064 A 
ATOM     72  C   UNL A   1      36.153  31.743  31.902  1.00  0.00     0.173 A 
ATOM     73  C   UNL A   1      36.513  32.288  29.603  1.00  0.00     0.173 A 
ATOM     74  F   UNL A   1      36.507  31.141  33.046  1.00  0.00    -0.203 F 
ATOM     75  C   UNL A   1      35.032  32.580  31.922  1.00  0.00     0.198 A 
ATOM     76  C   UNL A   1      35.389  33.117  29.622  1.00  0.00     0.198 A 
ATOM     77  F   UNL A   1      37.233  32.260  28.472  1.00  0.00    -0.203 F 
ATOM     78  F   UNL A   1      34.353  32.760  33.064  1.00  0.00    -0.200 F 
ATOM     79  C   UNL A   1      34.661  33.278  30.786  1.00  0.00     0.200 A 
ATOM     80  F   UNL A   1      35.059  33.814  28.525  1.00  0.00    -0.200 F 
ATOM     81  F   UNL A   1      33.634  34.137  30.824  1.00  0.00    -0.200 F 
ENDBRANCH  47  71
BRANCH  59  82
ATOM     82  C   UNL A   1      42.383  30.304  33.519  1.00  0.00     0.064 A 
ATOM     83  C   UNL A   1      42.467  30.789  34.836  1.00  0.00     0.173 A 
ATOM     84  C   UNL A   1      41.978  28.973  33.350  1.00  0.00     0.173 A 
ATOM     85  F   UNL A   1      42.744  32.075  35.085  1.00  0.00    -0.203 F 
ATOM     86  C   UNL A   1      42.219  29.960  35.930  1.00  0.00     0.198 A 
ATOM     87  C   UNL A   1      41.688  28.160  34.442  1.00  0.00     0.198 A 
ATOM     88  F   UNL A   1      41.828  28.467  32.115  1.00  0.00    -0.203 F 
ATOM     89  F   UNL A   1      42.335  30.439  37.177  1.00  0.00    -0.200 F 
ATOM     90  C   UNL A   1      41.824  28.648  35.731  1.00  0.00     0.200 A 
ATOM     91  F   UNL A   1      41.258  26.907  34.241  1.00  0.00    -0.200 F 
ATOM     92  F   UNL A   1      41.551  27.860  36.780  1.00  0.00    -0.200 F 
ENDBRANCH  59  82
ENDBRANCH  33  34
ENDBRANCH  25  28
ENDBRANCH  23  24
ENDBRANCH  22  23
ENDBRANCH   1  22
TORSDOF 14
ENDMDL
MODEL 3
REMARK VINA RESULT:     -12.1      4.600      7.637
REMARK SMILES O=C(CCn1ccnc1)N[C@H]1C=C[C@H](C(=O)NCCCNC(=O)c2ccc(-c3c4nc(c(-c5c(F)c(F)c(F)c(F)c5F)c5ccc([nH]5)c(-c5c(F)c(F)c(F)c(F)c5F)c5nc(c(-c6c(F)c(F)c(F)c(F)c6F)c6ccc3[nH]6)C=C5)C=C4)cc2)C1
REMARK SMILES IDX 18 1 17 2 15 3 16 4 14 6 11 7 12 8 87 9 13 10 10 11 1 12
REMARK SMILES IDX 2 13 3 15 4 16 5 17 6 18 9 19 7 20 8 21 19 22 20 23 21 24
REMARK SMILES IDX 22 25 23 27 24 28 25 29 86 30 26 31 85 32 27 33 28 34 29 35
REMARK SMILES IDX 79 36 30 37 84 38 78 39 80 40 31 41 83 42 77 43 76 44 32 46
REMARK SMILES IDX 64 47 44 48 63 49 45 50 48 51 62 52 81 53 46 54 47 55 61 57
REMARK SMILES IDX 82 58 49 59 33 60 34 61 42 62 35 63 36 64 40 65 43 66 37 67
REMARK SMILES IDX 38 68 41 69 39 70 65 71 66 72 74 73 67 74 68 75 72 76 75 77
REMARK SMILES IDX 69 78 70 79 73 80 71 81 50 82 51 83 59 84 52 85 53 86 57 87
REMARK SMILES IDX 60 88 54 89 55 90 58 91 56 92
REMARK H PARENT 17 5 10 14 21 26 80 45 48 56
REMARK Flexibility Score: inf
ROOT
ATOM      1  C   UNL A   1      45.377  22.382  24.456  1.00  0.00     0.117 C 
ENDROOT
BRANCH   1   2
ATOM      2  N   UNL A   1      46.071  23.632  24.178  1.00  0.00    -0.356 N 
ATOM      3  C   UNL A   1      46.629  24.530  25.051  1.00  0.00     0.227 C 
ATOM      4  O   UNL A   1      47.238  25.493  24.587  1.00  0.00    -0.274 OA
ATOM      5  H   UNL A   1      46.152  23.866  23.225  1.00  0.00     0.163 HD
BRANCH   3   6
ATOM      6  C   UNL A   1      46.437  24.299  26.551  1.00  0.00     0.103 C 
ATOM      7  C   UNL A   1      45.750  26.183  27.989  1.00  0.00     0.106 C 
ATOM      8  C   UNL A   1      47.180  25.801  28.201  1.00  0.00    -0.006 C 
ATOM      9  C   UNL A   1      45.222  25.079  27.064  1.00  0.00     0.047 C 
ATOM     10  C   UNL A   1      47.558  24.795  27.407  1.00  0.00    -0.016 C 
BRANCH   7  11
ATOM     11  N   UNL A   1      45.132  26.286  29.294  1.00  0.00    -0.350 N 
ATOM     12  O   UNL A   1      45.059  24.063  29.860  1.00  0.00    -0.275 OA
ATOM     13  C   UNL A   1      44.842  25.241  30.132  1.00  0.00     0.222 C 
ATOM     14  H   UNL A   1      44.902  27.190  29.609  1.00  0.00     0.164 HD
BRANCH  13  15
ATOM     15  C   UNL A   1      44.165  25.618  31.439  1.00  0.00     0.122 C 
BRANCH  15  16
ATOM     16  C   UNL A   1      45.070  25.555  32.669  1.00  0.00     0.133 C 
BRANCH  16  17
ATOM     17  N   UNL A   1      44.511  24.787  33.765  1.00  0.00    -0.337 N 
ATOM     18  C   UNL A   1      43.791  23.628  33.658  1.00  0.00     0.107 A 
ATOM     19  C   UNL A   1      44.487  25.168  35.078  1.00  0.00     0.199 A 
ATOM     20  C   UNL A   1      43.294  23.401  34.920  1.00  0.00     0.130 A 
ATOM     21  N   UNL A   1      43.724  24.370  35.789  1.00  0.00    -0.245 NA
ENDBRANCH  16  17
ENDBRANCH  15  16
ENDBRANCH  13  15
ENDBRANCH   7  11
ENDBRANCH   3   6
ENDBRANCH   1   2
BRANCH   1  22
ATOM     22  C   UNL A   1      43.860  22.535  24.590  1.00  0.00     0.042 C 
BRANCH  22  23
ATOM     23  C   UNL A   1      43.286  21.866  25.829  1.00  0.00     0.118 C 
BRANCH  23  24
ATOM     24  N   UNL A   1      41.837  21.654  25.757  1.00  0.00    -0.352 N 
ATOM     25  C   UNL A   1      40.830  22.381  26.358  1.00  0.00     0.251 C 
ATOM     26  H   UNL A   1      41.544  20.892  25.207  1.00  0.00     0.163 HD
ATOM     27  O   UNL A   1      39.707  21.897  26.497  1.00  0.00    -0.269 OA
BRANCH  25  28
ATOM     28  C   UNL A   1      41.111  23.741  26.845  1.00  0.00     0.039 A 
ATOM     29  C   UNL A   1      40.716  24.870  26.119  1.00  0.00     0.014 A 
ATOM     30  C   UNL A   1      41.761  23.882  28.068  1.00  0.00     0.014 A 
ATOM     31  C   UNL A   1      40.896  26.132  26.682  1.00  0.00     0.010 A 
ATOM     32  C   UNL A   1      41.787  25.104  28.690  1.00  0.00     0.010 A 
ATOM     33  C   UNL A   1      41.407  26.239  27.985  1.00  0.00    -0.014 A 
BRANCH  33  34
ATOM     34  C   UNL A   1      41.439  27.524  28.677  1.00  0.00     0.031 A 
ATOM     35  C   UNL A   1      42.555  28.417  28.263  1.00  0.00     0.074 A 
ATOM     36  C   UNL A   1      40.420  27.971  29.444  1.00  0.00     0.049 A 
ATOM     37  N   UNL A   1      43.539  28.839  28.985  1.00  0.00    -0.248 NA
ATOM     38  C   UNL A   1      42.663  28.786  26.842  1.00  0.00     0.031 C 
ATOM     39  C   UNL A   1      39.114  27.340  29.667  1.00  0.00     0.029 A 
ATOM     40  N   UNL A   1      40.290  29.159  30.100  1.00  0.00    -0.354 N 
ATOM     41  C   UNL A   1      44.288  29.683  28.167  1.00  0.00     0.074 A 
ATOM     42  C   UNL A   1      43.813  29.463  26.827  1.00  0.00     0.031 C 
ATOM     43  C   UNL A   1      38.258  28.242  30.197  1.00  0.00     0.029 A 
ATOM     44  C   UNL A   1      38.992  29.453  30.507  1.00  0.00     0.049 A 
ATOM     45  H   UNL A   1      41.051  29.759  30.271  1.00  0.00     0.167 HD
ATOM     46  C   UNL A   1      45.059  30.669  28.705  1.00  0.00     0.037 A 
ATOM     47  C   UNL A   1      38.549  30.619  31.039  1.00  0.00     0.037 A 
ATOM     48  C   UNL A   1      45.266  30.435  30.115  1.00  0.00     0.049 A 
ATOM     49  C   UNL A   1      39.737  31.354  31.530  1.00  0.00     0.074 A 
ATOM     50  C   UNL A   1      45.845  29.431  30.867  1.00  0.00     0.029 A 
ATOM     51  N   UNL A   1      44.499  31.162  30.990  1.00  0.00    -0.354 N 
ATOM     52  N   UNL A   1      40.452  30.985  32.555  1.00  0.00    -0.248 NA
ATOM     53  C   UNL A   1      40.385  32.286  30.621  1.00  0.00     0.031 C 
ATOM     54  C   UNL A   1      45.036  29.330  32.039  1.00  0.00     0.029 A 
ATOM     55  C   UNL A   1      44.054  30.319  31.973  1.00  0.00     0.049 A 
ATOM     56  H   UNL A   1      44.304  32.125  30.924  1.00  0.00     0.167 HD
ATOM     57  C   UNL A   1      41.758  31.256  32.181  1.00  0.00     0.074 A 
ATOM     58  C   UNL A   1      41.644  32.166  31.045  1.00  0.00     0.031 C 
ATOM     59  C   UNL A   1      42.785  30.481  32.641  1.00  0.00     0.037 A 
BRANCH  46  60
ATOM     60  C   UNL A   1      45.276  32.039  28.091  1.00  0.00     0.064 A 
ATOM     61  C   UNL A   1      44.148  32.856  27.847  1.00  0.00     0.173 A 
ATOM     62  C   UNL A   1      46.463  32.453  27.447  1.00  0.00     0.173 A 
ATOM     63  F   UNL A   1      42.962  32.571  28.405  1.00  0.00    -0.203 F 
ATOM     64  C   UNL A   1      44.182  33.921  26.941  1.00  0.00     0.198 A 
ATOM     65  C   UNL A   1      46.504  33.550  26.586  1.00  0.00     0.198 A 
ATOM     66  F   UNL A   1      47.605  31.765  27.530  1.00  0.00    -0.203 F 
ATOM     67  F   UNL A   1      43.050  34.567  26.634  1.00  0.00    -0.200 F 
ATOM     68  C   UNL A   1      45.358  34.258  26.301  1.00  0.00     0.200 A 
ATOM     69  F   UNL A   1      47.654  33.855  25.966  1.00  0.00    -0.200 F 
ATOM     70  F   UNL A   1      45.379  35.229  25.379  1.00  0.00    -0.200 F 
ENDBRANCH  46  60
BRANCH  47  71
ATOM     71  C   UNL A   1      37.218  31.264  30.949  1.00  0.00     0.064 A 
ATOM     72  C   UNL A   1      36.471  31.531  32.111  1.00  0.00     0.173 A 
ATOM     73  C   UNL A   1      36.788  31.901  29.771  1.00  0.00     0.173 A 
ATOM     74  F   UNL A   1      36.830  30.991  33.284  1.00  0.00    -0.203 F 
ATOM     75  C   UNL A   1      35.391  32.420  32.103  1.00  0.00     0.198 A 
ATOM     76  C   UNL A   1      35.704  32.783  29.762  1.00  0.00     0.198 A 
ATOM     77  F   UNL A   1      37.471  31.762  28.626  1.00  0.00    -0.203 F 
ATOM     78  F   UNL A   1      34.756  32.709  33.247  1.00  0.00    -0.200 F 
ATOM     79  C   UNL A   1      35.019  33.057  30.932  1.00  0.00     0.200 A 
ATOM     80  F   UNL A   1      35.374  33.419  28.630  1.00  0.00    -0.200 F 
ATOM     81  F   UNL A   1      34.034  33.965  30.938  1.00  0.00    -0.200 F 
ENDBRANCH  47  71
BRANCH  59  82
ATOM     82  C   UNL A   1      42.501  29.572  33.806  1.00  0.00     0.064 A 
ATOM     83  C   UNL A   1      41.926  28.292  33.703  1.00  0.00     0.173 A 
ATOM     84  C   UNL A   1      42.928  29.982  35.076  1.00  0.00     0.173 A 
ATOM     85  F   UNL A   1      41.586  27.778  32.514  1.00  0.00    -0.203 F 
ATOM     86  C   UNL A   1      41.735  27.492  34.829  1.00  0.00     0.198 A 
ATOM     87  C   UNL A   1      42.776  29.163  36.191  1.00  0.00     0.198 A 
ATOM     88  F   UNL A   1      43.531  31.172  35.231  1.00  0.00    -0.203 F 
ATOM     89  F   UNL A   1      41.158  26.287  34.708  1.00  0.00    -0.200 F 
ATOM     90  C   UNL A   1      42.165  27.927  36.071  1.00  0.00     0.200 A 
ATOM     91  F   UNL A   1      43.239  29.570  37.381  1.00  0.00    -0.200 F 
ATOM     92  F   UNL A   1      42.013  27.145  37.149  1.00  0.00    -0.200 F 
ENDBRANCH  59  82
ENDBRANCH  33  34
ENDBRANCH  25  28
ENDBRANCH  23  24
ENDBRANCH  22  23
ENDBRANCH   1  22
TORSDOF 14
ENDMDL
