MODEL 1
REMARK VINA RESULT:     -11.6      0.000      0.000
REMARK SMILES C[C@@H](O)c1ccc(F)cc1OCC(C)(C)C(=O)NCCCNC(=O)c1ccc(-c2c3nc(c(-c4c(F)c(F)c(F)c(F)c4F)c4ccc([nH]4)c(-c4c(F)c(F)c(F)c(F)c4F)c4nc(c(-c5c(F)c(F)c(F)c(F)c5F)c5ccc2[nH]5)C=C4)C=C3)cc1
REMARK SMILES IDX 16 1 17 2 18 3 13 5 14 6 15 7 12 8 11 9 10 10 4 11 5 12 6 13
REMARK SMILES IDX 9 14 7 15 8 16 2 17 1 18 3 19 19 21 20 22 21 23 22 24 23 25
REMARK SMILES IDX 24 27 25 28 26 29 87 30 27 31 86 32 28 33 29 34 30 35 80 36
REMARK SMILES IDX 31 37 85 38 79 39 81 40 32 41 84 42 78 43 77 44 33 46 65 47
REMARK SMILES IDX 45 48 64 49 46 50 49 51 63 52 82 53 47 54 48 55 62 57 83 58
REMARK SMILES IDX 50 59 34 60 35 61 43 62 36 63 37 64 41 65 44 66 38 67 39 68
REMARK SMILES IDX 42 69 40 70 66 71 67 72 75 73 68 74 69 75 73 76 76 77 70 78
REMARK SMILES IDX 71 79 74 80 72 81 51 82 52 83 60 84 53 85 54 86 58 87 61 88
REMARK SMILES IDX 55 89 56 90 59 91 57 92
REMARK H PARENT 18 4 3 20 22 26 81 45 49 56
REMARK Flexibility Score: inf
ROOT
ATOM      1  C   UNL A   1      32.991  29.035  25.113  1.00  0.00     0.229 C 
ATOM      2  O   UNL A   1      33.293  28.798  23.944  1.00  0.00    -0.274 OA
ATOM      3  N   UNL A   1      32.278  30.186  25.358  1.00  0.00    -0.355 N 
ATOM      4  H   UNL A   1      32.157  30.777  24.581  1.00  0.00     0.163 HD
ENDROOT
BRANCH   1   5
ATOM      5  C   UNL A   1      33.425  28.143  26.292  1.00  0.00     0.077 C 
ATOM      6  C   UNL A   1      34.362  28.978  27.189  1.00  0.00     0.025 C 
ATOM      7  C   UNL A   1      34.129  26.916  25.652  1.00  0.00     0.025 C 
BRANCH   5   8
ATOM      8  C   UNL A   1      32.198  27.542  27.054  1.00  0.00     0.245 C 
BRANCH   8   9
ATOM      9  O   UNL A   1      31.006  27.373  26.307  1.00  0.00    -0.492 OA
BRANCH   9  10
ATOM     10  C   UNL A   1      30.696  26.342  25.466  1.00  0.00     0.128 A 
ATOM     11  C   UNL A   1      30.136  26.302  24.165  1.00  0.00     0.022 A 
ATOM     12  C   UNL A   1      30.139  25.050  23.491  1.00  0.00     0.013 A 
ATOM     13  C   UNL A   1      30.679  23.897  24.060  1.00  0.00     0.040 A 
ATOM     14  C   UNL A   1      31.173  25.149  26.045  1.00  0.00     0.086 A 
ATOM     15  C   UNL A   1      31.178  23.955  25.344  1.00  0.00     0.126 A 
ATOM     16  F   UNL A   1      31.699  22.858  25.906  1.00  0.00    -0.207 F 
BRANCH  11  17
ATOM     17  C   UNL A   1      29.576  27.470  23.373  1.00  0.00     0.145 C 
ATOM     18  C   UNL A   1      28.057  27.666  23.495  1.00  0.00     0.044 C 
BRANCH  17  19
ATOM     19  O   UNL A   1      30.224  28.664  23.802  1.00  0.00    -0.389 OA
ATOM     20  H   UNL A   1      30.933  28.888  23.179  1.00  0.00     0.211 HD
ENDBRANCH  17  19
ENDBRANCH  11  17
ENDBRANCH   9  10
ENDBRANCH   8   9
ENDBRANCH   5   8
ENDBRANCH   1   5
BRANCH   3  21
ATOM     21  C   UNL A   1      31.674  30.660  26.599  1.00  0.00     0.117 C 
BRANCH  21  22
ATOM     22  C   UNL A   1      31.523  32.159  26.657  1.00  0.00     0.042 C 
BRANCH  22  23
ATOM     23  C   UNL A   1      32.739  32.824  27.260  1.00  0.00     0.118 C 
BRANCH  23  24
ATOM     24  N   UNL A   1      32.498  34.219  27.623  1.00  0.00    -0.352 N 
ATOM     25  C   UNL A   1      33.052  34.969  28.635  1.00  0.00     0.251 C 
ATOM     26  H   UNL A   1      31.841  34.691  27.062  1.00  0.00     0.163 HD
ATOM     27  O   UNL A   1      32.607  36.069  28.914  1.00  0.00    -0.269 OA
BRANCH  25  28
ATOM     28  C   UNL A   1      34.178  34.398  29.399  1.00  0.00     0.039 A 
ATOM     29  C   UNL A   1      33.919  33.620  30.527  1.00  0.00     0.014 A 
ATOM     30  C   UNL A   1      35.483  34.575  28.940  1.00  0.00     0.014 A 
ATOM     31  C   UNL A   1      34.971  32.942  31.141  1.00  0.00     0.010 A 
ATOM     32  C   UNL A   1      36.499  33.795  29.463  1.00  0.00     0.010 A 
ATOM     33  C   UNL A   1      36.259  32.984  30.581  1.00  0.00    -0.014 A 
BRANCH  33  34
ATOM     34  C   UNL A   1      37.391  32.223  31.157  1.00  0.00     0.031 A 
ATOM     35  C   UNL A   1      37.874  32.561  32.540  1.00  0.00     0.074 A 
ATOM     36  C   UNL A   1      38.033  31.304  30.410  1.00  0.00     0.049 A 
ATOM     37  N   UNL A   1      38.924  32.115  33.181  1.00  0.00    -0.248 NA
ATOM     38  C   UNL A   1      37.104  33.572  33.285  1.00  0.00     0.031 C 
ATOM     39  C   UNL A   1      37.694  30.941  29.033  1.00  0.00     0.029 A 
ATOM     40  N   UNL A   1      39.114  30.512  30.705  1.00  0.00    -0.354 N 
ATOM     41  C   UNL A   1      38.952  32.814  34.380  1.00  0.00     0.074 A 
ATOM     42  C   UNL A   1      37.861  33.760  34.354  1.00  0.00     0.031 C 
ATOM     43  C   UNL A   1      38.523  29.970  28.618  1.00  0.00     0.029 A 
ATOM     44  C   UNL A   1      39.475  29.670  29.682  1.00  0.00     0.049 A 
ATOM     45  H   UNL A   1      39.585  30.543  31.570  1.00  0.00     0.167 HD
ATOM     46  C   UNL A   1      39.793  32.653  35.427  1.00  0.00     0.037 A 
ATOM     47  C   UNL A   1      40.466  28.760  29.616  1.00  0.00     0.037 A 
ATOM     48  C   UNL A   1      40.832  31.663  35.472  1.00  0.00     0.049 A 
ATOM     49  C   UNL A   1      41.362  28.570  30.809  1.00  0.00     0.074 A 
ATOM     50  C   UNL A   1      41.688  31.360  36.514  1.00  0.00     0.029 A 
ATOM     51  N   UNL A   1      41.143  30.802  34.430  1.00  0.00    -0.354 N 
ATOM     52  N   UNL A   1      41.347  29.199  31.959  1.00  0.00    -0.248 NA
ATOM     53  C   UNL A   1      42.409  27.546  30.697  1.00  0.00     0.031 C 
ATOM     54  C   UNL A   1      42.541  30.338  36.092  1.00  0.00     0.029 A 
ATOM     55  C   UNL A   1      42.188  29.974  34.802  1.00  0.00     0.049 A 
ATOM     56  H   UNL A   1      40.689  30.782  33.556  1.00  0.00     0.167 HD
ATOM     57  C   UNL A   1      42.364  28.636  32.716  1.00  0.00     0.074 A 
ATOM     58  C   UNL A   1      42.969  27.603  31.898  1.00  0.00     0.031 C 
ATOM     59  C   UNL A   1      42.763  28.946  33.973  1.00  0.00     0.037 A 
BRANCH  46  60
ATOM     60  C   UNL A   1      39.602  33.542  36.619  1.00  0.00     0.064 A 
ATOM     61  C   UNL A   1      38.767  33.149  37.674  1.00  0.00     0.173 A 
ATOM     62  C   UNL A   1      40.208  34.806  36.696  1.00  0.00     0.173 A 
ATOM     63  F   UNL A   1      38.163  31.951  37.651  1.00  0.00    -0.203 F 
ATOM     64  C   UNL A   1      38.537  33.993  38.758  1.00  0.00     0.198 A 
ATOM     65  C   UNL A   1      40.000  35.635  37.794  1.00  0.00     0.198 A 
ATOM     66  F   UNL A   1      41.029  35.221  35.719  1.00  0.00    -0.203 F 
ATOM     67  F   UNL A   1      37.714  33.607  39.743  1.00  0.00    -0.200 F 
ATOM     68  C   UNL A   1      39.157  35.232  38.820  1.00  0.00     0.200 A 
ATOM     69  F   UNL A   1      40.624  36.818  37.865  1.00  0.00    -0.200 F 
ATOM     70  F   UNL A   1      38.947  36.037  39.870  1.00  0.00    -0.200 F 
ENDBRANCH  46  60
BRANCH  47  71
ATOM     71  C   UNL A   1      40.619  27.929  28.395  1.00  0.00     0.064 A 
ATOM     72  C   UNL A   1      40.027  26.663  28.288  1.00  0.00     0.173 A 
ATOM     73  C   UNL A   1      41.398  28.378  27.319  1.00  0.00     0.173 A 
ATOM     74  F   UNL A   1      39.280  26.183  29.293  1.00  0.00    -0.203 F 
ATOM     75  C   UNL A   1      40.223  25.870  27.158  1.00  0.00     0.198 A 
ATOM     76  C   UNL A   1      41.573  27.595  26.181  1.00  0.00     0.198 A 
ATOM     77  F   UNL A   1      41.971  29.590  27.369  1.00  0.00    -0.203 F 
ATOM     78  F   UNL A   1      39.673  24.650  27.095  1.00  0.00    -0.200 F 
ATOM     79  C   UNL A   1      40.992  26.339  26.104  1.00  0.00     0.200 A 
ATOM     80  F   UNL A   1      42.302  28.060  25.156  1.00  0.00    -0.200 F 
ATOM     81  F   UNL A   1      41.173  25.580  25.014  1.00  0.00    -0.200 F 
ENDBRANCH  47  71
BRANCH  59  82
ATOM     82  C   UNL A   1      43.892  28.154  34.559  1.00  0.00     0.064 A 
ATOM     83  C   UNL A   1      43.635  26.961  35.251  1.00  0.00     0.173 A 
ATOM     84  C   UNL A   1      45.211  28.625  34.519  1.00  0.00     0.173 A 
ATOM     85  F   UNL A   1      42.385  26.477  35.324  1.00  0.00    -0.203 F 
ATOM     86  C   UNL A   1      44.658  26.277  35.899  1.00  0.00     0.198 A 
ATOM     87  C   UNL A   1      46.236  27.925  35.147  1.00  0.00     0.198 A 
ATOM     88  F   UNL A   1      45.504  29.756  33.859  1.00  0.00    -0.203 F 
ATOM     89  F   UNL A   1      44.385  25.160  36.587  1.00  0.00    -0.200 F 
ATOM     90  C   UNL A   1      45.958  26.759  35.845  1.00  0.00     0.200 A 
ATOM     91  F   UNL A   1      47.495  28.379  35.077  1.00  0.00    -0.200 F 
ATOM     92  F   UNL A   1      46.944  26.097  36.466  1.00  0.00    -0.200 F 
ENDBRANCH  59  82
ENDBRANCH  33  34
ENDBRANCH  25  28
ENDBRANCH  23  24
ENDBRANCH  22  23
ENDBRANCH  21  22
ENDBRANCH   3  21
TORSDOF 15
ENDMDL
MODEL 2
REMARK VINA RESULT:     -11.6      1.358      2.755
REMARK SMILES C[C@@H](O)c1ccc(F)cc1OCC(C)(C)C(=O)NCCCNC(=O)c1ccc(-c2c3nc(c(-c4c(F)c(F)c(F)c(F)c4F)c4ccc([nH]4)c(-c4c(F)c(F)c(F)c(F)c4F)c4nc(c(-c5c(F)c(F)c(F)c(F)c5F)c5ccc2[nH]5)C=C4)C=C3)cc1
REMARK SMILES IDX 16 1 17 2 18 3 13 5 14 6 15 7 12 8 11 9 10 10 4 11 5 12 6 13
REMARK SMILES IDX 9 14 7 15 8 16 2 17 1 18 3 19 19 21 20 22 21 23 22 24 23 25
REMARK SMILES IDX 24 27 25 28 26 29 87 30 27 31 86 32 28 33 29 34 30 35 80 36
REMARK SMILES IDX 31 37 85 38 79 39 81 40 32 41 84 42 78 43 77 44 33 46 65 47
REMARK SMILES IDX 45 48 64 49 46 50 49 51 63 52 82 53 47 54 48 55 62 57 83 58
REMARK SMILES IDX 50 59 34 60 35 61 43 62 36 63 37 64 41 65 44 66 38 67 39 68
REMARK SMILES IDX 42 69 40 70 66 71 67 72 75 73 68 74 69 75 73 76 76 77 70 78
REMARK SMILES IDX 71 79 74 80 72 81 51 82 52 83 60 84 53 85 54 86 58 87 61 88
REMARK SMILES IDX 55 89 56 90 59 91 57 92
REMARK H PARENT 18 4 3 20 22 26 81 45 49 56
REMARK Flexibility Score: inf
ROOT
ATOM      1  C   UNL A   1      33.763  29.245  26.608  1.00  0.00     0.229 C 
ATOM      2  O   UNL A   1      34.922  29.138  27.006  1.00  0.00    -0.274 OA
ATOM      3  N   UNL A   1      33.068  30.370  26.988  1.00  0.00    -0.355 N 
ATOM      4  H   UNL A   1      33.531  30.948  27.637  1.00  0.00     0.163 HD
ENDROOT
BRANCH   1   5
ATOM      5  C   UNL A   1      33.058  28.163  25.767  1.00  0.00     0.077 C 
ATOM      6  C   UNL A   1      31.847  27.658  26.579  1.00  0.00     0.025 C 
ATOM      7  C   UNL A   1      34.126  27.064  25.518  1.00  0.00     0.025 C 
BRANCH   5   8
ATOM      8  C   UNL A   1      32.683  28.683  24.340  1.00  0.00     0.245 C 
BRANCH   8   9
ATOM      9  O   UNL A   1      31.742  27.915  23.610  1.00  0.00    -0.492 OA
BRANCH   9  10
ATOM     10  C   UNL A   1      30.470  28.276  23.264  1.00  0.00     0.128 A 
ATOM     11  C   UNL A   1      29.220  27.623  23.395  1.00  0.00     0.022 A 
ATOM     12  C   UNL A   1      28.053  28.384  23.110  1.00  0.00     0.013 A 
ATOM     13  C   UNL A   1      28.109  29.724  22.731  1.00  0.00     0.040 A 
ATOM     14  C   UNL A   1      30.503  29.611  22.813  1.00  0.00     0.086 A 
ATOM     15  C   UNL A   1      29.341  30.322  22.569  1.00  0.00     0.126 A 
ATOM     16  F   UNL A   1      29.415  31.608  22.205  1.00  0.00    -0.207 F 
BRANCH  11  17
ATOM     17  C   UNL A   1      28.974  26.201  23.866  1.00  0.00     0.145 C 
ATOM     18  C   UNL A   1      29.545  25.872  25.254  1.00  0.00     0.044 C 
BRANCH  17  19
ATOM     19  O   UNL A   1      27.570  25.962  23.884  1.00  0.00    -0.389 OA
ATOM     20  H   UNL A   1      27.103  26.760  23.590  1.00  0.00     0.211 HD
ENDBRANCH  17  19
ENDBRANCH  11  17
ENDBRANCH   9  10
ENDBRANCH   8   9
ENDBRANCH   5   8
ENDBRANCH   1   5
BRANCH   3  21
ATOM     21  C   UNL A   1      31.748  30.834  26.574  1.00  0.00     0.117 C 
BRANCH  21  22
ATOM     22  C   UNL A   1      31.583  32.330  26.662  1.00  0.00     0.042 C 
BRANCH  22  23
ATOM     23  C   UNL A   1      32.782  32.990  27.304  1.00  0.00     0.118 C 
BRANCH  23  24
ATOM     24  N   UNL A   1      32.528  34.381  27.676  1.00  0.00    -0.352 N 
ATOM     25  C   UNL A   1      33.059  35.123  28.706  1.00  0.00     0.251 C 
ATOM     26  H   UNL A   1      31.880  34.856  27.107  1.00  0.00     0.163 HD
ATOM     27  O   UNL A   1      32.604  36.219  28.987  1.00  0.00    -0.269 OA
BRANCH  25  28
ATOM     28  C   UNL A   1      34.173  34.549  29.485  1.00  0.00     0.039 A 
ATOM     29  C   UNL A   1      33.899  33.829  30.647  1.00  0.00     0.014 A 
ATOM     30  C   UNL A   1      35.479  34.665  29.010  1.00  0.00     0.014 A 
ATOM     31  C   UNL A   1      34.935  33.144  31.282  1.00  0.00     0.010 A 
ATOM     32  C   UNL A   1      36.475  33.876  29.558  1.00  0.00     0.010 A 
ATOM     33  C   UNL A   1      36.218  33.121  30.712  1.00  0.00    -0.014 A 
BRANCH  33  34
ATOM     34  C   UNL A   1      37.331  32.349  31.311  1.00  0.00     0.031 A 
ATOM     35  C   UNL A   1      37.806  32.701  32.694  1.00  0.00     0.074 A 
ATOM     36  C   UNL A   1      37.964  31.407  30.586  1.00  0.00     0.049 A 
ATOM     37  N   UNL A   1      38.841  32.247  33.353  1.00  0.00    -0.248 NA
ATOM     38  C   UNL A   1      37.046  33.737  33.415  1.00  0.00     0.031 C 
ATOM     39  C   UNL A   1      37.633  31.028  29.211  1.00  0.00     0.029 A 
ATOM     40  N   UNL A   1      39.027  30.601  30.905  1.00  0.00    -0.354 N 
ATOM     41  C   UNL A   1      38.869  32.964  34.542  1.00  0.00     0.074 A 
ATOM     42  C   UNL A   1      37.795  33.929  34.489  1.00  0.00     0.031 C 
ATOM     43  C   UNL A   1      38.448  30.036  28.821  1.00  0.00     0.029 A 
ATOM     44  C   UNL A   1      39.384  29.737  29.900  1.00  0.00     0.049 A 
ATOM     45  H   UNL A   1      39.489  30.638  31.774  1.00  0.00     0.167 HD
ATOM     46  C   UNL A   1      39.696  32.805  35.600  1.00  0.00     0.037 A 
ATOM     47  C   UNL A   1      40.358  28.808  29.859  1.00  0.00     0.037 A 
ATOM     48  C   UNL A   1      40.717  31.797  35.671  1.00  0.00     0.049 A 
ATOM     49  C   UNL A   1      41.238  28.622  31.063  1.00  0.00     0.074 A 
ATOM     50  C   UNL A   1      41.556  31.496  36.727  1.00  0.00     0.029 A 
ATOM     51  N   UNL A   1      41.022  30.914  34.646  1.00  0.00    -0.354 N 
ATOM     52  N   UNL A   1      41.223  29.268  32.203  1.00  0.00    -0.248 NA
ATOM     53  C   UNL A   1      42.269  27.577  30.979  1.00  0.00     0.031 C 
ATOM     54  C   UNL A   1      42.394  30.452  36.330  1.00  0.00     0.029 A 
ATOM     55  C   UNL A   1      42.048  30.074  35.042  1.00  0.00     0.049 A 
ATOM     56  H   UNL A   1      40.577  30.889  33.768  1.00  0.00     0.167 HD
ATOM     57  C   UNL A   1      42.222  28.700  32.980  1.00  0.00     0.074 A 
ATOM     58  C   UNL A   1      42.817  27.643  32.185  1.00  0.00     0.031 C 
ATOM     59  C   UNL A   1      42.614  29.023  34.236  1.00  0.00     0.037 A 
BRANCH  46  60
ATOM     60  C   UNL A   1      39.509  33.716  36.775  1.00  0.00     0.064 A 
ATOM     61  C   UNL A   1      40.166  34.954  36.828  1.00  0.00     0.173 A 
ATOM     62  C   UNL A   1      38.717  33.345  37.872  1.00  0.00     0.173 A 
ATOM     63  F   UNL A   1      40.935  35.358  35.805  1.00  0.00    -0.203 F 
ATOM     64  C   UNL A   1      40.045  35.782  37.941  1.00  0.00     0.198 A 
ATOM     65  C   UNL A   1      38.573  34.188  38.970  1.00  0.00     0.198 A 
ATOM     66  F   UNL A   1      38.054  32.178  37.862  1.00  0.00    -0.203 F 
ATOM     67  F   UNL A   1      40.702  36.949  37.981  1.00  0.00    -0.200 F 
ATOM     68  C   UNL A   1      39.245  35.401  39.009  1.00  0.00     0.200 A 
ATOM     69  F   UNL A   1      37.777  33.831  39.987  1.00  0.00    -0.200 F 
ATOM     70  F   UNL A   1      39.117  36.205  40.073  1.00  0.00    -0.200 F 
ENDBRANCH  46  60
BRANCH  47  71
ATOM     71  C   UNL A   1      40.509  27.955  28.652  1.00  0.00     0.064 A 
ATOM     72  C   UNL A   1      41.303  28.349  27.567  1.00  0.00     0.173 A 
ATOM     73  C   UNL A   1      39.825  26.735  28.551  1.00  0.00     0.173 A 
ATOM     74  F   UNL A   1      41.971  29.512  27.610  1.00  0.00    -0.203 F 
ATOM     75  C   UNL A   1      41.394  27.564  26.419  1.00  0.00     0.198 A 
ATOM     76  C   UNL A   1      39.935  25.940  27.413  1.00  0.00     0.198 A 
ATOM     77  F   UNL A   1      39.065  26.308  29.571  1.00  0.00    -0.203 F 
ATOM     78  F   UNL A   1      42.134  27.980  25.382  1.00  0.00    -0.200 F 
ATOM     79  C   UNL A   1      40.713  26.358  26.344  1.00  0.00     0.200 A 
ATOM     80  F   UNL A   1      39.290  24.766  27.353  1.00  0.00    -0.200 F 
ATOM     81  F   UNL A   1      40.807  25.599  25.244  1.00  0.00    -0.200 F 
ENDBRANCH  47  71
BRANCH  59  82
ATOM     82  C   UNL A   1      43.722  28.220  34.846  1.00  0.00     0.064 A 
ATOM     83  C   UNL A   1      45.059  28.606  34.665  1.00  0.00     0.173 A 
ATOM     84  C   UNL A   1      43.466  27.021  35.524  1.00  0.00     0.173 A 
ATOM     85  F   UNL A   1      45.352  29.742  34.013  1.00  0.00    -0.203 F 
ATOM     86  C   UNL A   1      46.100  27.808  35.126  1.00  0.00     0.198 A 
ATOM     87  C   UNL A   1      44.510  26.238  36.006  1.00  0.00     0.198 A 
ATOM     88  F   UNL A   1      42.202  26.619  35.729  1.00  0.00    -0.203 F 
ATOM     89  F   UNL A   1      47.370  28.176  34.908  1.00  0.00    -0.200 F 
ATOM     90  C   UNL A   1      45.825  26.626  35.797  1.00  0.00     0.200 A 
ATOM     91  F   UNL A   1      44.243  25.106  36.672  1.00  0.00    -0.200 F 
ATOM     92  F   UNL A   1      46.830  25.859  36.243  1.00  0.00    -0.200 F 
ENDBRANCH  59  82
ENDBRANCH  33  34
ENDBRANCH  25  28
ENDBRANCH  23  24
ENDBRANCH  22  23
ENDBRANCH  21  22
ENDBRANCH   3  21
TORSDOF 15
ENDMDL
MODEL 3
REMARK VINA RESULT:     -11.5      1.325      1.811
REMARK SMILES C[C@@H](O)c1ccc(F)cc1OCC(C)(C)C(=O)NCCCNC(=O)c1ccc(-c2c3nc(c(-c4c(F)c(F)c(F)c(F)c4F)c4ccc([nH]4)c(-c4c(F)c(F)c(F)c(F)c4F)c4nc(c(-c5c(F)c(F)c(F)c(F)c5F)c5ccc2[nH]5)C=C4)C=C3)cc1
REMARK SMILES IDX 16 1 17 2 18 3 13 5 14 6 15 7 12 8 11 9 10 10 4 11 5 12 6 13
REMARK SMILES IDX 9 14 7 15 8 16 2 17 1 18 3 19 19 21 20 22 21 23 22 24 23 25
REMARK SMILES IDX 24 27 25 28 26 29 87 30 27 31 86 32 28 33 29 34 30 35 80 36
REMARK SMILES IDX 31 37 85 38 79 39 81 40 32 41 84 42 78 43 77 44 33 46 65 47
REMARK SMILES IDX 45 48 64 49 46 50 49 51 63 52 82 53 47 54 48 55 62 57 83 58
REMARK SMILES IDX 50 59 34 60 35 61 43 62 36 63 37 64 41 65 44 66 38 67 39 68
REMARK SMILES IDX 42 69 40 70 66 71 67 72 75 73 68 74 69 75 73 76 76 77 70 78
REMARK SMILES IDX 71 79 74 80 72 81 51 82 52 83 60 84 53 85 54 86 58 87 61 88
REMARK SMILES IDX 55 89 56 90 59 91 57 92
REMARK H PARENT 18 4 3 20 22 26 81 45 49 56
REMARK Flexibility Score: inf
ROOT
ATOM      1  C   UNL A   1      33.506  28.986  26.487  1.00  0.00     0.229 C 
ATOM      2  O   UNL A   1      34.687  28.782  26.769  1.00  0.00    -0.274 OA
ATOM      3  N   UNL A   1      33.057  30.284  26.562  1.00  0.00    -0.355 N 
ATOM      4  H   UNL A   1      33.699  30.929  26.937  1.00  0.00     0.163 HD
ENDROOT
BRANCH   1   5
ATOM      5  C   UNL A   1      32.522  27.859  26.121  1.00  0.00     0.077 C 
ATOM      6  C   UNL A   1      31.869  28.231  24.773  1.00  0.00     0.025 C 
ATOM      7  C   UNL A   1      31.506  27.792  27.292  1.00  0.00     0.025 C 
BRANCH   5   8
ATOM      8  C   UNL A   1      33.215  26.456  26.116  1.00  0.00     0.245 C 
BRANCH   8   9
ATOM      9  O   UNL A   1      34.042  26.158  25.005  1.00  0.00    -0.492 OA
BRANCH   9  10
ATOM     10  C   UNL A   1      34.410  24.922  24.555  1.00  0.00     0.128 A 
ATOM     11  C   UNL A   1      34.118  24.209  23.366  1.00  0.00     0.022 A 
ATOM     12  C   UNL A   1      34.844  23.009  23.130  1.00  0.00     0.013 A 
ATOM     13  C   UNL A   1      35.819  22.540  24.008  1.00  0.00     0.040 A 
ATOM     14  C   UNL A   1      35.351  24.391  25.460  1.00  0.00     0.086 A 
ATOM     15  C   UNL A   1      36.052  23.230  25.179  1.00  0.00     0.126 A 
ATOM     16  F   UNL A   1      36.984  22.795  26.036  1.00  0.00    -0.207 F 
BRANCH  11  17
ATOM     17  C   UNL A   1      33.147  24.613  22.271  1.00  0.00     0.145 C 
ATOM     18  C   UNL A   1      31.717  24.904  22.751  1.00  0.00     0.044 C 
BRANCH  17  19
ATOM     19  O   UNL A   1      33.652  25.774  21.619  1.00  0.00    -0.389 OA
ATOM     20  H   UNL A   1      33.571  26.538  22.212  1.00  0.00     0.211 HD
ENDBRANCH  17  19
ENDBRANCH  11  17
ENDBRANCH   9  10
ENDBRANCH   8   9
ENDBRANCH   5   8
ENDBRANCH   1   5
BRANCH   3  21
ATOM     21  C   UNL A   1      31.769  30.847  26.170  1.00  0.00     0.117 C 
BRANCH  21  22
ATOM     22  C   UNL A   1      31.467  32.169  26.830  1.00  0.00     0.042 C 
BRANCH  22  23
ATOM     23  C   UNL A   1      32.728  32.885  27.255  1.00  0.00     0.118 C 
BRANCH  23  24
ATOM     24  N   UNL A   1      32.487  34.279  27.627  1.00  0.00    -0.352 N 
ATOM     25  C   UNL A   1      33.042  35.023  28.642  1.00  0.00     0.251 C 
ATOM     26  H   UNL A   1      31.830  34.754  27.069  1.00  0.00     0.163 HD
ATOM     27  O   UNL A   1      32.597  36.122  28.928  1.00  0.00    -0.269 OA
BRANCH  25  28
ATOM     28  C   UNL A   1      34.169  34.447  29.401  1.00  0.00     0.039 A 
ATOM     29  C   UNL A   1      33.913  33.700  30.551  1.00  0.00     0.014 A 
ATOM     30  C   UNL A   1      35.470  34.589  28.919  1.00  0.00     0.014 A 
ATOM     31  C   UNL A   1      34.961  33.015  31.164  1.00  0.00     0.010 A 
ATOM     32  C   UNL A   1      36.479  33.802  29.444  1.00  0.00     0.010 A 
ATOM     33  C   UNL A   1      36.241  33.021  30.584  1.00  0.00    -0.014 A 
BRANCH  33  34
ATOM     34  C   UNL A   1      37.368  32.251  31.159  1.00  0.00     0.031 A 
ATOM     35  C   UNL A   1      37.854  32.585  32.542  1.00  0.00     0.074 A 
ATOM     36  C   UNL A   1      38.002  31.327  30.413  1.00  0.00     0.049 A 
ATOM     37  N   UNL A   1      38.900  32.131  33.183  1.00  0.00    -0.248 NA
ATOM     38  C   UNL A   1      37.091  33.602  33.288  1.00  0.00     0.031 C 
ATOM     39  C   UNL A   1      37.661  30.967  29.035  1.00  0.00     0.029 A 
ATOM     40  N   UNL A   1      39.077  30.528  30.708  1.00  0.00    -0.354 N 
ATOM     41  C   UNL A   1      38.933  32.830  34.383  1.00  0.00     0.074 A 
ATOM     42  C   UNL A   1      37.849  33.784  34.357  1.00  0.00     0.031 C 
ATOM     43  C   UNL A   1      38.482  29.990  28.620  1.00  0.00     0.029 A 
ATOM     44  C   UNL A   1      39.432  29.683  29.684  1.00  0.00     0.049 A 
ATOM     45  H   UNL A   1      39.548  30.555  31.572  1.00  0.00     0.167 HD
ATOM     46  C   UNL A   1      39.773  32.662  35.430  1.00  0.00     0.037 A 
ATOM     47  C   UNL A   1      40.416  28.766  29.618  1.00  0.00     0.037 A 
ATOM     48  C   UNL A   1      40.805  31.665  35.474  1.00  0.00     0.049 A 
ATOM     49  C   UNL A   1      41.311  28.569  30.811  1.00  0.00     0.074 A 
ATOM     50  C   UNL A   1      41.659  31.355  36.516  1.00  0.00     0.029 A 
ATOM     51  N   UNL A   1      41.109  30.802  34.432  1.00  0.00    -0.354 N 
ATOM     52  N   UNL A   1      41.301  29.197  31.961  1.00  0.00    -0.248 NA
ATOM     53  C   UNL A   1      42.351  27.537  30.699  1.00  0.00     0.031 C 
ATOM     54  C   UNL A   1      42.503  30.326  36.094  1.00  0.00     0.029 A 
ATOM     55  C   UNL A   1      42.147  29.965  34.803  1.00  0.00     0.049 A 
ATOM     56  H   UNL A   1      40.654  30.785  33.558  1.00  0.00     0.167 HD
ATOM     57  C   UNL A   1      42.313  28.627  32.718  1.00  0.00     0.074 A 
ATOM     58  C   UNL A   1      42.911  27.589  31.900  1.00  0.00     0.031 C 
ATOM     59  C   UNL A   1      42.715  28.934  33.975  1.00  0.00     0.037 A 
BRANCH  46  60
ATOM     60  C   UNL A   1      39.589  33.553  36.621  1.00  0.00     0.064 A 
ATOM     61  C   UNL A   1      38.754  33.164  37.679  1.00  0.00     0.173 A 
ATOM     62  C   UNL A   1      40.201  34.814  36.696  1.00  0.00     0.173 A 
ATOM     63  F   UNL A   1      38.145  31.969  37.657  1.00  0.00    -0.203 F 
ATOM     64  C   UNL A   1      38.530  34.009  38.763  1.00  0.00     0.198 A 
ATOM     65  C   UNL A   1      39.999  35.644  37.795  1.00  0.00     0.198 A 
ATOM     66  F   UNL A   1      41.022  35.224  35.718  1.00  0.00    -0.203 F 
ATOM     67  F   UNL A   1      37.708  33.628  39.750  1.00  0.00    -0.200 F 
ATOM     68  C   UNL A   1      39.157  35.246  38.823  1.00  0.00     0.200 A 
ATOM     69  F   UNL A   1      40.629  36.824  37.864  1.00  0.00    -0.200 F 
ATOM     70  F   UNL A   1      38.953  36.052  39.873  1.00  0.00    -0.200 F 
ENDBRANCH  46  60
BRANCH  47  71
ATOM     71  C   UNL A   1      40.563  27.933  28.397  1.00  0.00     0.064 A 
ATOM     72  C   UNL A   1      39.949  26.678  28.284  1.00  0.00     0.173 A 
ATOM     73  C   UNL A   1      41.357  28.370  27.327  1.00  0.00     0.173 A 
ATOM     74  F   UNL A   1      39.187  26.211  29.283  1.00  0.00    -0.203 F 
ATOM     75  C   UNL A   1      40.139  25.884  27.154  1.00  0.00     0.198 A 
ATOM     76  C   UNL A   1      41.526  27.586  26.189  1.00  0.00     0.198 A 
ATOM     77  F   UNL A   1      41.952  29.571  27.382  1.00  0.00    -0.203 F 
ATOM     78  F   UNL A   1      39.568  24.673  27.085  1.00  0.00    -0.200 F 
ATOM     79  C   UNL A   1      40.923  26.340  26.106  1.00  0.00     0.200 A 
ATOM     80  F   UNL A   1      42.271  28.039  25.170  1.00  0.00    -0.200 F 
ATOM     81  F   UNL A   1      41.098  25.580  25.016  1.00  0.00    -0.200 F 
ENDBRANCH  47  71
BRANCH  59  82
ATOM     82  C   UNL A   1      43.838  28.133  34.560  1.00  0.00     0.064 A 
ATOM     83  C   UNL A   1      43.572  26.940  35.250  1.00  0.00     0.173 A 
ATOM     84  C   UNL A   1      45.160  28.595  34.524  1.00  0.00     0.173 A 
ATOM     85  F   UNL A   1      42.319  26.464  35.320  1.00  0.00    -0.203 F 
ATOM     86  C   UNL A   1      44.590  26.249  35.897  1.00  0.00     0.198 A 
ATOM     87  C   UNL A   1      46.180  27.887  35.151  1.00  0.00     0.198 A 
ATOM     88  F   UNL A   1      45.462  29.725  33.866  1.00  0.00    -0.203 F 
ATOM     89  F   UNL A   1      44.309  25.132  36.582  1.00  0.00    -0.200 F 
ATOM     90  C   UNL A   1      45.893  26.721  35.846  1.00  0.00     0.200 A 
ATOM     91  F   UNL A   1      47.442  28.333  35.083  1.00  0.00    -0.200 F 
ATOM     92  F   UNL A   1      46.874  26.052  36.468  1.00  0.00    -0.200 F 
ENDBRANCH  59  82
ENDBRANCH  33  34
ENDBRANCH  25  28
ENDBRANCH  23  24
ENDBRANCH  22  23
ENDBRANCH  21  22
ENDBRANCH   3  21
TORSDOF 15
ENDMDL
