MODEL 1
REMARK VINA RESULT:     -12.2      0.000      0.000
REMARK SMILES CC[C@H](C)[C@H](NC(=O)N1CCCCC1)C(=O)NCCCNC(=O)c1ccc(-c2c3nc(c(-c4c(F)c(F)c(F)c(F)c4F)c4ccc([nH]4)c(-c4c(F)c(F)c(F)c(F)c4F)c4nc(c(-c5c(F)c(F)c(F)c(F)c5F)c5ccc2[nH]5)C=C4)C=C3)cc1
REMARK SMILES IDX 19 1 18 2 17 3 15 4 16 5 5 7 3 8 4 9 2 10 1 11 6 12 7 13
REMARK SMILES IDX 8 15 9 16 10 17 14 18 11 19 13 20 12 21 20 22 21 23 22 24
REMARK SMILES IDX 23 26 24 27 25 28 86 29 26 30 85 31 27 32 28 33 29 34 79 35
REMARK SMILES IDX 30 36 84 37 78 38 80 39 31 40 83 41 77 42 76 43 32 45 64 46
REMARK SMILES IDX 44 47 63 48 45 49 48 50 62 51 81 52 46 53 47 54 61 56 82 57
REMARK SMILES IDX 49 58 33 59 34 60 42 61 35 62 36 63 40 64 43 65 37 66 38 67
REMARK SMILES IDX 41 68 39 69 65 70 66 71 74 72 67 73 68 74 72 75 75 76 69 77
REMARK SMILES IDX 70 78 73 79 71 80 50 81 51 82 59 83 52 84 53 85 57 86 60 87
REMARK SMILES IDX 54 88 55 89 58 90 56 91
REMARK H PARENT 17 6 6 14 21 25 80 44 48 55
REMARK Flexibility Score: inf
ROOT
ATOM      1  C   UNL A   1      31.447  32.023  26.510  1.00  0.00     0.042 C 
ENDROOT
BRANCH   1   2
ATOM      2  C   UNL A   1      31.596  30.526  26.299  1.00  0.00     0.117 C 
BRANCH   2   3
ATOM      3  N   UNL A   1      32.568  30.056  25.342  1.00  0.00    -0.354 N 
ATOM      4  C   UNL A   1      32.423  29.210  24.283  1.00  0.00     0.242 C 
ATOM      5  O   UNL A   1      33.324  29.221  23.435  1.00  0.00    -0.273 OA
ATOM      6  H   UNL A   1      33.481  30.400  25.476  1.00  0.00     0.163 HD
BRANCH   4   7
ATOM      7  C   UNL A   1      31.224  28.252  24.117  1.00  0.00     0.176 C 
BRANCH   7   8
ATOM      8  C   UNL A   1      30.041  28.990  23.363  1.00  0.00     0.018 C 
ATOM      9  C   UNL A   1      30.353  29.668  22.022  1.00  0.00     0.010 C 
BRANCH   8  10
ATOM     10  C   UNL A   1      28.747  28.128  23.250  1.00  0.00     0.002 C 
ATOM     11  C   UNL A   1      27.417  28.872  23.085  1.00  0.00     0.004 C 
ENDBRANCH   8  10
ENDBRANCH   7   8
BRANCH   7  12
ATOM     12  N   UNL A   1      30.786  27.424  25.279  1.00  0.00    -0.326 N 
ATOM     13  C   UNL A   1      30.941  26.145  25.726  1.00  0.00     0.318 C 
ATOM     14  H   UNL A   1      30.228  27.950  25.898  1.00  0.00     0.166 HD
ATOM     15  O   UNL A   1      30.052  25.764  26.497  1.00  0.00    -0.249 OA
ATOM     16  N   UNL A   1      32.022  25.344  25.438  1.00  0.00    -0.325 N 
ATOM     17  C   UNL A   1      32.083  23.979  25.976  1.00  0.00     0.121 C 
ATOM     18  C   UNL A   1      33.082  25.646  24.515  1.00  0.00     0.121 C 
ATOM     19  C   UNL A   1      33.468  23.660  26.552  1.00  0.00     0.022 C 
ATOM     20  C   UNL A   1      34.493  25.215  24.876  1.00  0.00     0.022 C 
ATOM     21  C   UNL A   1      34.575  23.853  25.521  1.00  0.00     0.004 C 
ENDBRANCH   7  12
ENDBRANCH   4   7
ENDBRANCH   2   3
ENDBRANCH   1   2
BRANCH   1  22
ATOM     22  C   UNL A   1      32.600  32.795  27.132  1.00  0.00     0.118 C 
BRANCH  22  23
ATOM     23  N   UNL A   1      32.280  34.121  27.621  1.00  0.00    -0.352 N 
ATOM     24  C   UNL A   1      32.938  34.847  28.578  1.00  0.00     0.251 C 
ATOM     25  H   UNL A   1      31.493  34.552  27.217  1.00  0.00     0.163 HD
ATOM     26  O   UNL A   1      32.503  35.937  28.942  1.00  0.00    -0.269 OA
BRANCH  24  27
ATOM     27  C   UNL A   1      34.159  34.298  29.197  1.00  0.00     0.039 A 
ATOM     28  C   UNL A   1      34.020  33.444  30.291  1.00  0.00     0.014 A 
ATOM     29  C   UNL A   1      35.429  34.626  28.708  1.00  0.00     0.014 A 
ATOM     30  C   UNL A   1      35.156  32.889  30.877  1.00  0.00     0.010 A 
ATOM     31  C   UNL A   1      36.560  34.028  29.265  1.00  0.00     0.010 A 
ATOM     32  C   UNL A   1      36.435  33.158  30.356  1.00  0.00    -0.014 A 
BRANCH  32  33
ATOM     33  C   UNL A   1      37.623  32.500  30.956  1.00  0.00     0.031 A 
ATOM     34  C   UNL A   1      38.106  32.880  32.325  1.00  0.00     0.074 A 
ATOM     35  C   UNL A   1      38.258  31.540  30.257  1.00  0.00     0.049 A 
ATOM     36  N   UNL A   1      39.066  32.347  33.041  1.00  0.00    -0.248 NA
ATOM     37  C   UNL A   1      37.436  34.017  32.974  1.00  0.00     0.031 C 
ATOM     38  C   UNL A   1      37.914  31.126  28.895  1.00  0.00     0.029 A 
ATOM     39  N   UNL A   1      39.313  30.730  30.594  1.00  0.00    -0.354 N 
ATOM     40  C   UNL A   1      39.104  33.073  34.224  1.00  0.00     0.074 A 
ATOM     41  C   UNL A   1      38.119  34.126  34.104  1.00  0.00     0.031 C 
ATOM     42  C   UNL A   1      38.715  30.115  28.527  1.00  0.00     0.029 A 
ATOM     43  C   UNL A   1      39.647  29.828  29.614  1.00  0.00     0.049 A 
ATOM     44  H   UNL A   1      39.784  30.789  31.456  1.00  0.00     0.167 HD
ATOM     45  C   UNL A   1      39.874  32.862  35.319  1.00  0.00     0.037 A 
ATOM     46  C   UNL A   1      40.596  28.872  29.596  1.00  0.00     0.037 A 
ATOM     47  C   UNL A   1      40.860  31.816  35.426  1.00  0.00     0.049 A 
ATOM     48  C   UNL A   1      41.445  28.666  30.821  1.00  0.00     0.074 A 
ATOM     49  C   UNL A   1      41.668  31.495  36.502  1.00  0.00     0.029 A 
ATOM     50  N   UNL A   1      41.179  30.925  34.409  1.00  0.00    -0.354 N 
ATOM     51  N   UNL A   1      41.416  29.305  31.967  1.00  0.00    -0.248 NA
ATOM     52  C   UNL A   1      42.449  27.596  30.756  1.00  0.00     0.031 C 
ATOM     53  C   UNL A   1      42.515  30.449  36.119  1.00  0.00     0.029 A 
ATOM     54  C   UNL A   1      42.190  30.072  34.826  1.00  0.00     0.049 A 
ATOM     55  H   UNL A   1      40.750  30.902  33.523  1.00  0.00     0.167 HD
ATOM     56  C   UNL A   1      42.377  28.701  32.765  1.00  0.00     0.074 A 
ATOM     57  C   UNL A   1      42.952  27.626  31.982  1.00  0.00     0.031 C 
ATOM     58  C   UNL A   1      42.754  29.009  34.031  1.00  0.00     0.037 A 
BRANCH  45  59
ATOM     59  C   UNL A   1      39.680  33.782  36.493  1.00  0.00     0.064 A 
ATOM     60  C   UNL A   1      38.855  33.432  37.573  1.00  0.00     0.173 A 
ATOM     61  C   UNL A   1      40.352  35.013  36.558  1.00  0.00     0.173 A 
ATOM     62  F   UNL A   1      38.182  32.272  37.561  1.00  0.00    -0.203 F 
ATOM     63  C   UNL A   1      38.685  34.291  38.656  1.00  0.00     0.198 A 
ATOM     64  C   UNL A   1      40.207  35.854  37.659  1.00  0.00     0.198 A 
ATOM     65  F   UNL A   1      41.161  35.397  35.558  1.00  0.00    -0.203 F 
ATOM     66  F   UNL A   1      37.850  33.956  39.650  1.00  0.00    -0.200 F 
ATOM     67  C   UNL A   1      39.367  35.498  38.702  1.00  0.00     0.200 A 
ATOM     68  F   UNL A   1      40.878  37.013  37.707  1.00  0.00    -0.200 F 
ATOM     69  F   UNL A   1      39.207  36.320  39.749  1.00  0.00    -0.200 F 
ENDBRANCH  45  59
BRANCH  46  70
ATOM     70  C   UNL A   1      40.772  28.022  28.389  1.00  0.00     0.064 A 
ATOM     71  C   UNL A   1      41.571  28.439  27.315  1.00  0.00     0.173 A 
ATOM     72  C   UNL A   1      40.140  26.773  28.282  1.00  0.00     0.173 A 
ATOM     73  F   UNL A   1      42.184  29.631  27.360  1.00  0.00    -0.203 F 
ATOM     74  C   UNL A   1      41.708  27.655  26.171  1.00  0.00     0.198 A 
ATOM     75  C   UNL A   1      40.306  25.975  27.153  1.00  0.00     0.198 A 
ATOM     76  F   UNL A   1      39.371  26.322  29.283  1.00  0.00    -0.203 F 
ATOM     77  F   UNL A   1      42.435  28.103  25.138  1.00  0.00    -0.200 F 
ATOM     78  C   UNL A   1      41.081  26.421  26.093  1.00  0.00     0.200 A 
ATOM     79  F   UNL A   1      39.713  24.774  27.090  1.00  0.00    -0.200 F 
ATOM     80  F   UNL A   1      41.218  25.665  24.996  1.00  0.00    -0.200 F 
ENDBRANCH  46  70
BRANCH  58  81
ATOM     81  C   UNL A   1      43.821  28.153  34.654  1.00  0.00     0.064 A 
ATOM     82  C   UNL A   1      43.513  26.965  35.337  1.00  0.00     0.173 A 
ATOM     83  C   UNL A   1      45.173  28.518  34.555  1.00  0.00     0.173 A 
ATOM     84  F   UNL A   1      42.236  26.577  35.472  1.00  0.00    -0.203 F 
ATOM     85  C   UNL A   1      44.512  26.201  35.932  1.00  0.00     0.198 A 
ATOM     86  C   UNL A   1      46.173  27.731  35.118  1.00  0.00     0.198 A 
ATOM     87  F   UNL A   1      45.526  29.637  33.906  1.00  0.00    -0.203 F 
ATOM     88  F   UNL A   1      44.187  25.108  36.636  1.00  0.00    -0.200 F 
ATOM     89  C   UNL A   1      45.842  26.580  35.818  1.00  0.00     0.200 A 
ATOM     90  F   UNL A   1      47.458  28.089  34.992  1.00  0.00    -0.200 F 
ATOM     91  F   UNL A   1      46.803  25.842  36.389  1.00  0.00    -0.200 F 
ENDBRANCH  58  81
ENDBRANCH  32  33
ENDBRANCH  24  27
ENDBRANCH  22  23
ENDBRANCH   1  22
TORSDOF 13
ENDMDL
MODEL 2
REMARK VINA RESULT:     -12.2      0.075      1.985
REMARK SMILES CC[C@H](C)[C@H](NC(=O)N1CCCCC1)C(=O)NCCCNC(=O)c1ccc(-c2c3nc(c(-c4c(F)c(F)c(F)c(F)c4F)c4ccc([nH]4)c(-c4c(F)c(F)c(F)c(F)c4F)c4nc(c(-c5c(F)c(F)c(F)c(F)c5F)c5ccc2[nH]5)C=C4)C=C3)cc1
REMARK SMILES IDX 19 1 18 2 17 3 15 4 16 5 5 7 3 8 4 9 2 10 1 11 6 12 7 13
REMARK SMILES IDX 8 15 9 16 10 17 14 18 11 19 13 20 12 21 20 22 21 23 22 24
REMARK SMILES IDX 23 26 24 27 25 28 86 29 26 30 85 31 27 32 28 33 29 34 79 35
REMARK SMILES IDX 30 36 84 37 78 38 80 39 31 40 83 41 77 42 76 43 32 45 64 46
REMARK SMILES IDX 44 47 63 48 45 49 48 50 62 51 81 52 46 53 47 54 61 56 82 57
REMARK SMILES IDX 49 58 33 59 34 60 42 61 35 62 36 63 40 64 43 65 37 66 38 67
REMARK SMILES IDX 41 68 39 69 65 70 66 71 74 72 67 73 68 74 72 75 75 76 69 77
REMARK SMILES IDX 70 78 73 79 71 80 50 81 51 82 59 83 52 84 53 85 57 86 60 87
REMARK SMILES IDX 54 88 55 89 58 90 56 91
REMARK H PARENT 17 6 6 14 21 25 80 44 48 55
REMARK Flexibility Score: inf
ROOT
ATOM      1  C   UNL A   1      31.414  31.940  26.624  1.00  0.00     0.042 C 
ENDROOT
BRANCH   1   2
ATOM      2  C   UNL A   1      31.594  30.455  26.363  1.00  0.00     0.117 C 
BRANCH   2   3
ATOM      3  N   UNL A   1      32.540  30.041  25.355  1.00  0.00    -0.354 N 
ATOM      4  C   UNL A   1      32.370  29.241  24.264  1.00  0.00     0.242 C 
ATOM      5  O   UNL A   1      33.243  29.301  23.389  1.00  0.00    -0.273 OA
ATOM      6  H   UNL A   1      33.452  30.390  25.475  1.00  0.00     0.163 HD
BRANCH   4   7
ATOM      7  C   UNL A   1      31.177  28.275  24.094  1.00  0.00     0.176 C 
BRANCH   7   8
ATOM      8  C   UNL A   1      29.993  29.006  23.337  1.00  0.00     0.018 C 
ATOM      9  C   UNL A   1      30.303  29.679  21.993  1.00  0.00     0.010 C 
BRANCH   8  10
ATOM     10  C   UNL A   1      28.701  28.139  23.228  1.00  0.00     0.002 C 
ATOM     11  C   UNL A   1      27.362  28.880  23.125  1.00  0.00     0.004 C 
ENDBRANCH   8  10
ENDBRANCH   7   8
BRANCH   7  12
ATOM     12  N   UNL A   1      30.741  27.444  25.255  1.00  0.00    -0.326 N 
ATOM     13  C   UNL A   1      30.908  26.168  25.706  1.00  0.00     0.318 C 
ATOM     14  H   UNL A   1      30.173  27.965  25.869  1.00  0.00     0.166 HD
ATOM     15  O   UNL A   1      30.018  25.778  26.471  1.00  0.00    -0.249 OA
ATOM     16  N   UNL A   1      31.999  25.379  25.426  1.00  0.00    -0.325 N 
ATOM     17  C   UNL A   1      32.073  24.016  25.967  1.00  0.00     0.121 C 
ATOM     18  C   UNL A   1      33.063  25.691  24.509  1.00  0.00     0.121 C 
ATOM     19  C   UNL A   1      33.457  23.714  26.553  1.00  0.00     0.022 C 
ATOM     20  C   UNL A   1      34.476  25.277  24.881  1.00  0.00     0.022 C 
ATOM     21  C   UNL A   1      34.569  23.917  25.529  1.00  0.00     0.004 C 
ENDBRANCH   7  12
ENDBRANCH   4   7
ENDBRANCH   2   3
ENDBRANCH   1   2
BRANCH   1  22
ATOM     22  C   UNL A   1      32.593  32.743  27.150  1.00  0.00     0.118 C 
BRANCH  22  23
ATOM     23  N   UNL A   1      32.290  34.080  27.616  1.00  0.00    -0.352 N 
ATOM     24  C   UNL A   1      32.960  34.817  28.556  1.00  0.00     0.251 C 
ATOM     25  H   UNL A   1      31.504  34.512  27.208  1.00  0.00     0.163 HD
ATOM     26  O   UNL A   1      32.537  35.918  28.902  1.00  0.00    -0.269 OA
BRANCH  24  27
ATOM     27  C   UNL A   1      34.178  34.267  29.179  1.00  0.00     0.039 A 
ATOM     28  C   UNL A   1      34.034  33.346  30.215  1.00  0.00     0.014 A 
ATOM     29  C   UNL A   1      35.451  34.661  28.749  1.00  0.00     0.014 A 
ATOM     30  C   UNL A   1      35.169  32.790  30.803  1.00  0.00     0.010 A 
ATOM     31  C   UNL A   1      36.584  34.064  29.304  1.00  0.00     0.010 A 
ATOM     32  C   UNL A   1      36.453  33.126  30.338  1.00  0.00    -0.014 A 
BRANCH  32  33
ATOM     33  C   UNL A   1      37.644  32.468  30.934  1.00  0.00     0.031 A 
ATOM     34  C   UNL A   1      38.127  32.844  32.304  1.00  0.00     0.074 A 
ATOM     35  C   UNL A   1      38.279  31.511  30.231  1.00  0.00     0.049 A 
ATOM     36  N   UNL A   1      39.088  32.310  33.017  1.00  0.00    -0.248 NA
ATOM     37  C   UNL A   1      37.456  33.978  32.958  1.00  0.00     0.031 C 
ATOM     38  C   UNL A   1      37.934  31.102  28.868  1.00  0.00     0.029 A 
ATOM     39  N   UNL A   1      39.335  30.702  30.564  1.00  0.00    -0.354 N 
ATOM     40  C   UNL A   1      39.127  33.032  34.202  1.00  0.00     0.074 A 
ATOM     41  C   UNL A   1      38.140  34.084  34.087  1.00  0.00     0.031 C 
ATOM     42  C   UNL A   1      38.736  30.093  28.496  1.00  0.00     0.029 A 
ATOM     43  C   UNL A   1      39.670  29.803  29.581  1.00  0.00     0.049 A 
ATOM     44  H   UNL A   1      39.808  30.759  31.426  1.00  0.00     0.167 HD
ATOM     45  C   UNL A   1      39.899  32.818  35.296  1.00  0.00     0.037 A 
ATOM     46  C   UNL A   1      40.620  28.849  29.559  1.00  0.00     0.037 A 
ATOM     47  C   UNL A   1      40.886  31.773  35.398  1.00  0.00     0.049 A 
ATOM     48  C   UNL A   1      41.471  28.640  30.782  1.00  0.00     0.074 A 
ATOM     49  C   UNL A   1      41.696  31.450  36.472  1.00  0.00     0.029 A 
ATOM     50  N   UNL A   1      41.205  30.887  34.378  1.00  0.00    -0.354 N 
ATOM     51  N   UNL A   1      41.442  29.275  31.930  1.00  0.00    -0.248 NA
ATOM     52  C   UNL A   1      42.476  27.572  30.712  1.00  0.00     0.031 C 
ATOM     53  C   UNL A   1      42.545  30.406  36.085  1.00  0.00     0.029 A 
ATOM     54  C   UNL A   1      42.219  30.033  34.790  1.00  0.00     0.049 A 
ATOM     55  H   UNL A   1      40.776  30.866  33.492  1.00  0.00     0.167 HD
ATOM     56  C   UNL A   1      42.406  28.670  32.725  1.00  0.00     0.074 A 
ATOM     57  C   UNL A   1      42.981  27.599  31.938  1.00  0.00     0.031 C 
ATOM     58  C   UNL A   1      42.784  28.974  33.992  1.00  0.00     0.037 A 
BRANCH  45  59
ATOM     59  C   UNL A   1      39.705  33.734  36.473  1.00  0.00     0.064 A 
ATOM     60  C   UNL A   1      40.341  34.984  36.545  1.00  0.00     0.173 A 
ATOM     61  C   UNL A   1      38.847  33.378  37.526  1.00  0.00     0.173 A 
ATOM     62  F   UNL A   1      41.178  35.373  35.571  1.00  0.00    -0.203 F 
ATOM     63  C   UNL A   1      40.152  35.825  37.639  1.00  0.00     0.198 A 
ATOM     64  C   UNL A   1      38.635  34.237  38.602  1.00  0.00     0.198 A 
ATOM     65  F   UNL A   1      38.206  32.199  37.508  1.00  0.00    -0.203 F 
ATOM     66  F   UNL A   1      40.813  36.990  37.708  1.00  0.00    -0.200 F 
ATOM     67  C   UNL A   1      39.294  35.455  38.662  1.00  0.00     0.200 A 
ATOM     68  F   UNL A   1      37.793  33.883  39.583  1.00  0.00    -0.200 F 
ATOM     69  F   UNL A   1      39.108  36.269  39.711  1.00  0.00    -0.200 F 
ENDBRANCH  45  59
BRANCH  46  70
ATOM     70  C   UNL A   1      40.796  28.003  28.348  1.00  0.00     0.064 A 
ATOM     71  C   UNL A   1      40.156  26.762  28.228  1.00  0.00     0.173 A 
ATOM     72  C   UNL A   1      41.615  28.418  27.286  1.00  0.00     0.173 A 
ATOM     73  F   UNL A   1      39.377  26.311  29.221  1.00  0.00    -0.203 F 
ATOM     74  C   UNL A   1      40.349  25.957  27.107  1.00  0.00     0.198 A 
ATOM     75  C   UNL A   1      41.779  27.628  26.151  1.00  0.00     0.198 A 
ATOM     76  F   UNL A   1      42.245  29.600  27.346  1.00  0.00    -0.203 F 
ATOM     77  F   UNL A   1      39.767  24.752  27.043  1.00  0.00    -0.200 F 
ATOM     78  C   UNL A   1      41.155  26.393  26.066  1.00  0.00     0.200 A 
ATOM     79  F   UNL A   1      42.544  28.062  25.139  1.00  0.00    -0.200 F 
ATOM     80  F   UNL A   1      41.336  25.621  24.986  1.00  0.00    -0.200 F 
ENDBRANCH  46  70
BRANCH  58  81
ATOM     81  C   UNL A   1      43.853  28.118  34.610  1.00  0.00     0.064 A 
ATOM     82  C   UNL A   1      45.214  28.447  34.511  1.00  0.00     0.173 A 
ATOM     83  C   UNL A   1      43.510  26.958  35.323  1.00  0.00     0.173 A 
ATOM     84  F   UNL A   1      45.598  29.537  33.829  1.00  0.00    -0.203 F 
ATOM     85  C   UNL A   1      46.192  27.625  35.066  1.00  0.00     0.198 A 
ATOM     86  C   UNL A   1      44.488  26.160  35.910  1.00  0.00     0.198 A 
ATOM     87  F   UNL A   1      42.224  26.601  35.458  1.00  0.00    -0.203 F 
ATOM     88  F   UNL A   1      47.488  27.924  34.900  1.00  0.00    -0.200 F 
ATOM     89  C   UNL A   1      45.829  26.486  35.770  1.00  0.00     0.200 A 
ATOM     90  F   UNL A   1      44.135  25.070  36.604  1.00  0.00    -0.200 F 
ATOM     91  F   UNL A   1      46.771  25.698  36.304  1.00  0.00    -0.200 F 
ENDBRANCH  58  81
ENDBRANCH  32  33
ENDBRANCH  24  27
ENDBRANCH  22  23
ENDBRANCH   1  22
TORSDOF 13
ENDMDL
MODEL 3
REMARK VINA RESULT:     -12.0      0.623      7.559
REMARK SMILES CC[C@H](C)[C@H](NC(=O)N1CCCCC1)C(=O)NCCCNC(=O)c1ccc(-c2c3nc(c(-c4c(F)c(F)c(F)c(F)c4F)c4ccc([nH]4)c(-c4c(F)c(F)c(F)c(F)c4F)c4nc(c(-c5c(F)c(F)c(F)c(F)c5F)c5ccc2[nH]5)C=C4)C=C3)cc1
REMARK SMILES IDX 19 1 18 2 17 3 15 4 16 5 5 7 3 8 4 9 2 10 1 11 6 12 7 13
REMARK SMILES IDX 8 15 9 16 10 17 14 18 11 19 13 20 12 21 20 22 21 23 22 24
REMARK SMILES IDX 23 26 24 27 25 28 86 29 26 30 85 31 27 32 28 33 29 34 79 35
REMARK SMILES IDX 30 36 84 37 78 38 80 39 31 40 83 41 77 42 76 43 32 45 64 46
REMARK SMILES IDX 44 47 63 48 45 49 48 50 62 51 81 52 46 53 47 54 61 56 82 57
REMARK SMILES IDX 49 58 33 59 34 60 42 61 35 62 36 63 40 64 43 65 37 66 38 67
REMARK SMILES IDX 41 68 39 69 65 70 66 71 74 72 67 73 68 74 72 75 75 76 69 77
REMARK SMILES IDX 70 78 73 79 71 80 50 81 51 82 59 83 52 84 53 85 57 86 60 87
REMARK SMILES IDX 54 88 55 89 58 90 56 91
REMARK H PARENT 17 6 6 14 21 25 80 44 48 55
REMARK Flexibility Score: inf
ROOT
ATOM      1  C   UNL A   1      31.426  32.092  26.418  1.00  0.00     0.042 C 
ENDROOT
BRANCH   1   2
ATOM      2  C   UNL A   1      31.459  30.591  26.191  1.00  0.00     0.117 C 
BRANCH   2   3
ATOM      3  N   UNL A   1      32.457  30.048  25.303  1.00  0.00    -0.354 N 
ATOM      4  C   UNL A   1      32.334  29.156  24.280  1.00  0.00     0.242 C 
ATOM      5  O   UNL A   1      33.272  29.099  23.474  1.00  0.00    -0.273 OA
ATOM      6  H   UNL A   1      33.373  30.371  25.463  1.00  0.00     0.163 HD
BRANCH   4   7
ATOM      7  C   UNL A   1      31.114  28.225  24.104  1.00  0.00     0.176 C 
BRANCH   7   8
ATOM      8  C   UNL A   1      29.944  29.000  23.369  1.00  0.00     0.018 C 
ATOM      9  C   UNL A   1      30.265  29.701  22.042  1.00  0.00     0.010 C 
BRANCH   8  10
ATOM     10  C   UNL A   1      28.634  28.163  23.240  1.00  0.00     0.002 C 
ATOM     11  C   UNL A   1      27.314  28.933  23.118  1.00  0.00     0.004 C 
ENDBRANCH   8  10
ENDBRANCH   7   8
BRANCH   7  12
ATOM     12  N   UNL A   1      30.665  27.387  25.255  1.00  0.00    -0.326 N 
ATOM     13  C   UNL A   1      30.822  26.107  25.696  1.00  0.00     0.318 C 
ATOM     14  H   UNL A   1      30.095  27.906  25.868  1.00  0.00     0.166 HD
ATOM     15  O   UNL A   1      29.925  25.715  26.452  1.00  0.00    -0.249 OA
ATOM     16  N   UNL A   1      31.912  25.314  25.419  1.00  0.00    -0.325 N 
ATOM     17  C   UNL A   1      31.975  23.947  25.950  1.00  0.00     0.121 C 
ATOM     18  C   UNL A   1      32.984  25.629  24.513  1.00  0.00     0.121 C 
ATOM     19  C   UNL A   1      33.354  23.634  26.544  1.00  0.00     0.022 C 
ATOM     20  C   UNL A   1      34.393  25.205  24.892  1.00  0.00     0.022 C 
ATOM     21  C   UNL A   1      34.474  23.840  25.530  1.00  0.00     0.004 C 
ENDBRANCH   7  12
ENDBRANCH   4   7
ENDBRANCH   2   3
ENDBRANCH   1   2
BRANCH   1  22
ATOM     22  C   UNL A   1      32.520  32.733  27.258  1.00  0.00     0.118 C 
BRANCH  22  23
ATOM     23  N   UNL A   1      32.299  34.114  27.635  1.00  0.00    -0.352 N 
ATOM     24  C   UNL A   1      32.973  34.849  28.574  1.00  0.00     0.251 C 
ATOM     25  H   UNL A   1      31.576  34.582  27.157  1.00  0.00     0.163 HD
ATOM     26  O   UNL A   1      32.622  35.997  28.835  1.00  0.00    -0.269 OA
BRANCH  24  27
ATOM     27  C   UNL A   1      34.105  34.242  29.298  1.00  0.00     0.039 A 
ATOM     28  C   UNL A   1      33.828  33.391  30.367  1.00  0.00     0.014 A 
ATOM     29  C   UNL A   1      35.428  34.514  28.930  1.00  0.00     0.014 A 
ATOM     30  C   UNL A   1      34.879  32.783  31.051  1.00  0.00     0.010 A 
ATOM     31  C   UNL A   1      36.476  33.863  29.583  1.00  0.00     0.010 A 
ATOM     32  C   UNL A   1      36.211  32.995  30.652  1.00  0.00    -0.014 A 
BRANCH  32  33
ATOM     33  C   UNL A   1      37.308  32.280  31.353  1.00  0.00     0.031 A 
ATOM     34  C   UNL A   1      38.022  31.133  30.699  1.00  0.00     0.074 A 
ATOM     35  C   UNL A   1      37.667  32.688  32.585  1.00  0.00     0.049 A 
ATOM     36  N   UNL A   1      39.061  30.457  31.123  1.00  0.00    -0.248 NA
ATOM     37  C   UNL A   1      37.493  30.671  29.407  1.00  0.00     0.031 C 
ATOM     38  C   UNL A   1      37.009  33.753  33.343  1.00  0.00     0.029 A 
ATOM     39  N   UNL A   1      38.678  32.267  33.412  1.00  0.00    -0.354 N 
ATOM     40  C   UNL A   1      39.317  29.503  30.147  1.00  0.00     0.074 A 
ATOM     41  C   UNL A   1      38.285  29.643  29.141  1.00  0.00     0.031 C 
ATOM     42  C   UNL A   1      37.655  33.930  34.505  1.00  0.00     0.029 A 
ATOM     43  C   UNL A   1      38.754  32.972  34.588  1.00  0.00     0.049 A 
ATOM     44  H   UNL A   1      39.290  31.530  33.185  1.00  0.00     0.167 HD
ATOM     45  C   UNL A   1      40.335  28.612  30.083  1.00  0.00     0.037 A 
ATOM     46  C   UNL A   1      39.618  32.863  35.616  1.00  0.00     0.037 A 
ATOM     47  C   UNL A   1      41.354  28.474  31.094  1.00  0.00     0.049 A 
ATOM     48  C   UNL A   1      40.733  31.857  35.525  1.00  0.00     0.074 A 
ATOM     49  C   UNL A   1      42.447  27.626  31.111  1.00  0.00     0.029 A 
ATOM     50  N   UNL A   1      41.395  29.199  32.278  1.00  0.00    -0.354 N 
ATOM     51  N   UNL A   1      41.015  31.016  34.558  1.00  0.00    -0.248 NA
ATOM     52  C   UNL A   1      41.659  31.794  36.664  1.00  0.00     0.031 C 
ATOM     53  C   UNL A   1      43.118  27.797  32.328  1.00  0.00     0.029 A 
ATOM     54  C   UNL A   1      42.481  28.800  33.043  1.00  0.00     0.049 A 
ATOM     55  H   UNL A   1      40.748  29.896  32.536  1.00  0.00     0.167 HD
ATOM     56  C   UNL A   1      42.161  30.344  34.959  1.00  0.00     0.074 A 
ATOM     57  C   UNL A   1      42.538  30.895  36.245  1.00  0.00     0.031 C 
ATOM     58  C   UNL A   1      42.840  29.356  34.323  1.00  0.00     0.037 A 
BRANCH  45  59
ATOM     59  C   UNL A   1      40.399  27.713  28.879  1.00  0.00     0.064 A 
ATOM     60  C   UNL A   1      41.192  28.032  27.765  1.00  0.00     0.173 A 
ATOM     61  C   UNL A   1      39.689  26.503  28.848  1.00  0.00     0.173 A 
ATOM     62  F   UNL A   1      41.887  29.180  27.737  1.00  0.00    -0.203 F 
ATOM     63  C   UNL A   1      41.246  27.192  26.656  1.00  0.00     0.198 A 
ATOM     64  C   UNL A   1      39.772  25.648  27.751  1.00  0.00     0.198 A 
ATOM     65  F   UNL A   1      38.921  26.142  29.887  1.00  0.00    -0.203 F 
ATOM     66  F   UNL A   1      41.970  27.545  25.585  1.00  0.00    -0.200 F 
ATOM     67  C   UNL A   1      40.543  25.997  26.653  1.00  0.00     0.200 A 
ATOM     68  F   UNL A   1      39.103  24.487  27.757  1.00  0.00    -0.200 F 
ATOM     69  F   UNL A   1      40.601  25.186  25.587  1.00  0.00    -0.200 F 
ENDBRANCH  45  59
BRANCH  46  70
ATOM     70  C   UNL A   1      39.478  33.748  36.803  1.00  0.00     0.064 A 
ATOM     71  C   UNL A   1      38.719  33.359  37.915  1.00  0.00     0.173 A 
ATOM     72  C   UNL A   1      40.097  35.007  36.847  1.00  0.00     0.173 A 
ATOM     73  F   UNL A   1      38.093  32.173  37.917  1.00  0.00    -0.203 F 
ATOM     74  C   UNL A   1      38.562  34.203  39.012  1.00  0.00     0.198 A 
ATOM     75  C   UNL A   1      39.968  35.836  37.959  1.00  0.00     0.198 A 
ATOM     76  F   UNL A   1      40.841  35.426  35.813  1.00  0.00    -0.203 F 
ATOM     77  F   UNL A   1      37.787  33.827  40.039  1.00  0.00    -0.200 F 
ATOM     78  C   UNL A   1      39.192  35.438  39.036  1.00  0.00     0.200 A 
ATOM     79  F   UNL A   1      40.594  37.020  37.985  1.00  0.00    -0.200 F 
ATOM     80  F   UNL A   1      39.045  36.248  40.094  1.00  0.00    -0.200 F 
ENDBRANCH  46  70
BRANCH  58  81
ATOM     81  C   UNL A   1      44.074  28.829  35.001  1.00  0.00     0.064 A 
ATOM     82  C   UNL A   1      44.028  27.727  35.870  1.00  0.00     0.173 A 
ATOM     83  C   UNL A   1      45.322  29.427  34.767  1.00  0.00     0.173 A 
ATOM     84  F   UNL A   1      42.859  27.127  36.138  1.00  0.00    -0.203 F 
ATOM     85  C   UNL A   1      45.177  27.272  36.510  1.00  0.00     0.198 A 
ATOM     86  C   UNL A   1      46.475  28.944  35.380  1.00  0.00     0.198 A 
ATOM     87  F   UNL A   1      45.426  30.476  33.939  1.00  0.00    -0.203 F 
ATOM     88  F   UNL A   1      45.097  26.262  37.388  1.00  0.00    -0.200 F 
ATOM     89  C   UNL A   1      46.401  27.876  36.261  1.00  0.00     0.200 A 
ATOM     90  F   UNL A   1      47.659  29.518  35.124  1.00  0.00    -0.200 F 
ATOM     91  F   UNL A   1      47.506  27.436  36.877  1.00  0.00    -0.200 F 
ENDBRANCH  58  81
ENDBRANCH  32  33
ENDBRANCH  24  27
ENDBRANCH  22  23
ENDBRANCH   1  22
TORSDOF 13
ENDMDL
