MODEL 1
REMARK VINA RESULT:     -13.1      0.000      0.000
REMARK SMILES CC[C@H](C)[C@H](NC(=O)[C@H](C)Oc1ccc2c(C)c(C)c(=O)oc2c1C)C(=O)NCCCNC(=O)c1ccc(-c2c3nc(c(-c4c(F)c(F)c(F)c(F)c4F)c4ccc([nH]4)c(-c4c(F)c(F)c(F)c(F)c4F)c4nc(c(-c5c(F)c(F)c(F)c(F)c5F)c5ccc2[nH]5)C=C4)C=C3)cc1
REMARK SMILES IDX 29 1 28 2 26 3 27 4 5 6 3 7 4 8 2 9 1 10 6 11 7 12 8 14 9 15
REMARK SMILES IDX 10 16 11 17 12 18 13 19 24 20 14 21 23 22 25 23 15 24 22 25
REMARK SMILES IDX 16 26 20 27 17 28 18 29 21 30 19 31 30 32 31 33 32 34 33 35
REMARK SMILES IDX 34 37 35 38 36 39 97 40 37 41 96 42 38 43 39 44 40 45 90 46
REMARK SMILES IDX 41 47 95 48 89 49 91 50 42 51 94 52 88 53 87 54 43 56 75 57
REMARK SMILES IDX 55 58 74 59 56 60 59 61 73 62 92 63 57 64 58 65 72 67 93 68
REMARK SMILES IDX 60 69 44 70 45 71 53 72 46 73 47 74 51 75 54 76 48 77 49 78
REMARK SMILES IDX 52 79 50 80 76 81 77 82 85 83 78 84 79 85 83 86 86 87 80 88
REMARK SMILES IDX 81 89 84 90 82 91 61 92 62 93 70 94 63 95 64 96 68 97 71 98
REMARK SMILES IDX 65 99 66 100 69 101 67 102
REMARK H PARENT 28 5 6 13 32 36 91 55 59 66
REMARK Flexibility Score: inf
ROOT
ATOM      1  C   UNL A   1      31.925  30.735  26.833  1.00  0.00     0.117 C 
ENDROOT
BRANCH   1   2
ATOM      2  N   UNL A   1      33.318  30.422  27.057  1.00  0.00    -0.354 N 
ATOM      3  C   UNL A   1      34.083  29.432  26.547  1.00  0.00     0.242 C 
ATOM      4  O   UNL A   1      35.281  29.435  26.847  1.00  0.00    -0.273 OA
ATOM      5  H   UNL A   1      33.783  31.025  27.681  1.00  0.00     0.163 HD
BRANCH   3   6
ATOM      6  C   UNL A   1      33.510  28.396  25.580  1.00  0.00     0.174 C 
BRANCH   6   7
ATOM      7  C   UNL A   1      33.529  26.905  26.073  1.00  0.00     0.018 C 
ATOM      8  C   UNL A   1      32.221  26.418  26.722  1.00  0.00     0.010 C 
BRANCH   7   9
ATOM      9  C   UNL A   1      34.025  25.801  25.103  1.00  0.00     0.002 C 
ATOM     10  C   UNL A   1      34.383  24.452  25.709  1.00  0.00     0.004 C 
ENDBRANCH   7   9
ENDBRANCH   6   7
BRANCH   6  11
ATOM     11  N   UNL A   1      33.982  28.612  24.209  1.00  0.00    -0.341 N 
ATOM     12  C   UNL A   1      33.338  28.675  23.013  1.00  0.00     0.261 C 
ATOM     13  H   UNL A   1      34.956  28.735  24.140  1.00  0.00     0.164 HD
ATOM     14  O   UNL A   1      34.088  28.703  22.025  1.00  0.00    -0.271 OA
BRANCH  12  15
ATOM     15  C   UNL A   1      31.787  28.798  22.801  1.00  0.00     0.258 C 
ATOM     16  C   UNL A   1      31.087  29.477  23.978  1.00  0.00     0.064 C 
BRANCH  15  17
ATOM     17  O   UNL A   1      30.915  27.846  22.195  1.00  0.00    -0.480 OA
BRANCH  17  18
ATOM     18  C   UNL A   1      30.869  26.632  22.807  1.00  0.00     0.127 A 
ATOM     19  C   UNL A   1      29.980  26.461  23.871  1.00  0.00     0.047 A 
ATOM     20  C   UNL A   1      31.645  25.566  22.352  1.00  0.00     0.035 A 
ATOM     21  C   UNL A   1      29.987  25.271  24.606  1.00  0.00     0.016 A 
ATOM     22  C   UNL A   1      31.614  24.375  23.100  1.00  0.00     0.145 A 
ATOM     23  C   UNL A   1      32.467  25.655  21.097  1.00  0.00     0.052 C 
ATOM     24  C   UNL A   1      30.847  24.221  24.258  1.00  0.00     0.021 A 
ATOM     25  O   UNL A   1      32.417  23.315  22.638  1.00  0.00    -0.422 OA
ATOM     26  C   UNL A   1      31.024  23.007  25.078  1.00  0.00    -0.030 A 
ATOM     27  C   UNL A   1      32.486  22.100  23.296  1.00  0.00     0.339 A 
ATOM     28  C   UNL A   1      30.382  22.984  26.443  1.00  0.00     0.045 C 
ATOM     29  C   UNL A   1      31.799  22.006  24.612  1.00  0.00     0.038 A 
ATOM     30  O   UNL A   1      33.128  21.167  22.826  1.00  0.00    -0.246 OA
ATOM     31  C   UNL A   1      32.047  20.729  25.371  1.00  0.00     0.052 C 
ENDBRANCH  17  18
ENDBRANCH  15  17
ENDBRANCH  12  15
ENDBRANCH   6  11
ENDBRANCH   3   6
ENDBRANCH   1   2
BRANCH   1  32
ATOM     32  C   UNL A   1      31.680  32.229  26.873  1.00  0.00     0.042 C 
BRANCH  32  33
ATOM     33  C   UNL A   1      32.857  33.001  27.447  1.00  0.00     0.118 C 
BRANCH  33  34
ATOM     34  N   UNL A   1      32.534  34.402  27.705  1.00  0.00    -0.352 N 
ATOM     35  C   UNL A   1      33.007  35.215  28.706  1.00  0.00     0.251 C 
ATOM     36  H   UNL A   1      31.895  34.817  27.081  1.00  0.00     0.163 HD
ATOM     37  O   UNL A   1      32.510  36.310  28.933  1.00  0.00    -0.269 OA
BRANCH  35  38
ATOM     38  C   UNL A   1      34.120  34.708  29.521  1.00  0.00     0.039 A 
ATOM     39  C   UNL A   1      33.860  34.180  30.785  1.00  0.00     0.014 A 
ATOM     40  C   UNL A   1      35.398  34.650  28.957  1.00  0.00     0.014 A 
ATOM     41  C   UNL A   1      34.884  33.525  31.464  1.00  0.00     0.010 A 
ATOM     42  C   UNL A   1      36.381  33.907  29.586  1.00  0.00     0.010 A 
ATOM     43  C   UNL A   1      36.139  33.360  30.855  1.00  0.00    -0.014 A 
BRANCH  43  44
ATOM     44  C   UNL A   1      37.249  32.687  31.564  1.00  0.00     0.031 A 
ATOM     45  C   UNL A   1      37.934  31.530  30.895  1.00  0.00     0.074 A 
ATOM     46  C   UNL A   1      37.597  33.076  32.804  1.00  0.00     0.049 A 
ATOM     47  N   UNL A   1      38.908  30.779  31.339  1.00  0.00    -0.248 NA
ATOM     48  C   UNL A   1      37.434  31.139  29.565  1.00  0.00     0.031 C 
ATOM     49  C   UNL A   1      36.949  34.138  33.576  1.00  0.00     0.029 A 
ATOM     50  N   UNL A   1      38.583  32.614  33.638  1.00  0.00    -0.354 N 
ATOM     51  C   UNL A   1      39.122  29.829  30.351  1.00  0.00     0.074 A 
ATOM     52  C   UNL A   1      38.134  30.042  29.321  1.00  0.00     0.031 C 
ATOM     53  C   UNL A   1      37.574  34.264  34.760  1.00  0.00     0.029 A 
ATOM     54  C   UNL A   1      38.653  33.283  34.835  1.00  0.00     0.049 A 
ATOM     55  H   UNL A   1      39.185  31.871  33.401  1.00  0.00     0.167 HD
ATOM     56  C   UNL A   1      40.093  28.890  30.287  1.00  0.00     0.037 A 
ATOM     57  C   UNL A   1      39.504  33.125  35.866  1.00  0.00     0.037 A 
ATOM     58  C   UNL A   1      41.112  28.729  31.282  1.00  0.00     0.049 A 
ATOM     59  C   UNL A   1      40.588  32.085  35.762  1.00  0.00     0.074 A 
ATOM     60  C   UNL A   1      42.207  27.887  31.264  1.00  0.00     0.029 A 
ATOM     61  N   UNL A   1      41.162  29.437  32.473  1.00  0.00    -0.354 N 
ATOM     62  N   UNL A   1      40.850  31.262  34.776  1.00  0.00    -0.248 NA
ATOM     63  C   UNL A   1      41.499  31.954  36.908  1.00  0.00     0.031 C 
ATOM     64  C   UNL A   1      42.904  28.061  32.461  1.00  0.00     0.029 A 
ATOM     65  C   UNL A   1      42.258  29.032  33.212  1.00  0.00     0.049 A 
ATOM     66  H   UNL A   1      40.515  30.125  32.751  1.00  0.00     0.167 HD
ATOM     67  C   UNL A   1      41.960  30.530  35.172  1.00  0.00     0.074 A 
ATOM     68  C   UNL A   1      42.334  31.016  36.484  1.00  0.00     0.031 C 
ATOM     69  C   UNL A   1      42.609  29.540  34.512  1.00  0.00     0.037 A 
BRANCH  56  70
ATOM     70  C   UNL A   1      40.121  28.002  29.083  1.00  0.00     0.064 A 
ATOM     71  C   UNL A   1      40.831  28.363  27.928  1.00  0.00     0.173 A 
ATOM     72  C   UNL A   1      39.464  26.765  29.093  1.00  0.00     0.173 A 
ATOM     73  F   UNL A   1      41.460  29.548  27.865  1.00  0.00    -0.203 F 
ATOM     74  C   UNL A   1      40.870  27.523  26.820  1.00  0.00     0.198 A 
ATOM     75  C   UNL A   1      39.525  25.915  27.992  1.00  0.00     0.198 A 
ATOM     76  F   UNL A   1      38.769  26.376  30.172  1.00  0.00    -0.203 F 
ATOM     77  F   UNL A   1      41.522  27.906  25.713  1.00  0.00    -0.200 F 
ATOM     78  C   UNL A   1      40.223  26.297  26.855  1.00  0.00     0.200 A 
ATOM     79  F   UNL A   1      38.906  24.727  28.028  1.00  0.00    -0.200 F 
ATOM     80  F   UNL A   1      40.269  25.485  25.790  1.00  0.00    -0.200 F 
ENDBRANCH  56  70
BRANCH  57  81
ATOM     81  C   UNL A   1      39.395  33.996  37.063  1.00  0.00     0.064 A 
ATOM     82  C   UNL A   1      38.701  33.565  38.202  1.00  0.00     0.173 A 
ATOM     83  C   UNL A   1      39.978  35.271  37.097  1.00  0.00     0.173 A 
ATOM     84  F   UNL A   1      38.110  32.361  38.209  1.00  0.00    -0.203 F 
ATOM     85  C   UNL A   1      38.580  34.382  39.325  1.00  0.00     0.198 A 
ATOM     86  C   UNL A   1      39.874  36.080  38.229  1.00  0.00     0.198 A 
ATOM     87  F   UNL A   1      40.656  35.728  36.035  1.00  0.00    -0.203 F 
ATOM     88  F   UNL A   1      37.881  33.960  40.387  1.00  0.00    -0.200 F 
ATOM     89  C   UNL A   1      39.171  35.637  39.339  1.00  0.00     0.200 A 
ATOM     90  F   UNL A   1      40.454  37.287  38.242  1.00  0.00    -0.200 F 
ATOM     91  F   UNL A   1      39.055  36.422  40.419  1.00  0.00    -0.200 F 
ENDBRANCH  57  81
BRANCH  69  92
ATOM     92  C   UNL A   1      43.786  28.909  35.187  1.00  0.00     0.064 A 
ATOM     93  C   UNL A   1      45.076  29.432  35.027  1.00  0.00     0.173 A 
ATOM     94  C   UNL A   1      43.606  27.853  36.092  1.00  0.00     0.173 A 
ATOM     95  F   UNL A   1      45.294  30.436  34.162  1.00  0.00    -0.203 F 
ATOM     96  C   UNL A   1      46.147  28.920  35.751  1.00  0.00     0.198 A 
ATOM     97  C   UNL A   1      44.676  27.359  36.832  1.00  0.00     0.198 A 
ATOM     98  F   UNL A   1      42.386  27.328  36.286  1.00  0.00    -0.203 F 
ATOM     99  F   UNL A   1      47.376  29.426  35.574  1.00  0.00    -0.200 F 
ATOM    100  C   UNL A   1      45.944  27.894  36.662  1.00  0.00     0.200 A 
ATOM    101  F   UNL A   1      44.476  26.380  37.725  1.00  0.00    -0.200 F 
ATOM    102  F   UNL A   1      46.972  27.422  37.381  1.00  0.00    -0.200 F 
ENDBRANCH  69  92
ENDBRANCH  43  44
ENDBRANCH  35  38
ENDBRANCH  33  34
ENDBRANCH  32  33
ENDBRANCH   1  32
TORSDOF 16
ENDMDL
MODEL 2
REMARK VINA RESULT:     -13.1      0.697      7.127
REMARK SMILES CC[C@H](C)[C@H](NC(=O)[C@H](C)Oc1ccc2c(C)c(C)c(=O)oc2c1C)C(=O)NCCCNC(=O)c1ccc(-c2c3nc(c(-c4c(F)c(F)c(F)c(F)c4F)c4ccc([nH]4)c(-c4c(F)c(F)c(F)c(F)c4F)c4nc(c(-c5c(F)c(F)c(F)c(F)c5F)c5ccc2[nH]5)C=C4)C=C3)cc1
REMARK SMILES IDX 29 1 28 2 26 3 27 4 5 6 3 7 4 8 2 9 1 10 6 11 7 12 8 14 9 15
REMARK SMILES IDX 10 16 11 17 12 18 13 19 24 20 14 21 23 22 25 23 15 24 22 25
REMARK SMILES IDX 16 26 20 27 17 28 18 29 21 30 19 31 30 32 31 33 32 34 33 35
REMARK SMILES IDX 34 37 35 38 36 39 97 40 37 41 96 42 38 43 39 44 40 45 90 46
REMARK SMILES IDX 41 47 95 48 89 49 91 50 42 51 94 52 88 53 87 54 43 56 75 57
REMARK SMILES IDX 55 58 74 59 56 60 59 61 73 62 92 63 57 64 58 65 72 67 93 68
REMARK SMILES IDX 60 69 44 70 45 71 53 72 46 73 47 74 51 75 54 76 48 77 49 78
REMARK SMILES IDX 52 79 50 80 76 81 77 82 85 83 78 84 79 85 83 86 86 87 80 88
REMARK SMILES IDX 81 89 84 90 82 91 61 92 62 93 70 94 63 95 64 96 68 97 71 98
REMARK SMILES IDX 65 99 66 100 69 101 67 102
REMARK H PARENT 28 5 6 13 32 36 91 55 59 66
REMARK Flexibility Score: inf
ROOT
ATOM      1  C   UNL A   1      31.836  30.781  26.875  1.00  0.00     0.117 C 
ENDROOT
BRANCH   1   2
ATOM      2  N   UNL A   1      33.228  30.477  27.112  1.00  0.00    -0.354 N 
ATOM      3  C   UNL A   1      34.006  29.494  26.604  1.00  0.00     0.242 C 
ATOM      4  O   UNL A   1      35.200  29.505  26.917  1.00  0.00    -0.273 OA
ATOM      5  H   UNL A   1      33.683  31.080  27.744  1.00  0.00     0.163 HD
BRANCH   3   6
ATOM      6  C   UNL A   1      33.450  28.460  25.627  1.00  0.00     0.174 C 
BRANCH   6   7
ATOM      7  C   UNL A   1      33.475  26.966  26.112  1.00  0.00     0.018 C 
ATOM      8  C   UNL A   1      32.157  26.460  26.726  1.00  0.00     0.010 C 
BRANCH   7   9
ATOM      9  C   UNL A   1      34.008  25.874  25.148  1.00  0.00     0.002 C 
ATOM     10  C   UNL A   1      34.316  24.509  25.747  1.00  0.00     0.004 C 
ENDBRANCH   7   9
ENDBRANCH   6   7
BRANCH   6  11
ATOM     11  N   UNL A   1      33.934  28.686  24.262  1.00  0.00    -0.341 N 
ATOM     12  C   UNL A   1      33.305  28.728  23.057  1.00  0.00     0.261 C 
ATOM     13  H   UNL A   1      34.905  28.837  24.205  1.00  0.00     0.164 HD
ATOM     14  O   UNL A   1      34.066  28.776  22.078  1.00  0.00    -0.271 OA
BRANCH  12  15
ATOM     15  C   UNL A   1      31.754  28.806  22.824  1.00  0.00     0.258 C 
ATOM     16  C   UNL A   1      31.016  29.440  24.003  1.00  0.00     0.064 C 
BRANCH  15  17
ATOM     17  O   UNL A   1      30.921  27.840  22.187  1.00  0.00    -0.480 OA
BRANCH  17  18
ATOM     18  C   UNL A   1      30.871  26.626  22.799  1.00  0.00     0.127 A 
ATOM     19  C   UNL A   1      29.961  26.450  23.844  1.00  0.00     0.047 A 
ATOM     20  C   UNL A   1      31.665  25.565  22.363  1.00  0.00     0.035 A 
ATOM     21  C   UNL A   1      29.960  25.261  24.581  1.00  0.00     0.016 A 
ATOM     22  C   UNL A   1      31.626  24.375  23.111  1.00  0.00     0.145 A 
ATOM     23  C   UNL A   1      32.512  25.659  21.125  1.00  0.00     0.052 C 
ATOM     24  C   UNL A   1      30.836  24.217  24.253  1.00  0.00     0.021 A 
ATOM     25  O   UNL A   1      32.446  23.320  22.668  1.00  0.00    -0.422 OA
ATOM     26  C   UNL A   1      31.004  23.005  25.078  1.00  0.00    -0.030 A 
ATOM     27  C   UNL A   1      32.511  22.106  23.328  1.00  0.00     0.339 A 
ATOM     28  C   UNL A   1      30.333  22.978  26.429  1.00  0.00     0.045 C 
ATOM     29  C   UNL A   1      31.797  22.009  24.630  1.00  0.00     0.038 A 
ATOM     30  O   UNL A   1      33.170  21.178  22.873  1.00  0.00    -0.246 OA
ATOM     31  C   UNL A   1      32.037  20.735  25.396  1.00  0.00     0.052 C 
ENDBRANCH  17  18
ENDBRANCH  15  17
ENDBRANCH  12  15
ENDBRANCH   6  11
ENDBRANCH   3   6
ENDBRANCH   1   2
BRANCH   1  32
ATOM     32  C   UNL A   1      31.583  32.274  26.899  1.00  0.00     0.042 C 
BRANCH  32  33
ATOM     33  C   UNL A   1      32.816  33.071  27.296  1.00  0.00     0.118 C 
BRANCH  33  34
ATOM     34  N   UNL A   1      32.489  34.428  27.726  1.00  0.00    -0.352 N 
ATOM     35  C   UNL A   1      33.008  35.135  28.782  1.00  0.00     0.251 C 
ATOM     36  H   UNL A   1      31.810  34.897  27.188  1.00  0.00     0.163 HD
ATOM     37  O   UNL A   1      32.510  36.189  29.156  1.00  0.00    -0.269 OA
BRANCH  35  38
ATOM     38  C   UNL A   1      34.173  34.564  29.473  1.00  0.00     0.039 A 
ATOM     39  C   UNL A   1      33.985  33.827  30.641  1.00  0.00     0.014 A 
ATOM     40  C   UNL A   1      35.431  34.665  28.871  1.00  0.00     0.014 A 
ATOM     41  C   UNL A   1      35.063  33.127  31.176  1.00  0.00     0.010 A 
ATOM     42  C   UNL A   1      36.470  33.885  29.344  1.00  0.00     0.010 A 
ATOM     43  C   UNL A   1      36.301  33.129  30.514  1.00  0.00    -0.014 A 
BRANCH  43  44
ATOM     44  C   UNL A   1      37.467  32.410  31.072  1.00  0.00     0.031 A 
ATOM     45  C   UNL A   1      37.967  32.796  32.434  1.00  0.00     0.074 A 
ATOM     46  C   UNL A   1      38.094  31.467  30.345  1.00  0.00     0.049 A 
ATOM     47  N   UNL A   1      38.983  32.321  33.106  1.00  0.00    -0.248 NA
ATOM     48  C   UNL A   1      37.253  33.887  33.121  1.00  0.00     0.031 C 
ATOM     49  C   UNL A   1      37.739  31.067  28.982  1.00  0.00     0.029 A 
ATOM     50  N   UNL A   1      39.171  30.675  30.653  1.00  0.00    -0.354 N 
ATOM     51  C   UNL A   1      39.032  33.062  34.277  1.00  0.00     0.074 A 
ATOM     52  C   UNL A   1      37.999  34.067  34.199  1.00  0.00     0.031 C 
ATOM     53  C   UNL A   1      38.566  30.085  28.582  1.00  0.00     0.029 A 
ATOM     54  C   UNL A   1      39.516  29.800  29.653  1.00  0.00     0.049 A 
ATOM     55  H   UNL A   1      39.651  30.730  31.511  1.00  0.00     0.167 HD
ATOM     56  C   UNL A   1      39.838  32.886  35.348  1.00  0.00     0.037 A 
ATOM     57  C   UNL A   1      40.485  28.865  29.619  1.00  0.00     0.037 A 
ATOM     58  C   UNL A   1      40.816  31.842  35.445  1.00  0.00     0.049 A 
ATOM     59  C   UNL A   1      41.358  28.676  30.831  1.00  0.00     0.074 A 
ATOM     60  C   UNL A   1      41.607  31.503  36.526  1.00  0.00     0.029 A 
ATOM     61  N   UNL A   1      41.126  30.962  34.420  1.00  0.00    -0.354 N 
ATOM     62  N   UNL A   1      41.326  29.311  31.978  1.00  0.00    -0.248 NA
ATOM     63  C   UNL A   1      42.396  27.639  30.751  1.00  0.00     0.031 C 
ATOM     64  C   UNL A   1      42.423  30.435  36.144  1.00  0.00     0.029 A 
ATOM     65  C   UNL A   1      42.118  30.093  34.834  1.00  0.00     0.049 A 
ATOM     66  H   UNL A   1      40.704  30.956  33.531  1.00  0.00     0.167 HD
ATOM     67  C   UNL A   1      42.322  28.743  32.758  1.00  0.00     0.074 A 
ATOM     68  C   UNL A   1      42.933  27.699  31.961  1.00  0.00     0.031 C 
ATOM     69  C   UNL A   1      42.701  29.059  34.020  1.00  0.00     0.037 A 
BRANCH  56  70
ATOM     70  C   UNL A   1      39.661  33.813  36.509  1.00  0.00     0.064 A 
ATOM     71  C   UNL A   1      38.853  33.465  37.602  1.00  0.00     0.173 A 
ATOM     72  C   UNL A   1      40.332  35.042  36.550  1.00  0.00     0.173 A 
ATOM     73  F   UNL A   1      38.175  32.305  37.598  1.00  0.00    -0.203 F 
ATOM     74  C   UNL A   1      38.709  34.322  38.687  1.00  0.00     0.198 A 
ATOM     75  C   UNL A   1      40.207  35.887  37.649  1.00  0.00     0.198 A 
ATOM     76  F   UNL A   1      41.114  35.420  35.528  1.00  0.00    -0.203 F 
ATOM     77  F   UNL A   1      37.901  33.987  39.703  1.00  0.00    -0.200 F 
ATOM     78  C   UNL A   1      39.392  35.529  38.714  1.00  0.00     0.200 A 
ATOM     79  F   UNL A   1      40.871  37.051  37.678  1.00  0.00    -0.200 F 
ATOM     80  F   UNL A   1      39.261  36.350  39.765  1.00  0.00    -0.200 F 
ENDBRANCH  56  70
BRANCH  57  81
ATOM     81  C   UNL A   1      40.654  28.011  28.416  1.00  0.00     0.064 A 
ATOM     82  C   UNL A   1      40.041  26.752  28.340  1.00  0.00     0.173 A 
ATOM     83  C   UNL A   1      41.424  28.429  27.322  1.00  0.00     0.173 A 
ATOM     84  F   UNL A   1      39.310  26.302  29.370  1.00  0.00    -0.203 F 
ATOM     85  C   UNL A   1      40.205  25.937  27.222  1.00  0.00     0.198 A 
ATOM     86  C   UNL A   1      41.571  27.621  26.195  1.00  0.00     0.198 A 
ATOM     87  F   UNL A   1      42.027  29.626  27.344  1.00  0.00    -0.203 F 
ATOM     88  F   UNL A   1      39.637  24.724  27.190  1.00  0.00    -0.200 F 
ATOM     89  C   UNL A   1      40.966  26.374  26.148  1.00  0.00     0.200 A 
ATOM     90  F   UNL A   1      42.299  28.051  25.156  1.00  0.00    -0.200 F 
ATOM     91  F   UNL A   1      41.123  25.590  25.073  1.00  0.00    -0.200 F 
ENDBRANCH  57  81
BRANCH  69  92
ATOM     92  C   UNL A   1      43.827  28.279  34.625  1.00  0.00     0.064 A 
ATOM     93  C   UNL A   1      43.601  27.032  35.224  1.00  0.00     0.173 A 
ATOM     94  C   UNL A   1      45.150  28.724  34.497  1.00  0.00     0.173 A 
ATOM     95  F   UNL A   1      42.349  26.574  35.376  1.00  0.00    -0.203 F 
ATOM     96  C   UNL A   1      44.664  26.256  35.673  1.00  0.00     0.198 A 
ATOM     97  C   UNL A   1      46.212  27.934  34.927  1.00  0.00     0.198 A 
ATOM     98  F   UNL A   1      45.414  29.907  33.920  1.00  0.00    -0.203 F 
ATOM     99  F   UNL A   1      44.427  25.072  36.255  1.00  0.00    -0.200 F 
ATOM    100  C   UNL A   1      45.968  26.701  35.512  1.00  0.00     0.200 A 
ATOM    101  F   UNL A   1      47.472  28.357  34.755  1.00  0.00    -0.200 F 
ATOM    102  F   UNL A   1      46.992  25.939  35.920  1.00  0.00    -0.200 F 
ENDBRANCH  69  92
ENDBRANCH  43  44
ENDBRANCH  35  38
ENDBRANCH  33  34
ENDBRANCH  32  33
ENDBRANCH   1  32
TORSDOF 16
ENDMDL
MODEL 3
REMARK VINA RESULT:     -12.7      1.410      7.377
REMARK SMILES CC[C@H](C)[C@H](NC(=O)[C@H](C)Oc1ccc2c(C)c(C)c(=O)oc2c1C)C(=O)NCCCNC(=O)c1ccc(-c2c3nc(c(-c4c(F)c(F)c(F)c(F)c4F)c4ccc([nH]4)c(-c4c(F)c(F)c(F)c(F)c4F)c4nc(c(-c5c(F)c(F)c(F)c(F)c5F)c5ccc2[nH]5)C=C4)C=C3)cc1
REMARK SMILES IDX 29 1 28 2 26 3 27 4 5 6 3 7 4 8 2 9 1 10 6 11 7 12 8 14 9 15
REMARK SMILES IDX 10 16 11 17 12 18 13 19 24 20 14 21 23 22 25 23 15 24 22 25
REMARK SMILES IDX 16 26 20 27 17 28 18 29 21 30 19 31 30 32 31 33 32 34 33 35
REMARK SMILES IDX 34 37 35 38 36 39 97 40 37 41 96 42 38 43 39 44 40 45 90 46
REMARK SMILES IDX 41 47 95 48 89 49 91 50 42 51 94 52 88 53 87 54 43 56 75 57
REMARK SMILES IDX 55 58 74 59 56 60 59 61 73 62 92 63 57 64 58 65 72 67 93 68
REMARK SMILES IDX 60 69 44 70 45 71 53 72 46 73 47 74 51 75 54 76 48 77 49 78
REMARK SMILES IDX 52 79 50 80 76 81 77 82 85 83 78 84 79 85 83 86 86 87 80 88
REMARK SMILES IDX 81 89 84 90 82 91 61 92 62 93 70 94 63 95 64 96 68 97 71 98
REMARK SMILES IDX 65 99 66 100 69 101 67 102
REMARK H PARENT 28 5 6 13 32 36 91 55 59 66
REMARK Flexibility Score: inf
ROOT
ATOM      1  C   UNL A   1      31.442  31.292  25.819  1.00  0.00     0.117 C 
ENDROOT
BRANCH   1   2
ATOM      2  N   UNL A   1      31.766  29.897  26.011  1.00  0.00    -0.354 N 
ATOM      3  C   UNL A   1      31.825  28.883  25.118  1.00  0.00     0.242 C 
ATOM      4  O   UNL A   1      32.207  27.787  25.537  1.00  0.00    -0.273 OA
ATOM      5  H   UNL A   1      31.976  29.644  26.939  1.00  0.00     0.163 HD
BRANCH   3   6
ATOM      6  C   UNL A   1      31.506  29.101  23.640  1.00  0.00     0.174 C 
BRANCH   6   7
ATOM      7  C   UNL A   1      30.240  28.351  23.088  1.00  0.00     0.018 C 
ATOM      8  C   UNL A   1      29.739  27.189  23.965  1.00  0.00     0.010 C 
BRANCH   7   9
ATOM      9  C   UNL A   1      29.010  29.184  22.644  1.00  0.00     0.002 C 
ATOM     10  C   UNL A   1      29.243  30.265  21.598  1.00  0.00     0.004 C 
ENDBRANCH   7   9
ENDBRANCH   6   7
BRANCH   6  11
ATOM     11  N   UNL A   1      32.706  29.008  22.805  1.00  0.00    -0.341 N 
ATOM     12  C   UNL A   1      33.475  27.957  22.410  1.00  0.00     0.261 C 
ATOM     13  H   UNL A   1      33.019  29.876  22.462  1.00  0.00     0.164 HD
ATOM     14  O   UNL A   1      34.527  28.274  21.835  1.00  0.00    -0.271 OA
BRANCH  12  15
ATOM     15  C   UNL A   1      33.104  26.437  22.543  1.00  0.00     0.258 C 
ATOM     16  C   UNL A   1      32.612  25.836  21.227  1.00  0.00     0.064 C 
BRANCH  15  17
ATOM     17  O   UNL A   1      32.469  25.791  23.645  1.00  0.00    -0.480 OA
BRANCH  17  18
ATOM     18  C   UNL A   1      33.014  24.599  24.008  1.00  0.00     0.127 A 
ATOM     19  C   UNL A   1      34.313  24.595  24.519  1.00  0.00     0.047 A 
ATOM     20  C   UNL A   1      32.279  23.416  23.929  1.00  0.00     0.035 A 
ATOM     21  C   UNL A   1      34.957  23.382  24.791  1.00  0.00     0.016 A 
ATOM     22  C   UNL A   1      32.947  22.215  24.229  1.00  0.00     0.145 A 
ATOM     23  C   UNL A   1      30.820  23.405  23.568  1.00  0.00     0.052 C 
ATOM     24  C   UNL A   1      34.293  22.163  24.600  1.00  0.00     0.021 A 
ATOM     25  O   UNL A   1      32.196  21.028  24.127  1.00  0.00    -0.422 OA
ATOM     26  C   UNL A   1      34.955  20.849  24.711  1.00  0.00    -0.030 A 
ATOM     27  C   UNL A   1      32.744  19.783  24.378  1.00  0.00     0.339 A 
ATOM     28  C   UNL A   1      36.457  20.831  24.857  1.00  0.00     0.045 C 
ATOM     29  C   UNL A   1      34.213  19.727  24.608  1.00  0.00     0.038 A 
ATOM     30  O   UNL A   1      32.046  18.775  24.362  1.00  0.00    -0.246 OA
ATOM     31  C   UNL A   1      34.791  18.340  24.702  1.00  0.00     0.052 C 
ENDBRANCH  17  18
ENDBRANCH  15  17
ENDBRANCH  12  15
ENDBRANCH   6  11
ENDBRANCH   3   6
ENDBRANCH   1   2
BRANCH   1  32
ATOM     32  C   UNL A   1      31.454  32.049  27.130  1.00  0.00     0.042 C 
BRANCH  32  33
ATOM     33  C   UNL A   1      32.729  32.853  27.332  1.00  0.00     0.118 C 
BRANCH  33  34
ATOM     34  N   UNL A   1      32.461  34.245  27.682  1.00  0.00    -0.352 N 
ATOM     35  C   UNL A   1      33.031  34.997  28.680  1.00  0.00     0.251 C 
ATOM     36  H   UNL A   1      31.786  34.705  27.131  1.00  0.00     0.163 HD
ATOM     37  O   UNL A   1      32.581  36.089  28.998  1.00  0.00    -0.269 OA
BRANCH  35  38
ATOM     38  C   UNL A   1      34.191  34.426  29.380  1.00  0.00     0.039 A 
ATOM     39  C   UNL A   1      33.990  33.611  30.492  1.00  0.00     0.014 A 
ATOM     40  C   UNL A   1      35.465  34.612  28.835  1.00  0.00     0.014 A 
ATOM     41  C   UNL A   1      35.074  32.919  31.024  1.00  0.00     0.010 A 
ATOM     42  C   UNL A   1      36.517  33.842  29.298  1.00  0.00     0.010 A 
ATOM     43  C   UNL A   1      36.335  33.009  30.412  1.00  0.00    -0.014 A 
BRANCH  43  44
ATOM     44  C   UNL A   1      37.507  32.300  30.970  1.00  0.00     0.031 A 
ATOM     45  C   UNL A   1      37.996  32.680  32.338  1.00  0.00     0.074 A 
ATOM     46  C   UNL A   1      38.149  31.370  30.238  1.00  0.00     0.049 A 
ATOM     47  N   UNL A   1      39.015  32.212  33.010  1.00  0.00    -0.248 NA
ATOM     48  C   UNL A   1      37.265  33.757  33.030  1.00  0.00     0.031 C 
ATOM     49  C   UNL A   1      37.805  30.977  28.871  1.00  0.00     0.029 A 
ATOM     50  N   UNL A   1      39.234  30.589  30.545  1.00  0.00    -0.354 N 
ATOM     51  C   UNL A   1      39.049  32.944  34.188  1.00  0.00     0.074 A 
ATOM     52  C   UNL A   1      38.005  33.938  34.113  1.00  0.00     0.031 C 
ATOM     53  C   UNL A   1      38.646  30.008  28.467  1.00  0.00     0.029 A 
ATOM     54  C   UNL A   1      39.595  29.726  29.540  1.00  0.00     0.049 A 
ATOM     55  H   UNL A   1      39.710  30.642  31.406  1.00  0.00     0.167 HD
ATOM     56  C   UNL A   1      39.853  32.769  35.260  1.00  0.00     0.037 A 
ATOM     57  C   UNL A   1      40.575  28.803  29.502  1.00  0.00     0.037 A 
ATOM     58  C   UNL A   1      40.842  31.737  35.354  1.00  0.00     0.049 A 
ATOM     59  C   UNL A   1      41.444  28.615  30.718  1.00  0.00     0.074 A 
ATOM     60  C   UNL A   1      41.633  31.399  36.435  1.00  0.00     0.029 A 
ATOM     61  N   UNL A   1      41.168  30.869  34.323  1.00  0.00    -0.354 N 
ATOM     62  N   UNL A   1      41.399  29.240  31.869  1.00  0.00    -0.248 NA
ATOM     63  C   UNL A   1      42.495  27.591  30.634  1.00  0.00     0.031 C 
ATOM     64  C   UNL A   1      42.464  30.344  36.049  1.00  0.00     0.029 A 
ATOM     65  C   UNL A   1      42.169  30.009  34.735  1.00  0.00     0.049 A 
ATOM     66  H   UNL A   1      40.750  30.865  33.432  1.00  0.00     0.167 HD
ATOM     67  C   UNL A   1      42.399  28.678  32.649  1.00  0.00     0.074 A 
ATOM     68  C   UNL A   1      43.026  27.648  31.847  1.00  0.00     0.031 C 
ATOM     69  C   UNL A   1      42.768  28.988  33.916  1.00  0.00     0.037 A 
BRANCH  56  70
ATOM     70  C   UNL A   1      39.659  33.685  36.428  1.00  0.00     0.064 A 
ATOM     71  C   UNL A   1      40.283  34.940  36.481  1.00  0.00     0.173 A 
ATOM     72  C   UNL A   1      38.815  33.322  37.487  1.00  0.00     0.173 A 
ATOM     73  F   UNL A   1      41.115  35.322  35.499  1.00  0.00    -0.203 F 
ATOM     74  C   UNL A   1      40.082  35.794  37.561  1.00  0.00     0.198 A 
ATOM     75  C   UNL A   1      38.596  34.189  38.554  1.00  0.00     0.198 A 
ATOM     76  F   UNL A   1      38.199  32.131  37.484  1.00  0.00    -0.203 F 
ATOM     77  F   UNL A   1      40.719  36.972  37.609  1.00  0.00    -0.200 F 
ATOM     78  C   UNL A   1      39.234  35.421  38.592  1.00  0.00     0.200 A 
ATOM     79  F   UNL A   1      37.771  33.832  39.548  1.00  0.00    -0.200 F 
ATOM     80  F   UNL A   1      39.033  36.249  39.627  1.00  0.00    -0.200 F 
ENDBRANCH  56  70
BRANCH  57  81
ATOM     81  C   UNL A   1      40.759  27.961  28.294  1.00  0.00     0.064 A 
ATOM     82  C   UNL A   1      40.158  26.698  28.203  1.00  0.00     0.173 A 
ATOM     83  C   UNL A   1      41.534  28.395  27.209  1.00  0.00     0.173 A 
ATOM     84  F   UNL A   1      39.423  26.232  29.224  1.00  0.00    -0.203 F 
ATOM     85  C   UNL A   1      40.337  25.893  27.079  1.00  0.00     0.198 A 
ATOM     86  C   UNL A   1      41.696  27.598  26.076  1.00  0.00     0.198 A 
ATOM     87  F   UNL A   1      42.127  29.597  27.245  1.00  0.00    -0.203 F 
ATOM     88  F   UNL A   1      39.780  24.676  27.033  1.00  0.00    -0.200 F 
ATOM     89  C   UNL A   1      41.102  26.346  26.015  1.00  0.00     0.200 A 
ATOM     90  F   UNL A   1      42.428  28.043  25.046  1.00  0.00    -0.200 F 
ATOM     91  F   UNL A   1      41.273  25.573  24.933  1.00  0.00    -0.200 F 
ENDBRANCH  57  81
BRANCH  69  92
ATOM     92  C   UNL A   1      43.901  28.218  34.519  1.00  0.00     0.064 A 
ATOM     93  C   UNL A   1      43.680  26.985  35.148  1.00  0.00     0.173 A 
ATOM     94  C   UNL A   1      45.223  28.656  34.362  1.00  0.00     0.173 A 
ATOM     95  F   UNL A   1      42.429  26.534  35.328  1.00  0.00    -0.203 F 
ATOM     96  C   UNL A   1      44.747  26.215  35.597  1.00  0.00     0.198 A 
ATOM     97  C   UNL A   1      46.289  27.871  34.792  1.00  0.00     0.198 A 
ATOM     98  F   UNL A   1      45.482  29.825  33.756  1.00  0.00    -0.203 F 
ATOM     99  F   UNL A   1      44.515  25.043  36.207  1.00  0.00    -0.200 F 
ATOM    100  C   UNL A   1      46.050  26.651  35.407  1.00  0.00     0.200 A 
ATOM    101  F   UNL A   1      47.548  28.286  34.592  1.00  0.00    -0.200 F 
ATOM    102  F   UNL A   1      47.078  25.894  35.815  1.00  0.00    -0.200 F 
ENDBRANCH  69  92
ENDBRANCH  43  44
ENDBRANCH  35  38
ENDBRANCH  33  34
ENDBRANCH  32  33
ENDBRANCH   1  32
TORSDOF 16
ENDMDL
