MODEL 1
REMARK VINA RESULT:     -15.0      0.000      0.000
REMARK SMILES CC[C@@]1(CC(=O)NCCCNC(=O)c2ccc(-c3c4nc(c(-c5c(F)c(F)c(F)c(F)c5F)c5ccc([nH]5)c(-c5c(F)c(F)c(F)c(F)c5F)c5nc(c(-c6c(F)c(F)c(F)c(F)c6F)c6ccc3[nH]6)C=C5)C=C4)cc2)OC[C@H](Cc2ccccc2)c2c1[nH]c1ccccc21
REMARK SMILES IDX 8 1 7 2 5 3 6 4 4 6 3 7 77 8 88 9 78 10 87 11 89 12 79 13
REMARK SMILES IDX 95 14 90 15 94 17 91 18 93 19 92 20 2 21 1 22 80 23 81 24
REMARK SMILES IDX 82 25 86 26 83 27 85 28 84 29 9 30 10 31 11 32 12 33 13 35
REMARK SMILES IDX 14 36 15 37 76 38 16 39 75 40 17 41 18 42 19 43 69 44 20 45
REMARK SMILES IDX 74 46 68 47 70 48 21 49 73 50 67 51 66 52 22 54 54 55 34 56
REMARK SMILES IDX 53 57 35 58 38 59 52 60 71 61 36 62 37 63 51 65 72 66 39 67
REMARK SMILES IDX 23 68 24 69 32 70 25 71 26 72 30 73 33 74 27 75 28 76 31 77
REMARK SMILES IDX 29 78 55 79 56 80 64 81 57 82 58 83 62 84 65 85 59 86 60 87
REMARK SMILES IDX 63 88 61 89 40 90 41 91 49 92 42 93 43 94 47 95 50 96 44 97
REMARK SMILES IDX 45 98 48 99 46 100
REMARK H PARENT 7 5 89 16 11 34 70 53 38 64
REMARK Flexibility Score: inf
ROOT
ATOM      1  C   UNL A   1      31.946  27.868  27.437  1.00  0.00     0.117 C 
ENDROOT
BRANCH   1   2
ATOM      2  N   UNL A   1      30.938  27.060  26.728  1.00  0.00    -0.356 N 
ATOM      3  C   UNL A   1      30.968  25.859  26.073  1.00  0.00     0.223 C 
ATOM      4  O   UNL A   1      29.928  25.503  25.507  1.00  0.00    -0.275 OA
ATOM      5  H   UNL A   1      30.047  27.477  26.725  1.00  0.00     0.163 HD
BRANCH   3   6
ATOM      6  C   UNL A   1      32.213  24.980  25.987  1.00  0.00     0.142 C 
BRANCH   6   7
ATOM      7  C   UNL A   1      32.901  24.961  24.586  1.00  0.00     0.117 C 
ATOM      8  O   UNL A   1      32.058  24.320  23.590  1.00  0.00    -0.368 OA
ATOM      9  C   UNL A   1      34.147  24.150  24.623  1.00  0.00     0.052 A 
ATOM     10  C   UNL A   1      31.807  22.927  23.785  1.00  0.00     0.170 C 
ATOM     11  C   UNL A   1      34.292  22.820  24.282  1.00  0.00    -0.011 A 
ATOM     12  N   UNL A   1      35.324  24.631  25.116  1.00  0.00    -0.356 N 
ATOM     13  C   UNL A   1      33.072  22.026  23.793  1.00  0.00     0.052 C 
ATOM     14  C   UNL A   1      35.666  22.487  24.602  1.00  0.00     0.003 A 
ATOM     15  C   UNL A   1      36.249  23.628  25.173  1.00  0.00     0.046 A 
ATOM     16  H   UNL A   1      35.483  25.563  25.391  1.00  0.00     0.166 HD
ATOM     17  C   UNL A   1      36.454  21.314  24.599  1.00  0.00     0.010 A 
ATOM     18  C   UNL A   1      37.527  23.670  25.739  1.00  0.00     0.026 A 
ATOM     19  C   UNL A   1      37.730  21.327  25.198  1.00  0.00     0.001 A 
ATOM     20  C   UNL A   1      38.256  22.487  25.761  1.00  0.00     0.002 A 
BRANCH   7  21
ATOM     21  C   UNL A   1      33.124  26.396  24.014  1.00  0.00     0.039 C 
ATOM     22  C   UNL A   1      33.458  26.492  22.518  1.00  0.00     0.007 C 
ENDBRANCH   7  21
BRANCH  13  23
ATOM     23  C   UNL A   1      32.771  20.794  24.666  1.00  0.00     0.046 C 
BRANCH  23  24
ATOM     24  C   UNL A   1      33.074  19.375  24.222  1.00  0.00    -0.047 A 
ATOM     25  C   UNL A   1      32.404  18.812  23.137  1.00  0.00     0.004 A 
ATOM     26  C   UNL A   1      34.160  18.666  24.779  1.00  0.00     0.004 A 
ATOM     27  C   UNL A   1      32.850  17.610  22.580  1.00  0.00     0.000 A 
ATOM     28  C   UNL A   1      34.610  17.469  24.213  1.00  0.00     0.000 A 
ATOM     29  C   UNL A   1      33.966  16.953  23.096  1.00  0.00     0.000 A 
ENDBRANCH  23  24
ENDBRANCH  13  23
ENDBRANCH   6   7
ENDBRANCH   3   6
ENDBRANCH   1   2
BRANCH   1  30
ATOM     30  C   UNL A   1      31.850  29.361  27.062  1.00  0.00     0.042 C 
BRANCH  30  31
ATOM     31  C   UNL A   1      33.111  30.204  26.792  1.00  0.00     0.118 C 
BRANCH  31  32
ATOM     32  N   UNL A   1      33.662  30.905  27.939  1.00  0.00    -0.352 N 
ATOM     33  C   UNL A   1      34.836  31.642  27.849  1.00  0.00     0.251 C 
ATOM     34  H   UNL A   1      33.192  30.858  28.802  1.00  0.00     0.163 HD
ATOM     35  O   UNL A   1      34.767  32.830  27.572  1.00  0.00    -0.269 OA
BRANCH  33  36
ATOM     36  C   UNL A   1      36.122  31.065  28.358  1.00  0.00     0.039 A 
ATOM     37  C   UNL A   1      37.163  31.798  28.925  1.00  0.00     0.014 A 
ATOM     38  C   UNL A   1      36.299  29.684  28.180  1.00  0.00     0.014 A 
ATOM     39  C   UNL A   1      38.412  31.188  29.151  1.00  0.00     0.010 A 
ATOM     40  C   UNL A   1      37.526  29.070  28.437  1.00  0.00     0.010 A 
ATOM     41  C   UNL A   1      38.618  29.830  28.847  1.00  0.00    -0.014 A 
BRANCH  41  42
ATOM     42  C   UNL A   1      39.948  29.211  29.051  1.00  0.00     0.031 A 
ATOM     43  C   UNL A   1      40.343  28.984  30.478  1.00  0.00     0.074 A 
ATOM     44  C   UNL A   1      40.721  28.686  28.068  1.00  0.00     0.049 A 
ATOM     45  N   UNL A   1      41.414  29.362  31.102  1.00  0.00    -0.248 NA
ATOM     46  C   UNL A   1      39.377  28.274  31.332  1.00  0.00     0.031 C 
ATOM     47  C   UNL A   1      40.384  28.514  26.652  1.00  0.00     0.029 A 
ATOM     48  N   UNL A   1      41.964  28.107  28.146  1.00  0.00    -0.354 N 
ATOM     49  C   UNL A   1      41.326  28.828  32.391  1.00  0.00     0.074 A 
ATOM     50  C   UNL A   1      40.009  28.257  32.506  1.00  0.00     0.031 C 
ATOM     51  C   UNL A   1      41.305  27.729  26.052  1.00  0.00     0.029 A 
ATOM     52  C   UNL A   1      42.340  27.392  27.010  1.00  0.00     0.049 A 
ATOM     53  H   UNL A   1      42.541  28.189  28.938  1.00  0.00     0.167 HD
ATOM     54  C   UNL A   1      42.398  28.748  33.229  1.00  0.00     0.037 A 
ATOM     55  C   UNL A   1      43.378  26.523  26.872  1.00  0.00     0.037 A 
ATOM     56  C   UNL A   1      43.451  29.641  32.834  1.00  0.00     0.049 A 
ATOM     57  C   UNL A   1      44.340  26.793  27.968  1.00  0.00     0.074 A 
ATOM     58  C   UNL A   1      43.557  31.013  32.706  1.00  0.00     0.029 A 
ATOM     59  N   UNL A   1      44.545  29.129  32.187  1.00  0.00    -0.354 N 
ATOM     60  N   UNL A   1      45.070  27.868  28.051  1.00  0.00    -0.248 NA
ATOM     61  C   UNL A   1      44.155  26.059  29.211  1.00  0.00     0.031 C 
ATOM     62  C   UNL A   1      44.385  31.208  31.563  1.00  0.00     0.029 A 
ATOM     63  C   UNL A   1      44.774  29.948  31.111  1.00  0.00     0.049 A 
ATOM     64  H   UNL A   1      45.065  28.332  32.442  1.00  0.00     0.167 HD
ATOM     65  C   UNL A   1      45.070  28.183  29.400  1.00  0.00     0.074 A 
ATOM     66  C   UNL A   1      44.551  26.996  30.074  1.00  0.00     0.031 C 
ATOM     67  C   UNL A   1      45.219  29.469  29.828  1.00  0.00     0.037 A 
BRANCH  54  68
ATOM     68  C   UNL A   1      42.621  27.656  34.246  1.00  0.00     0.064 A 
ATOM     69  C   UNL A   1      43.197  26.432  33.845  1.00  0.00     0.173 A 
ATOM     70  C   UNL A   1      42.019  27.653  35.521  1.00  0.00     0.173 A 
ATOM     71  F   UNL A   1      43.780  26.310  32.642  1.00  0.00    -0.203 F 
ATOM     72  C   UNL A   1      43.107  25.278  34.631  1.00  0.00     0.198 A 
ATOM     73  C   UNL A   1      41.976  26.515  36.325  1.00  0.00     0.198 A 
ATOM     74  F   UNL A   1      41.353  28.716  35.991  1.00  0.00    -0.203 F 
ATOM     75  F   UNL A   1      43.559  24.110  34.154  1.00  0.00    -0.200 F 
ATOM     76  C   UNL A   1      42.491  25.319  35.867  1.00  0.00     0.200 A 
ATOM     77  F   UNL A   1      41.359  26.569  37.514  1.00  0.00    -0.200 F 
ATOM     78  F   UNL A   1      42.347  24.204  36.595  1.00  0.00    -0.200 F 
ENDBRANCH  54  68
BRANCH  55  79
ATOM     79  C   UNL A   1      43.444  25.292  26.037  1.00  0.00     0.064 A 
ATOM     80  C   UNL A   1      44.552  25.010  25.215  1.00  0.00     0.173 A 
ATOM     81  C   UNL A   1      42.534  24.232  26.222  1.00  0.00     0.173 A 
ATOM     82  F   UNL A   1      45.502  25.936  25.018  1.00  0.00    -0.203 F 
ATOM     83  C   UNL A   1      44.739  23.747  24.634  1.00  0.00     0.198 A 
ATOM     84  C   UNL A   1      42.713  22.980  25.631  1.00  0.00     0.198 A 
ATOM     85  F   UNL A   1      41.495  24.352  27.059  1.00  0.00    -0.203 F 
ATOM     86  F   UNL A   1      45.839  23.498  23.907  1.00  0.00    -0.200 F 
ATOM     87  C   UNL A   1      43.822  22.731  24.848  1.00  0.00     0.200 A 
ATOM     88  F   UNL A   1      41.832  22.000  25.878  1.00  0.00    -0.200 F 
ATOM     89  F   UNL A   1      44.026  21.508  24.341  1.00  0.00    -0.200 F 
ENDBRANCH  55  79
BRANCH  67  90
ATOM     90  C   UNL A   1      45.608  30.515  28.823  1.00  0.00     0.064 A 
ATOM     91  C   UNL A   1      44.684  31.181  27.999  1.00  0.00     0.173 A 
ATOM     92  C   UNL A   1      46.925  30.993  28.838  1.00  0.00     0.173 A 
ATOM     93  F   UNL A   1      43.388  30.849  28.003  1.00  0.00    -0.203 F 
ATOM     94  C   UNL A   1      45.073  32.260  27.206  1.00  0.00     0.198 A 
ATOM     95  C   UNL A   1      47.301  32.094  28.073  1.00  0.00     0.198 A 
ATOM     96  F   UNL A   1      47.834  30.432  29.650  1.00  0.00    -0.203 F 
ATOM     97  F   UNL A   1      44.172  32.881  26.431  1.00  0.00    -0.200 F 
ATOM     98  C   UNL A   1      46.378  32.721  27.254  1.00  0.00     0.200 A 
ATOM     99  F   UNL A   1      48.550  32.570  28.163  1.00  0.00    -0.200 F 
ATOM    100  F   UNL A   1      46.739  33.794  26.534  1.00  0.00    -0.200 F 
ENDBRANCH  67  90
ENDBRANCH  41  42
ENDBRANCH  33  36
ENDBRANCH  31  32
ENDBRANCH  30  31
ENDBRANCH   1  30
TORSDOF 14
ENDMDL
MODEL 2
REMARK VINA RESULT:     -14.4      2.981      8.685
REMARK SMILES CC[C@@]1(CC(=O)NCCCNC(=O)c2ccc(-c3c4nc(c(-c5c(F)c(F)c(F)c(F)c5F)c5ccc([nH]5)c(-c5c(F)c(F)c(F)c(F)c5F)c5nc(c(-c6c(F)c(F)c(F)c(F)c6F)c6ccc3[nH]6)C=C5)C=C4)cc2)OC[C@H](Cc2ccccc2)c2c1[nH]c1ccccc21
REMARK SMILES IDX 8 1 7 2 5 3 6 4 4 6 3 7 77 8 88 9 78 10 87 11 89 12 79 13
REMARK SMILES IDX 95 14 90 15 94 17 91 18 93 19 92 20 2 21 1 22 80 23 81 24
REMARK SMILES IDX 82 25 86 26 83 27 85 28 84 29 9 30 10 31 11 32 12 33 13 35
REMARK SMILES IDX 14 36 15 37 76 38 16 39 75 40 17 41 18 42 19 43 69 44 20 45
REMARK SMILES IDX 74 46 68 47 70 48 21 49 73 50 67 51 66 52 22 54 54 55 34 56
REMARK SMILES IDX 53 57 35 58 38 59 52 60 71 61 36 62 37 63 51 65 72 66 39 67
REMARK SMILES IDX 23 68 24 69 32 70 25 71 26 72 30 73 33 74 27 75 28 76 31 77
REMARK SMILES IDX 29 78 55 79 56 80 64 81 57 82 58 83 62 84 65 85 59 86 60 87
REMARK SMILES IDX 63 88 61 89 40 90 41 91 49 92 42 93 43 94 47 95 50 96 44 97
REMARK SMILES IDX 45 98 48 99 46 100
REMARK H PARENT 7 5 89 16 11 34 70 53 38 64
REMARK Flexibility Score: inf
ROOT
ATOM      1  C   UNL A   1      35.485  23.076  26.125  1.00  0.00     0.117 C 
ENDROOT
BRANCH   1   2
ATOM      2  N   UNL A   1      34.266  22.714  26.870  1.00  0.00    -0.356 N 
ATOM      3  C   UNL A   1      33.005  23.241  26.948  1.00  0.00     0.223 C 
ATOM      4  O   UNL A   1      32.229  22.719  27.757  1.00  0.00    -0.275 OA
ATOM      5  H   UNL A   1      34.386  21.918  27.435  1.00  0.00     0.163 HD
BRANCH   3   6
ATOM      6  C   UNL A   1      32.542  24.438  26.123  1.00  0.00     0.142 C 
BRANCH   6   7
ATOM      7  C   UNL A   1      32.226  24.116  24.628  1.00  0.00     0.117 C 
ATOM      8  O   UNL A   1      33.436  24.094  23.824  1.00  0.00    -0.368 OA
ATOM      9  C   UNL A   1      31.377  25.180  24.029  1.00  0.00     0.052 A 
ATOM     10  C   UNL A   1      34.122  25.340  23.690  1.00  0.00     0.170 C 
ATOM     11  C   UNL A   1      31.797  26.275  23.301  1.00  0.00    -0.011 A 
ATOM     12  N   UNL A   1      30.029  25.245  24.227  1.00  0.00    -0.356 N 
ATOM     13  C   UNL A   1      33.295  26.478  23.033  1.00  0.00     0.052 C 
ATOM     14  C   UNL A   1      30.599  27.053  23.050  1.00  0.00     0.003 A 
ATOM     15  C   UNL A   1      29.537  26.403  23.696  1.00  0.00     0.046 A 
ATOM     16  H   UNL A   1      29.491  24.560  24.685  1.00  0.00     0.166 HD
ATOM     17  C   UNL A   1      30.305  28.304  22.461  1.00  0.00     0.010 A 
ATOM     18  C   UNL A   1      28.239  26.913  23.804  1.00  0.00     0.026 A 
ATOM     19  C   UNL A   1      29.012  28.851  22.591  1.00  0.00     0.001 A 
ATOM     20  C   UNL A   1      27.998  28.166  23.254  1.00  0.00     0.002 A 
BRANCH   7  21
ATOM     21  C   UNL A   1      31.631  22.685  24.443  1.00  0.00     0.039 C 
ATOM     22  C   UNL A   1      32.385  21.750  23.485  1.00  0.00     0.007 C 
ENDBRANCH   7  21
BRANCH  13  23
ATOM     23  C   UNL A   1      33.823  27.820  23.572  1.00  0.00     0.046 C 
BRANCH  23  24
ATOM     24  C   UNL A   1      33.348  28.427  24.879  1.00  0.00    -0.047 A 
ATOM     25  C   UNL A   1      32.466  29.508  24.881  1.00  0.00     0.004 A 
ATOM     26  C   UNL A   1      33.643  27.802  26.109  1.00  0.00     0.004 A 
ATOM     27  C   UNL A   1      31.843  29.906  26.068  1.00  0.00     0.000 A 
ATOM     28  C   UNL A   1      33.011  28.196  27.293  1.00  0.00     0.000 A 
ATOM     29  C   UNL A   1      32.090  29.236  27.265  1.00  0.00     0.000 A 
ENDBRANCH  23  24
ENDBRANCH  13  23
ENDBRANCH   6   7
ENDBRANCH   3   6
ENDBRANCH   1   2
BRANCH   1  30
ATOM     30  C   UNL A   1      35.983  21.912  25.243  1.00  0.00     0.042 C 
BRANCH  30  31
ATOM     31  C   UNL A   1      37.313  21.193  25.540  1.00  0.00     0.118 C 
BRANCH  31  32
ATOM     32  N   UNL A   1      38.520  21.947  25.251  1.00  0.00    -0.352 N 
ATOM     33  C   UNL A   1      39.550  22.058  26.175  1.00  0.00     0.251 C 
ATOM     34  H   UNL A   1      38.611  22.392  24.378  1.00  0.00     0.163 HD
ATOM     35  O   UNL A   1      40.454  21.236  26.152  1.00  0.00    -0.269 OA
BRANCH  33  36
ATOM     36  C   UNL A   1      39.697  23.310  26.985  1.00  0.00     0.039 A 
ATOM     37  C   UNL A   1      38.816  24.390  26.964  1.00  0.00     0.014 A 
ATOM     38  C   UNL A   1      40.855  23.410  27.772  1.00  0.00     0.014 A 
ATOM     39  C   UNL A   1      39.173  25.603  27.583  1.00  0.00     0.010 A 
ATOM     40  C   UNL A   1      41.195  24.601  28.417  1.00  0.00     0.010 A 
ATOM     41  C   UNL A   1      40.400  25.734  28.262  1.00  0.00    -0.014 A 
BRANCH  41  42
ATOM     42  C   UNL A   1      40.782  27.027  28.874  1.00  0.00     0.031 A 
ATOM     43  C   UNL A   1      42.046  27.640  28.353  1.00  0.00     0.074 A 
ATOM     44  C   UNL A   1      39.998  27.754  29.708  1.00  0.00     0.049 A 
ATOM     45  N   UNL A   1      43.091  28.041  29.005  1.00  0.00    -0.248 NA
ATOM     46  C   UNL A   1      42.167  27.777  26.893  1.00  0.00     0.031 C 
ATOM     47  C   UNL A   1      38.607  27.497  30.090  1.00  0.00     0.029 A 
ATOM     48  N   UNL A   1      40.259  28.947  30.337  1.00  0.00    -0.354 N 
ATOM     49  C   UNL A   1      43.952  28.604  28.058  1.00  0.00     0.074 A 
ATOM     50  C   UNL A   1      43.377  28.322  26.767  1.00  0.00     0.031 C 
ATOM     51  C   UNL A   1      38.098  28.574  30.727  1.00  0.00     0.029 A 
ATOM     52  C   UNL A   1      39.135  29.578  30.868  1.00  0.00     0.049 A 
ATOM     53  H   UNL A   1      41.164  29.326  30.406  1.00  0.00     0.167 HD
ATOM     54  C   UNL A   1      45.000  29.405  28.401  1.00  0.00     0.037 A 
ATOM     55  C   UNL A   1      39.027  30.855  31.324  1.00  0.00     0.037 A 
ATOM     56  C   UNL A   1      45.372  29.236  29.777  1.00  0.00     0.049 A 
ATOM     57  C   UNL A   1      40.396  31.348  31.610  1.00  0.00     0.074 A 
ATOM     58  C   UNL A   1      45.839  28.174  30.528  1.00  0.00     0.029 A 
ATOM     59  N   UNL A   1      44.990  30.186  30.688  1.00  0.00    -0.354 N 
ATOM     60  N   UNL A   1      41.139  30.914  32.589  1.00  0.00    -0.248 NA
ATOM     61  C   UNL A   1      41.106  32.009  30.525  1.00  0.00     0.031 C 
ATOM     62  C   UNL A   1      45.222  28.331  31.803  1.00  0.00     0.029 A 
ATOM     63  C   UNL A   1      44.471  29.506  31.759  1.00  0.00     0.049 A 
ATOM     64  H   UNL A   1      45.070  31.163  30.593  1.00  0.00     0.167 HD
ATOM     65  C   UNL A   1      42.415  30.853  32.053  1.00  0.00     0.074 A 
ATOM     66  C   UNL A   1      42.346  31.606  30.803  1.00  0.00     0.031 C 
ATOM     67  C   UNL A   1      43.338  29.964  32.520  1.00  0.00     0.037 A 
BRANCH  54  68
ATOM     68  C   UNL A   1      45.514  30.558  27.573  1.00  0.00     0.064 A 
ATOM     69  C   UNL A   1      46.893  30.654  27.286  1.00  0.00     0.173 A 
ATOM     70  C   UNL A   1      44.758  31.718  27.310  1.00  0.00     0.173 A 
ATOM     71  F   UNL A   1      47.714  29.618  27.516  1.00  0.00    -0.203 F 
ATOM     72  C   UNL A   1      47.475  31.847  26.845  1.00  0.00     0.198 A 
ATOM     73  C   UNL A   1      45.333  32.890  26.821  1.00  0.00     0.198 A 
ATOM     74  F   UNL A   1      43.458  31.800  27.622  1.00  0.00    -0.203 F 
ATOM     75  F   UNL A   1      48.806  31.926  26.706  1.00  0.00    -0.200 F 
ATOM     76  C   UNL A   1      46.696  32.965  26.618  1.00  0.00     0.200 A 
ATOM     77  F   UNL A   1      44.564  33.970  26.624  1.00  0.00    -0.200 F 
ATOM     78  F   UNL A   1      47.258  34.126  26.256  1.00  0.00    -0.200 F 
ENDBRANCH  54  68
BRANCH  55  79
ATOM     79  C   UNL A   1      37.851  31.766  31.245  1.00  0.00     0.064 A 
ATOM     80  C   UNL A   1      37.438  32.340  30.028  1.00  0.00     0.173 A 
ATOM     81  C   UNL A   1      36.948  31.890  32.319  1.00  0.00     0.173 A 
ATOM     82  F   UNL A   1      38.204  32.232  28.933  1.00  0.00    -0.203 F 
ATOM     83  C   UNL A   1      36.196  32.980  29.898  1.00  0.00     0.198 A 
ATOM     84  C   UNL A   1      35.720  32.541  32.192  1.00  0.00     0.198 A 
ATOM     85  F   UNL A   1      37.190  31.300  33.498  1.00  0.00    -0.203 F 
ATOM     86  F   UNL A   1      35.811  33.462  28.706  1.00  0.00    -0.200 F 
ATOM     87  C   UNL A   1      35.335  33.074  30.979  1.00  0.00     0.200 A 
ATOM     88  F   UNL A   1      34.886  32.592  33.242  1.00  0.00    -0.200 F 
ATOM     89  F   UNL A   1      34.127  33.636  30.843  1.00  0.00    -0.200 F 
ENDBRANCH  55  79
BRANCH  67  90
ATOM     90  C   UNL A   1      43.024  29.203  33.775  1.00  0.00     0.064 A 
ATOM     91  C   UNL A   1      42.246  28.033  33.800  1.00  0.00     0.173 A 
ATOM     92  C   UNL A   1      43.694  29.560  34.953  1.00  0.00     0.173 A 
ATOM     93  F   UNL A   1      41.656  27.570  32.691  1.00  0.00    -0.203 F 
ATOM     94  C   UNL A   1      42.125  27.272  34.961  1.00  0.00     0.198 A 
ATOM     95  C   UNL A   1      43.600  28.778  36.101  1.00  0.00     0.198 A 
ATOM     96  F   UNL A   1      44.496  30.636  34.971  1.00  0.00    -0.203 F 
ATOM     97  F   UNL A   1      41.380  26.157  34.958  1.00  0.00    -0.200 F 
ATOM     98  C   UNL A   1      42.811  27.639  36.107  1.00  0.00     0.200 A 
ATOM     99  F   UNL A   1      44.308  29.108  37.190  1.00  0.00    -0.200 F 
ATOM    100  F   UNL A   1      42.740  26.877  37.208  1.00  0.00    -0.200 F 
ENDBRANCH  67  90
ENDBRANCH  41  42
ENDBRANCH  33  36
ENDBRANCH  31  32
ENDBRANCH  30  31
ENDBRANCH   1  30
TORSDOF 14
ENDMDL
MODEL 3
REMARK VINA RESULT:     -14.4      3.191      9.058
REMARK SMILES CC[C@@]1(CC(=O)NCCCNC(=O)c2ccc(-c3c4nc(c(-c5c(F)c(F)c(F)c(F)c5F)c5ccc([nH]5)c(-c5c(F)c(F)c(F)c(F)c5F)c5nc(c(-c6c(F)c(F)c(F)c(F)c6F)c6ccc3[nH]6)C=C5)C=C4)cc2)OC[C@H](Cc2ccccc2)c2c1[nH]c1ccccc21
REMARK SMILES IDX 8 1 7 2 5 3 6 4 4 6 3 7 77 8 88 9 78 10 87 11 89 12 79 13
REMARK SMILES IDX 95 14 90 15 94 17 91 18 93 19 92 20 2 21 1 22 80 23 81 24
REMARK SMILES IDX 82 25 86 26 83 27 85 28 84 29 9 30 10 31 11 32 12 33 13 35
REMARK SMILES IDX 14 36 15 37 76 38 16 39 75 40 17 41 18 42 19 43 69 44 20 45
REMARK SMILES IDX 74 46 68 47 70 48 21 49 73 50 67 51 66 52 22 54 54 55 34 56
REMARK SMILES IDX 53 57 35 58 38 59 52 60 71 61 36 62 37 63 51 65 72 66 39 67
REMARK SMILES IDX 23 68 24 69 32 70 25 71 26 72 30 73 33 74 27 75 28 76 31 77
REMARK SMILES IDX 29 78 55 79 56 80 64 81 57 82 58 83 62 84 65 85 59 86 60 87
REMARK SMILES IDX 63 88 61 89 40 90 41 91 49 92 42 93 43 94 47 95 50 96 44 97
REMARK SMILES IDX 45 98 48 99 46 100
REMARK H PARENT 7 5 89 16 11 34 70 53 38 64
REMARK Flexibility Score: inf
ROOT
ATOM      1  C   UNL A   1      36.241  23.658  24.018  1.00  0.00     0.117 C 
ENDROOT
BRANCH   1   2
ATOM      2  N   UNL A   1      35.007  23.333  23.282  1.00  0.00    -0.356 N 
ATOM      3  C   UNL A   1      33.821  23.984  23.075  1.00  0.00     0.223 C 
ATOM      4  O   UNL A   1      32.946  23.370  22.455  1.00  0.00    -0.275 OA
ATOM      5  H   UNL A   1      35.044  22.454  22.842  1.00  0.00     0.163 HD
BRANCH   3   6
ATOM      6  C   UNL A   1      33.533  25.389  23.596  1.00  0.00     0.142 C 
BRANCH   6   7
ATOM      7  C   UNL A   1      32.562  25.444  24.818  1.00  0.00     0.117 C 
ATOM      8  O   UNL A   1      31.176  25.315  24.399  1.00  0.00    -0.368 OA
ATOM      9  C   UNL A   1      32.645  26.765  25.496  1.00  0.00     0.052 A 
ATOM     10  C   UNL A   1      30.662  26.383  23.599  1.00  0.00     0.170 C 
ATOM     11  C   UNL A   1      31.833  27.862  25.295  1.00  0.00    -0.011 A 
ATOM     12  N   UNL A   1      33.646  27.083  26.367  1.00  0.00    -0.356 N 
ATOM     13  C   UNL A   1      30.687  27.781  24.275  1.00  0.00     0.052 C 
ATOM     14  C   UNL A   1      32.401  28.917  26.112  1.00  0.00     0.003 A 
ATOM     15  C   UNL A   1      33.560  28.401  26.711  1.00  0.00     0.046 A 
ATOM     16  H   UNL A   1      34.328  26.455  26.698  1.00  0.00     0.166 HD
ATOM     17  C   UNL A   1      32.147  30.293  26.314  1.00  0.00     0.010 A 
ATOM     18  C   UNL A   1      34.466  29.152  27.467  1.00  0.00     0.026 A 
ATOM     19  C   UNL A   1      33.068  31.073  27.043  1.00  0.00     0.001 A 
ATOM     20  C   UNL A   1      34.210  30.511  27.607  1.00  0.00     0.002 A 
BRANCH   7  21
ATOM     21  C   UNL A   1      32.766  24.243  25.793  1.00  0.00     0.039 C 
ATOM     22  C   UNL A   1      31.637  23.979  26.800  1.00  0.00     0.007 C 
ENDBRANCH   7  21
BRANCH  13  23
ATOM     23  C   UNL A   1      30.799  28.842  23.165  1.00  0.00     0.046 C 
BRANCH  23  24
ATOM     24  C   UNL A   1      29.711  29.862  22.887  1.00  0.00    -0.047 A 
ATOM     25  C   UNL A   1      29.389  30.833  23.834  1.00  0.00     0.004 A 
ATOM     26  C   UNL A   1      29.132  29.961  21.604  1.00  0.00     0.004 A 
ATOM     27  C   UNL A   1      28.570  31.911  23.487  1.00  0.00     0.000 A 
ATOM     28  C   UNL A   1      28.320  31.046  21.257  1.00  0.00     0.000 A 
ATOM     29  C   UNL A   1      28.059  32.035  22.196  1.00  0.00     0.000 A 
ENDBRANCH  23  24
ENDBRANCH  13  23
ENDBRANCH   6   7
ENDBRANCH   3   6
ENDBRANCH   1   2
BRANCH   1  30
ATOM     30  C   UNL A   1      36.262  23.006  25.417  1.00  0.00     0.042 C 
BRANCH  30  31
ATOM     31  C   UNL A   1      37.264  21.889  25.768  1.00  0.00     0.118 C 
BRANCH  31  32
ATOM     32  N   UNL A   1      38.661  22.185  25.504  1.00  0.00    -0.352 N 
ATOM     33  C   UNL A   1      39.600  22.248  26.525  1.00  0.00     0.251 C 
ATOM     34  H   UNL A   1      38.951  22.346  24.577  1.00  0.00     0.163 HD
ATOM     35  O   UNL A   1      40.212  21.233  26.825  1.00  0.00    -0.269 OA
BRANCH  33  36
ATOM     36  C   UNL A   1      40.052  23.577  27.046  1.00  0.00     0.039 A 
ATOM     37  C   UNL A   1      41.186  23.792  27.828  1.00  0.00     0.014 A 
ATOM     38  C   UNL A   1      39.217  24.671  26.769  1.00  0.00     0.014 A 
ATOM     39  C   UNL A   1      41.385  25.037  28.454  1.00  0.00     0.010 A 
ATOM     40  C   UNL A   1      39.432  25.917  27.361  1.00  0.00     0.010 A 
ATOM     41  C   UNL A   1      40.469  26.091  28.273  1.00  0.00    -0.014 A 
BRANCH  41  42
ATOM     42  C   UNL A   1      40.668  27.382  28.970  1.00  0.00     0.031 A 
ATOM     43  C   UNL A   1      41.801  28.222  28.464  1.00  0.00     0.074 A 
ATOM     44  C   UNL A   1      39.812  27.917  29.876  1.00  0.00     0.049 A 
ATOM     45  N   UNL A   1      42.794  28.737  29.116  1.00  0.00    -0.248 NA
ATOM     46  C   UNL A   1      41.845  28.478  27.016  1.00  0.00     0.031 C 
ATOM     47  C   UNL A   1      38.493  27.418  30.273  1.00  0.00     0.029 A 
ATOM     48  N   UNL A   1      39.907  29.090  30.585  1.00  0.00    -0.354 N 
ATOM     49  C   UNL A   1      43.521  29.493  28.192  1.00  0.00     0.074 A 
ATOM     50  C   UNL A   1      42.950  29.214  26.900  1.00  0.00     0.031 C 
ATOM     51  C   UNL A   1      37.847  28.354  31.001  1.00  0.00     0.029 A 
ATOM     52  C   UNL A   1      38.719  29.496  31.190  1.00  0.00     0.049 A 
ATOM     53  H   UNL A   1      40.744  29.601  30.658  1.00  0.00     0.167 HD
ATOM     54  C   UNL A   1      44.444  30.424  28.567  1.00  0.00     0.037 A 
ATOM     55  C   UNL A   1      38.431  30.706  31.742  1.00  0.00     0.037 A 
ATOM     56  C   UNL A   1      44.889  30.220  29.917  1.00  0.00     0.049 A 
ATOM     57  C   UNL A   1      39.716  31.387  32.029  1.00  0.00     0.074 A 
ATOM     58  C   UNL A   1      45.543  29.196  30.574  1.00  0.00     0.029 A 
ATOM     59  N   UNL A   1      44.397  31.033  30.905  1.00  0.00    -0.354 N 
ATOM     60  N   UNL A   1      40.553  31.010  32.953  1.00  0.00    -0.248 NA
ATOM     61  C   UNL A   1      40.273  32.227  30.978  1.00  0.00     0.031 C 
ATOM     62  C   UNL A   1      44.956  29.165  31.872  1.00  0.00     0.029 A 
ATOM     63  C   UNL A   1      44.031  30.206  31.936  1.00  0.00     0.049 A 
ATOM     64  H   UNL A   1      44.321  32.014  30.881  1.00  0.00     0.167 HD
ATOM     65  C   UNL A   1      41.802  31.188  32.382  1.00  0.00     0.074 A 
ATOM     66  C   UNL A   1      41.571  32.006  31.194  1.00  0.00     0.031 C 
ATOM     67  C   UNL A   1      42.869  30.426  32.758  1.00  0.00     0.037 A 
BRANCH  54  68
ATOM     68  C   UNL A   1      44.741  31.698  27.814  1.00  0.00     0.064 A 
ATOM     69  C   UNL A   1      45.953  31.824  27.103  1.00  0.00     0.173 A 
ATOM     70  C   UNL A   1      44.027  32.897  28.013  1.00  0.00     0.173 A 
ATOM     71  F   UNL A   1      46.728  30.753  26.872  1.00  0.00    -0.203 F 
ATOM     72  C   UNL A   1      46.445  33.068  26.692  1.00  0.00     0.198 A 
ATOM     73  C   UNL A   1      44.494  34.129  27.557  1.00  0.00     0.198 A 
ATOM     74  F   UNL A   1      42.910  32.941  28.750  1.00  0.00    -0.203 F 
ATOM     75  F   UNL A   1      47.658  33.152  26.131  1.00  0.00    -0.200 F 
ATOM     76  C   UNL A   1      45.717  34.220  26.925  1.00  0.00     0.200 A 
ATOM     77  F   UNL A   1      43.783  35.238  27.807  1.00  0.00    -0.200 F 
ATOM     78  F   UNL A   1      46.212  35.419  26.589  1.00  0.00    -0.200 F 
ENDBRANCH  54  68
BRANCH  55  79
ATOM     79  C   UNL A   1      37.125  31.423  31.762  1.00  0.00     0.064 A 
ATOM     80  C   UNL A   1      36.542  31.872  32.961  1.00  0.00     0.173 A 
ATOM     81  C   UNL A   1      36.542  31.913  30.576  1.00  0.00     0.173 A 
ATOM     82  F   UNL A   1      37.057  31.503  34.144  1.00  0.00    -0.203 F 
ATOM     83  C   UNL A   1      35.459  32.763  32.968  1.00  0.00     0.198 A 
ATOM     84  C   UNL A   1      35.454  32.787  30.584  1.00  0.00     0.198 A 
ATOM     85  F   UNL A   1      37.071  31.632  29.378  1.00  0.00    -0.203 F 
ATOM     86  F   UNL A   1      34.970  33.217  34.132  1.00  0.00    -0.200 F 
ATOM     87  C   UNL A   1      34.920  33.226  31.779  1.00  0.00     0.200 A 
ATOM     88  F   UNL A   1      34.969  33.250  29.422  1.00  0.00    -0.200 F 
ATOM     89  F   UNL A   1      33.923  34.119  31.783  1.00  0.00    -0.200 F 
ENDBRANCH  55  79
BRANCH  67  90
ATOM     90  C   UNL A   1      42.724  29.539  33.961  1.00  0.00     0.064 A 
ATOM     91  C   UNL A   1      42.153  28.256  33.915  1.00  0.00     0.173 A 
ATOM     92  C   UNL A   1      43.360  29.923  35.149  1.00  0.00     0.173 A 
ATOM     93  F   UNL A   1      41.616  27.777  32.786  1.00  0.00    -0.203 F 
ATOM     94  C   UNL A   1      42.196  27.408  35.021  1.00  0.00     0.198 A 
ATOM     95  C   UNL A   1      43.432  29.060  36.239  1.00  0.00     0.198 A 
ATOM     96  F   UNL A   1      43.972  31.115  35.229  1.00  0.00    -0.203 F 
ATOM     97  F   UNL A   1      41.647  26.186  34.951  1.00  0.00    -0.200 F 
ATOM     98  C   UNL A   1      42.845  27.807  36.177  1.00  0.00     0.200 A 
ATOM     99  F   UNL A   1      44.108  29.430  37.336  1.00  0.00    -0.200 F 
ATOM    100  F   UNL A   1      42.935  26.971  37.221  1.00  0.00    -0.200 F 
ENDBRANCH  67  90
ENDBRANCH  41  42
ENDBRANCH  33  36
ENDBRANCH  31  32
ENDBRANCH  30  31
ENDBRANCH   1  30
TORSDOF 14
ENDMDL
