MODEL 1
REMARK VINA RESULT:     -10.8      0.000      0.000
REMARK SMILES O=C(CNC(=O)NCc1ccc(Cl)cc1)NCCCNC(=O)c1ccc(-c2c3nc(c(-c4c(F)c(F)c(F)c(F)c4F)c4ccc([nH]4)c(-c4c(F)c(F)c(F)c(F)c4F)c4nc(c(-c5c(F)c(F)c(F)c(F)c5F)c5ccc2[nH]5)C=C4)C=C3)cc1
REMARK SMILES IDX 17 1 16 2 1 3 2 4 3 6 4 7 5 8 6 10 7 11 8 13 9 14 10 15
REMARK SMILES IDX 15 16 11 17 14 18 12 19 13 20 18 21 19 22 20 23 21 24 22 26
REMARK SMILES IDX 23 27 24 28 85 29 25 30 84 31 26 32 27 33 28 34 78 35 29 36
REMARK SMILES IDX 83 37 77 38 79 39 30 40 82 41 76 42 75 43 31 45 63 46 43 47
REMARK SMILES IDX 62 48 44 49 47 50 61 51 80 52 45 53 46 54 60 56 81 57 48 58
REMARK SMILES IDX 32 59 33 60 41 61 34 62 35 63 39 64 42 65 36 66 37 67 40 68
REMARK SMILES IDX 38 69 64 70 65 71 73 72 66 73 67 74 71 75 74 76 68 77 69 78
REMARK SMILES IDX 72 79 70 80 49 81 50 82 58 83 51 84 52 85 56 86 59 87 53 88
REMARK SMILES IDX 54 89 57 90 55 91
REMARK H PARENT 16 5 4 9 7 12 20 25 79 44 47 55
REMARK Flexibility Score: inf
ROOT
ATOM      1  C   UNL A   1      43.036  18.296  25.934  1.00  0.00     0.117 C 
ENDROOT
BRANCH   1   2
ATOM      2  N   UNL A   1      44.384  18.827  25.880  1.00  0.00    -0.355 N 
ATOM      3  O   UNL A   1      44.266  19.578  23.717  1.00  0.00    -0.273 OA
ATOM      4  C   UNL A   1      44.871  19.505  24.783  1.00  0.00     0.239 C 
ATOM      5  H   UNL A   1      44.974  18.698  26.657  1.00  0.00     0.163 HD
BRANCH   4   6
ATOM      6  C   UNL A   1      46.243  20.167  24.982  1.00  0.00     0.217 C 
BRANCH   6   7
ATOM      7  N   UNL A   1      46.385  21.430  24.268  1.00  0.00    -0.329 N 
ATOM      8  C   UNL A   1      46.230  22.714  24.593  1.00  0.00     0.315 C 
ATOM      9  H   UNL A   1      46.660  21.307  23.330  1.00  0.00     0.165 HD
ATOM     10  O   UNL A   1      46.547  23.555  23.752  1.00  0.00    -0.249 OA
ATOM     11  N   UNL A   1      45.747  23.143  25.759  1.00  0.00    -0.334 N 
ATOM     12  H   UNL A   1      45.813  24.120  25.858  1.00  0.00     0.165 HD
BRANCH  11  13
ATOM     13  C   UNL A   1      45.151  22.506  26.912  1.00  0.00     0.153 C 
BRANCH  13  14
ATOM     14  C   UNL A   1      45.124  23.371  28.151  1.00  0.00    -0.029 A 
ATOM     15  C   UNL A   1      46.000  24.451  28.350  1.00  0.00     0.007 A 
ATOM     16  C   UNL A   1      44.196  23.070  29.162  1.00  0.00     0.007 A 
ATOM     17  C   UNL A   1      45.931  25.223  29.515  1.00  0.00     0.021 A 
ATOM     18  C   UNL A   1      44.127  23.841  30.326  1.00  0.00     0.021 A 
ATOM     19  C   UNL A   1      44.993  24.916  30.496  1.00  0.00     0.041 A 
ATOM     20  Cl  UNL A   1      44.904  25.869  31.925  1.00  0.00    -0.084 Cl
ENDBRANCH  13  14
ENDBRANCH  11  13
ENDBRANCH   6   7
ENDBRANCH   4   6
ENDBRANCH   1   2
BRANCH   1  21
ATOM     21  C   UNL A   1      42.114  19.062  26.874  1.00  0.00     0.042 C 
BRANCH  21  22
ATOM     22  C   UNL A   1      41.624  20.400  26.329  1.00  0.00     0.118 C 
BRANCH  22  23
ATOM     23  N   UNL A   1      40.186  20.436  26.092  1.00  0.00    -0.352 N 
ATOM     24  C   UNL A   1      39.276  21.456  26.255  1.00  0.00     0.251 C 
ATOM     25  H   UNL A   1      39.802  19.591  25.764  1.00  0.00     0.163 HD
ATOM     26  O   UNL A   1      38.080  21.228  26.123  1.00  0.00    -0.269 OA
BRANCH  24  27
ATOM     27  C   UNL A   1      39.723  22.821  26.612  1.00  0.00     0.039 A 
ATOM     28  C   UNL A   1      40.600  22.982  27.691  1.00  0.00     0.014 A 
ATOM     29  C   UNL A   1      39.269  23.941  25.914  1.00  0.00     0.014 A 
ATOM     30  C   UNL A   1      41.089  24.252  28.012  1.00  0.00     0.010 A 
ATOM     31  C   UNL A   1      39.809  25.196  26.189  1.00  0.00     0.010 A 
ATOM     32  C   UNL A   1      40.734  25.363  27.233  1.00  0.00    -0.014 A 
BRANCH  32  33
ATOM     33  C   UNL A   1      41.321  26.708  27.465  1.00  0.00     0.031 A 
ATOM     34  C   UNL A   1      42.735  26.995  27.043  1.00  0.00     0.074 A 
ATOM     35  C   UNL A   1      40.623  27.634  28.150  1.00  0.00     0.049 A 
ATOM     36  N   UNL A   1      43.489  28.030  27.316  1.00  0.00    -0.248 NA
ATOM     37  C   UNL A   1      43.398  25.966  26.228  1.00  0.00     0.031 C 
ATOM     38  C   UNL A   1      39.252  27.472  28.636  1.00  0.00     0.029 A 
ATOM     39  N   UNL A   1      40.982  28.888  28.582  1.00  0.00    -0.354 N 
ATOM     40  C   UNL A   1      44.720  27.764  26.733  1.00  0.00     0.074 A 
ATOM     41  C   UNL A   1      44.625  26.455  26.122  1.00  0.00     0.031 C 
ATOM     42  C   UNL A   1      38.885  28.583  29.296  1.00  0.00     0.029 A 
ATOM     43  C   UNL A   1      40.009  29.515  29.323  1.00  0.00     0.049 A 
ATOM     44  H   UNL A   1      41.854  29.299  28.381  1.00  0.00     0.167 HD
ATOM     45  C   UNL A   1      45.826  28.547  26.701  1.00  0.00     0.037 A 
ATOM     46  C   UNL A   1      40.028  30.695  29.971  1.00  0.00     0.037 A 
ATOM     47  C   UNL A   1      45.907  29.861  27.283  1.00  0.00     0.049 A 
ATOM     48  C   UNL A   1      41.272  31.540  29.930  1.00  0.00     0.074 A 
ATOM     49  C   UNL A   1      46.967  30.751  27.259  1.00  0.00     0.029 A 
ATOM     50  N   UNL A   1      44.885  30.476  27.991  1.00  0.00    -0.354 N 
ATOM     51  N   UNL A   1      42.418  31.296  29.343  1.00  0.00    -0.248 NA
ATOM     52  C   UNL A   1      41.224  32.828  30.639  1.00  0.00     0.031 C 
ATOM     53  C   UNL A   1      46.601  31.887  27.988  1.00  0.00     0.029 A 
ATOM     54  C   UNL A   1      45.296  31.727  28.423  1.00  0.00     0.049 A 
ATOM     55  H   UNL A   1      44.000  30.082  28.163  1.00  0.00     0.167 HD
ATOM     56  C   UNL A   1      43.212  32.409  29.578  1.00  0.00     0.074 A 
ATOM     57  C   UNL A   1      42.418  33.333  30.361  1.00  0.00     0.031 C 
ATOM     58  C   UNL A   1      44.484  32.647  29.177  1.00  0.00     0.037 A 
BRANCH  45  59
ATOM     59  C   UNL A   1      47.044  28.001  26.015  1.00  0.00     0.064 A 
ATOM     60  C   UNL A   1      48.108  27.442  26.739  1.00  0.00     0.173 A 
ATOM     61  C   UNL A   1      47.131  27.998  24.615  1.00  0.00     0.173 A 
ATOM     62  F   UNL A   1      48.080  27.431  28.080  1.00  0.00    -0.203 F 
ATOM     63  C   UNL A   1      49.226  26.927  26.087  1.00  0.00     0.198 A 
ATOM     64  C   UNL A   1      48.236  27.453  23.965  1.00  0.00     0.198 A 
ATOM     65  F   UNL A   1      46.137  28.513  23.874  1.00  0.00    -0.203 F 
ATOM     66  F   UNL A   1      50.252  26.443  26.801  1.00  0.00    -0.200 F 
ATOM     67  C   UNL A   1      49.286  26.926  24.702  1.00  0.00     0.200 A 
ATOM     68  F   UNL A   1      48.285  27.442  22.626  1.00  0.00    -0.200 F 
ATOM     69  F   UNL A   1      50.358  26.423  24.076  1.00  0.00    -0.200 F 
ENDBRANCH  45  59
BRANCH  46  70
ATOM     70  C   UNL A   1      38.822  31.154  30.709  1.00  0.00     0.064 A 
ATOM     71  C   UNL A   1      38.685  30.906  32.083  1.00  0.00     0.173 A 
ATOM     72  C   UNL A   1      37.785  31.842  30.063  1.00  0.00     0.173 A 
ATOM     73  F   UNL A   1      39.641  30.232  32.739  1.00  0.00    -0.203 F 
ATOM     74  C   UNL A   1      37.548  31.314  32.777  1.00  0.00     0.198 A 
ATOM     75  C   UNL A   1      36.661  32.274  30.766  1.00  0.00     0.198 A 
ATOM     76  F   UNL A   1      37.870  32.108  28.751  1.00  0.00    -0.203 F 
ATOM     77  F   UNL A   1      37.423  31.024  34.079  1.00  0.00    -0.200 F 
ATOM     78  C   UNL A   1      36.540  32.002  32.119  1.00  0.00     0.200 A 
ATOM     79  F   UNL A   1      35.694  32.950  30.129  1.00  0.00    -0.200 F 
ATOM     80  F   UNL A   1      35.448  32.396  32.789  1.00  0.00    -0.200 F 
ENDBRANCH  46  70
BRANCH  58  81
ATOM     81  C   UNL A   1      45.084  33.979  29.518  1.00  0.00     0.064 A 
ATOM     82  C   UNL A   1      45.826  34.178  30.691  1.00  0.00     0.173 A 
ATOM     83  C   UNL A   1      44.965  35.054  28.624  1.00  0.00     0.173 A 
ATOM     84  F   UNL A   1      45.956  33.186  31.584  1.00  0.00    -0.203 F 
ATOM     85  C   UNL A   1      46.415  35.410  30.962  1.00  0.00     0.198 A 
ATOM     86  C   UNL A   1      45.577  36.276  28.885  1.00  0.00     0.198 A 
ATOM     87  F   UNL A   1      44.269  34.912  27.486  1.00  0.00    -0.203 F 
ATOM     88  F   UNL A   1      47.092  35.590  32.105  1.00  0.00    -0.200 F 
ATOM     89  C   UNL A   1      46.298  36.454  30.057  1.00  0.00     0.200 A 
ATOM     90  F   UNL A   1      45.474  37.278  28.002  1.00  0.00    -0.200 F 
ATOM     91  F   UNL A   1      46.879  37.634  30.313  1.00  0.00    -0.200 F 
ENDBRANCH  58  81
ENDBRANCH  32  33
ENDBRANCH  24  27
ENDBRANCH  22  23
ENDBRANCH  21  22
ENDBRANCH   1  21
TORSDOF 13
ENDMDL
MODEL 2
REMARK VINA RESULT:     -10.7      5.007     10.320
REMARK SMILES O=C(CNC(=O)NCc1ccc(Cl)cc1)NCCCNC(=O)c1ccc(-c2c3nc(c(-c4c(F)c(F)c(F)c(F)c4F)c4ccc([nH]4)c(-c4c(F)c(F)c(F)c(F)c4F)c4nc(c(-c5c(F)c(F)c(F)c(F)c5F)c5ccc2[nH]5)C=C4)C=C3)cc1
REMARK SMILES IDX 17 1 16 2 1 3 2 4 3 6 4 7 5 8 6 10 7 11 8 13 9 14 10 15
REMARK SMILES IDX 15 16 11 17 14 18 12 19 13 20 18 21 19 22 20 23 21 24 22 26
REMARK SMILES IDX 23 27 24 28 85 29 25 30 84 31 26 32 27 33 28 34 78 35 29 36
REMARK SMILES IDX 83 37 77 38 79 39 30 40 82 41 76 42 75 43 31 45 63 46 43 47
REMARK SMILES IDX 62 48 44 49 47 50 61 51 80 52 45 53 46 54 60 56 81 57 48 58
REMARK SMILES IDX 32 59 33 60 41 61 34 62 35 63 39 64 42 65 36 66 37 67 40 68
REMARK SMILES IDX 38 69 64 70 65 71 73 72 66 73 67 74 71 75 74 76 68 77 69 78
REMARK SMILES IDX 72 79 70 80 49 81 50 82 58 83 51 84 52 85 56 86 59 87 53 88
REMARK SMILES IDX 54 89 57 90 55 91
REMARK H PARENT 16 5 4 9 7 12 20 25 79 44 47 55
REMARK Flexibility Score: inf
ROOT
ATOM      1  C   UNL A   1      33.593  28.556  24.700  1.00  0.00     0.117 C 
ENDROOT
BRANCH   1   2
ATOM      2  N   UNL A   1      32.945  27.521  23.919  1.00  0.00    -0.355 N 
ATOM      3  O   UNL A   1      30.800  28.067  24.518  1.00  0.00    -0.273 OA
ATOM      4  C   UNL A   1      31.574  27.408  23.829  1.00  0.00     0.239 C 
ATOM      5  H   UNL A   1      33.506  26.874  23.434  1.00  0.00     0.163 HD
BRANCH   4   6
ATOM      6  C   UNL A   1      31.069  26.383  22.802  1.00  0.00     0.217 C 
BRANCH   6   7
ATOM      7  N   UNL A   1      31.827  26.389  21.557  1.00  0.00    -0.329 N 
ATOM      8  C   UNL A   1      32.610  25.509  20.932  1.00  0.00     0.315 C 
ATOM      9  H   UNL A   1      31.743  27.238  21.066  1.00  0.00     0.165 HD
ATOM     10  O   UNL A   1      33.017  25.809  19.810  1.00  0.00    -0.249 OA
ATOM     11  N   UNL A   1      32.984  24.336  21.443  1.00  0.00    -0.334 N 
ATOM     12  H   UNL A   1      33.466  23.777  20.792  1.00  0.00     0.165 HD
BRANCH  11  13
ATOM     13  C   UNL A   1      32.846  23.696  22.732  1.00  0.00     0.153 C 
BRANCH  13  14
ATOM     14  C   UNL A   1      34.110  23.701  23.562  1.00  0.00    -0.029 A 
ATOM     15  C   UNL A   1      35.287  23.042  23.169  1.00  0.00     0.007 A 
ATOM     16  C   UNL A   1      34.104  24.378  24.793  1.00  0.00     0.007 A 
ATOM     17  C   UNL A   1      36.431  23.081  23.973  1.00  0.00     0.021 A 
ATOM     18  C   UNL A   1      35.246  24.416  25.598  1.00  0.00     0.021 A 
ATOM     19  C   UNL A   1      36.406  23.770  25.182  1.00  0.00     0.041 A 
ATOM     20  Cl  UNL A   1      37.815  23.823  26.168  1.00  0.00    -0.084 Cl
ENDBRANCH  13  14
ENDBRANCH  11  13
ENDBRANCH   6   7
ENDBRANCH   4   6
ENDBRANCH   1   2
BRANCH   1  21
ATOM     21  C   UNL A   1      34.223  28.045  25.989  1.00  0.00     0.042 C 
BRANCH  21  22
ATOM     22  C   UNL A   1      33.511  28.491  27.263  1.00  0.00     0.118 C 
BRANCH  22  23
ATOM     23  N   UNL A   1      33.564  29.932  27.479  1.00  0.00    -0.352 N 
ATOM     24  C   UNL A   1      34.555  30.723  28.015  1.00  0.00     0.251 C 
ATOM     25  H   UNL A   1      32.756  30.420  27.197  1.00  0.00     0.163 HD
ATOM     26  O   UNL A   1      34.336  31.908  28.229  1.00  0.00    -0.269 OA
BRANCH  24  27
ATOM     27  C   UNL A   1      35.877  30.151  28.359  1.00  0.00     0.039 A 
ATOM     28  C   UNL A   1      36.900  30.199  27.405  1.00  0.00     0.014 A 
ATOM     29  C   UNL A   1      36.109  29.550  29.597  1.00  0.00     0.014 A 
ATOM     30  C   UNL A   1      38.177  29.726  27.725  1.00  0.00     0.010 A 
ATOM     31  C   UNL A   1      37.396  29.141  29.939  1.00  0.00     0.010 A 
ATOM     32  C   UNL A   1      38.446  29.236  29.011  1.00  0.00    -0.014 A 
BRANCH  32  33
ATOM     33  C   UNL A   1      39.814  28.832  29.430  1.00  0.00     0.031 A 
ATOM     34  C   UNL A   1      40.658  29.769  30.247  1.00  0.00     0.074 A 
ATOM     35  C   UNL A   1      40.335  27.672  28.986  1.00  0.00     0.049 A 
ATOM     36  N   UNL A   1      41.928  29.688  30.555  1.00  0.00    -0.248 NA
ATOM     37  C   UNL A   1      39.990  30.974  30.762  1.00  0.00     0.031 C 
ATOM     38  C   UNL A   1      39.629  26.686  28.166  1.00  0.00     0.029 A 
ATOM     39  N   UNL A   1      41.592  27.139  29.137  1.00  0.00    -0.354 N 
ATOM     40  C   UNL A   1      42.217  30.841  31.273  1.00  0.00     0.074 A 
ATOM     41  C   UNL A   1      40.999  31.622  31.325  1.00  0.00     0.031 C 
ATOM     42  C   UNL A   1      40.461  25.668  27.889  1.00  0.00     0.029 A 
ATOM     43  C   UNL A   1      41.770  25.951  28.469  1.00  0.00     0.049 A 
ATOM     44  H   UNL A   1      42.299  27.567  29.673  1.00  0.00     0.167 HD
ATOM     45  C   UNL A   1      43.388  31.206  31.847  1.00  0.00     0.037 A 
ATOM     46  C   UNL A   1      42.871  25.189  28.319  1.00  0.00     0.037 A 
ATOM     47  C   UNL A   1      44.588  30.412  31.820  1.00  0.00     0.049 A 
ATOM     48  C   UNL A   1      44.162  25.624  28.957  1.00  0.00     0.074 A 
ATOM     49  C   UNL A   1      45.810  30.675  32.415  1.00  0.00     0.029 A 
ATOM     50  N   UNL A   1      44.716  29.196  31.165  1.00  0.00    -0.354 N 
ATOM     51  N   UNL A   1      44.415  26.697  29.666  1.00  0.00    -0.248 NA
ATOM     52  C   UNL A   1      45.323  24.740  28.775  1.00  0.00     0.031 C 
ATOM     53  C   UNL A   1      46.689  29.638  32.086  1.00  0.00     0.029 A 
ATOM     54  C   UNL A   1      46.001  28.704  31.329  1.00  0.00     0.049 A 
ATOM     55  H   UNL A   1      44.000  28.749  30.659  1.00  0.00     0.167 HD
ATOM     56  C   UNL A   1      45.746  26.599  30.046  1.00  0.00     0.074 A 
ATOM     57  C   UNL A   1      46.251  25.362  29.490  1.00  0.00     0.031 C 
ATOM     58  C   UNL A   1      46.481  27.457  30.793  1.00  0.00     0.037 A 
BRANCH  45  59
ATOM     59  C   UNL A   1      43.433  32.530  32.553  1.00  0.00     0.064 A 
ATOM     60  C   UNL A   1      43.770  33.714  31.878  1.00  0.00     0.173 A 
ATOM     61  C   UNL A   1      43.092  32.625  33.911  1.00  0.00     0.173 A 
ATOM     62  F   UNL A   1      44.113  33.677  30.582  1.00  0.00    -0.203 F 
ATOM     63  C   UNL A   1      43.793  34.937  32.544  1.00  0.00     0.198 A 
ATOM     64  C   UNL A   1      43.086  33.853  34.566  1.00  0.00     0.198 A 
ATOM     65  F   UNL A   1      42.755  31.524  34.602  1.00  0.00    -0.203 F 
ATOM     66  F   UNL A   1      44.166  36.046  31.891  1.00  0.00    -0.200 F 
ATOM     67  C   UNL A   1      43.444  35.007  33.884  1.00  0.00     0.200 A 
ATOM     68  F   UNL A   1      42.736  33.920  35.858  1.00  0.00    -0.200 F 
ATOM     69  F   UNL A   1      43.459  36.185  34.521  1.00  0.00    -0.200 F 
ENDBRANCH  45  59
BRANCH  46  70
ATOM     70  C   UNL A   1      42.797  23.927  27.537  1.00  0.00     0.064 A 
ATOM     71  C   UNL A   1      43.118  23.909  26.172  1.00  0.00     0.173 A 
ATOM     72  C   UNL A   1      42.402  22.720  28.131  1.00  0.00     0.173 A 
ATOM     73  F   UNL A   1      43.479  25.044  25.556  1.00  0.00    -0.203 F 
ATOM     74  C   UNL A   1      43.030  22.735  25.428  1.00  0.00     0.198 A 
ATOM     75  C   UNL A   1      42.342  21.540  27.391  1.00  0.00     0.198 A 
ATOM     76  F   UNL A   1      42.088  22.683  29.435  1.00  0.00    -0.203 F 
ATOM     77  F   UNL A   1      43.299  22.757  24.116  1.00  0.00    -0.200 F 
ATOM     78  C   UNL A   1      42.647  21.551  26.039  1.00  0.00     0.200 A 
ATOM     79  F   UNL A   1      41.983  20.395  27.987  1.00  0.00    -0.200 F 
ATOM     80  F   UNL A   1      42.565  20.421  25.322  1.00  0.00    -0.200 F 
ENDBRANCH  46  70
BRANCH  58  81
ATOM     81  C   UNL A   1      47.894  27.065  31.112  1.00  0.00     0.064 A 
ATOM     82  C   UNL A   1      48.200  26.190  32.164  1.00  0.00     0.173 A 
ATOM     83  C   UNL A   1      48.950  27.524  30.309  1.00  0.00     0.173 A 
ATOM     84  F   UNL A   1      47.227  25.736  32.968  1.00  0.00    -0.203 F 
ATOM     85  C   UNL A   1      49.513  25.801  32.410  1.00  0.00     0.198 A 
ATOM     86  C   UNL A   1      50.259  27.113  30.541  1.00  0.00     0.198 A 
ATOM     87  F   UNL A   1      48.708  28.359  29.287  1.00  0.00    -0.203 F 
ATOM     88  F   UNL A   1      49.789  24.991  33.442  1.00  0.00    -0.200 F 
ATOM     89  C   UNL A   1      50.540  26.254  31.594  1.00  0.00     0.200 A 
ATOM     90  F   UNL A   1      51.246  27.541  29.744  1.00  0.00    -0.200 F 
ATOM     91  F   UNL A   1      51.802  25.866  31.823  1.00  0.00    -0.200 F 
ENDBRANCH  58  81
ENDBRANCH  32  33
ENDBRANCH  24  27
ENDBRANCH  22  23
ENDBRANCH  21  22
ENDBRANCH   1  21
TORSDOF 13
ENDMDL
MODEL 3
REMARK VINA RESULT:     -10.6      4.598      7.541
REMARK SMILES O=C(CNC(=O)NCc1ccc(Cl)cc1)NCCCNC(=O)c1ccc(-c2c3nc(c(-c4c(F)c(F)c(F)c(F)c4F)c4ccc([nH]4)c(-c4c(F)c(F)c(F)c(F)c4F)c4nc(c(-c5c(F)c(F)c(F)c(F)c5F)c5ccc2[nH]5)C=C4)C=C3)cc1
REMARK SMILES IDX 17 1 16 2 1 3 2 4 3 6 4 7 5 8 6 10 7 11 8 13 9 14 10 15
REMARK SMILES IDX 15 16 11 17 14 18 12 19 13 20 18 21 19 22 20 23 21 24 22 26
REMARK SMILES IDX 23 27 24 28 85 29 25 30 84 31 26 32 27 33 28 34 78 35 29 36
REMARK SMILES IDX 83 37 77 38 79 39 30 40 82 41 76 42 75 43 31 45 63 46 43 47
REMARK SMILES IDX 62 48 44 49 47 50 61 51 80 52 45 53 46 54 60 56 81 57 48 58
REMARK SMILES IDX 32 59 33 60 41 61 34 62 35 63 39 64 42 65 36 66 37 67 40 68
REMARK SMILES IDX 38 69 64 70 65 71 73 72 66 73 67 74 71 75 74 76 68 77 69 78
REMARK SMILES IDX 72 79 70 80 49 81 50 82 58 83 51 84 52 85 56 86 59 87 53 88
REMARK SMILES IDX 54 89 57 90 55 91
REMARK H PARENT 16 5 4 9 7 12 20 25 79 44 47 55
REMARK Flexibility Score: inf
ROOT
ATOM      1  C   UNL A   1      35.058  22.353  25.654  1.00  0.00     0.117 C 
ENDROOT
BRANCH   1   2
ATOM      2  N   UNL A   1      33.720  22.885  25.491  1.00  0.00    -0.355 N 
ATOM      3  O   UNL A   1      33.131  21.531  23.737  1.00  0.00    -0.273 OA
ATOM      4  C   UNL A   1      32.823  22.369  24.580  1.00  0.00     0.239 C 
ATOM      5  H   UNL A   1      33.441  23.645  26.051  1.00  0.00     0.163 HD
BRANCH   4   6
ATOM      6  C   UNL A   1      31.394  22.923  24.685  1.00  0.00     0.217 C 
BRANCH   6   7
ATOM      7  N   UNL A   1      30.787  22.715  25.994  1.00  0.00    -0.329 N 
ATOM      8  C   UNL A   1      30.017  23.450  26.798  1.00  0.00     0.315 C 
ATOM      9  H   UNL A   1      30.992  21.829  26.371  1.00  0.00     0.165 HD
ATOM     10  O   UNL A   1      29.581  22.911  27.815  1.00  0.00    -0.249 OA
ATOM     11  N   UNL A   1      29.699  24.726  26.578  1.00  0.00    -0.334 N 
ATOM     12  H   UNL A   1      29.033  25.065  27.219  1.00  0.00     0.165 HD
BRANCH  11  13
ATOM     13  C   UNL A   1      30.106  25.726  25.617  1.00  0.00     0.153 C 
BRANCH  13  14
ATOM     14  C   UNL A   1      31.304  26.542  26.045  1.00  0.00    -0.029 A 
ATOM     15  C   UNL A   1      32.609  26.281  25.596  1.00  0.00     0.007 A 
ATOM     16  C   UNL A   1      31.109  27.598  26.951  1.00  0.00     0.007 A 
ATOM     17  C   UNL A   1      33.683  27.070  26.020  1.00  0.00     0.021 A 
ATOM     18  C   UNL A   1      32.183  28.387  27.377  1.00  0.00     0.021 A 
ATOM     19  C   UNL A   1      33.465  28.121  26.907  1.00  0.00     0.041 A 
ATOM     20  Cl  UNL A   1      34.785  29.095  27.424  1.00  0.00    -0.084 Cl
ENDBRANCH  13  14
ENDBRANCH  11  13
ENDBRANCH   6   7
ENDBRANCH   4   6
ENDBRANCH   1   2
BRANCH   1  21
ATOM     21  C   UNL A   1      36.076  22.952  24.693  1.00  0.00     0.042 C 
BRANCH  21  22
ATOM     22  C   UNL A   1      37.223  23.699  25.369  1.00  0.00     0.118 C 
BRANCH  22  23
ATOM     23  N   UNL A   1      38.370  22.849  25.664  1.00  0.00    -0.352 N 
ATOM     24  C   UNL A   1      39.565  23.139  26.284  1.00  0.00     0.251 C 
ATOM     25  H   UNL A   1      38.276  21.914  25.371  1.00  0.00     0.163 HD
ATOM     26  O   UNL A   1      40.454  22.298  26.310  1.00  0.00    -0.269 OA
BRANCH  24  27
ATOM     27  C   UNL A   1      39.797  24.466  26.899  1.00  0.00     0.039 A 
ATOM     28  C   UNL A   1      39.357  24.688  28.208  1.00  0.00     0.014 A 
ATOM     29  C   UNL A   1      40.419  25.496  26.191  1.00  0.00     0.014 A 
ATOM     30  C   UNL A   1      39.620  25.910  28.837  1.00  0.00     0.010 A 
ATOM     31  C   UNL A   1      40.741  26.687  26.839  1.00  0.00     0.010 A 
ATOM     32  C   UNL A   1      40.355  26.902  28.172  1.00  0.00    -0.014 A 
BRANCH  32  33
ATOM     33  C   UNL A   1      40.757  28.166  28.842  1.00  0.00     0.031 A 
ATOM     34  C   UNL A   1      42.147  28.316  29.394  1.00  0.00     0.074 A 
ATOM     35  C   UNL A   1      39.844  29.134  29.049  1.00  0.00     0.049 A 
ATOM     36  N   UNL A   1      42.637  29.253  30.166  1.00  0.00    -0.248 NA
ATOM     37  C   UNL A   1      43.106  27.255  29.053  1.00  0.00     0.031 C 
ATOM     38  C   UNL A   1      38.456  29.100  28.586  1.00  0.00     0.029 A 
ATOM     39  N   UNL A   1      39.938  30.324  29.729  1.00  0.00    -0.354 N 
ATOM     40  C   UNL A   1      43.948  28.880  30.427  1.00  0.00     0.074 A 
ATOM     41  C   UNL A   1      44.168  27.614  29.760  1.00  0.00     0.031 C 
ATOM     42  C   UNL A   1      37.829  30.217  28.992  1.00  0.00     0.029 A 
ATOM     43  C   UNL A   1      38.755  31.021  29.785  1.00  0.00     0.049 A 
ATOM     44  H   UNL A   1      40.773  30.646  30.139  1.00  0.00     0.167 HD
ATOM     45  C   UNL A   1      44.887  29.541  31.147  1.00  0.00     0.037 A 
ATOM     46  C   UNL A   1      38.445  32.166  30.423  1.00  0.00     0.037 A 
ATOM     47  C   UNL A   1      44.674  30.814  31.784  1.00  0.00     0.049 A 
ATOM     48  C   UNL A   1      39.502  32.874  31.226  1.00  0.00     0.074 A 
ATOM     49  C   UNL A   1      45.578  31.585  32.494  1.00  0.00     0.029 A 
ATOM     50  N   UNL A   1      43.472  31.506  31.783  1.00  0.00    -0.354 N 
ATOM     51  N   UNL A   1      40.749  32.532  31.434  1.00  0.00    -0.248 NA
ATOM     52  C   UNL A   1      39.108  34.130  31.881  1.00  0.00     0.031 C 
ATOM     53  C   UNL A   1      44.912  32.724  32.957  1.00  0.00     0.029 A 
ATOM     54  C   UNL A   1      43.607  32.688  32.493  1.00  0.00     0.049 A 
ATOM     55  H   UNL A   1      42.646  31.202  31.344  1.00  0.00     0.167 HD
ATOM     56  C   UNL A   1      41.299  33.544  32.209  1.00  0.00     0.074 A 
ATOM     57  C   UNL A   1      40.249  34.515  32.435  1.00  0.00     0.031 C 
ATOM     58  C   UNL A   1      42.561  33.659  32.686  1.00  0.00     0.037 A 
BRANCH  45  59
ATOM     59  C   UNL A   1      46.234  28.895  31.292  1.00  0.00     0.064 A 
ATOM     60  C   UNL A   1      47.265  29.128  30.368  1.00  0.00     0.173 A 
ATOM     61  C   UNL A   1      46.512  28.066  32.389  1.00  0.00     0.173 A 
ATOM     62  F   UNL A   1      47.048  29.903  29.296  1.00  0.00    -0.203 F 
ATOM     63  C   UNL A   1      48.514  28.531  30.524  1.00  0.00     0.198 A 
ATOM     64  C   UNL A   1      47.771  27.497  32.558  1.00  0.00     0.198 A 
ATOM     65  F   UNL A   1      45.563  27.816  33.306  1.00  0.00    -0.203 F 
ATOM     66  F   UNL A   1      49.468  28.730  29.603  1.00  0.00    -0.200 F 
ATOM     67  C   UNL A   1      48.769  27.723  31.621  1.00  0.00     0.200 A 
ATOM     68  F   UNL A   1      48.019  26.726  33.626  1.00  0.00    -0.200 F 
ATOM     69  F   UNL A   1      49.973  27.157  31.773  1.00  0.00    -0.200 F 
ENDBRANCH  45  59
BRANCH  46  70
ATOM     70  C   UNL A   1      37.070  32.723  30.319  1.00  0.00     0.064 A 
ATOM     71  C   UNL A   1      36.706  33.538  29.237  1.00  0.00     0.173 A 
ATOM     72  C   UNL A   1      36.097  32.457  31.292  1.00  0.00     0.173 A 
ATOM     73  F   UNL A   1      37.611  33.838  28.293  1.00  0.00    -0.203 F 
ATOM     74  C   UNL A   1      35.427  34.081  29.144  1.00  0.00     0.198 A 
ATOM     75  C   UNL A   1      34.809  32.979  31.183  1.00  0.00     0.198 A 
ATOM     76  F   UNL A   1      36.393  31.679  32.345  1.00  0.00    -0.203 F 
ATOM     77  F   UNL A   1      35.121  34.894  28.124  1.00  0.00    -0.200 F 
ATOM     78  C   UNL A   1      34.478  33.796  30.113  1.00  0.00     0.200 A 
ATOM     79  F   UNL A   1      33.890  32.691  32.115  1.00  0.00    -0.200 F 
ATOM     80  F   UNL A   1      33.246  34.317  30.021  1.00  0.00    -0.200 F 
ENDBRANCH  46  70
BRANCH  58  81
ATOM     81  C   UNL A   1      42.905  34.905  33.448  1.00  0.00     0.064 A 
ATOM     82  C   UNL A   1      43.323  36.076  32.800  1.00  0.00     0.173 A 
ATOM     83  C   UNL A   1      42.752  34.942  34.842  1.00  0.00     0.173 A 
ATOM     84  F   UNL A   1      43.499  36.086  31.470  1.00  0.00    -0.203 F 
ATOM     85  C   UNL A   1      43.589  37.235  33.523  1.00  0.00     0.198 A 
ATOM     86  C   UNL A   1      42.993  36.110  35.559  1.00  0.00     0.198 A 
ATOM     87  F   UNL A   1      42.350  33.849  35.507  1.00  0.00    -0.203 F 
ATOM     88  F   UNL A   1      44.020  38.335  32.889  1.00  0.00    -0.200 F 
ATOM     89  C   UNL A   1      43.415  37.255  34.899  1.00  0.00     0.200 A 
ATOM     90  F   UNL A   1      42.811  36.130  36.886  1.00  0.00    -0.200 F 
ATOM     91  F   UNL A   1      43.657  38.376  35.592  1.00  0.00    -0.200 F 
ENDBRANCH  58  81
ENDBRANCH  32  33
ENDBRANCH  24  27
ENDBRANCH  22  23
ENDBRANCH  21  22
ENDBRANCH   1  21
TORSDOF 13
ENDMDL
