MODEL 1
REMARK VINA RESULT:     -12.9      0.000      0.000
REMARK SMILES COC(=O)[C@H]1CCN(S(=O)(=O)N2CCC[C@H](C(=O)NCCCNC(=O)c3ccc(-c4c5nc(c(-c6c(F)c(F)c(F)c(F)c6F)c6ccc([nH]6)c(-c6c(F)c(F)c(F)c(F)c6F)c6nc(c(-c7c(F)c(F)c(F)c(F)c7F)c7ccc4[nH]7)C=C6)C=C5)cc3)C2)C1
REMARK SMILES IDX 20 1 19 2 17 3 18 4 16 6 12 7 13 8 89 9 14 10 15 11 9 12
REMARK SMILES IDX 10 13 11 14 8 15 5 16 6 17 90 18 7 19 3 20 4 21 2 22 1 23
REMARK SMILES IDX 21 24 22 25 23 26 24 27 25 29 26 30 27 31 88 32 28 33 87 34
REMARK SMILES IDX 29 35 30 36 31 37 81 38 32 39 86 40 80 41 82 42 33 43 85 44
REMARK SMILES IDX 79 45 78 46 34 48 66 49 46 50 65 51 47 52 50 53 64 54 83 55
REMARK SMILES IDX 48 56 49 57 63 59 84 60 51 61 35 62 36 63 44 64 37 65 38 66
REMARK SMILES IDX 42 67 45 68 39 69 40 70 43 71 41 72 67 73 68 74 76 75 69 76
REMARK SMILES IDX 70 77 74 78 77 79 71 80 72 81 75 82 73 83 52 84 53 85 61 86
REMARK SMILES IDX 54 87 55 88 59 89 62 90 56 91 57 92 60 93 58 94
REMARK H PARENT 19 5 23 28 82 47 50 58
REMARK Flexibility Score: inf
ROOT
ATOM      1  C   UNL A   1      31.752  30.621  26.495  1.00  0.00     0.117 C 
ENDROOT
BRANCH   1   2
ATOM      2  N   UNL A   1      31.367  30.171  25.176  1.00  0.00    -0.356 N 
ATOM      3  C   UNL A   1      32.005  29.415  24.253  1.00  0.00     0.224 C 
ATOM      4  O   UNL A   1      31.375  29.201  23.208  1.00  0.00    -0.275 OA
ATOM      5  H   UNL A   1      30.471  30.471  24.898  1.00  0.00     0.163 HD
BRANCH   3   6
ATOM      6  C   UNL A   1      33.416  28.844  24.398  1.00  0.00     0.094 C 
ATOM      7  N   UNL A   1      33.628  26.483  23.637  1.00  0.00    -0.188 NA
ATOM      8  C   UNL A   1      34.156  26.005  24.920  1.00  0.00     0.103 C 
ATOM      9  C   UNL A   1      33.867  27.896  23.299  1.00  0.00     0.117 C 
ATOM     10  C   UNL A   1      33.681  26.898  26.064  1.00  0.00     0.018 C 
ATOM     11  C   UNL A   1      33.826  28.391  25.798  1.00  0.00     0.016 C 
BRANCH   7  12
ATOM     12  S   UNL A   1      33.297  25.379  22.424  1.00  0.00     0.282 S 
ATOM     13  O   UNL A   1      34.060  24.179  22.661  1.00  0.00    -0.195 OA
ATOM     14  O   UNL A   1      33.388  26.083  21.163  1.00  0.00    -0.195 OA
BRANCH  12  15
ATOM     15  N   UNL A   1      31.664  25.028  22.685  1.00  0.00    -0.188 NA
ATOM     16  C   UNL A   1      30.662  24.380  24.805  1.00  0.00     0.116 C 
ATOM     17  C   UNL A   1      30.732  25.891  24.690  1.00  0.00     0.033 C 
ATOM     18  C   UNL A   1      31.474  23.860  23.618  1.00  0.00     0.118 C 
ATOM     19  C   UNL A   1      30.800  26.110  23.199  1.00  0.00     0.104 C 
BRANCH  16  20
ATOM     20  C   UNL A   1      31.215  23.927  26.132  1.00  0.00     0.310 C 
ATOM     21  O   UNL A   1      32.369  23.594  26.349  1.00  0.00    -0.252 OA
BRANCH  20  22
ATOM     22  O   UNL A   1      30.223  23.961  27.069  1.00  0.00    -0.469 OA
ATOM     23  C   UNL A   1      29.554  22.713  27.250  1.00  0.00     0.282 C 
ENDBRANCH  20  22
ENDBRANCH  16  20
ENDBRANCH  12  15
ENDBRANCH   7  12
ENDBRANCH   3   6
ENDBRANCH   1   2
BRANCH   1  24
ATOM     24  C   UNL A   1      31.534  32.110  26.679  1.00  0.00     0.042 C 
BRANCH  24  25
ATOM     25  C   UNL A   1      32.759  32.804  27.231  1.00  0.00     0.118 C 
BRANCH  25  26
ATOM     26  N   UNL A   1      32.487  34.187  27.610  1.00  0.00    -0.352 N 
ATOM     27  C   UNL A   1      33.014  34.942  28.629  1.00  0.00     0.251 C 
ATOM     28  H   UNL A   1      31.822  34.649  27.050  1.00  0.00     0.163 HD
ATOM     29  O   UNL A   1      32.529  36.031  28.914  1.00  0.00    -0.269 OA
BRANCH  27  30
ATOM     30  C   UNL A   1      34.165  34.427  29.395  1.00  0.00     0.039 A 
ATOM     31  C   UNL A   1      33.947  33.772  30.610  1.00  0.00     0.014 A 
ATOM     32  C   UNL A   1      35.461  34.578  28.901  1.00  0.00     0.014 A 
ATOM     33  C   UNL A   1      35.027  33.215  31.295  1.00  0.00     0.010 A 
ATOM     34  C   UNL A   1      36.510  33.909  29.509  1.00  0.00     0.010 A 
ATOM     35  C   UNL A   1      36.311  33.250  30.731  1.00  0.00    -0.014 A 
BRANCH  35  36
ATOM     36  C   UNL A   1      37.494  32.676  31.415  1.00  0.00     0.031 A 
ATOM     37  C   UNL A   1      38.228  31.534  30.767  1.00  0.00     0.074 A 
ATOM     38  C   UNL A   1      37.844  33.105  32.642  1.00  0.00     0.049 A 
ATOM     39  N   UNL A   1      39.173  30.771  31.249  1.00  0.00    -0.248 NA
ATOM     40  C   UNL A   1      37.800  31.170  29.404  1.00  0.00     0.031 C 
ATOM     41  C   UNL A   1      37.181  34.174  33.388  1.00  0.00     0.029 A 
ATOM     42  N   UNL A   1      38.834  32.672  33.487  1.00  0.00    -0.354 N 
ATOM     43  C   UNL A   1      39.425  29.823  30.265  1.00  0.00     0.074 A 
ATOM     44  C   UNL A   1      38.482  30.056  29.196  1.00  0.00     0.031 C 
ATOM     45  C   UNL A   1      37.792  34.326  34.574  1.00  0.00     0.029 A 
ATOM     46  C   UNL A   1      38.854  33.331  34.691  1.00  0.00     0.049 A 
ATOM     47  H   UNL A   1      39.469  31.955  33.253  1.00  0.00     0.167 HD
ATOM     48  C   UNL A   1      40.382  28.865  30.241  1.00  0.00     0.037 A 
ATOM     49  C   UNL A   1      39.633  33.138  35.773  1.00  0.00     0.037 A 
ATOM     50  C   UNL A   1      41.332  28.663  31.301  1.00  0.00     0.049 A 
ATOM     51  C   UNL A   1      40.684  32.062  35.734  1.00  0.00     0.074 A 
ATOM     52  C   UNL A   1      42.377  27.760  31.362  1.00  0.00     0.029 A 
ATOM     53  N   UNL A   1      41.346  29.379  32.490  1.00  0.00    -0.354 N 
ATOM     54  N   UNL A   1      40.956  31.206  34.778  1.00  0.00    -0.248 NA
ATOM     55  C   UNL A   1      41.542  31.928  36.919  1.00  0.00     0.031 C 
ATOM     56  C   UNL A   1      42.987  27.889  32.614  1.00  0.00     0.029 A 
ATOM     57  C   UNL A   1      42.370  28.921  33.303  1.00  0.00     0.049 A 
ATOM     58  H   UNL A   1      40.722  30.104  32.721  1.00  0.00     0.167 HD
ATOM     59  C   UNL A   1      42.037  30.459  35.227  1.00  0.00     0.074 A 
ATOM     60  C   UNL A   1      42.372  30.964  36.543  1.00  0.00     0.031 C 
ATOM     61  C   UNL A   1      42.697  29.451  34.604  1.00  0.00     0.037 A 
BRANCH  48  62
ATOM     62  C   UNL A   1      40.431  27.971  29.034  1.00  0.00     0.064 A 
ATOM     63  C   UNL A   1      41.208  28.289  27.907  1.00  0.00     0.173 A 
ATOM     64  C   UNL A   1      39.683  26.785  28.996  1.00  0.00     0.173 A 
ATOM     65  F   UNL A   1      41.936  29.416  27.882  1.00  0.00    -0.203 F 
ATOM     66  C   UNL A   1      41.189  27.483  26.771  1.00  0.00     0.198 A 
ATOM     67  C   UNL A   1      39.700  25.960  27.873  1.00  0.00     0.198 A 
ATOM     68  F   UNL A   1      38.928  26.427  30.045  1.00  0.00    -0.203 F 
ATOM     69  F   UNL A   1      41.874  27.852  25.679  1.00  0.00    -0.200 F 
ATOM     70  C   UNL A   1      40.440  26.318  26.757  1.00  0.00     0.200 A 
ATOM     71  F   UNL A   1      38.989  24.824  27.869  1.00  0.00    -0.200 F 
ATOM     72  F   UNL A   1      40.421  25.543  25.663  1.00  0.00    -0.200 F 
ENDBRANCH  48  62
BRANCH  49  73
ATOM     73  C   UNL A   1      39.452  34.002  36.969  1.00  0.00     0.064 A 
ATOM     74  C   UNL A   1      38.687  33.571  38.061  1.00  0.00     0.173 A 
ATOM     75  C   UNL A   1      40.062  35.262  37.058  1.00  0.00     0.173 A 
ATOM     76  F   UNL A   1      38.070  32.380  38.018  1.00  0.00    -0.203 F 
ATOM     77  C   UNL A   1      38.527  34.372  39.191  1.00  0.00     0.198 A 
ATOM     78  C   UNL A   1      39.927  36.049  38.200  1.00  0.00     0.198 A 
ATOM     79  F   UNL A   1      40.813  35.719  36.045  1.00  0.00    -0.203 F 
ATOM     80  F   UNL A   1      37.758  33.951  40.205  1.00  0.00    -0.200 F 
ATOM     81  C   UNL A   1      39.153  35.607  39.263  1.00  0.00     0.200 A 
ATOM     82  F   UNL A   1      40.549  37.234  38.273  1.00  0.00    -0.200 F 
ATOM     83  F   UNL A   1      39.010  36.372  40.353  1.00  0.00    -0.200 F 
ENDBRANCH  49  73
BRANCH  61  84
ATOM     84  C   UNL A   1      43.888  28.862  35.303  1.00  0.00     0.064 A 
ATOM     85  C   UNL A   1      43.770  27.782  36.189  1.00  0.00     0.173 A 
ATOM     86  C   UNL A   1      45.176  29.340  35.016  1.00  0.00     0.173 A 
ATOM     87  F   UNL A   1      42.560  27.296  36.506  1.00  0.00    -0.203 F 
ATOM     88  C   UNL A   1      44.898  27.213  36.774  1.00  0.00     0.198 A 
ATOM     89  C   UNL A   1      46.303  28.748  35.577  1.00  0.00     0.198 A 
ATOM     90  F   UNL A   1      45.343  30.367  34.168  1.00  0.00    -0.203 F 
ATOM     91  F   UNL A   1      44.761  26.206  37.649  1.00  0.00    -0.200 F 
ATOM     92  C   UNL A   1      46.163  27.687  36.459  1.00  0.00     0.200 A 
ATOM     93  F   UNL A   1      47.523  29.196  35.255  1.00  0.00    -0.200 F 
ATOM     94  F   UNL A   1      47.247  27.125  37.009  1.00  0.00    -0.200 F 
ENDBRANCH  61  84
ENDBRANCH  35  36
ENDBRANCH  27  30
ENDBRANCH  25  26
ENDBRANCH  24  25
ENDBRANCH   1  24
TORSDOF 14
ENDMDL
MODEL 2
REMARK VINA RESULT:     -12.8      0.273      1.606
REMARK SMILES COC(=O)[C@H]1CCN(S(=O)(=O)N2CCC[C@H](C(=O)NCCCNC(=O)c3ccc(-c4c5nc(c(-c6c(F)c(F)c(F)c(F)c6F)c6ccc([nH]6)c(-c6c(F)c(F)c(F)c(F)c6F)c6nc(c(-c7c(F)c(F)c(F)c(F)c7F)c7ccc4[nH]7)C=C6)C=C5)cc3)C2)C1
REMARK SMILES IDX 20 1 19 2 17 3 18 4 16 6 12 7 13 8 89 9 14 10 15 11 9 12
REMARK SMILES IDX 10 13 11 14 8 15 5 16 6 17 90 18 7 19 3 20 4 21 2 22 1 23
REMARK SMILES IDX 21 24 22 25 23 26 24 27 25 29 26 30 27 31 88 32 28 33 87 34
REMARK SMILES IDX 29 35 30 36 31 37 81 38 32 39 86 40 80 41 82 42 33 43 85 44
REMARK SMILES IDX 79 45 78 46 34 48 66 49 46 50 65 51 47 52 50 53 64 54 83 55
REMARK SMILES IDX 48 56 49 57 63 59 84 60 51 61 35 62 36 63 44 64 37 65 38 66
REMARK SMILES IDX 42 67 45 68 39 69 40 70 43 71 41 72 67 73 68 74 76 75 69 76
REMARK SMILES IDX 70 77 74 78 77 79 71 80 72 81 75 82 73 83 52 84 53 85 61 86
REMARK SMILES IDX 54 87 55 88 59 89 62 90 56 91 57 92 60 93 58 94
REMARK H PARENT 19 5 23 28 82 47 50 58
REMARK Flexibility Score: inf
ROOT
ATOM      1  C   UNL A   1      31.630  30.665  26.439  1.00  0.00     0.117 C 
ENDROOT
BRANCH   1   2
ATOM      2  N   UNL A   1      31.250  30.157  25.140  1.00  0.00    -0.356 N 
ATOM      3  C   UNL A   1      31.905  29.391  24.238  1.00  0.00     0.224 C 
ATOM      4  O   UNL A   1      31.275  29.119  23.208  1.00  0.00    -0.275 OA
ATOM      5  H   UNL A   1      30.344  30.419  24.860  1.00  0.00     0.163 HD
BRANCH   3   6
ATOM      6  C   UNL A   1      33.335  28.870  24.391  1.00  0.00     0.094 C 
ATOM      7  N   UNL A   1      33.626  26.505  23.669  1.00  0.00    -0.188 NA
ATOM      8  C   UNL A   1      34.171  26.067  24.960  1.00  0.00     0.103 C 
ATOM      9  C   UNL A   1      33.817  27.919  23.308  1.00  0.00     0.117 C 
ATOM     10  C   UNL A   1      33.668  26.962  26.089  1.00  0.00     0.018 C 
ATOM     11  C   UNL A   1      33.762  28.455  25.798  1.00  0.00     0.016 C 
BRANCH   7  12
ATOM     12  S   UNL A   1      33.332  25.370  22.476  1.00  0.00     0.282 S 
ATOM     13  O   UNL A   1      34.195  24.234  22.686  1.00  0.00    -0.195 OA
ATOM     14  O   UNL A   1      33.315  26.069  21.209  1.00  0.00    -0.195 OA
BRANCH  12  15
ATOM     15  N   UNL A   1      31.744  24.895  22.807  1.00  0.00    -0.188 NA
ATOM     16  C   UNL A   1      30.906  24.101  24.949  1.00  0.00     0.116 C 
ATOM     17  C   UNL A   1      30.866  25.616  24.891  1.00  0.00     0.033 C 
ATOM     18  C   UNL A   1      31.685  23.684  23.701  1.00  0.00     0.118 C 
ATOM     19  C   UNL A   1      30.836  25.894  23.409  1.00  0.00     0.104 C 
BRANCH  16  20
ATOM     20  C   UNL A   1      31.560  23.639  26.226  1.00  0.00     0.310 C 
ATOM     21  O   UNL A   1      32.720  23.278  26.344  1.00  0.00    -0.252 OA
BRANCH  20  22
ATOM     22  O   UNL A   1      30.654  23.701  27.245  1.00  0.00    -0.469 OA
ATOM     23  C   UNL A   1      29.529  22.838  27.074  1.00  0.00     0.282 C 
ENDBRANCH  20  22
ENDBRANCH  16  20
ENDBRANCH  12  15
ENDBRANCH   7  12
ENDBRANCH   3   6
ENDBRANCH   1   2
BRANCH   1  24
ATOM     24  C   UNL A   1      31.516  32.174  26.521  1.00  0.00     0.042 C 
BRANCH  24  25
ATOM     25  C   UNL A   1      32.703  32.803  27.217  1.00  0.00     0.118 C 
BRANCH  25  26
ATOM     26  N   UNL A   1      32.450  34.189  27.597  1.00  0.00    -0.352 N 
ATOM     27  C   UNL A   1      33.010  34.944  28.598  1.00  0.00     0.251 C 
ATOM     28  H   UNL A   1      31.774  34.654  27.052  1.00  0.00     0.163 HD
ATOM     29  O   UNL A   1      32.540  36.038  28.891  1.00  0.00    -0.269 OA
BRANCH  27  30
ATOM     30  C   UNL A   1      34.176  34.424  29.337  1.00  0.00     0.039 A 
ATOM     31  C   UNL A   1      33.983  33.752  30.547  1.00  0.00     0.014 A 
ATOM     32  C   UNL A   1      35.462  34.587  28.822  1.00  0.00     0.014 A 
ATOM     33  C   UNL A   1      35.078  33.191  31.204  1.00  0.00     0.010 A 
ATOM     34  C   UNL A   1      36.525  33.914  29.401  1.00  0.00     0.010 A 
ATOM     35  C   UNL A   1      36.351  33.238  30.617  1.00  0.00    -0.014 A 
BRANCH  35  36
ATOM     36  C   UNL A   1      37.549  32.661  31.272  1.00  0.00     0.031 A 
ATOM     37  C   UNL A   1      38.282  31.539  30.589  1.00  0.00     0.074 A 
ATOM     38  C   UNL A   1      37.912  33.065  32.503  1.00  0.00     0.049 A 
ATOM     39  N   UNL A   1      39.241  30.774  31.041  1.00  0.00    -0.248 NA
ATOM     40  C   UNL A   1      37.839  31.201  29.225  1.00  0.00     0.031 C 
ATOM     41  C   UNL A   1      37.250  34.112  33.281  1.00  0.00     0.029 A 
ATOM     42  N   UNL A   1      38.918  32.623  33.324  1.00  0.00    -0.354 N 
ATOM     43  C   UNL A   1      39.488  29.850  30.033  1.00  0.00     0.074 A 
ATOM     44  C   UNL A   1      38.527  30.098  28.983  1.00  0.00     0.031 C 
ATOM     45  C   UNL A   1      37.877  34.243  34.461  1.00  0.00     0.029 A 
ATOM     46  C   UNL A   1      38.949  33.255  34.542  1.00  0.00     0.049 A 
ATOM     47  H   UNL A   1      39.555  31.917  33.066  1.00  0.00     0.167 HD
ATOM     48  C   UNL A   1      40.452  28.902  29.975  1.00  0.00     0.037 A 
ATOM     49  C   UNL A   1      39.745  33.046  35.609  1.00  0.00     0.037 A 
ATOM     50  C   UNL A   1      41.419  28.685  31.016  1.00  0.00     0.049 A 
ATOM     51  C   UNL A   1      40.805  31.981  35.531  1.00  0.00     0.074 A 
ATOM     52  C   UNL A   1      42.472  27.791  31.043  1.00  0.00     0.029 A 
ATOM     53  N   UNL A   1      41.444  29.375  32.221  1.00  0.00    -0.354 N 
ATOM     54  N   UNL A   1      41.071  31.148  34.553  1.00  0.00    -0.248 NA
ATOM     55  C   UNL A   1      41.680  31.829  36.701  1.00  0.00     0.031 C 
ATOM     56  C   UNL A   1      43.099  27.897  32.289  1.00  0.00     0.029 A 
ATOM     57  C   UNL A   1      42.483  28.909  33.009  1.00  0.00     0.049 A 
ATOM     58  H   UNL A   1      40.817  30.089  32.476  1.00  0.00     0.167 HD
ATOM     59  C   UNL A   1      42.164  30.401  34.971  1.00  0.00     0.074 A 
ATOM     60  C   UNL A   1      42.513  30.881  36.292  1.00  0.00     0.031 C 
ATOM     61  C   UNL A   1      42.824  29.414  34.316  1.00  0.00     0.037 A 
BRANCH  48  62
ATOM     62  C   UNL A   1      40.492  28.034  28.747  1.00  0.00     0.064 A 
ATOM     63  C   UNL A   1      39.803  26.812  28.680  1.00  0.00     0.173 A 
ATOM     64  C   UNL A   1      41.239  28.424  27.625  1.00  0.00     0.173 A 
ATOM     65  F   UNL A   1      39.082  26.384  29.728  1.00  0.00    -0.203 F 
ATOM     66  C   UNL A   1      39.906  25.990  27.561  1.00  0.00     0.198 A 
ATOM     67  C   UNL A   1      41.304  27.618  26.491  1.00  0.00     0.198 A 
ATOM     68  F   UNL A   1      41.911  29.584  27.629  1.00  0.00    -0.203 F 
ATOM     69  F   UNL A   1      39.306  24.791  27.555  1.00  0.00    -0.200 F 
ATOM     70  C   UNL A   1      40.651  26.396  26.466  1.00  0.00     0.200 A 
ATOM     71  F   UNL A   1      42.011  28.021  25.426  1.00  0.00    -0.200 F 
ATOM     72  F   UNL A   1      40.750  25.603  25.389  1.00  0.00    -0.200 F 
ENDBRANCH  48  62
BRANCH  49  73
ATOM     73  C   UNL A   1      39.574  33.882  36.826  1.00  0.00     0.064 A 
ATOM     74  C   UNL A   1      40.166  35.150  36.919  1.00  0.00     0.173 A 
ATOM     75  C   UNL A   1      38.796  33.446  37.908  1.00  0.00     0.173 A 
ATOM     76  F   UNL A   1      40.933  35.605  35.918  1.00  0.00    -0.203 F 
ATOM     77  C   UNL A   1      39.997  35.942  38.053  1.00  0.00     0.198 A 
ATOM     78  C   UNL A   1      38.603  34.252  39.028  1.00  0.00     0.198 A 
ATOM     79  F   UNL A   1      38.200  32.245  37.867  1.00  0.00    -0.203 F 
ATOM     80  F   UNL A   1      40.605  37.134  38.131  1.00  0.00    -0.200 F 
ATOM     81  C   UNL A   1      39.209  35.497  39.103  1.00  0.00     0.200 A 
ATOM     82  F   UNL A   1      37.825  33.824  40.033  1.00  0.00    -0.200 F 
ATOM     83  F   UNL A   1      39.037  36.264  40.188  1.00  0.00    -0.200 F 
ENDBRANCH  49  73
BRANCH  61  84
ATOM     84  C   UNL A   1      44.029  28.820  34.985  1.00  0.00     0.064 A 
ATOM     85  C   UNL A   1      43.942  27.682  35.799  1.00  0.00     0.173 A 
ATOM     86  C   UNL A   1      45.303  29.358  34.740  1.00  0.00     0.173 A 
ATOM     87  F   UNL A   1      42.747  27.137  36.075  1.00  0.00    -0.203 F 
ATOM     88  C   UNL A   1      45.085  27.114  36.356  1.00  0.00     0.198 A 
ATOM     89  C   UNL A   1      46.446  28.767  35.271  1.00  0.00     0.198 A 
ATOM     90  F   UNL A   1      45.441  30.442  33.961  1.00  0.00    -0.203 F 
ATOM     91  F   UNL A   1      44.976  26.049  37.163  1.00  0.00    -0.200 F 
ATOM     92  C   UNL A   1      46.335  27.648  36.082  1.00  0.00     0.200 A 
ATOM     93  F   UNL A   1      47.652  29.275  34.988  1.00  0.00    -0.200 F 
ATOM     94  F   UNL A   1      47.435  27.088  36.603  1.00  0.00    -0.200 F 
ENDBRANCH  61  84
ENDBRANCH  35  36
ENDBRANCH  27  30
ENDBRANCH  25  26
ENDBRANCH  24  25
ENDBRANCH   1  24
TORSDOF 14
ENDMDL
MODEL 3
REMARK VINA RESULT:     -12.7      5.525     10.659
REMARK SMILES COC(=O)[C@H]1CCN(S(=O)(=O)N2CCC[C@H](C(=O)NCCCNC(=O)c3ccc(-c4c5nc(c(-c6c(F)c(F)c(F)c(F)c6F)c6ccc([nH]6)c(-c6c(F)c(F)c(F)c(F)c6F)c6nc(c(-c7c(F)c(F)c(F)c(F)c7F)c7ccc4[nH]7)C=C6)C=C5)cc3)C2)C1
REMARK SMILES IDX 20 1 19 2 17 3 18 4 16 6 12 7 13 8 89 9 14 10 15 11 9 12
REMARK SMILES IDX 10 13 11 14 8 15 5 16 6 17 90 18 7 19 3 20 4 21 2 22 1 23
REMARK SMILES IDX 21 24 22 25 23 26 24 27 25 29 26 30 27 31 88 32 28 33 87 34
REMARK SMILES IDX 29 35 30 36 31 37 81 38 32 39 86 40 80 41 82 42 33 43 85 44
REMARK SMILES IDX 79 45 78 46 34 48 66 49 46 50 65 51 47 52 50 53 64 54 83 55
REMARK SMILES IDX 48 56 49 57 63 59 84 60 51 61 35 62 36 63 44 64 37 65 38 66
REMARK SMILES IDX 42 67 45 68 39 69 40 70 43 71 41 72 67 73 68 74 76 75 69 76
REMARK SMILES IDX 70 77 74 78 77 79 71 80 72 81 75 82 73 83 52 84 53 85 61 86
REMARK SMILES IDX 54 87 55 88 59 89 62 90 56 91 57 92 60 93 58 94
REMARK H PARENT 19 5 23 28 82 47 50 58
REMARK Flexibility Score: inf
ROOT
ATOM      1  C   UNL A   1      37.031  20.903  24.774  1.00  0.00     0.117 C 
ENDROOT
BRANCH   1   2
ATOM      2  N   UNL A   1      35.661  20.541  25.061  1.00  0.00    -0.356 N 
ATOM      3  C   UNL A   1      34.706  21.131  25.817  1.00  0.00     0.224 C 
ATOM      4  O   UNL A   1      33.610  20.555  25.840  1.00  0.00    -0.275 OA
ATOM      5  H   UNL A   1      35.369  19.709  24.624  1.00  0.00     0.163 HD
BRANCH   3   6
ATOM      6  C   UNL A   1      34.889  22.410  26.634  1.00  0.00     0.094 C 
ATOM      7  N   UNL A   1      33.010  24.027  26.404  1.00  0.00    -0.188 NA
ATOM      8  C   UNL A   1      33.873  25.129  25.961  1.00  0.00     0.103 C 
ATOM      9  C   UNL A   1      33.628  22.993  27.250  1.00  0.00     0.117 C 
ATOM     10  C   UNL A   1      35.131  24.590  25.285  1.00  0.00     0.018 C 
ATOM     11  C   UNL A   1      35.823  23.467  26.047  1.00  0.00     0.016 C 
BRANCH   7  12
ATOM     12  S   UNL A   1      31.352  24.242  26.424  1.00  0.00     0.282 S 
ATOM     13  O   UNL A   1      31.062  25.651  26.521  1.00  0.00    -0.195 OA
ATOM     14  O   UNL A   1      30.805  23.301  27.379  1.00  0.00    -0.195 OA
BRANCH  12  15
ATOM     15  N   UNL A   1      30.896  23.714  24.884  1.00  0.00    -0.188 NA
ATOM     16  C   UNL A   1      31.850  24.465  22.776  1.00  0.00     0.116 C 
ATOM     17  C   UNL A   1      32.674  23.333  23.358  1.00  0.00     0.033 C 
ATOM     18  C   UNL A   1      30.863  24.839  23.882  1.00  0.00     0.118 C 
ATOM     19  C   UNL A   1      31.689  22.633  24.263  1.00  0.00     0.104 C 
BRANCH  16  20
ATOM     20  C   UNL A   1      32.742  25.613  22.376  1.00  0.00     0.310 C 
ATOM     21  O   UNL A   1      33.574  25.594  21.483  1.00  0.00    -0.252 OA
BRANCH  20  22
ATOM     22  O   UNL A   1      32.464  26.693  23.162  1.00  0.00    -0.469 OA
ATOM     23  C   UNL A   1      33.003  27.922  22.671  1.00  0.00     0.282 C 
ENDBRANCH  20  22
ENDBRANCH  16  20
ENDBRANCH  12  15
ENDBRANCH   7  12
ENDBRANCH   3   6
ENDBRANCH   1   2
BRANCH   1  24
ATOM     24  C   UNL A   1      37.995  19.766  25.051  1.00  0.00     0.042 C 
BRANCH  24  25
ATOM     25  C   UNL A   1      39.204  20.218  25.838  1.00  0.00     0.118 C 
BRANCH  25  26
ATOM     26  N   UNL A   1      40.234  19.186  25.912  1.00  0.00    -0.352 N 
ATOM     27  C   UNL A   1      41.587  19.305  26.116  1.00  0.00     0.251 C 
ATOM     28  H   UNL A   1      39.909  18.264  25.796  1.00  0.00     0.163 HD
ATOM     29  O   UNL A   1      42.328  18.340  25.960  1.00  0.00    -0.269 OA
BRANCH  27  30
ATOM     30  C   UNL A   1      42.152  20.609  26.510  1.00  0.00     0.039 A 
ATOM     31  C   UNL A   1      42.566  21.508  25.523  1.00  0.00     0.014 A 
ATOM     32  C   UNL A   1      42.256  20.950  27.859  1.00  0.00     0.014 A 
ATOM     33  C   UNL A   1      43.026  22.772  25.894  1.00  0.00     0.010 A 
ATOM     34  C   UNL A   1      42.580  22.247  28.217  1.00  0.00     0.010 A 
ATOM     35  C   UNL A   1      43.003  23.162  27.241  1.00  0.00    -0.014 A 
BRANCH  35  36
ATOM     36  C   UNL A   1      43.480  24.491  27.691  1.00  0.00     0.031 A 
ATOM     37  C   UNL A   1      42.469  25.545  28.049  1.00  0.00     0.074 A 
ATOM     38  C   UNL A   1      44.795  24.779  27.682  1.00  0.00     0.049 A 
ATOM     39  N   UNL A   1      42.646  26.816  28.301  1.00  0.00    -0.248 NA
ATOM     40  C   UNL A   1      41.059  25.120  28.075  1.00  0.00     0.031 C 
ATOM     41  C   UNL A   1      45.864  23.852  27.312  1.00  0.00     0.029 A 
ATOM     42  N   UNL A   1      45.452  25.948  27.972  1.00  0.00    -0.354 N 
ATOM     43  C   UNL A   1      41.372  27.340  28.482  1.00  0.00     0.074 A 
ATOM     44  C   UNL A   1      40.431  26.273  28.231  1.00  0.00     0.031 C 
ATOM     45  C   UNL A   1      47.046  24.482  27.413  1.00  0.00     0.029 A 
ATOM     46  C   UNL A   1      46.811  25.870  27.804  1.00  0.00     0.049 A 
ATOM     47  H   UNL A   1      44.991  26.766  28.272  1.00  0.00     0.167 HD
ATOM     48  C   UNL A   1      41.020  28.593  28.858  1.00  0.00     0.037 A 
ATOM     49  C   UNL A   1      47.759  26.819  27.933  1.00  0.00     0.037 A 
ATOM     50  C   UNL A   1      41.968  29.638  29.132  1.00  0.00     0.049 A 
ATOM     51  C   UNL A   1      47.349  28.208  28.341  1.00  0.00     0.074 A 
ATOM     52  C   UNL A   1      41.729  30.926  29.570  1.00  0.00     0.029 A 
ATOM     53  N   UNL A   1      43.343  29.508  28.988  1.00  0.00    -0.354 N 
ATOM     54  N   UNL A   1      46.148  28.684  28.566  1.00  0.00    -0.248 NA
ATOM     55  C   UNL A   1      48.425  29.192  28.520  1.00  0.00     0.031 C 
ATOM     56  C   UNL A   1      42.956  31.596  29.634  1.00  0.00     0.029 A 
ATOM     57  C   UNL A   1      43.965  30.703  29.308  1.00  0.00     0.049 A 
ATOM     58  H   UNL A   1      43.806  28.688  28.703  1.00  0.00     0.167 HD
ATOM     59  C   UNL A   1      46.324  30.007  28.949  1.00  0.00     0.074 A 
ATOM     60  C   UNL A   1      47.750  30.258  28.927  1.00  0.00     0.031 C 
ATOM     61  C   UNL A   1      45.390  30.927  29.296  1.00  0.00     0.037 A 
BRANCH  48  62
ATOM     62  C   UNL A   1      39.551  28.887  28.984  1.00  0.00     0.064 A 
ATOM     63  C   UNL A   1      38.783  29.311  27.887  1.00  0.00     0.173 A 
ATOM     64  C   UNL A   1      38.902  28.754  30.221  1.00  0.00     0.173 A 
ATOM     65  F   UNL A   1      39.353  29.466  26.682  1.00  0.00    -0.203 F 
ATOM     66  C   UNL A   1      37.439  29.644  28.036  1.00  0.00     0.198 A 
ATOM     67  C   UNL A   1      37.546  29.047  30.356  1.00  0.00     0.198 A 
ATOM     68  F   UNL A   1      39.582  28.346  31.302  1.00  0.00    -0.203 F 
ATOM     69  F   UNL A   1      36.749  30.125  26.991  1.00  0.00    -0.200 F 
ATOM     70  C   UNL A   1      36.821  29.506  29.268  1.00  0.00     0.200 A 
ATOM     71  F   UNL A   1      36.947  28.896  31.545  1.00  0.00    -0.200 F 
ATOM     72  F   UNL A   1      35.527  29.828  29.411  1.00  0.00    -0.200 F 
ENDBRANCH  48  62
BRANCH  49  73
ATOM     73  C   UNL A   1      49.184  26.470  27.692  1.00  0.00     0.064 A 
ATOM     74  C   UNL A   1      49.691  26.369  26.389  1.00  0.00     0.173 A 
ATOM     75  C   UNL A   1      50.073  26.258  28.756  1.00  0.00     0.173 A 
ATOM     76  F   UNL A   1      48.877  26.546  25.338  1.00  0.00    -0.203 F 
ATOM     77  C   UNL A   1      51.030  26.056  26.160  1.00  0.00     0.198 A 
ATOM     78  C   UNL A   1      51.418  25.975  28.525  1.00  0.00     0.198 A 
ATOM     79  F   UNL A   1      49.641  26.352  30.023  1.00  0.00    -0.203 F 
ATOM     80  F   UNL A   1      51.479  25.928  24.904  1.00  0.00    -0.200 F 
ATOM     81  C   UNL A   1      51.894  25.867  27.227  1.00  0.00     0.200 A 
ATOM     82  F   UNL A   1      52.254  25.812  29.561  1.00  0.00    -0.200 F 
ATOM     83  F   UNL A   1      53.183  25.579  27.007  1.00  0.00    -0.200 F 
ENDBRANCH  49  73
BRANCH  61  84
ATOM     84  C   UNL A   1      45.873  32.277  29.739  1.00  0.00     0.064 A 
ATOM     85  C   UNL A   1      46.237  32.537  31.067  1.00  0.00     0.173 A 
ATOM     86  C   UNL A   1      46.049  33.302  28.796  1.00  0.00     0.173 A 
ATOM     87  F   UNL A   1      46.077  31.594  32.009  1.00  0.00    -0.203 F 
ATOM     88  C   UNL A   1      46.743  33.780  31.439  1.00  0.00     0.198 A 
ATOM     89  C   UNL A   1      46.587  34.532  29.164  1.00  0.00     0.198 A 
ATOM     90  F   UNL A   1      45.724  33.101  27.510  1.00  0.00    -0.203 F 
ATOM     91  F   UNL A   1      47.048  34.020  32.721  1.00  0.00    -0.200 F 
ATOM     92  C   UNL A   1      46.929  34.771  30.486  1.00  0.00     0.200 A 
ATOM     93  F   UNL A   1      46.783  35.479  28.238  1.00  0.00    -0.200 F 
ATOM     94  F   UNL A   1      47.435  35.959  30.843  1.00  0.00    -0.200 F 
ENDBRANCH  61  84
ENDBRANCH  35  36
ENDBRANCH  27  30
ENDBRANCH  25  26
ENDBRANCH  24  25
ENDBRANCH   1  24
TORSDOF 14
ENDMDL
