MODEL 1
REMARK VINA RESULT:     -12.4      0.000      0.000
REMARK SMILES CCCC[C@@H](NS(=O)(=O)c1cc2c3c(c1)c(C)cc(=O)n3CC2)C(=O)NCCCNC(=O)c1ccc(-c2c3nc(c(-c4c(F)c(F)c(F)c(F)c4F)c4ccc([nH]4)c(-c4c(F)c(F)c(F)c(F)c4F)c4nc(c(-c5c(F)c(F)c(F)c(F)c5F)c5ccc2[nH]5)C=C4)C=C3)cc1
REMARK SMILES IDX 27 1 26 2 24 3 25 4 5 6 4 7 3 8 2 9 1 10 6 11 7 13 8 14 9 15
REMARK SMILES IDX 10 16 11 17 15 18 12 19 14 20 13 21 23 22 16 23 21 24 22 25
REMARK SMILES IDX 17 26 18 27 19 28 20 29 28 30 29 31 30 32 31 33 32 35 33 36
REMARK SMILES IDX 34 37 95 38 35 39 94 40 36 41 37 42 38 43 88 44 39 45 93 46
REMARK SMILES IDX 87 47 89 48 40 49 92 50 86 51 85 52 41 54 73 55 53 56 72 57
REMARK SMILES IDX 54 58 57 59 71 60 90 61 55 62 56 63 70 65 91 66 58 67 42 68
REMARK SMILES IDX 43 69 51 70 44 71 45 72 49 73 52 74 46 75 47 76 50 77 48 78
REMARK SMILES IDX 74 79 75 80 83 81 76 82 77 83 81 84 84 85 78 86 79 87 82 88
REMARK SMILES IDX 80 89 59 90 60 91 68 92 61 93 62 94 66 95 69 96 63 97 64 98
REMARK SMILES IDX 67 99 65 100
REMARK H PARENT 26 5 6 12 30 34 89 53 57 64
REMARK Flexibility Score: inf
ROOT
ATOM      1  C   UNL A   1      36.606  20.627  25.081  1.00  0.00     0.117 C 
ENDROOT
BRANCH   1   2
ATOM      2  N   UNL A   1      35.445  19.756  25.003  1.00  0.00    -0.355 N 
ATOM      3  C   UNL A   1      34.117  20.071  25.009  1.00  0.00     0.238 C 
ATOM      4  O   UNL A   1      33.310  19.170  25.249  1.00  0.00    -0.273 OA
ATOM      5  H   UNL A   1      35.647  18.796  24.936  1.00  0.00     0.163 HD
BRANCH   3   6
ATOM      6  C   UNL A   1      33.655  21.499  24.723  1.00  0.00     0.159 C 
BRANCH   6   7
ATOM      7  C   UNL A   1      33.128  21.528  23.280  1.00  0.00     0.030 C 
BRANCH   7   8
ATOM      8  C   UNL A   1      32.645  22.885  22.769  1.00  0.00     0.002 C 
BRANCH   8   9
ATOM      9  C   UNL A   1      33.665  24.021  22.838  1.00  0.00    -0.003 C 
ATOM     10  C   UNL A   1      33.146  25.343  22.293  1.00  0.00     0.004 C 
ENDBRANCH   8   9
ENDBRANCH   7   8
ENDBRANCH   6   7
BRANCH   6  11
ATOM     11  N   UNL A   1      32.639  21.947  25.706  1.00  0.00    -0.199 NA
ATOM     12  H   UNL A   1      32.358  21.121  26.235  1.00  0.00     0.142 HD
BRANCH  11  13
ATOM     13  S   UNL A   1      33.017  23.143  26.837  1.00  0.00     0.241 S 
ATOM     14  O   UNL A   1      32.423  22.762  28.095  1.00  0.00    -0.207 OA
ATOM     15  O   UNL A   1      34.446  23.343  26.708  1.00  0.00    -0.207 OA
BRANCH  13  16
ATOM     16  C   UNL A   1      32.217  24.623  26.250  1.00  0.00     0.083 A 
ATOM     17  C   UNL A   1      31.019  24.471  25.528  1.00  0.00     0.027 A 
ATOM     18  C   UNL A   1      32.792  25.900  26.479  1.00  0.00     0.032 A 
ATOM     19  C   UNL A   1      30.510  25.580  24.888  1.00  0.00    -0.020 A 
ATOM     20  C   UNL A   1      32.216  27.036  25.896  1.00  0.00     0.003 A 
ATOM     21  C   UNL A   1      31.112  26.810  25.087  1.00  0.00     0.055 A 
ATOM     22  C   UNL A   1      29.408  25.689  23.879  1.00  0.00     0.060 C 
ATOM     23  C   UNL A   1      32.659  28.441  26.014  1.00  0.00    -0.036 A 
ATOM     24  N   UNL A   1      30.490  27.793  24.334  1.00  0.00    -0.308 N 
ATOM     25  C   UNL A   1      29.408  27.200  23.550  1.00  0.00     0.131 C 
ATOM     26  C   UNL A   1      33.770  28.790  26.956  1.00  0.00     0.045 C 
ATOM     27  C   UNL A   1      32.025  29.389  25.288  1.00  0.00     0.075 A 
ATOM     28  C   UNL A   1      30.887  29.099  24.359  1.00  0.00     0.251 A 
ATOM     29  O   UNL A   1      30.379  29.994  23.694  1.00  0.00    -0.269 OA
ENDBRANCH  13  16
ENDBRANCH  11  13
ENDBRANCH   6  11
ENDBRANCH   3   6
ENDBRANCH   1   2
BRANCH   1  30
ATOM     30  C   UNL A   1      37.866  19.815  24.824  1.00  0.00     0.042 C 
BRANCH  30  31
ATOM     31  C   UNL A   1      39.020  20.264  25.707  1.00  0.00     0.118 C 
BRANCH  31  32
ATOM     32  N   UNL A   1      40.017  19.215  25.863  1.00  0.00    -0.352 N 
ATOM     33  C   UNL A   1      41.365  19.352  26.076  1.00  0.00     0.251 C 
ATOM     34  H   UNL A   1      39.681  18.291  25.809  1.00  0.00     0.163 HD
ATOM     35  O   UNL A   1      42.124  18.400  25.946  1.00  0.00    -0.269 OA
BRANCH  33  36
ATOM     36  C   UNL A   1      41.882  20.680  26.450  1.00  0.00     0.039 A 
ATOM     37  C   UNL A   1      42.201  21.595  25.446  1.00  0.00     0.014 A 
ATOM     38  C   UNL A   1      42.008  21.021  27.801  1.00  0.00     0.014 A 
ATOM     39  C   UNL A   1      42.612  22.879  25.802  1.00  0.00     0.010 A 
ATOM     40  C   UNL A   1      42.344  22.322  28.151  1.00  0.00     0.010 A 
ATOM     41  C   UNL A   1      42.669  23.253  27.154  1.00  0.00    -0.014 A 
BRANCH  41  42
ATOM     42  C   UNL A   1      43.139  24.599  27.550  1.00  0.00     0.031 A 
ATOM     43  C   UNL A   1      42.129  25.655  27.894  1.00  0.00     0.074 A 
ATOM     44  C   UNL A   1      44.457  24.875  27.572  1.00  0.00     0.049 A 
ATOM     45  N   UNL A   1      42.323  26.900  28.244  1.00  0.00    -0.248 NA
ATOM     46  C   UNL A   1      40.711  25.265  27.821  1.00  0.00     0.031 C 
ATOM     47  C   UNL A   1      45.523  23.934  27.232  1.00  0.00     0.029 A 
ATOM     48  N   UNL A   1      45.121  26.031  27.894  1.00  0.00    -0.354 N 
ATOM     49  C   UNL A   1      41.057  27.435  28.439  1.00  0.00     0.074 A 
ATOM     50  C   UNL A   1      40.100  26.405  28.104  1.00  0.00     0.031 C 
ATOM     51  C   UNL A   1      46.711  24.544  27.385  1.00  0.00     0.029 A 
ATOM     52  C   UNL A   1      46.487  25.926  27.801  1.00  0.00     0.049 A 
ATOM     53  H   UNL A   1      44.662  26.858  28.167  1.00  0.00     0.167 HD
ATOM     54  C   UNL A   1      40.726  28.665  28.892  1.00  0.00     0.037 A 
ATOM     55  C   UNL A   1      47.446  26.846  28.026  1.00  0.00     0.037 A 
ATOM     56  C   UNL A   1      41.684  29.679  29.240  1.00  0.00     0.049 A 
ATOM     57  C   UNL A   1      47.045  28.226  28.479  1.00  0.00     0.074 A 
ATOM     58  C   UNL A   1      41.449  30.943  29.746  1.00  0.00     0.029 A 
ATOM     59  N   UNL A   1      43.058  29.542  29.114  1.00  0.00    -0.354 N 
ATOM     60  N   UNL A   1      45.848  28.700  28.726  1.00  0.00    -0.248 NA
ATOM     61  C   UNL A   1      48.128  29.199  28.687  1.00  0.00     0.031 C 
ATOM     62  C   UNL A   1      42.678  31.595  29.872  1.00  0.00     0.029 A 
ATOM     63  C   UNL A   1      43.683  30.715  29.504  1.00  0.00     0.049 A 
ATOM     64  H   UNL A   1      43.520  28.734  28.795  1.00  0.00     0.167 HD
ATOM     65  C   UNL A   1      46.035  30.011  29.145  1.00  0.00     0.074 A 
ATOM     66  C   UNL A   1      47.462  30.253  29.137  1.00  0.00     0.031 C 
ATOM     67  C   UNL A   1      45.107  30.934  29.500  1.00  0.00     0.037 A 
BRANCH  54  68
ATOM     68  C   UNL A   1      39.271  28.981  29.064  1.00  0.00     0.064 A 
ATOM     69  C   UNL A   1      38.641  28.866  30.313  1.00  0.00     0.173 A 
ATOM     70  C   UNL A   1      38.520  29.486  27.993  1.00  0.00     0.173 A 
ATOM     71  F   UNL A   1      39.313  28.374  31.365  1.00  0.00    -0.203 F 
ATOM     72  C   UNL A   1      37.310  29.238  30.480  1.00  0.00     0.198 A 
ATOM     73  C   UNL A   1      37.198  29.887  28.171  1.00  0.00     0.198 A 
ATOM     74  F   UNL A   1      39.076  29.618  26.778  1.00  0.00    -0.203 F 
ATOM     75  F   UNL A   1      36.722  29.094  31.676  1.00  0.00    -0.200 F 
ATOM     76  C   UNL A   1      36.595  29.760  29.414  1.00  0.00     0.200 A 
ATOM     77  F   UNL A   1      36.513  30.406  27.144  1.00  0.00    -0.200 F 
ATOM     78  F   UNL A   1      35.322  30.145  29.583  1.00  0.00    -0.200 F 
ENDBRANCH  54  68
BRANCH  55  79
ATOM     79  C   UNL A   1      48.879  26.485  27.855  1.00  0.00     0.064 A 
ATOM     80  C   UNL A   1      49.677  26.159  28.961  1.00  0.00     0.173 A 
ATOM     81  C   UNL A   1      49.483  26.464  26.589  1.00  0.00     0.173 A 
ATOM     82  F   UNL A   1      49.151  26.184  30.195  1.00  0.00    -0.203 F 
ATOM     83  C   UNL A   1      51.026  25.845  28.810  1.00  0.00     0.198 A 
ATOM     84  C   UNL A   1      50.825  26.120  26.436  1.00  0.00     0.198 A 
ATOM     85  F   UNL A   1      48.766  26.764  25.496  1.00  0.00    -0.203 F 
ATOM     86  F   UNL A   1      51.776  25.584  29.890  1.00  0.00    -0.200 F 
ATOM     87  C   UNL A   1      51.597  25.819  27.547  1.00  0.00     0.200 A 
ATOM     88  F   UNL A   1      51.369  26.079  25.212  1.00  0.00    -0.200 F 
ATOM     89  F   UNL A   1      52.893  25.512  27.402  1.00  0.00    -0.200 F 
ENDBRANCH  55  79
BRANCH  67  90
ATOM     90  C   UNL A   1      45.593  32.288  29.930  1.00  0.00     0.064 A 
ATOM     91  C   UNL A   1      45.703  33.349  29.020  1.00  0.00     0.173 A 
ATOM     92  C   UNL A   1      45.857  32.553  31.283  1.00  0.00     0.173 A 
ATOM     93  F   UNL A   1      45.471  33.145  27.714  1.00  0.00    -0.203 F 
ATOM     94  C   UNL A   1      46.072  34.621  29.446  1.00  0.00     0.198 A 
ATOM     95  C   UNL A   1      46.193  33.834  31.711  1.00  0.00     0.198 A 
ATOM     96  F   UNL A   1      45.755  31.575  32.196  1.00  0.00    -0.203 F 
ATOM     97  F   UNL A   1      46.205  35.612  28.553  1.00  0.00    -0.200 F 
ATOM     98  C   UNL A   1      46.304  34.866  30.792  1.00  0.00     0.200 A 
ATOM     99  F   UNL A   1      46.393  34.073  33.014  1.00  0.00    -0.200 F 
ATOM    100  F   UNL A   1      46.634  36.098  31.203  1.00  0.00    -0.200 F 
ENDBRANCH  67  90
ENDBRANCH  41  42
ENDBRANCH  33  36
ENDBRANCH  31  32
ENDBRANCH  30  31
ENDBRANCH   1  30
TORSDOF 16
ENDMDL
MODEL 2
REMARK VINA RESULT:     -12.4      4.817     10.266
REMARK SMILES CCCC[C@@H](NS(=O)(=O)c1cc2c3c(c1)c(C)cc(=O)n3CC2)C(=O)NCCCNC(=O)c1ccc(-c2c3nc(c(-c4c(F)c(F)c(F)c(F)c4F)c4ccc([nH]4)c(-c4c(F)c(F)c(F)c(F)c4F)c4nc(c(-c5c(F)c(F)c(F)c(F)c5F)c5ccc2[nH]5)C=C4)C=C3)cc1
REMARK SMILES IDX 27 1 26 2 24 3 25 4 5 6 4 7 3 8 2 9 1 10 6 11 7 13 8 14 9 15
REMARK SMILES IDX 10 16 11 17 15 18 12 19 14 20 13 21 23 22 16 23 21 24 22 25
REMARK SMILES IDX 17 26 18 27 19 28 20 29 28 30 29 31 30 32 31 33 32 35 33 36
REMARK SMILES IDX 34 37 95 38 35 39 94 40 36 41 37 42 38 43 88 44 39 45 93 46
REMARK SMILES IDX 87 47 89 48 40 49 92 50 86 51 85 52 41 54 73 55 53 56 72 57
REMARK SMILES IDX 54 58 57 59 71 60 90 61 55 62 56 63 70 65 91 66 58 67 42 68
REMARK SMILES IDX 43 69 51 70 44 71 45 72 49 73 52 74 46 75 47 76 50 77 48 78
REMARK SMILES IDX 74 79 75 80 83 81 76 82 77 83 81 84 84 85 78 86 79 87 82 88
REMARK SMILES IDX 80 89 59 90 60 91 68 92 61 93 62 94 66 95 69 96 63 97 64 98
REMARK SMILES IDX 67 99 65 100
REMARK H PARENT 26 5 6 12 30 34 89 53 57 64
REMARK Flexibility Score: inf
ROOT
ATOM      1  C   UNL A   1      31.598  30.518  25.674  1.00  0.00     0.117 C 
ENDROOT
BRANCH   1   2
ATOM      2  N   UNL A   1      30.652  30.355  24.582  1.00  0.00    -0.355 N 
ATOM      3  C   UNL A   1      30.493  29.313  23.715  1.00  0.00     0.238 C 
ATOM      4  O   UNL A   1      29.852  29.514  22.681  1.00  0.00    -0.273 OA
ATOM      5  H   UNL A   1      30.035  31.109  24.448  1.00  0.00     0.163 HD
BRANCH   3   6
ATOM      6  C   UNL A   1      31.095  27.944  24.025  1.00  0.00     0.159 C 
BRANCH   6   7
ATOM      7  C   UNL A   1      29.947  27.039  24.501  1.00  0.00     0.030 C 
BRANCH   7   8
ATOM      8  C   UNL A   1      30.320  25.589  24.809  1.00  0.00     0.002 C 
BRANCH   8   9
ATOM      9  C   UNL A   1      31.200  25.379  26.041  1.00  0.00    -0.003 C 
ATOM     10  C   UNL A   1      31.333  23.922  26.456  1.00  0.00     0.004 C 
ENDBRANCH   8   9
ENDBRANCH   7   8
ENDBRANCH   6   7
BRANCH   6  11
ATOM     11  N   UNL A   1      31.808  27.385  22.851  1.00  0.00    -0.199 NA
ATOM     12  H   UNL A   1      31.653  28.033  22.078  1.00  0.00     0.142 HD
BRANCH  11  13
ATOM     13  S   UNL A   1      33.471  27.100  22.921  1.00  0.00     0.241 S 
ATOM     14  O   UNL A   1      34.025  27.411  21.625  1.00  0.00    -0.207 OA
ATOM     15  O   UNL A   1      33.919  27.784  24.116  1.00  0.00    -0.207 OA
BRANCH  13  16
ATOM     16  C   UNL A   1      33.641  25.350  23.211  1.00  0.00     0.083 A 
ATOM     17  C   UNL A   1      32.811  24.485  22.476  1.00  0.00     0.027 A 
ATOM     18  C   UNL A   1      34.560  24.860  24.176  1.00  0.00     0.032 A 
ATOM     19  C   UNL A   1      32.780  23.158  22.844  1.00  0.00    -0.020 A 
ATOM     20  C   UNL A   1      34.583  23.493  24.481  1.00  0.00     0.003 A 
ATOM     21  C   UNL A   1      33.651  22.708  23.819  1.00  0.00     0.055 A 
ATOM     22  C   UNL A   1      31.851  22.062  22.419  1.00  0.00     0.060 C 
ATOM     23  C   UNL A   1      35.457  22.793  25.445  1.00  0.00    -0.036 A 
ATOM     24  N   UNL A   1      33.446  21.363  24.083  1.00  0.00    -0.308 N 
ATOM     25  C   UNL A   1      32.350  20.861  23.256  1.00  0.00     0.131 C 
ATOM     26  C   UNL A   1      36.566  23.542  26.118  1.00  0.00     0.045 C 
ATOM     27  C   UNL A   1      35.256  21.475  25.672  1.00  0.00     0.075 A 
ATOM     28  C   UNL A   1      34.186  20.673  25.000  1.00  0.00     0.251 A 
ATOM     29  O   UNL A   1      34.023  19.490  25.278  1.00  0.00    -0.269 OA
ENDBRANCH  13  16
ENDBRANCH  11  13
ENDBRANCH   6  11
ENDBRANCH   3   6
ENDBRANCH   1   2
BRANCH   1  30
ATOM     30  C   UNL A   1      31.346  31.849  26.367  1.00  0.00     0.042 C 
BRANCH  30  31
ATOM     31  C   UNL A   1      32.612  32.406  26.999  1.00  0.00     0.118 C 
BRANCH  31  32
ATOM     32  N   UNL A   1      32.454  33.804  27.374  1.00  0.00    -0.352 N 
ATOM     33  C   UNL A   1      33.078  34.485  28.388  1.00  0.00     0.251 C 
ATOM     34  H   UNL A   1      31.820  34.326  26.830  1.00  0.00     0.163 HD
ATOM     35  O   UNL A   1      32.678  35.585  28.749  1.00  0.00    -0.269 OA
BRANCH  33  36
ATOM     36  C   UNL A   1      34.234  33.853  29.047  1.00  0.00     0.039 A 
ATOM     37  C   UNL A   1      35.519  34.305  28.750  1.00  0.00     0.014 A 
ATOM     38  C   UNL A   1      34.028  32.840  29.989  1.00  0.00     0.014 A 
ATOM     39  C   UNL A   1      36.606  33.763  29.435  1.00  0.00     0.010 A 
ATOM     40  C   UNL A   1      35.102  32.356  30.724  1.00  0.00     0.010 A 
ATOM     41  C   UNL A   1      36.401  32.800  30.437  1.00  0.00    -0.014 A 
BRANCH  41  42
ATOM     42  C   UNL A   1      37.546  32.188  31.146  1.00  0.00     0.031 A 
ATOM     43  C   UNL A   1      38.312  31.081  30.479  1.00  0.00     0.074 A 
ATOM     44  C   UNL A   1      37.875  32.603  32.383  1.00  0.00     0.049 A 
ATOM     45  N   UNL A   1      39.331  30.396  30.929  1.00  0.00    -0.248 NA
ATOM     46  C   UNL A   1      37.865  30.682  29.134  1.00  0.00     0.031 C 
ATOM     47  C   UNL A   1      37.184  33.650  33.135  1.00  0.00     0.029 A 
ATOM     48  N   UNL A   1      38.874  32.189  33.227  1.00  0.00    -0.354 N 
ATOM     49  C   UNL A   1      39.647  29.494  29.922  1.00  0.00     0.074 A 
ATOM     50  C   UNL A   1      38.675  29.669  28.867  1.00  0.00     0.031 C 
ATOM     51  C   UNL A   1      37.795  33.813  34.320  1.00  0.00     0.029 A 
ATOM     52  C   UNL A   1      38.897  32.861  34.425  1.00  0.00     0.049 A 
ATOM     53  H   UNL A   1      39.515  31.478  32.996  1.00  0.00     0.167 HD
ATOM     54  C   UNL A   1      40.680  28.623  29.870  1.00  0.00     0.037 A 
ATOM     55  C   UNL A   1      39.718  32.717  35.485  1.00  0.00     0.037 A 
ATOM     56  C   UNL A   1      41.653  28.465  30.916  1.00  0.00     0.049 A 
ATOM     57  C   UNL A   1      40.828  31.700  35.420  1.00  0.00     0.074 A 
ATOM     58  C   UNL A   1      42.760  27.637  30.941  1.00  0.00     0.029 A 
ATOM     59  N   UNL A   1      41.632  29.149  32.122  1.00  0.00    -0.354 N 
ATOM     60  N   UNL A   1      41.161  30.901  34.435  1.00  0.00    -0.248 NA
ATOM     61  C   UNL A   1      41.678  31.567  36.612  1.00  0.00     0.031 C 
ATOM     62  C   UNL A   1      43.377  27.776  32.185  1.00  0.00     0.029 A 
ATOM     63  C   UNL A   1      42.692  28.736  32.913  1.00  0.00     0.049 A 
ATOM     64  H   UNL A   1      40.965  29.825  32.379  1.00  0.00     0.167 HD
ATOM     65  C   UNL A   1      42.272  30.194  34.876  1.00  0.00     0.074 A 
ATOM     66  C   UNL A   1      42.569  30.671  36.210  1.00  0.00     0.031 C 
ATOM     67  C   UNL A   1      42.980  29.231  34.234  1.00  0.00     0.037 A 
BRANCH  54  68
ATOM     68  C   UNL A   1      40.831  27.787  28.634  1.00  0.00     0.064 A 
ATOM     69  C   UNL A   1      40.144  26.573  28.486  1.00  0.00     0.173 A 
ATOM     70  C   UNL A   1      41.599  28.244  27.554  1.00  0.00     0.173 A 
ATOM     71  F   UNL A   1      39.408  26.086  29.497  1.00  0.00    -0.203 F 
ATOM     72  C   UNL A   1      40.227  25.843  27.304  1.00  0.00     0.198 A 
ATOM     73  C   UNL A   1      41.656  27.527  26.362  1.00  0.00     0.198 A 
ATOM     74  F   UNL A   1      42.275  29.400  27.644  1.00  0.00    -0.203 F 
ATOM     75  F   UNL A   1      39.584  24.672  27.196  1.00  0.00    -0.200 F 
ATOM     76  C   UNL A   1      40.971  26.326  26.239  1.00  0.00     0.200 A 
ATOM     77  F   UNL A   1      42.362  28.003  25.328  1.00  0.00    -0.200 F 
ATOM     78  F   UNL A   1      41.027  25.636  25.091  1.00  0.00    -0.200 F 
ENDBRANCH  54  68
BRANCH  55  79
ATOM     79  C   UNL A   1      39.539  33.576  36.686  1.00  0.00     0.064 A 
ATOM     80  C   UNL A   1      38.750  33.150  37.764  1.00  0.00     0.173 A 
ATOM     81  C   UNL A   1      40.144  34.838  36.782  1.00  0.00     0.173 A 
ATOM     82  F   UNL A   1      38.134  31.959  37.713  1.00  0.00    -0.203 F 
ATOM     83  C   UNL A   1      38.557  33.960  38.882  1.00  0.00     0.198 A 
ATOM     84  C   UNL A   1      39.975  35.635  37.913  1.00  0.00     0.198 A 
ATOM     85  F   UNL A   1      40.911  35.294  35.781  1.00  0.00    -0.203 F 
ATOM     86  F   UNL A   1      37.760  33.547  39.877  1.00  0.00    -0.200 F 
ATOM     87  C   UNL A   1      39.175  35.198  38.958  1.00  0.00     0.200 A 
ATOM     88  F   UNL A   1      40.588  36.824  37.990  1.00  0.00    -0.200 F 
ATOM     89  F   UNL A   1      38.994  35.975  40.035  1.00  0.00    -0.200 F 
ENDBRANCH  55  79
BRANCH  67  90
ATOM     90  C   UNL A   1      44.160  28.636  34.948  1.00  0.00     0.064 A 
ATOM     91  C   UNL A   1      45.426  29.235  34.892  1.00  0.00     0.173 A 
ATOM     92  C   UNL A   1      43.999  27.512  35.774  1.00  0.00     0.173 A 
ATOM     93  F   UNL A   1      45.634  30.305  34.110  1.00  0.00    -0.203 F 
ATOM     94  C   UNL A   1      46.492  28.723  35.627  1.00  0.00     0.198 A 
ATOM     95  C   UNL A   1      45.058  27.024  36.533  1.00  0.00     0.198 A 
ATOM     96  F   UNL A   1      42.804  26.909  35.871  1.00  0.00    -0.203 F 
ATOM     97  F   UNL A   1      47.702  29.290  35.532  1.00  0.00    -0.200 F 
ATOM     98  C   UNL A   1      46.304  27.626  36.456  1.00  0.00     0.200 A 
ATOM     99  F   UNL A   1      44.868  25.979  37.350  1.00  0.00    -0.200 F 
ATOM    100  F   UNL A   1      47.325  27.151  37.182  1.00  0.00    -0.200 F 
ENDBRANCH  67  90
ENDBRANCH  41  42
ENDBRANCH  33  36
ENDBRANCH  31  32
ENDBRANCH  30  31
ENDBRANCH   1  30
TORSDOF 16
ENDMDL
MODEL 3
REMARK VINA RESULT:     -12.3      4.805     10.365
REMARK SMILES CCCC[C@@H](NS(=O)(=O)c1cc2c3c(c1)c(C)cc(=O)n3CC2)C(=O)NCCCNC(=O)c1ccc(-c2c3nc(c(-c4c(F)c(F)c(F)c(F)c4F)c4ccc([nH]4)c(-c4c(F)c(F)c(F)c(F)c4F)c4nc(c(-c5c(F)c(F)c(F)c(F)c5F)c5ccc2[nH]5)C=C4)C=C3)cc1
REMARK SMILES IDX 27 1 26 2 24 3 25 4 5 6 4 7 3 8 2 9 1 10 6 11 7 13 8 14 9 15
REMARK SMILES IDX 10 16 11 17 15 18 12 19 14 20 13 21 23 22 16 23 21 24 22 25
REMARK SMILES IDX 17 26 18 27 19 28 20 29 28 30 29 31 30 32 31 33 32 35 33 36
REMARK SMILES IDX 34 37 95 38 35 39 94 40 36 41 37 42 38 43 88 44 39 45 93 46
REMARK SMILES IDX 87 47 89 48 40 49 92 50 86 51 85 52 41 54 73 55 53 56 72 57
REMARK SMILES IDX 54 58 57 59 71 60 90 61 55 62 56 63 70 65 91 66 58 67 42 68
REMARK SMILES IDX 43 69 51 70 44 71 45 72 49 73 52 74 46 75 47 76 50 77 48 78
REMARK SMILES IDX 74 79 75 80 83 81 76 82 77 83 81 84 84 85 78 86 79 87 82 88
REMARK SMILES IDX 80 89 59 90 60 91 68 92 61 93 62 94 66 95 69 96 63 97 64 98
REMARK SMILES IDX 67 99 65 100
REMARK H PARENT 26 5 6 12 30 34 89 53 57 64
REMARK Flexibility Score: inf
ROOT
ATOM      1  C   UNL A   1      31.649  30.529  25.847  1.00  0.00     0.117 C 
ENDROOT
BRANCH   1   2
ATOM      2  N   UNL A   1      30.738  30.333  24.731  1.00  0.00    -0.355 N 
ATOM      3  C   UNL A   1      30.637  29.286  23.862  1.00  0.00     0.238 C 
ATOM      4  O   UNL A   1      30.015  29.464  22.811  1.00  0.00    -0.273 OA
ATOM      5  H   UNL A   1      30.099  31.066  24.580  1.00  0.00     0.163 HD
BRANCH   3   6
ATOM      6  C   UNL A   1      31.276  27.938  24.190  1.00  0.00     0.159 C 
BRANCH   6   7
ATOM      7  C   UNL A   1      30.180  27.051  24.802  1.00  0.00     0.030 C 
BRANCH   7   8
ATOM      8  C   UNL A   1      30.616  26.147  25.955  1.00  0.00     0.002 C 
BRANCH   8   9
ATOM      9  C   UNL A   1      30.731  24.659  25.623  1.00  0.00    -0.003 C 
ATOM     10  C   UNL A   1      31.707  23.907  26.516  1.00  0.00     0.004 C 
ENDBRANCH   8   9
ENDBRANCH   7   8
ENDBRANCH   6   7
BRANCH   6  11
ATOM     11  N   UNL A   1      31.897  27.325  22.992  1.00  0.00    -0.199 NA
ATOM     12  H   UNL A   1      31.683  27.938  22.205  1.00  0.00     0.142 HD
BRANCH  11  13
ATOM     13  S   UNL A   1      33.561  27.040  22.947  1.00  0.00     0.241 S 
ATOM     14  O   UNL A   1      34.024  27.344  21.614  1.00  0.00    -0.207 OA
ATOM     15  O   UNL A   1      34.092  27.729  24.105  1.00  0.00    -0.207 OA
BRANCH  13  16
ATOM     16  C   UNL A   1      33.751  25.291  23.233  1.00  0.00     0.083 A 
ATOM     17  C   UNL A   1      32.899  24.421  22.530  1.00  0.00     0.027 A 
ATOM     18  C   UNL A   1      34.706  24.807  24.165  1.00  0.00     0.032 A 
ATOM     19  C   UNL A   1      32.887  23.094  22.901  1.00  0.00    -0.020 A 
ATOM     20  C   UNL A   1      34.747  23.440  24.471  1.00  0.00     0.003 A 
ATOM     21  C   UNL A   1      33.796  22.649  23.844  1.00  0.00     0.055 A 
ATOM     22  C   UNL A   1      31.949  21.992  22.511  1.00  0.00     0.060 C 
ATOM     23  C   UNL A   1      35.660  22.746  25.403  1.00  0.00    -0.036 A 
ATOM     24  N   UNL A   1      33.607  21.304  24.117  1.00  0.00    -0.308 N 
ATOM     25  C   UNL A   1      32.484  20.796  23.331  1.00  0.00     0.131 C 
ATOM     26  C   UNL A   1      36.789  23.501  26.034  1.00  0.00     0.045 C 
ATOM     27  C   UNL A   1      35.473  21.428  25.639  1.00  0.00     0.075 A 
ATOM     28  C   UNL A   1      34.383  20.619  25.007  1.00  0.00     0.251 A 
ATOM     29  O   UNL A   1      34.236  19.436  25.293  1.00  0.00    -0.269 OA
ENDBRANCH  13  16
ENDBRANCH  11  13
ENDBRANCH   6  11
ENDBRANCH   3   6
ENDBRANCH   1   2
BRANCH   1  30
ATOM     30  C   UNL A   1      31.386  31.886  26.482  1.00  0.00     0.042 C 
BRANCH  30  31
ATOM     31  C   UNL A   1      32.623  32.437  27.175  1.00  0.00     0.118 C 
BRANCH  31  32
ATOM     32  N   UNL A   1      32.490  33.857  27.462  1.00  0.00    -0.352 N 
ATOM     33  C   UNL A   1      33.103  34.582  28.451  1.00  0.00     0.251 C 
ATOM     34  H   UNL A   1      31.885  34.361  26.870  1.00  0.00     0.163 HD
ATOM     35  O   UNL A   1      32.722  35.711  28.735  1.00  0.00    -0.269 OA
BRANCH  33  36
ATOM     36  C   UNL A   1      34.224  33.964  29.180  1.00  0.00     0.039 A 
ATOM     37  C   UNL A   1      33.955  33.098  30.239  1.00  0.00     0.014 A 
ATOM     38  C   UNL A   1      35.540  34.218  28.777  1.00  0.00     0.014 A 
ATOM     39  C   UNL A   1      35.013  32.449  30.874  1.00  0.00     0.010 A 
ATOM     40  C   UNL A   1      36.585  33.515  29.360  1.00  0.00     0.010 A 
ATOM     41  C   UNL A   1      36.330  32.641  30.426  1.00  0.00    -0.014 A 
BRANCH  41  42
ATOM     42  C   UNL A   1      37.467  31.990  31.113  1.00  0.00     0.031 A 
ATOM     43  C   UNL A   1      38.237  30.918  30.398  1.00  0.00     0.074 A 
ATOM     44  C   UNL A   1      37.786  32.340  32.373  1.00  0.00     0.049 A 
ATOM     45  N   UNL A   1      39.250  30.207  30.821  1.00  0.00    -0.248 NA
ATOM     46  C   UNL A   1      37.802  30.589  29.030  1.00  0.00     0.031 C 
ATOM     47  C   UNL A   1      37.090  33.350  33.171  1.00  0.00     0.029 A 
ATOM     48  N   UNL A   1      38.777  31.881  33.204  1.00  0.00    -0.354 N 
ATOM     49  C   UNL A   1      39.574  29.357  29.772  1.00  0.00     0.074 A 
ATOM     50  C   UNL A   1      38.612  29.589  28.719  1.00  0.00     0.031 C 
ATOM     51  C   UNL A   1      37.691  33.450  34.369  1.00  0.00     0.029 A 
ATOM     52  C   UNL A   1      38.790  32.491  34.435  1.00  0.00     0.049 A 
ATOM     53  H   UNL A   1      39.418  31.182  32.942  1.00  0.00     0.167 HD
ATOM     54  C   UNL A   1      40.606  28.488  29.684  1.00  0.00     0.037 A 
ATOM     55  C   UNL A   1      39.601  32.292  35.493  1.00  0.00     0.037 A 
ATOM     56  C   UNL A   1      41.569  28.274  30.730  1.00  0.00     0.049 A 
ATOM     57  C   UNL A   1      40.709  31.276  35.386  1.00  0.00     0.074 A 
ATOM     58  C   UNL A   1      42.673  27.443  30.722  1.00  0.00     0.029 A 
ATOM     59  N   UNL A   1      41.538  28.895  31.969  1.00  0.00    -0.354 N 
ATOM     60  N   UNL A   1      41.049  30.528  34.365  1.00  0.00    -0.248 NA
ATOM     61  C   UNL A   1      41.549  31.080  36.577  1.00  0.00     0.031 C 
ATOM     62  C   UNL A   1      43.280  27.517  31.977  1.00  0.00     0.029 A 
ATOM     63  C   UNL A   1      42.590  28.440  32.747  1.00  0.00     0.049 A 
ATOM     64  H   UNL A   1      40.870  29.559  32.254  1.00  0.00     0.167 HD
ATOM     65  C   UNL A   1      42.155  29.796  34.779  1.00  0.00     0.074 A 
ATOM     66  C   UNL A   1      42.441  30.204  36.138  1.00  0.00     0.031 C 
ATOM     67  C   UNL A   1      42.867  28.866  34.095  1.00  0.00     0.037 A 
BRANCH  54  68
ATOM     68  C   UNL A   1      40.766  27.716  28.409  1.00  0.00     0.064 A 
ATOM     69  C   UNL A   1      41.572  28.193  27.364  1.00  0.00     0.173 A 
ATOM     70  C   UNL A   1      40.182  26.450  28.263  1.00  0.00     0.173 A 
ATOM     71  F   UNL A   1      42.141  29.405  27.449  1.00  0.00    -0.203 F 
ATOM     72  C   UNL A   1      41.779  27.433  26.216  1.00  0.00     0.198 A 
ATOM     73  C   UNL A   1      40.416  25.680  27.128  1.00  0.00     0.198 A 
ATOM     74  F   UNL A   1      39.404  25.947  29.235  1.00  0.00    -0.203 F 
ATOM     75  F   UNL A   1      42.530  27.921  25.219  1.00  0.00    -0.200 F 
ATOM     76  C   UNL A   1      41.213  26.173  26.105  1.00  0.00     0.200 A 
ATOM     77  F   UNL A   1      39.882  24.455  27.028  1.00  0.00    -0.200 F 
ATOM     78  F   UNL A   1      41.437  25.431  25.012  1.00  0.00    -0.200 F 
ENDBRANCH  54  68
BRANCH  55  79
ATOM     79  C   UNL A   1      39.412  33.088  36.735  1.00  0.00     0.064 A 
ATOM     80  C   UNL A   1      40.142  34.265  36.954  1.00  0.00     0.173 A 
ATOM     81  C   UNL A   1      38.507  32.690  37.731  1.00  0.00     0.173 A 
ATOM     82  F   UNL A   1      41.034  34.678  36.040  1.00  0.00    -0.203 F 
ATOM     83  C   UNL A   1      39.989  35.002  38.126  1.00  0.00     0.198 A 
ATOM     84  C   UNL A   1      38.334  33.445  38.890  1.00  0.00     0.198 A 
ATOM     85  F   UNL A   1      37.781  31.574  37.573  1.00  0.00    -0.203 F 
ATOM     86  F   UNL A   1      40.735  36.097  38.328  1.00  0.00    -0.200 F 
ATOM     87  C   UNL A   1      39.080  34.595  39.090  1.00  0.00     0.200 A 
ATOM     88  F   UNL A   1      37.441  33.057  39.811  1.00  0.00    -0.200 F 
ATOM     89  F   UNL A   1      38.930  35.307  40.215  1.00  0.00    -0.200 F 
ENDBRANCH  55  79
BRANCH  67  90
ATOM     90  C   UNL A   1      44.039  28.232  34.787  1.00  0.00     0.064 A 
ATOM     91  C   UNL A   1      43.906  27.031  35.499  1.00  0.00     0.173 A 
ATOM     92  C   UNL A   1      45.325  28.778  34.655  1.00  0.00     0.173 A 
ATOM     93  F   UNL A   1      42.696  26.473  35.663  1.00  0.00    -0.203 F 
ATOM     94  C   UNL A   1      45.015  26.408  36.064  1.00  0.00     0.198 A 
ATOM     95  C   UNL A   1      46.436  28.135  35.192  1.00  0.00     0.198 A 
ATOM     96  F   UNL A   1      45.508  29.920  33.974  1.00  0.00    -0.203 F 
ATOM     97  F   UNL A   1      44.860  25.280  36.769  1.00  0.00    -0.200 F 
ATOM     98  C   UNL A   1      46.280  26.953  35.899  1.00  0.00     0.200 A 
ATOM     99  F   UNL A   1      47.659  28.652  35.011  1.00  0.00    -0.200 F 
ATOM    100  F   UNL A   1      47.350  26.338  36.422  1.00  0.00    -0.200 F 
ENDBRANCH  67  90
ENDBRANCH  41  42
ENDBRANCH  33  36
ENDBRANCH  31  32
ENDBRANCH  30  31
ENDBRANCH   1  30
TORSDOF 16
ENDMDL
