MODEL 1
REMARK VINA RESULT:     -12.0      0.000      0.000
REMARK SMILES CC(C)[C@H](CO)NS(=O)(=O)c1ccc(Cl)c(C(=O)NCCCNC(=O)c2ccc(-c3c4nc(c(-c5c(F)c(F)c(F)c(F)c5F)c5ccc([nH]5)c(-c5c(F)c(F)c(F)c(F)c5F)c5nc(c(-c6c(F)c(F)c(F)c(F)c6F)c6ccc3[nH]6)C=C5)C=C4)cc2)c1
REMARK SMILES IDX 17 1 18 2 19 3 16 5 11 6 12 7 89 8 13 9 14 10 15 11 8 12
REMARK SMILES IDX 9 13 10 14 7 15 4 17 2 18 1 19 3 20 5 21 6 22 20 24 21 25
REMARK SMILES IDX 22 26 23 27 24 28 25 30 26 31 27 32 88 33 28 34 87 35 29 36
REMARK SMILES IDX 30 37 31 38 81 39 32 40 86 41 80 42 82 43 33 44 85 45 79 46
REMARK SMILES IDX 78 47 34 49 66 50 46 51 65 52 47 53 50 54 64 55 83 56 48 57
REMARK SMILES IDX 49 58 63 60 84 61 51 62 35 63 36 64 44 65 37 66 38 67 42 68
REMARK SMILES IDX 45 69 39 70 40 71 43 72 41 73 67 74 68 75 76 76 69 77 70 78
REMARK SMILES IDX 74 79 77 80 71 81 72 82 75 83 73 84 52 85 53 86 61 87 54 88
REMARK SMILES IDX 55 89 59 90 62 91 56 92 57 93 60 94 58 95
REMARK H PARENT 19 4 7 16 6 23 23 29 82 48 50 59
REMARK Flexibility Score: inf
ROOT
ATOM      1  C   UNL A   1      32.778  28.803  25.637  1.00  0.00     0.252 C 
ATOM      2  O   UNL A   1      33.912  28.337  25.762  1.00  0.00    -0.269 OA
ATOM      3  N   UNL A   1      32.576  30.118  25.974  1.00  0.00    -0.352 N 
ATOM      4  H   UNL A   1      33.356  30.558  26.382  1.00  0.00     0.163 HD
ENDROOT
BRANCH   1   5
ATOM      5  C   UNL A   1      31.690  27.883  25.222  1.00  0.00     0.059 A 
ATOM      6  C   UNL A   1      30.534  25.803  25.721  1.00  0.00     0.083 A 
ATOM      7  C   UNL A   1      29.655  26.012  24.661  1.00  0.00     0.023 A 
ATOM      8  C   UNL A   1      31.498  26.761  26.052  1.00  0.00     0.037 A 
ATOM      9  C   UNL A   1      29.873  27.092  23.812  1.00  0.00     0.023 A 
ATOM     10  C   UNL A   1      30.945  27.967  24.037  1.00  0.00     0.053 A 
ATOM     11  Cl  UNL A   1      31.401  28.949  22.688  1.00  0.00    -0.083 Cl
BRANCH   6  12
ATOM     12  S   UNL A   1      30.556  24.220  26.529  1.00  0.00     0.240 S 
ATOM     13  O   UNL A   1      29.241  23.993  27.083  1.00  0.00    -0.207 OA
ATOM     14  O   UNL A   1      31.748  24.165  27.345  1.00  0.00    -0.207 OA
BRANCH  12  15
ATOM     15  N   UNL A   1      30.783  23.163  25.248  1.00  0.00    -0.206 NA
ATOM     16  H   UNL A   1      30.394  22.271  25.552  1.00  0.00     0.141 HD
BRANCH  15  17
ATOM     17  C   UNL A   1      32.113  22.846  24.663  1.00  0.00     0.098 C 
BRANCH  17  18
ATOM     18  C   UNL A   1      32.414  23.634  23.368  1.00  0.00     0.003 C 
ATOM     19  C   UNL A   1      33.379  24.800  23.620  1.00  0.00     0.009 C 
ATOM     20  C   UNL A   1      32.960  22.769  22.229  1.00  0.00     0.009 C 
ENDBRANCH  17  18
BRANCH  17  21
ATOM     21  C   UNL A   1      32.175  21.310  24.491  1.00  0.00     0.176 C 
BRANCH  21  22
ATOM     22  O   UNL A   1      31.579  20.672  25.627  1.00  0.00    -0.395 OA
ATOM     23  H   UNL A   1      30.991  19.962  25.327  1.00  0.00     0.210 HD
ENDBRANCH  21  22
ENDBRANCH  17  21
ENDBRANCH  15  17
ENDBRANCH  12  15
ENDBRANCH   6  12
ENDBRANCH   1   5
BRANCH   3  24
ATOM     24  C   UNL A   1      31.411  30.977  25.834  1.00  0.00     0.118 C 
BRANCH  24  25
ATOM     25  C   UNL A   1      31.297  32.084  26.870  1.00  0.00     0.042 C 
BRANCH  25  26
ATOM     26  C   UNL A   1      32.585  32.837  27.168  1.00  0.00     0.118 C 
BRANCH  26  27
ATOM     27  N   UNL A   1      32.380  34.207  27.624  1.00  0.00    -0.352 N 
ATOM     28  C   UNL A   1      33.010  34.963  28.585  1.00  0.00     0.251 C 
ATOM     29  H   UNL A   1      31.654  34.679  27.156  1.00  0.00     0.163 HD
ATOM     30  O   UNL A   1      32.559  36.072  28.863  1.00  0.00    -0.269 OA
BRANCH  28  31
ATOM     31  C   UNL A   1      34.195  34.460  29.320  1.00  0.00     0.039 A 
ATOM     32  C   UNL A   1      34.007  33.856  30.569  1.00  0.00     0.014 A 
ATOM     33  C   UNL A   1      35.487  34.608  28.822  1.00  0.00     0.014 A 
ATOM     34  C   UNL A   1      35.098  33.322  31.263  1.00  0.00     0.010 A 
ATOM     35  C   UNL A   1      36.557  33.982  29.457  1.00  0.00     0.010 A 
ATOM     36  C   UNL A   1      36.378  33.335  30.688  1.00  0.00    -0.014 A 
BRANCH  36  37
ATOM     37  C   UNL A   1      37.551  32.709  31.356  1.00  0.00     0.031 A 
ATOM     38  C   UNL A   1      38.281  31.576  30.684  1.00  0.00     0.074 A 
ATOM     39  C   UNL A   1      37.909  33.099  32.596  1.00  0.00     0.049 A 
ATOM     40  N   UNL A   1      39.227  30.801  31.153  1.00  0.00    -0.248 NA
ATOM     41  C   UNL A   1      37.868  31.246  29.309  1.00  0.00     0.031 C 
ATOM     42  C   UNL A   1      37.264  34.158  33.373  1.00  0.00     0.029 A 
ATOM     43  N   UNL A   1      38.900  32.637  33.428  1.00  0.00    -0.354 N 
ATOM     44  C   UNL A   1      39.503  29.887  30.144  1.00  0.00     0.074 A 
ATOM     45  C   UNL A   1      38.585  30.161  29.061  1.00  0.00     0.031 C 
ATOM     46  C   UNL A   1      37.889  34.282  34.555  1.00  0.00     0.029 A 
ATOM     47  C   UNL A   1      38.948  33.282  34.641  1.00  0.00     0.049 A 
ATOM     48  H   UNL A   1      39.517  31.912  33.179  1.00  0.00     0.167 HD
ATOM     49  C   UNL A   1      40.458  28.927  30.107  1.00  0.00     0.037 A 
ATOM     50  C   UNL A   1      39.750  33.081  35.705  1.00  0.00     0.037 A 
ATOM     51  C   UNL A   1      41.396  28.678  31.169  1.00  0.00     0.049 A 
ATOM     52  C   UNL A   1      40.792  31.995  35.642  1.00  0.00     0.074 A 
ATOM     53  C   UNL A   1      42.420  27.749  31.218  1.00  0.00     0.029 A 
ATOM     54  N   UNL A   1      41.430  29.375  32.367  1.00  0.00    -0.354 N 
ATOM     55  N   UNL A   1      41.068  31.166  34.666  1.00  0.00    -0.248 NA
ATOM     56  C   UNL A   1      41.639  31.823  36.832  1.00  0.00     0.031 C 
ATOM     57  C   UNL A   1      43.056  27.863  32.458  1.00  0.00     0.029 A 
ATOM     58  C   UNL A   1      42.456  28.893  33.163  1.00  0.00     0.049 A 
ATOM     59  H   UNL A   1      40.817  30.104  32.616  1.00  0.00     0.167 HD
ATOM     60  C   UNL A   1      42.140  30.402  35.106  1.00  0.00     0.074 A 
ATOM     61  C   UNL A   1      42.473  30.874  36.433  1.00  0.00     0.031 C 
ATOM     62  C   UNL A   1      42.791  29.398  34.470  1.00  0.00     0.037 A 
BRANCH  49  63
ATOM     63  C   UNL A   1      40.552  28.089  28.865  1.00  0.00     0.064 A 
ATOM     64  C   UNL A   1      39.843  26.884  28.742  1.00  0.00     0.173 A 
ATOM     65  C   UNL A   1      41.326  28.508  27.773  1.00  0.00     0.173 A 
ATOM     66  F   UNL A   1      39.099  26.431  29.762  1.00  0.00    -0.203 F 
ATOM     67  C   UNL A   1      39.925  26.118  27.582  1.00  0.00     0.198 A 
ATOM     68  C   UNL A   1      41.383  27.755  26.603  1.00  0.00     0.198 A 
ATOM     69  F   UNL A   1      42.021  29.654  27.836  1.00  0.00    -0.203 F 
ATOM     70  F   UNL A   1      39.277  24.947  27.507  1.00  0.00    -0.200 F 
ATOM     71  C   UNL A   1      40.689  26.557  26.511  1.00  0.00     0.200 A 
ATOM     72  F   UNL A   1      42.110  28.187  25.564  1.00  0.00    -0.200 F 
ATOM     73  F   UNL A   1      40.760  25.824  25.392  1.00  0.00    -0.200 F 
ENDBRANCH  49  63
BRANCH  50  74
ATOM     74  C   UNL A   1      39.624  33.935  36.916  1.00  0.00     0.064 A 
ATOM     75  C   UNL A   1      38.853  33.517  38.010  1.00  0.00     0.173 A 
ATOM     76  C   UNL A   1      40.236  35.195  36.994  1.00  0.00     0.173 A 
ATOM     77  F   UNL A   1      38.231  32.330  37.974  1.00  0.00    -0.203 F 
ATOM     78  C   UNL A   1      38.671  34.338  39.121  1.00  0.00     0.198 A 
ATOM     79  C   UNL A   1      40.077  36.003  38.119  1.00  0.00     0.198 A 
ATOM     80  F   UNL A   1      40.987  35.642  35.978  1.00  0.00    -0.203 F 
ATOM     81  F   UNL A   1      37.880  33.936  40.125  1.00  0.00    -0.200 F 
ATOM     82  C   UNL A   1      39.286  35.579  39.176  1.00  0.00     0.200 A 
ATOM     83  F   UNL A   1      40.685  37.196  38.175  1.00  0.00    -0.200 F 
ATOM     84  F   UNL A   1      39.106  36.371  40.242  1.00  0.00    -0.200 F 
ENDBRANCH  50  74
BRANCH  62  85
ATOM     85  C   UNL A   1      43.965  28.783  35.173  1.00  0.00     0.064 A 
ATOM     86  C   UNL A   1      45.266  29.280  35.010  1.00  0.00     0.173 A 
ATOM     87  C   UNL A   1      43.776  27.708  36.053  1.00  0.00     0.173 A 
ATOM     88  F   UNL A   1      45.500  30.297  34.167  1.00  0.00    -0.203 F 
ATOM     89  C   UNL A   1      46.339  28.705  35.686  1.00  0.00     0.198 A 
ATOM     90  C   UNL A   1      44.846  27.155  36.750  1.00  0.00     0.198 A 
ATOM     91  F   UNL A   1      42.548  27.201  36.249  1.00  0.00    -0.203 F 
ATOM     92  F   UNL A   1      47.581  29.166  35.480  1.00  0.00    -0.200 F 
ATOM     93  C   UNL A   1      46.127  27.649  36.560  1.00  0.00     0.200 A 
ATOM     94  F   UNL A   1      44.637  26.144  37.604  1.00  0.00    -0.200 F 
ATOM     95  F   UNL A   1      47.161  27.104  37.216  1.00  0.00    -0.200 F 
ENDBRANCH  62  85
ENDBRANCH  36  37
ENDBRANCH  28  31
ENDBRANCH  26  27
ENDBRANCH  25  26
ENDBRANCH  24  25
ENDBRANCH   3  24
TORSDOF 16
ENDMDL
MODEL 2
REMARK VINA RESULT:     -11.8      5.648     11.117
REMARK SMILES CC(C)[C@H](CO)NS(=O)(=O)c1ccc(Cl)c(C(=O)NCCCNC(=O)c2ccc(-c3c4nc(c(-c5c(F)c(F)c(F)c(F)c5F)c5ccc([nH]5)c(-c5c(F)c(F)c(F)c(F)c5F)c5nc(c(-c6c(F)c(F)c(F)c(F)c6F)c6ccc3[nH]6)C=C5)C=C4)cc2)c1
REMARK SMILES IDX 17 1 18 2 19 3 16 5 11 6 12 7 89 8 13 9 14 10 15 11 8 12
REMARK SMILES IDX 9 13 10 14 7 15 4 17 2 18 1 19 3 20 5 21 6 22 20 24 21 25
REMARK SMILES IDX 22 26 23 27 24 28 25 30 26 31 27 32 88 33 28 34 87 35 29 36
REMARK SMILES IDX 30 37 31 38 81 39 32 40 86 41 80 42 82 43 33 44 85 45 79 46
REMARK SMILES IDX 78 47 34 49 66 50 46 51 65 52 47 53 50 54 64 55 83 56 48 57
REMARK SMILES IDX 49 58 63 60 84 61 51 62 35 63 36 64 44 65 37 66 38 67 42 68
REMARK SMILES IDX 45 69 39 70 40 71 43 72 41 73 67 74 68 75 76 76 69 77 70 78
REMARK SMILES IDX 74 79 77 80 71 81 72 82 75 83 73 84 52 85 53 86 61 87 54 88
REMARK SMILES IDX 55 89 59 90 62 91 56 92 57 93 60 94 58 95
REMARK H PARENT 19 4 7 16 6 23 23 29 82 48 50 59
REMARK Flexibility Score: inf
ROOT
ATOM      1  C   UNL A   1      34.623  21.448  25.856  1.00  0.00     0.252 C 
ATOM      2  O   UNL A   1      34.082  21.565  26.957  1.00  0.00    -0.269 OA
ATOM      3  N   UNL A   1      35.920  21.001  25.815  1.00  0.00    -0.352 N 
ATOM      4  H   UNL A   1      36.343  20.897  26.698  1.00  0.00     0.163 HD
ENDROOT
BRANCH   1   5
ATOM      5  C   UNL A   1      33.867  21.892  24.658  1.00  0.00     0.059 A 
ATOM      6  C   UNL A   1      33.369  23.765  23.191  1.00  0.00     0.083 A 
ATOM      7  C   UNL A   1      32.570  22.953  22.390  1.00  0.00     0.023 A 
ATOM      8  C   UNL A   1      34.074  23.231  24.274  1.00  0.00     0.037 A 
ATOM      9  C   UNL A   1      32.324  21.645  22.794  1.00  0.00     0.023 A 
ATOM     10  C   UNL A   1      32.893  21.149  23.976  1.00  0.00     0.053 A 
ATOM     11  Cl  UNL A   1      32.152  19.724  24.618  1.00  0.00    -0.083 Cl
BRANCH   6  12
ATOM     12  S   UNL A   1      33.331  25.526  22.950  1.00  0.00     0.240 S 
ATOM     13  O   UNL A   1      33.653  25.787  21.567  1.00  0.00    -0.207 OA
ATOM     14  O   UNL A   1      34.074  26.129  24.033  1.00  0.00    -0.207 OA
BRANCH  12  15
ATOM     15  N   UNL A   1      31.713  25.889  23.198  1.00  0.00    -0.206 NA
ATOM     16  H   UNL A   1      31.302  25.971  22.268  1.00  0.00     0.141 HD
BRANCH  15  17
ATOM     17  C   UNL A   1      31.238  27.078  23.955  1.00  0.00     0.098 C 
BRANCH  17  18
ATOM     18  C   UNL A   1      30.653  26.725  25.341  1.00  0.00     0.003 C 
ATOM     19  C   UNL A   1      30.597  25.208  25.568  1.00  0.00     0.009 C 
ATOM     20  C   UNL A   1      31.393  27.380  26.510  1.00  0.00     0.009 C 
ENDBRANCH  17  18
BRANCH  17  21
ATOM     21  C   UNL A   1      30.254  27.836  23.033  1.00  0.00     0.176 C 
BRANCH  21  22
ATOM     22  O   UNL A   1      30.654  27.679  21.666  1.00  0.00    -0.395 OA
ATOM     23  H   UNL A   1      30.147  28.290  21.109  1.00  0.00     0.210 HD
ENDBRANCH  21  22
ENDBRANCH  17  21
ENDBRANCH  15  17
ENDBRANCH  12  15
ENDBRANCH   6  12
ENDBRANCH   1   5
BRANCH   3  24
ATOM     24  C   UNL A   1      36.780  20.652  24.695  1.00  0.00     0.118 C 
BRANCH  24  25
ATOM     25  C   UNL A   1      37.843  19.608  24.999  1.00  0.00     0.042 C 
BRANCH  25  26
ATOM     26  C   UNL A   1      39.063  20.117  25.751  1.00  0.00     0.118 C 
BRANCH  26  27
ATOM     27  N   UNL A   1      40.145  19.144  25.856  1.00  0.00    -0.352 N 
ATOM     28  C   UNL A   1      41.491  19.285  26.102  1.00  0.00     0.251 C 
ATOM     29  H   UNL A   1      39.857  18.212  25.727  1.00  0.00     0.163 HD
ATOM     30  O   UNL A   1      42.219  18.298  26.019  1.00  0.00    -0.269 OA
BRANCH  28  31
ATOM     31  C   UNL A   1      42.091  20.600  26.427  1.00  0.00     0.039 A 
ATOM     32  C   UNL A   1      42.547  21.410  25.379  1.00  0.00     0.014 A 
ATOM     33  C   UNL A   1      42.250  21.033  27.741  1.00  0.00     0.014 A 
ATOM     34  C   UNL A   1      43.069  22.680  25.648  1.00  0.00     0.010 A 
ATOM     35  C   UNL A   1      42.665  22.336  28.003  1.00  0.00     0.010 A 
ATOM     36  C   UNL A   1      43.084  23.176  26.962  1.00  0.00    -0.014 A 
BRANCH  36  37
ATOM     37  C   UNL A   1      43.557  24.550  27.282  1.00  0.00     0.031 A 
ATOM     38  C   UNL A   1      42.586  25.574  27.808  1.00  0.00     0.074 A 
ATOM     39  C   UNL A   1      44.833  24.902  27.025  1.00  0.00     0.049 A 
ATOM     40  N   UNL A   1      42.757  26.856  28.010  1.00  0.00    -0.248 NA
ATOM     41  C   UNL A   1      41.227  25.098  28.117  1.00  0.00     0.031 C 
ATOM     42  C   UNL A   1      45.865  24.019  26.481  1.00  0.00     0.029 A 
ATOM     43  N   UNL A   1      45.476  26.107  27.175  1.00  0.00    -0.354 N 
ATOM     44  C   UNL A   1      41.529  27.338  28.446  1.00  0.00     0.074 A 
ATOM     45  C   UNL A   1      40.604  26.227  28.421  1.00  0.00     0.031 C 
ATOM     46  C   UNL A   1      47.016  24.701  26.367  1.00  0.00     0.029 A 
ATOM     47  C   UNL A   1      46.793  26.082  26.783  1.00  0.00     0.049 A 
ATOM     48  H   UNL A   1      45.035  26.912  27.529  1.00  0.00     0.167 HD
ATOM     49  C   UNL A   1      41.207  28.586  28.863  1.00  0.00     0.037 A 
ATOM     50  C   UNL A   1      47.713  27.066  26.755  1.00  0.00     0.037 A 
ATOM     51  C   UNL A   1      42.135  29.683  28.923  1.00  0.00     0.049 A 
ATOM     52  C   UNL A   1      47.323  28.448  27.208  1.00  0.00     0.074 A 
ATOM     53  C   UNL A   1      41.916  30.979  29.357  1.00  0.00     0.029 A 
ATOM     54  N   UNL A   1      43.468  29.607  28.547  1.00  0.00    -0.354 N 
ATOM     55  N   UNL A   1      46.170  28.878  27.656  1.00  0.00    -0.248 NA
ATOM     56  C   UNL A   1      48.369  29.480  27.156  1.00  0.00     0.031 C 
ATOM     57  C   UNL A   1      43.109  31.695  29.217  1.00  0.00     0.029 A 
ATOM     58  C   UNL A   1      44.082  30.834  28.736  1.00  0.00     0.049 A 
ATOM     59  H   UNL A   1      43.912  28.801  28.198  1.00  0.00     0.167 HD
ATOM     60  C   UNL A   1      46.360  30.217  27.975  1.00  0.00     0.074 A 
ATOM     61  C   UNL A   1      47.742  30.524  27.680  1.00  0.00     0.031 C 
ATOM     62  C   UNL A   1      45.469  31.112  28.466  1.00  0.00     0.037 A 
BRANCH  49  63
ATOM     63  C   UNL A   1      39.795  28.826  29.312  1.00  0.00     0.064 A 
ATOM     64  C   UNL A   1      39.413  28.645  30.650  1.00  0.00     0.173 A 
ATOM     65  C   UNL A   1      38.821  29.277  28.408  1.00  0.00     0.173 A 
ATOM     66  F   UNL A   1      40.303  28.203  31.551  1.00  0.00    -0.203 F 
ATOM     67  C   UNL A   1      38.105  28.882  31.062  1.00  0.00     0.198 A 
ATOM     68  C   UNL A   1      37.520  29.541  28.829  1.00  0.00     0.198 A 
ATOM     69  F   UNL A   1      39.133  29.470  27.118  1.00  0.00    -0.203 F 
ATOM     70  F   UNL A   1      37.753  28.657  32.335  1.00  0.00    -0.200 F 
ATOM     71  C   UNL A   1      37.161  29.337  30.153  1.00  0.00     0.200 A 
ATOM     72  F   UNL A   1      36.613  29.994  27.953  1.00  0.00    -0.200 F 
ATOM     73  F   UNL A   1      35.904  29.573  30.553  1.00  0.00    -0.200 F 
ENDBRANCH  49  63
BRANCH  50  74
ATOM     74  C   UNL A   1      49.103  26.785  26.304  1.00  0.00     0.064 A 
ATOM     75  C   UNL A   1      49.465  26.945  24.958  1.00  0.00     0.173 A 
ATOM     76  C   UNL A   1      50.085  26.320  27.192  1.00  0.00     0.173 A 
ATOM     77  F   UNL A   1      48.556  27.366  24.067  1.00  0.00    -0.203 F 
ATOM     78  C   UNL A   1      50.744  26.619  24.511  1.00  0.00     0.198 A 
ATOM     79  C   UNL A   1      51.372  26.024  26.748  1.00  0.00     0.198 A 
ATOM     80  F   UNL A   1      49.793  26.154  28.489  1.00  0.00    -0.203 F 
ATOM     81  F   UNL A   1      51.043  26.725  23.210  1.00  0.00    -0.200 F 
ATOM     82  C   UNL A   1      51.698  26.162  25.407  1.00  0.00     0.200 A 
ATOM     83  F   UNL A   1      52.296  25.595  27.620  1.00  0.00    -0.200 F 
ATOM     84  F   UNL A   1      52.926  25.843  24.977  1.00  0.00    -0.200 F 
ENDBRANCH  50  74
BRANCH  62  85
ATOM     85  C   UNL A   1      45.975  32.491  28.772  1.00  0.00     0.064 A 
ATOM     86  C   UNL A   1      45.918  33.524  27.827  1.00  0.00     0.173 A 
ATOM     87  C   UNL A   1      46.485  32.788  30.045  1.00  0.00     0.173 A 
ATOM     88  F   UNL A   1      45.453  33.285  26.592  1.00  0.00    -0.203 F 
ATOM     89  C   UNL A   1      46.377  34.802  28.138  1.00  0.00     0.198 A 
ATOM     90  C   UNL A   1      46.915  34.073  30.362  1.00  0.00     0.198 A 
ATOM     91  F   UNL A   1      46.554  31.834  30.987  1.00  0.00    -0.203 F 
ATOM     92  F   UNL A   1      46.356  35.764  27.205  1.00  0.00    -0.200 F 
ATOM     93  C   UNL A   1      46.867  35.076  29.406  1.00  0.00     0.200 A 
ATOM     94  F   UNL A   1      47.376  34.339  31.591  1.00  0.00    -0.200 F 
ATOM     95  F   UNL A   1      47.300  36.309  29.705  1.00  0.00    -0.200 F 
ENDBRANCH  62  85
ENDBRANCH  36  37
ENDBRANCH  28  31
ENDBRANCH  26  27
ENDBRANCH  25  26
ENDBRANCH  24  25
ENDBRANCH   3  24
TORSDOF 16
ENDMDL
MODEL 3
REMARK VINA RESULT:     -11.7      5.710     11.056
REMARK SMILES CC(C)[C@H](CO)NS(=O)(=O)c1ccc(Cl)c(C(=O)NCCCNC(=O)c2ccc(-c3c4nc(c(-c5c(F)c(F)c(F)c(F)c5F)c5ccc([nH]5)c(-c5c(F)c(F)c(F)c(F)c5F)c5nc(c(-c6c(F)c(F)c(F)c(F)c6F)c6ccc3[nH]6)C=C5)C=C4)cc2)c1
REMARK SMILES IDX 17 1 18 2 19 3 16 5 11 6 12 7 89 8 13 9 14 10 15 11 8 12
REMARK SMILES IDX 9 13 10 14 7 15 4 17 2 18 1 19 3 20 5 21 6 22 20 24 21 25
REMARK SMILES IDX 22 26 23 27 24 28 25 30 26 31 27 32 88 33 28 34 87 35 29 36
REMARK SMILES IDX 30 37 31 38 81 39 32 40 86 41 80 42 82 43 33 44 85 45 79 46
REMARK SMILES IDX 78 47 34 49 66 50 46 51 65 52 47 53 50 54 64 55 83 56 48 57
REMARK SMILES IDX 49 58 63 60 84 61 51 62 35 63 36 64 44 65 37 66 38 67 42 68
REMARK SMILES IDX 45 69 39 70 40 71 43 72 41 73 67 74 68 75 76 76 69 77 70 78
REMARK SMILES IDX 74 79 77 80 71 81 72 82 75 83 73 84 52 85 53 86 61 87 54 88
REMARK SMILES IDX 55 89 59 90 62 91 56 92 57 93 60 94 58 95
REMARK H PARENT 19 4 7 16 6 23 23 29 82 48 50 59
REMARK Flexibility Score: inf
ROOT
ATOM      1  C   UNL A   1      35.807  23.040  25.187  1.00  0.00     0.252 C 
ATOM      2  O   UNL A   1      36.154  24.116  25.677  1.00  0.00    -0.269 OA
ATOM      3  N   UNL A   1      36.644  21.961  25.331  1.00  0.00    -0.352 N 
ATOM      4  H   UNL A   1      37.512  22.172  25.746  1.00  0.00     0.163 HD
ENDROOT
BRANCH   1   5
ATOM      5  C   UNL A   1      34.554  23.009  24.393  1.00  0.00     0.059 A 
ATOM      6  C   UNL A   1      33.303  24.063  22.594  1.00  0.00     0.083 A 
ATOM      7  C   UNL A   1      32.284  23.122  22.722  1.00  0.00     0.023 A 
ATOM      8  C   UNL A   1      34.465  23.971  23.367  1.00  0.00     0.037 A 
ATOM      9  C   UNL A   1      32.346  22.203  23.765  1.00  0.00     0.023 A 
ATOM     10  C   UNL A   1      33.431  22.212  24.654  1.00  0.00     0.053 A 
ATOM     11  Cl  UNL A   1      33.173  21.383  26.150  1.00  0.00    -0.083 Cl
BRANCH   6  12
ATOM     12  S   UNL A   1      33.033  25.500  21.583  1.00  0.00     0.240 S 
ATOM     13  O   UNL A   1      33.026  25.070  20.203  1.00  0.00    -0.207 OA
ATOM     14  O   UNL A   1      33.922  26.537  22.054  1.00  0.00    -0.207 OA
BRANCH  12  15
ATOM     15  N   UNL A   1      31.476  25.953  22.007  1.00  0.00    -0.206 NA
ATOM     16  H   UNL A   1      31.169  26.604  21.284  1.00  0.00     0.141 HD
BRANCH  15  17
ATOM     17  C   UNL A   1      31.123  26.593  23.302  1.00  0.00     0.098 C 
BRANCH  17  18
ATOM     18  C   UNL A   1      30.108  25.774  24.131  1.00  0.00     0.003 C 
ATOM     19  C   UNL A   1      30.570  25.592  25.583  1.00  0.00     0.009 C 
ATOM     20  C   UNL A   1      28.691  26.355  24.125  1.00  0.00     0.009 C 
ENDBRANCH  17  18
BRANCH  17  21
ATOM     21  C   UNL A   1      30.656  28.032  22.981  1.00  0.00     0.176 C 
BRANCH  21  22
ATOM     22  O   UNL A   1      30.744  28.265  21.571  1.00  0.00    -0.395 OA
ATOM     23  H   UNL A   1      30.369  29.136  21.363  1.00  0.00     0.210 HD
ENDBRANCH  21  22
ENDBRANCH  17  21
ENDBRANCH  15  17
ENDBRANCH  12  15
ENDBRANCH   6  12
ENDBRANCH   1   5
BRANCH   3  24
ATOM     24  C   UNL A   1      36.474  20.561  24.979  1.00  0.00     0.118 C 
BRANCH  24  25
ATOM     25  C   UNL A   1      37.765  19.776  24.810  1.00  0.00     0.042 C 
BRANCH  25  26
ATOM     26  C   UNL A   1      38.915  20.207  25.708  1.00  0.00     0.118 C 
BRANCH  26  27
ATOM     27  N   UNL A   1      39.976  19.214  25.833  1.00  0.00    -0.352 N 
ATOM     28  C   UNL A   1      41.321  19.330  26.096  1.00  0.00     0.251 C 
ATOM     29  H   UNL A   1      39.671  18.287  25.705  1.00  0.00     0.163 HD
ATOM     30  O   UNL A   1      42.030  18.328  26.028  1.00  0.00    -0.269 OA
BRANCH  28  31
ATOM     31  C   UNL A   1      41.942  20.635  26.422  1.00  0.00     0.039 A 
ATOM     32  C   UNL A   1      42.267  21.507  25.376  1.00  0.00     0.014 A 
ATOM     33  C   UNL A   1      42.248  20.998  27.731  1.00  0.00     0.014 A 
ATOM     34  C   UNL A   1      42.804  22.769  25.653  1.00  0.00     0.010 A 
ATOM     35  C   UNL A   1      42.678  22.291  28.016  1.00  0.00     0.010 A 
ATOM     36  C   UNL A   1      42.967  23.193  26.981  1.00  0.00    -0.014 A 
BRANCH  36  37
ATOM     37  C   UNL A   1      43.461  24.555  27.321  1.00  0.00     0.031 A 
ATOM     38  C   UNL A   1      42.509  25.580  27.879  1.00  0.00     0.074 A 
ATOM     39  C   UNL A   1      44.737  24.896  27.053  1.00  0.00     0.049 A 
ATOM     40  N   UNL A   1      42.698  26.857  28.103  1.00  0.00    -0.248 NA
ATOM     41  C   UNL A   1      41.148  25.115  28.197  1.00  0.00     0.031 C 
ATOM     42  C   UNL A   1      45.751  24.011  26.479  1.00  0.00     0.029 A 
ATOM     43  N   UNL A   1      45.397  26.090  27.217  1.00  0.00    -0.354 N 
ATOM     44  C   UNL A   1      41.483  27.344  28.564  1.00  0.00     0.074 A 
ATOM     45  C   UNL A   1      40.544  26.245  28.530  1.00  0.00     0.031 C 
ATOM     46  C   UNL A   1      46.908  24.681  26.362  1.00  0.00     0.029 A 
ATOM     47  C   UNL A   1      46.709  26.056  26.807  1.00  0.00     0.049 A 
ATOM     48  H   UNL A   1      44.970  26.894  27.591  1.00  0.00     0.167 HD
ATOM     49  C   UNL A   1      41.182  28.588  29.008  1.00  0.00     0.037 A 
ATOM     50  C   UNL A   1      47.640  27.029  26.785  1.00  0.00     0.037 A 
ATOM     51  C   UNL A   1      42.124  29.673  29.076  1.00  0.00     0.049 A 
ATOM     52  C   UNL A   1      47.274  28.407  27.269  1.00  0.00     0.074 A 
ATOM     53  C   UNL A   1      41.927  30.963  29.537  1.00  0.00     0.029 A 
ATOM     54  N   UNL A   1      43.451  29.588  28.681  1.00  0.00    -0.354 N 
ATOM     55  N   UNL A   1      46.131  28.843  27.741  1.00  0.00    -0.248 NA
ATOM     56  C   UNL A   1      48.331  29.428  27.222  1.00  0.00     0.031 C 
ATOM     57  C   UNL A   1      43.127  31.667  29.394  1.00  0.00     0.029 A 
ATOM     58  C   UNL A   1      44.082  30.804  28.884  1.00  0.00     0.049 A 
ATOM     59  H   UNL A   1      43.880  28.783  28.311  1.00  0.00     0.167 HD
ATOM     60  C   UNL A   1      46.342  30.173  28.081  1.00  0.00     0.074 A 
ATOM     61  C   UNL A   1      47.724  30.469  27.774  1.00  0.00     0.031 C 
ATOM     62  C   UNL A   1      45.469  31.069  28.601  1.00  0.00     0.037 A 
BRANCH  49  63
ATOM     63  C   UNL A   1      39.778  28.837  29.480  1.00  0.00     0.064 A 
ATOM     64  C   UNL A   1      38.792  29.328  28.611  1.00  0.00     0.173 A 
ATOM     65  C   UNL A   1      39.404  28.547  30.800  1.00  0.00     0.173 A 
ATOM     66  F   UNL A   1      39.102  29.634  27.343  1.00  0.00    -0.203 F 
ATOM     67  C   UNL A   1      37.489  29.544  29.053  1.00  0.00     0.198 A 
ATOM     68  C   UNL A   1      38.092  28.736  31.231  1.00  0.00     0.198 A 
ATOM     69  F   UNL A   1      40.306  28.071  31.672  1.00  0.00    -0.203 F 
ATOM     70  F   UNL A   1      36.577  30.059  28.217  1.00  0.00    -0.200 F 
ATOM     71  C   UNL A   1      37.139  29.240  30.359  1.00  0.00     0.200 A 
ATOM     72  F   UNL A   1      37.752  28.429  32.490  1.00  0.00    -0.200 F 
ATOM     73  F   UNL A   1      35.883  29.440  30.781  1.00  0.00    -0.200 F 
ENDBRANCH  49  63
BRANCH  50  74
ATOM     74  C   UNL A   1      49.021  26.741  26.310  1.00  0.00     0.064 A 
ATOM     75  C   UNL A   1      49.989  26.237  27.190  1.00  0.00     0.173 A 
ATOM     76  C   UNL A   1      49.411  26.993  24.987  1.00  0.00     0.173 A 
ATOM     77  F   UNL A   1      49.670  25.999  28.470  1.00  0.00    -0.203 F 
ATOM     78  C   UNL A   1      51.303  26.028  26.774  1.00  0.00     0.198 A 
ATOM     79  C   UNL A   1      50.718  26.756  24.565  1.00  0.00     0.198 A 
ATOM     80  F   UNL A   1      48.523  27.471  24.103  1.00  0.00    -0.203 F 
ATOM     81  F   UNL A   1      52.221  25.602  27.653  1.00  0.00    -0.200 F 
ATOM     82  C   UNL A   1      51.665  26.284  25.461  1.00  0.00     0.200 A 
ATOM     83  F   UNL A   1      51.061  26.991  23.291  1.00  0.00    -0.200 F 
ATOM     84  F   UNL A   1      52.930  26.089  25.063  1.00  0.00    -0.200 F 
ENDBRANCH  50  74
BRANCH  62  85
ATOM     85  C   UNL A   1      45.996  32.436  28.926  1.00  0.00     0.064 A 
ATOM     86  C   UNL A   1      46.575  32.727  30.169  1.00  0.00     0.173 A 
ATOM     87  C   UNL A   1      45.956  33.455  27.963  1.00  0.00     0.173 A 
ATOM     88  F   UNL A   1      46.621  31.790  31.128  1.00  0.00    -0.203 F 
ATOM     89  C   UNL A   1      47.074  33.997  30.444  1.00  0.00     0.198 A 
ATOM     90  C   UNL A   1      46.483  34.715  28.231  1.00  0.00     0.198 A 
ATOM     91  F   UNL A   1      45.419  33.224  26.755  1.00  0.00    -0.203 F 
ATOM     92  F   UNL A   1      47.582  34.267  31.655  1.00  0.00    -0.200 F 
ATOM     93  C   UNL A   1      47.034  34.986  29.473  1.00  0.00     0.200 A 
ATOM     94  F   UNL A   1      46.456  35.665  27.287  1.00  0.00    -0.200 F 
ATOM     95  F   UNL A   1      47.524  36.206  29.738  1.00  0.00    -0.200 F 
ENDBRANCH  62  85
ENDBRANCH  36  37
ENDBRANCH  28  31
ENDBRANCH  26  27
ENDBRANCH  25  26
ENDBRANCH  24  25
ENDBRANCH   3  24
TORSDOF 16
ENDMDL
