MODEL 1
REMARK VINA RESULT:     -12.0      0.000      0.000
REMARK SMILES Cc1cc(Cl)ccc1OCC(=O)Nc1ccc(CC(=O)NCCCNC(=O)c2ccc(-c3c4nc(c(-c5c(F)c(F)c(F)c(F)c5F)c5ccc([nH]5)c(-c5c(F)c(F)c(F)c(F)c5F)c5nc(c(-c6c(F)c(F)c(F)c(F)c6F)c6ccc3[nH]6)C=C5)C=C4)cc2)cc1
REMARK SMILES IDX 19 1 20 2 21 3 18 5 17 6 14 7 15 8 92 9 16 10 91 11 13 12
REMARK SMILES IDX 11 13 12 14 10 16 9 17 8 18 1 19 2 20 3 21 4 22 7 23 5 24
REMARK SMILES IDX 6 25 22 26 23 27 24 28 25 29 26 30 27 32 28 33 29 34 90 35
REMARK SMILES IDX 30 36 89 37 31 38 32 39 33 40 83 41 34 42 88 43 82 44 84 45
REMARK SMILES IDX 35 46 87 47 81 48 80 49 36 51 68 52 48 53 67 54 49 55 52 56
REMARK SMILES IDX 66 57 85 58 50 59 51 60 65 62 86 63 53 64 37 65 38 66 46 67
REMARK SMILES IDX 39 68 40 69 44 70 47 71 41 72 42 73 45 74 43 75 69 76 70 77
REMARK SMILES IDX 78 78 71 79 72 80 76 81 79 82 73 83 74 84 77 85 75 86 54 87
REMARK SMILES IDX 55 88 63 89 56 90 57 91 61 92 64 93 58 94 59 95 62 96 60 97
REMARK H PARENT 21 4 13 15 25 31 84 50 52 61
REMARK Flexibility Score: inf
ROOT
ATOM      1  C   UNL A   1      37.444  23.097  25.691  1.00  0.00     0.224 C 
ATOM      2  O   UNL A   1      38.135  24.093  25.914  1.00  0.00    -0.275 OA
ATOM      3  N   UNL A   1      38.027  22.030  25.069  1.00  0.00    -0.356 N 
ATOM      4  H   UNL A   1      38.992  22.116  24.898  1.00  0.00     0.163 HD
ENDROOT
BRANCH   1   5
ATOM      5  C   UNL A   1      35.990  23.031  26.119  1.00  0.00     0.135 C 
BRANCH   5   6
ATOM      6  C   UNL A   1      35.094  24.006  25.397  1.00  0.00    -0.039 A 
ATOM      7  C   UNL A   1      33.394  25.832  24.087  1.00  0.00     0.041 A 
ATOM      8  C   UNL A   1      34.210  24.966  23.351  1.00  0.00     0.026 A 
ATOM      9  C   UNL A   1      33.415  25.752  25.473  1.00  0.00     0.026 A 
ATOM     10  C   UNL A   1      35.068  24.071  24.000  1.00  0.00     0.006 A 
ATOM     11  C   UNL A   1      34.264  24.861  26.126  1.00  0.00     0.006 A 
BRANCH   7  12
ATOM     12  N   UNL A   1      32.557  26.700  23.376  1.00  0.00    -0.323 N 
ATOM     13  C   UNL A   1      31.415  26.487  22.654  1.00  0.00     0.262 C 
ATOM     14  O   UNL A   1      30.953  27.455  22.040  1.00  0.00    -0.271 OA
ATOM     15  H   UNL A   1      32.845  27.641  23.400  1.00  0.00     0.170 HD
BRANCH  13  16
ATOM     16  C   UNL A   1      30.622  25.164  22.751  1.00  0.00     0.329 C 
BRANCH  16  17
ATOM     17  O   UNL A   1      30.341  24.436  23.929  1.00  0.00    -0.483 OA
BRANCH  17  18
ATOM     18  C   UNL A   1      31.040  23.305  24.226  1.00  0.00     0.123 A 
ATOM     19  C   UNL A   1      30.840  23.386  26.790  1.00  0.00     0.048 C 
ATOM     20  C   UNL A   1      31.289  22.774  25.496  1.00  0.00    -0.007 A 
ATOM     21  C   UNL A   1      32.062  21.595  25.593  1.00  0.00     0.027 A 
ATOM     22  C   UNL A   1      32.633  21.011  24.464  1.00  0.00     0.041 A 
ATOM     23  C   UNL A   1      31.662  22.729  23.104  1.00  0.00     0.048 A 
ATOM     24  Cl  UNL A   1      33.599  19.597  24.625  1.00  0.00    -0.084 Cl
ATOM     25  C   UNL A   1      32.450  21.584  23.215  1.00  0.00     0.024 A 
ENDBRANCH  17  18
ENDBRANCH  16  17
ENDBRANCH  13  16
ENDBRANCH   7  12
ENDBRANCH   5   6
ENDBRANCH   1   5
BRANCH   3  26
ATOM     26  C   UNL A   1      37.425  20.786  24.625  1.00  0.00     0.117 C 
BRANCH  26  27
ATOM     27  C   UNL A   1      38.267  19.567  25.001  1.00  0.00     0.042 C 
BRANCH  27  28
ATOM     28  C   UNL A   1      39.243  19.806  26.150  1.00  0.00     0.118 C 
BRANCH  28  29
ATOM     29  N   UNL A   1      40.437  18.983  26.050  1.00  0.00    -0.352 N 
ATOM     30  C   UNL A   1      41.761  19.325  26.018  1.00  0.00     0.251 C 
ATOM     31  H   UNL A   1      40.264  18.015  25.996  1.00  0.00     0.163 HD
ATOM     32  O   UNL A   1      42.591  18.454  25.750  1.00  0.00    -0.269 OA
BRANCH  30  33
ATOM     33  C   UNL A   1      42.222  20.705  26.291  1.00  0.00     0.039 A 
ATOM     34  C   UNL A   1      42.367  21.100  27.626  1.00  0.00     0.014 A 
ATOM     35  C   UNL A   1      42.426  21.639  25.271  1.00  0.00     0.014 A 
ATOM     36  C   UNL A   1      42.731  22.412  27.936  1.00  0.00     0.010 A 
ATOM     37  C   UNL A   1      42.858  22.930  25.578  1.00  0.00     0.010 A 
ATOM     38  C   UNL A   1      42.991  23.336  26.914  1.00  0.00    -0.014 A 
BRANCH  38  39
ATOM     39  C   UNL A   1      43.358  24.738  27.238  1.00  0.00     0.031 A 
ATOM     40  C   UNL A   1      44.754  25.237  26.981  1.00  0.00     0.074 A 
ATOM     41  C   UNL A   1      42.444  25.559  27.787  1.00  0.00     0.049 A 
ATOM     42  N   UNL A   1      45.268  26.421  27.205  1.00  0.00    -0.248 NA
ATOM     43  C   UNL A   1      45.709  24.268  26.421  1.00  0.00     0.031 C 
ATOM     44  C   UNL A   1      41.072  25.183  28.131  1.00  0.00     0.029 A 
ATOM     45  N   UNL A   1      42.530  26.879  28.154  1.00  0.00    -0.354 N 
ATOM     46  C   UNL A   1      46.601  26.335  26.823  1.00  0.00     0.074 A 
ATOM     47  C   UNL A   1      46.833  24.969  26.409  1.00  0.00     0.031 C 
ATOM     48  C   UNL A   1      40.439  26.252  28.640  1.00  0.00     0.029 A 
ATOM     49  C   UNL A   1      41.366  27.381  28.680  1.00  0.00     0.049 A 
ATOM     50  H   UNL A   1      43.350  27.414  28.050  1.00  0.00     0.167 HD
ATOM     51  C   UNL A   1      47.540  27.312  26.794  1.00  0.00     0.037 A 
ATOM     52  C   UNL A   1      41.077  28.613  29.136  1.00  0.00     0.037 A 
ATOM     53  C   UNL A   1      47.303  28.677  27.189  1.00  0.00     0.049 A 
ATOM     54  C   UNL A   1      42.126  29.689  29.065  1.00  0.00     0.074 A 
ATOM     55  C   UNL A   1      48.179  29.748  27.169  1.00  0.00     0.029 A 
ATOM     56  N   UNL A   1      46.095  29.157  27.674  1.00  0.00    -0.354 N 
ATOM     57  N   UNL A   1      43.366  29.611  28.649  1.00  0.00    -0.248 NA
ATOM     58  C   UNL A   1      41.725  31.032  29.509  1.00  0.00     0.031 C 
ATOM     59  C   UNL A   1      47.510  30.870  27.672  1.00  0.00     0.029 A 
ATOM     60  C   UNL A   1      46.204  30.510  27.961  1.00  0.00     0.049 A 
ATOM     61  H   UNL A   1      45.282  28.618  27.797  1.00  0.00     0.167 HD
ATOM     62  C   UNL A   1      43.885  30.894  28.751  1.00  0.00     0.074 A 
ATOM     63  C   UNL A   1      42.819  31.736  29.256  1.00  0.00     0.031 C 
ATOM     64  C   UNL A   1      45.132  31.335  28.453  1.00  0.00     0.037 A 
BRANCH  51  65
ATOM     65  C   UNL A   1      48.911  26.934  26.313  1.00  0.00     0.064 A 
ATOM     66  C   UNL A   1      49.892  26.450  27.194  1.00  0.00     0.173 A 
ATOM     67  C   UNL A   1      49.250  27.045  24.956  1.00  0.00     0.173 A 
ATOM     68  F   UNL A   1      49.624  26.337  28.504  1.00  0.00    -0.203 F 
ATOM     69  C   UNL A   1      51.168  26.126  26.741  1.00  0.00     0.198 A 
ATOM     70  C   UNL A   1      50.517  26.690  24.500  1.00  0.00     0.198 A 
ATOM     71  F   UNL A   1      48.350  27.496  24.069  1.00  0.00    -0.203 F 
ATOM     72  F   UNL A   1      52.104  25.722  27.611  1.00  0.00    -0.200 F 
ATOM     73  C   UNL A   1      51.477  26.241  25.394  1.00  0.00     0.200 A 
ATOM     74  F   UNL A   1      50.812  26.790  23.197  1.00  0.00    -0.200 F 
ATOM     75  F   UNL A   1      52.707  25.929  24.959  1.00  0.00    -0.200 F 
ENDBRANCH  51  65
BRANCH  52  76
ATOM     76  C   UNL A   1      39.716  28.903  29.655  1.00  0.00     0.064 A 
ATOM     77  C   UNL A   1      38.713  29.398  28.810  1.00  0.00     0.173 A 
ATOM     78  C   UNL A   1      39.388  28.681  31.000  1.00  0.00     0.173 A 
ATOM     79  F   UNL A   1      38.985  29.645  27.521  1.00  0.00    -0.203 F 
ATOM     80  C   UNL A   1      37.437  29.677  29.295  1.00  0.00     0.198 A 
ATOM     81  C   UNL A   1      38.105  28.935  31.477  1.00  0.00     0.198 A 
ATOM     82  F   UNL A   1      40.311  28.204  31.846  1.00  0.00    -0.203 F 
ATOM     83  F   UNL A   1      36.507  30.188  28.475  1.00  0.00    -0.200 F 
ATOM     84  C   UNL A   1      37.132  29.439  30.627  1.00  0.00     0.200 A 
ATOM     85  F   UNL A   1      37.810  28.693  32.761  1.00  0.00    -0.200 F 
ATOM     86  F   UNL A   1      35.903  29.703  31.092  1.00  0.00    -0.200 F 
ENDBRANCH  52  76
BRANCH  64  87
ATOM     87  C   UNL A   1      45.398  32.803  28.624  1.00  0.00     0.064 A 
ATOM     88  C   UNL A   1      45.910  33.327  29.819  1.00  0.00     0.173 A 
ATOM     89  C   UNL A   1      45.155  33.694  27.566  1.00  0.00     0.173 A 
ATOM     90  F   UNL A   1      46.145  32.520  30.864  1.00  0.00    -0.203 F 
ATOM     91  C   UNL A   1      46.136  34.694  29.962  1.00  0.00     0.198 A 
ATOM     92  C   UNL A   1      45.411  35.055  27.702  1.00  0.00     0.198 A 
ATOM     93  F   UNL A   1      44.672  33.242  26.399  1.00  0.00    -0.203 F 
ATOM     94  F   UNL A   1      46.574  35.180  31.131  1.00  0.00    -0.200 F 
ATOM     95  C   UNL A   1      45.892  35.555  28.902  1.00  0.00     0.200 A 
ATOM     96  F   UNL A   1      45.185  35.884  26.673  1.00  0.00    -0.200 F 
ATOM     97  F   UNL A   1      46.112  36.870  29.042  1.00  0.00    -0.200 F 
ENDBRANCH  64  87
ENDBRANCH  38  39
ENDBRANCH  30  33
ENDBRANCH  28  29
ENDBRANCH  27  28
ENDBRANCH  26  27
ENDBRANCH   3  26
TORSDOF 15
ENDMDL
MODEL 2
REMARK VINA RESULT:     -11.9      0.639      7.211
REMARK SMILES Cc1cc(Cl)ccc1OCC(=O)Nc1ccc(CC(=O)NCCCNC(=O)c2ccc(-c3c4nc(c(-c5c(F)c(F)c(F)c(F)c5F)c5ccc([nH]5)c(-c5c(F)c(F)c(F)c(F)c5F)c5nc(c(-c6c(F)c(F)c(F)c(F)c6F)c6ccc3[nH]6)C=C5)C=C4)cc2)cc1
REMARK SMILES IDX 19 1 20 2 21 3 18 5 17 6 14 7 15 8 92 9 16 10 91 11 13 12
REMARK SMILES IDX 11 13 12 14 10 16 9 17 8 18 1 19 2 20 3 21 4 22 7 23 5 24
REMARK SMILES IDX 6 25 22 26 23 27 24 28 25 29 26 30 27 32 28 33 29 34 90 35
REMARK SMILES IDX 30 36 89 37 31 38 32 39 33 40 83 41 34 42 88 43 82 44 84 45
REMARK SMILES IDX 35 46 87 47 81 48 80 49 36 51 68 52 48 53 67 54 49 55 52 56
REMARK SMILES IDX 66 57 85 58 50 59 51 60 65 62 86 63 53 64 37 65 38 66 46 67
REMARK SMILES IDX 39 68 40 69 44 70 47 71 41 72 42 73 45 74 43 75 69 76 70 77
REMARK SMILES IDX 78 78 71 79 72 80 76 81 79 82 73 83 74 84 77 85 75 86 54 87
REMARK SMILES IDX 55 88 63 89 56 90 57 91 61 92 64 93 58 94 59 95 62 96 60 97
REMARK H PARENT 21 4 13 15 25 31 84 50 52 61
REMARK Flexibility Score: inf
ROOT
ATOM      1  C   UNL A   1      37.445  23.084  25.670  1.00  0.00     0.224 C 
ATOM      2  O   UNL A   1      38.127  24.088  25.885  1.00  0.00    -0.275 OA
ATOM      3  N   UNL A   1      38.037  22.017  25.057  1.00  0.00    -0.356 N 
ATOM      4  H   UNL A   1      39.002  22.110  24.886  1.00  0.00     0.163 HD
ENDROOT
BRANCH   1   5
ATOM      5  C   UNL A   1      35.991  23.009  26.098  1.00  0.00     0.135 C 
BRANCH   5   6
ATOM      6  C   UNL A   1      35.093  23.991  25.389  1.00  0.00    -0.039 A 
ATOM      7  C   UNL A   1      33.389  25.831  24.104  1.00  0.00     0.041 A 
ATOM      8  C   UNL A   1      34.166  24.940  23.356  1.00  0.00     0.026 A 
ATOM      9  C   UNL A   1      33.450  25.770  25.490  1.00  0.00     0.026 A 
ATOM     10  C   UNL A   1      35.026  24.038  23.992  1.00  0.00     0.006 A 
ATOM     11  C   UNL A   1      34.301  24.872  26.130  1.00  0.00     0.006 A 
BRANCH   7  12
ATOM     12  N   UNL A   1      32.547  26.705  23.405  1.00  0.00    -0.323 N 
ATOM     13  C   UNL A   1      31.408  26.496  22.679  1.00  0.00     0.262 C 
ATOM     14  O   UNL A   1      30.940  27.471  22.079  1.00  0.00    -0.271 OA
ATOM     15  H   UNL A   1      32.829  27.648  23.445  1.00  0.00     0.170 HD
BRANCH  13  16
ATOM     16  C   UNL A   1      30.623  25.167  22.753  1.00  0.00     0.329 C 
BRANCH  16  17
ATOM     17  O   UNL A   1      30.330  24.428  23.921  1.00  0.00    -0.483 OA
BRANCH  17  18
ATOM     18  C   UNL A   1      31.036  23.303  24.223  1.00  0.00     0.123 A 
ATOM     19  C   UNL A   1      30.892  23.431  26.790  1.00  0.00     0.048 C 
ATOM     20  C   UNL A   1      31.313  22.795  25.497  1.00  0.00    -0.007 A 
ATOM     21  C   UNL A   1      32.089  21.619  25.598  1.00  0.00     0.027 A 
ATOM     22  C   UNL A   1      32.637  21.015  24.467  1.00  0.00     0.041 A 
ATOM     23  C   UNL A   1      31.634  22.708  23.098  1.00  0.00     0.048 A 
ATOM     24  Cl  UNL A   1      33.607  19.605  24.633  1.00  0.00    -0.084 Cl
ATOM     25  C   UNL A   1      32.425  21.565  23.213  1.00  0.00     0.024 A 
ENDBRANCH  17  18
ENDBRANCH  16  17
ENDBRANCH  13  16
ENDBRANCH   7  12
ENDBRANCH   5   6
ENDBRANCH   1   5
BRANCH   3  26
ATOM     26  C   UNL A   1      37.446  20.764  24.624  1.00  0.00     0.117 C 
BRANCH  26  27
ATOM     27  C   UNL A   1      38.303  19.556  25.001  1.00  0.00     0.042 C 
BRANCH  27  28
ATOM     28  C   UNL A   1      39.283  19.812  26.144  1.00  0.00     0.118 C 
BRANCH  28  29
ATOM     29  N   UNL A   1      40.428  18.917  26.109  1.00  0.00    -0.352 N 
ATOM     30  C   UNL A   1      41.770  19.181  26.073  1.00  0.00     0.251 C 
ATOM     31  H   UNL A   1      40.200  17.960  26.112  1.00  0.00     0.163 HD
ATOM     32  O   UNL A   1      42.551  18.250  25.870  1.00  0.00    -0.269 OA
BRANCH  30  33
ATOM     33  C   UNL A   1      42.307  20.547  26.267  1.00  0.00     0.039 A 
ATOM     34  C   UNL A   1      42.454  21.018  27.578  1.00  0.00     0.014 A 
ATOM     35  C   UNL A   1      42.581  21.400  25.194  1.00  0.00     0.014 A 
ATOM     36  C   UNL A   1      42.890  22.324  27.811  1.00  0.00     0.010 A 
ATOM     37  C   UNL A   1      43.084  22.682  25.428  1.00  0.00     0.010 A 
ATOM     38  C   UNL A   1      43.219  23.164  26.738  1.00  0.00    -0.014 A 
BRANCH  38  39
ATOM     39  C   UNL A   1      43.664  24.560  26.980  1.00  0.00     0.031 A 
ATOM     40  C   UNL A   1      42.693  25.588  27.495  1.00  0.00     0.074 A 
ATOM     41  C   UNL A   1      44.935  24.914  26.713  1.00  0.00     0.049 A 
ATOM     42  N   UNL A   1      42.888  26.856  27.760  1.00  0.00    -0.248 NA
ATOM     43  C   UNL A   1      41.312  25.137  27.721  1.00  0.00     0.031 C 
ATOM     44  C   UNL A   1      45.958  24.025  26.163  1.00  0.00     0.029 A 
ATOM     45  N   UNL A   1      45.582  26.114  26.866  1.00  0.00    -0.354 N 
ATOM     46  C   UNL A   1      41.658  27.352  28.171  1.00  0.00     0.074 A 
ATOM     47  C   UNL A   1      40.709  26.265  28.066  1.00  0.00     0.031 C 
ATOM     48  C   UNL A   1      47.111  24.704  26.043  1.00  0.00     0.029 A 
ATOM     49  C   UNL A   1      46.900  26.080  26.486  1.00  0.00     0.049 A 
ATOM     50  H   UNL A   1      45.141  26.922  27.214  1.00  0.00     0.167 HD
ATOM     51  C   UNL A   1      41.350  28.593  28.621  1.00  0.00     0.037 A 
ATOM     52  C   UNL A   1      47.836  27.048  26.499  1.00  0.00     0.037 A 
ATOM     53  C   UNL A   1      42.299  29.669  28.744  1.00  0.00     0.049 A 
ATOM     54  C   UNL A   1      47.479  28.409  27.032  1.00  0.00     0.074 A 
ATOM     55  C   UNL A   1      42.095  30.954  29.217  1.00  0.00     0.029 A 
ATOM     56  N   UNL A   1      43.638  29.582  28.391  1.00  0.00    -0.354 N 
ATOM     57  N   UNL A   1      46.327  28.850  27.472  1.00  0.00    -0.248 NA
ATOM     58  C   UNL A   1      48.563  29.399  27.090  1.00  0.00     0.031 C 
ATOM     59  C   UNL A   1      43.303  31.654  29.121  1.00  0.00     0.029 A 
ATOM     60  C   UNL A   1      44.272  30.792  28.632  1.00  0.00     0.049 A 
ATOM     61  H   UNL A   1      44.074  28.780  28.024  1.00  0.00     0.167 HD
ATOM     62  C   UNL A   1      46.549  30.156  27.886  1.00  0.00     0.074 A 
ATOM     63  C   UNL A   1      47.954  30.431  27.657  1.00  0.00     0.031 C 
ATOM     64  C   UNL A   1      45.671  31.046  28.409  1.00  0.00     0.037 A 
BRANCH  51  65
ATOM     65  C   UNL A   1      39.925  28.847  29.021  1.00  0.00     0.064 A 
ATOM     66  C   UNL A   1      39.488  28.658  30.342  1.00  0.00     0.173 A 
ATOM     67  C   UNL A   1      38.986  29.294  28.079  1.00  0.00     0.173 A 
ATOM     68  F   UNL A   1      40.342  28.219  31.279  1.00  0.00    -0.203 F 
ATOM     69  C   UNL A   1      38.158  28.872  30.696  1.00  0.00     0.198 A 
ATOM     70  C   UNL A   1      37.664  29.538  28.443  1.00  0.00     0.198 A 
ATOM     71  F   UNL A   1      39.350  29.496  26.804  1.00  0.00    -0.203 F 
ATOM     72  F   UNL A   1      37.753  28.628  31.950  1.00  0.00    -0.200 F 
ATOM     73  C   UNL A   1      37.249  29.317  29.748  1.00  0.00     0.200 A 
ATOM     74  F   UNL A   1      36.788  29.978  27.529  1.00  0.00    -0.200 F 
ATOM     75  F   UNL A   1      35.969  29.523  30.090  1.00  0.00    -0.200 F 
ENDBRANCH  51  65
BRANCH  52  76
ATOM     76  C   UNL A   1      49.212  26.744  26.033  1.00  0.00     0.064 A 
ATOM     77  C   UNL A   1      49.599  27.002  24.711  1.00  0.00     0.173 A 
ATOM     78  C   UNL A   1      50.171  26.203  26.902  1.00  0.00     0.173 A 
ATOM     79  F   UNL A   1      48.711  27.501  23.839  1.00  0.00    -0.203 F 
ATOM     80  C   UNL A   1      50.888  26.713  24.269  1.00  0.00     0.198 A 
ATOM     81  C   UNL A   1      51.467  25.939  26.466  1.00  0.00     0.198 A 
ATOM     82  F   UNL A   1      49.851  25.944  28.178  1.00  0.00    -0.203 F 
ATOM     83  F   UNL A   1      51.221  26.930  22.989  1.00  0.00    -0.200 F 
ATOM     84  C   UNL A   1      51.824  26.188  25.149  1.00  0.00     0.200 A 
ATOM     85  F   UNL A   1      52.371  25.444  27.321  1.00  0.00    -0.200 F 
ATOM     86  F   UNL A   1      53.065  25.915  24.725  1.00  0.00    -0.200 F 
ENDBRANCH  52  76
BRANCH  64  87
ATOM     87  C   UNL A   1      46.213  32.388  28.810  1.00  0.00     0.064 A 
ATOM     88  C   UNL A   1      46.239  33.471  27.921  1.00  0.00     0.173 A 
ATOM     89  C   UNL A   1      46.696  32.595  30.113  1.00  0.00     0.173 A 
ATOM     90  F   UNL A   1      45.803  33.321  26.661  1.00  0.00    -0.203 F 
ATOM     91  C   UNL A   1      46.759  34.704  28.309  1.00  0.00     0.198 A 
ATOM     92  C   UNL A   1      47.187  33.836  30.506  1.00  0.00     0.198 A 
ATOM     93  F   UNL A   1      46.687  31.593  31.004  1.00  0.00    -0.203 F 
ATOM     94  F   UNL A   1      46.824  35.710  27.426  1.00  0.00    -0.200 F 
ATOM     95  C   UNL A   1      47.227  34.886  29.602  1.00  0.00     0.200 A 
ATOM     96  F   UNL A   1      47.628  34.014  31.759  1.00  0.00    -0.200 F 
ATOM     97  F   UNL A   1      47.726  36.073  29.973  1.00  0.00    -0.200 F 
ENDBRANCH  64  87
ENDBRANCH  38  39
ENDBRANCH  30  33
ENDBRANCH  28  29
ENDBRANCH  27  28
ENDBRANCH  26  27
ENDBRANCH   3  26
TORSDOF 15
ENDMDL
MODEL 3
REMARK VINA RESULT:     -11.9      5.558      9.777
REMARK SMILES Cc1cc(Cl)ccc1OCC(=O)Nc1ccc(CC(=O)NCCCNC(=O)c2ccc(-c3c4nc(c(-c5c(F)c(F)c(F)c(F)c5F)c5ccc([nH]5)c(-c5c(F)c(F)c(F)c(F)c5F)c5nc(c(-c6c(F)c(F)c(F)c(F)c6F)c6ccc3[nH]6)C=C5)C=C4)cc2)cc1
REMARK SMILES IDX 19 1 20 2 21 3 18 5 17 6 14 7 15 8 92 9 16 10 91 11 13 12
REMARK SMILES IDX 11 13 12 14 10 16 9 17 8 18 1 19 2 20 3 21 4 22 7 23 5 24
REMARK SMILES IDX 6 25 22 26 23 27 24 28 25 29 26 30 27 32 28 33 29 34 90 35
REMARK SMILES IDX 30 36 89 37 31 38 32 39 33 40 83 41 34 42 88 43 82 44 84 45
REMARK SMILES IDX 35 46 87 47 81 48 80 49 36 51 68 52 48 53 67 54 49 55 52 56
REMARK SMILES IDX 66 57 85 58 50 59 51 60 65 62 86 63 53 64 37 65 38 66 46 67
REMARK SMILES IDX 39 68 40 69 44 70 47 71 41 72 42 73 45 74 43 75 69 76 70 77
REMARK SMILES IDX 78 78 71 79 72 80 76 81 79 82 73 83 74 84 77 85 75 86 54 87
REMARK SMILES IDX 55 88 63 89 56 90 57 91 61 92 64 93 58 94 59 95 62 96 60 97
REMARK H PARENT 21 4 13 15 25 31 84 50 52 61
REMARK Flexibility Score: inf
ROOT
ATOM      1  C   UNL A   1      33.982  29.518  27.155  1.00  0.00     0.224 C 
ATOM      2  O   UNL A   1      34.937  29.309  27.906  1.00  0.00    -0.275 OA
ATOM      3  N   UNL A   1      33.020  30.399  27.560  1.00  0.00    -0.356 N 
ATOM      4  H   UNL A   1      33.199  30.857  28.414  1.00  0.00     0.163 HD
ENDROOT
BRANCH   1   5
ATOM      5  C   UNL A   1      33.879  28.845  25.800  1.00  0.00     0.135 C 
BRANCH   5   6
ATOM      6  C   UNL A   1      33.480  27.393  25.865  1.00  0.00    -0.039 A 
ATOM      7  C   UNL A   1      32.766  24.668  25.954  1.00  0.00     0.041 A 
ATOM      8  C   UNL A   1      31.905  25.646  26.463  1.00  0.00     0.026 A 
ATOM      9  C   UNL A   1      33.964  25.068  25.378  1.00  0.00     0.026 A 
ATOM     10  C   UNL A   1      32.265  26.997  26.436  1.00  0.00     0.006 A 
ATOM     11  C   UNL A   1      34.328  26.413  25.343  1.00  0.00     0.006 A 
BRANCH   7  12
ATOM     12  N   UNL A   1      32.343  23.335  26.010  1.00  0.00    -0.323 N 
ATOM     13  C   UNL A   1      31.446  22.625  25.260  1.00  0.00     0.262 C 
ATOM     14  O   UNL A   1      31.202  21.470  25.626  1.00  0.00    -0.271 OA
ATOM     15  H   UNL A   1      32.772  22.809  26.722  1.00  0.00     0.170 HD
BRANCH  13  16
ATOM     16  C   UNL A   1      30.908  23.155  23.912  1.00  0.00     0.329 C 
BRANCH  16  17
ATOM     17  O   UNL A   1      31.552  24.072  23.051  1.00  0.00    -0.483 OA
BRANCH  17  18
ATOM     18  C   UNL A   1      31.140  25.369  22.989  1.00  0.00     0.123 A 
ATOM     19  C   UNL A   1      33.230  26.389  21.887  1.00  0.00     0.048 C 
ATOM     20  C   UNL A   1      31.847  26.457  22.465  1.00  0.00    -0.007 A 
ATOM     21  C   UNL A   1      31.249  27.735  22.518  1.00  0.00     0.027 A 
ATOM     22  C   UNL A   1      30.019  27.934  23.144  1.00  0.00     0.041 A 
ATOM     23  C   UNL A   1      29.923  25.594  23.657  1.00  0.00     0.048 A 
ATOM     24  Cl  UNL A   1      29.340  29.512  23.221  1.00  0.00    -0.084 Cl
ATOM     25  C   UNL A   1      29.358  26.867  23.731  1.00  0.00     0.024 A 
ENDBRANCH  17  18
ENDBRANCH  16  17
ENDBRANCH  13  16
ENDBRANCH   7  12
ENDBRANCH   5   6
ENDBRANCH   1   5
BRANCH   3  26
ATOM     26  C   UNL A   1      31.772  30.757  26.912  1.00  0.00     0.117 C 
BRANCH  26  27
ATOM     27  C   UNL A   1      31.525  32.265  26.921  1.00  0.00     0.042 C 
BRANCH  27  28
ATOM     28  C   UNL A   1      32.788  33.109  27.070  1.00  0.00     0.118 C 
BRANCH  28  29
ATOM     29  N   UNL A   1      32.526  34.404  27.677  1.00  0.00    -0.352 N 
ATOM     30  C   UNL A   1      33.018  34.974  28.819  1.00  0.00     0.251 C 
ATOM     31  H   UNL A   1      31.888  34.967  27.182  1.00  0.00     0.163 HD
ATOM     32  O   UNL A   1      32.510  36.022  29.224  1.00  0.00    -0.269 OA
BRANCH  30  33
ATOM     33  C   UNL A   1      34.135  34.369  29.580  1.00  0.00     0.039 A 
ATOM     34  C   UNL A   1      35.439  34.578  29.116  1.00  0.00     0.014 A 
ATOM     35  C   UNL A   1      33.921  33.533  30.680  1.00  0.00     0.014 A 
ATOM     36  C   UNL A   1      36.520  33.971  29.758  1.00  0.00     0.010 A 
ATOM     37  C   UNL A   1      35.006  32.983  31.365  1.00  0.00     0.010 A 
ATOM     38  C   UNL A   1      36.314  33.177  30.896  1.00  0.00    -0.014 A 
BRANCH  38  39
ATOM     39  C   UNL A   1      37.458  32.512  31.570  1.00  0.00     0.031 A 
ATOM     40  C   UNL A   1      38.182  31.377  30.898  1.00  0.00     0.074 A 
ATOM     41  C   UNL A   1      37.833  32.911  32.800  1.00  0.00     0.049 A 
ATOM     42  N   UNL A   1      39.195  30.667  31.328  1.00  0.00    -0.248 NA
ATOM     43  C   UNL A   1      37.686  30.970  29.575  1.00  0.00     0.031 C 
ATOM     44  C   UNL A   1      37.181  33.964  33.579  1.00  0.00     0.029 A 
ATOM     45  N   UNL A   1      38.850  32.476  33.611  1.00  0.00    -0.354 N 
ATOM     46  C   UNL A   1      39.448  29.727  30.337  1.00  0.00     0.074 A 
ATOM     47  C   UNL A   1      38.447  29.919  29.310  1.00  0.00     0.031 C 
ATOM     48  C   UNL A   1      37.827  34.109  34.747  1.00  0.00     0.029 A 
ATOM     49  C   UNL A   1      38.922  33.144  34.809  1.00  0.00     0.049 A 
ATOM     50  H   UNL A   1      39.469  31.754  33.358  1.00  0.00     0.167 HD
ATOM     51  C   UNL A   1      40.440  28.806  30.274  1.00  0.00     0.037 A 
ATOM     52  C   UNL A   1      39.778  32.998  35.837  1.00  0.00     0.037 A 
ATOM     53  C   UNL A   1      41.447  28.628  31.289  1.00  0.00     0.049 A 
ATOM     54  C   UNL A   1      40.890  31.990  35.732  1.00  0.00     0.074 A 
ATOM     55  C   UNL A   1      42.512  27.744  31.307  1.00  0.00     0.029 A 
ATOM     56  N   UNL A   1      41.513  29.356  32.469  1.00  0.00    -0.354 N 
ATOM     57  N   UNL A   1      41.155  31.147  34.765  1.00  0.00    -0.248 NA
ATOM     58  C   UNL A   1      41.836  31.932  36.855  1.00  0.00     0.031 C 
ATOM     59  C   UNL A   1      43.204  27.916  32.511  1.00  0.00     0.029 A 
ATOM     60  C   UNL A   1      42.598  28.938  33.223  1.00  0.00     0.049 A 
ATOM     61  H   UNL A   1      40.882  30.064  32.731  1.00  0.00     0.167 HD
ATOM     62  C   UNL A   1      42.310  30.478  35.145  1.00  0.00     0.074 A 
ATOM     63  C   UNL A   1      42.704  31.026  36.427  1.00  0.00     0.031 C 
ATOM     64  C   UNL A   1      42.983  29.500  34.492  1.00  0.00     0.037 A 
BRANCH  51  65
ATOM     65  C   UNL A   1      40.483  27.923  29.061  1.00  0.00     0.064 A 
ATOM     66  C   UNL A   1      41.264  28.252  27.940  1.00  0.00     0.173 A 
ATOM     67  C   UNL A   1      39.748  26.728  29.017  1.00  0.00     0.173 A 
ATOM     68  F   UNL A   1      41.975  29.390  27.926  1.00  0.00    -0.203 F 
ATOM     69  C   UNL A   1      41.277  27.439  26.810  1.00  0.00     0.198 A 
ATOM     70  C   UNL A   1      39.789  25.901  27.897  1.00  0.00     0.198 A 
ATOM     71  F   UNL A   1      38.991  26.362  30.061  1.00  0.00    -0.203 F 
ATOM     72  F   UNL A   1      41.984  27.806  25.732  1.00  0.00    -0.200 F 
ATOM     73  C   UNL A   1      40.545  26.262  26.792  1.00  0.00     0.200 A 
ATOM     74  F   UNL A   1      39.090  24.758  27.884  1.00  0.00    -0.200 F 
ATOM     75  F   UNL A   1      40.559  25.480  25.703  1.00  0.00    -0.200 F 
ENDBRANCH  51  65
BRANCH  52  76
ATOM     76  C   UNL A   1      39.642  33.865  37.034  1.00  0.00     0.064 A 
ATOM     77  C   UNL A   1      40.221  35.141  37.070  1.00  0.00     0.173 A 
ATOM     78  C   UNL A   1      38.921  33.443  38.160  1.00  0.00     0.173 A 
ATOM     79  F   UNL A   1      40.937  35.581  36.025  1.00  0.00    -0.203 F 
ATOM     80  C   UNL A   1      40.100  35.956  38.194  1.00  0.00     0.198 A 
ATOM     81  C   UNL A   1      38.777  34.268  39.273  1.00  0.00     0.198 A 
ATOM     82  F   UNL A   1      38.343  32.233  38.172  1.00  0.00    -0.203 F 
ATOM     83  F   UNL A   1      40.699  37.154  38.219  1.00  0.00    -0.200 F 
ATOM     84  C   UNL A   1      39.372  35.521  39.292  1.00  0.00     0.200 A 
ATOM     85  F   UNL A   1      38.065  33.850  40.327  1.00  0.00    -0.200 F 
ATOM     86  F   UNL A   1      39.252  36.306  40.371  1.00  0.00    -0.200 F 
ENDBRANCH  52  76
BRANCH  64  87
ATOM     87  C   UNL A   1      44.242  28.989  35.133  1.00  0.00     0.064 A 
ATOM     88  C   UNL A   1      45.489  29.580  34.886  1.00  0.00     0.173 A 
ATOM     89  C   UNL A   1      44.193  27.904  36.022  1.00  0.00     0.173 A 
ATOM     90  F   UNL A   1      45.591  30.610  34.032  1.00  0.00    -0.203 F 
ATOM     91  C   UNL A   1      46.647  29.082  35.479  1.00  0.00     0.198 A 
ATOM     92  C   UNL A   1      45.347  27.429  36.636  1.00  0.00     0.198 A 
ATOM     93  F   UNL A   1      43.023  27.308  36.297  1.00  0.00    -0.203 F 
ATOM     94  F   UNL A   1      47.835  29.628  35.186  1.00  0.00    -0.200 F 
ATOM     95  C   UNL A   1      46.574  28.011  36.357  1.00  0.00     0.200 A 
ATOM     96  F   UNL A   1      45.274  26.401  37.494  1.00  0.00    -0.200 F 
ATOM     97  F   UNL A   1      47.689  27.534  36.927  1.00  0.00    -0.200 F 
ENDBRANCH  64  87
ENDBRANCH  38  39
ENDBRANCH  30  33
ENDBRANCH  28  29
ENDBRANCH  27  28
ENDBRANCH  26  27
ENDBRANCH   3  26
TORSDOF 15
ENDMDL
