MODEL 1
REMARK VINA RESULT:     -13.8      0.000      0.000
REMARK SMILES Cc1cccc(S(=O)(=O)Nc2cc(C(=O)NCCCNC(=O)c3ccc(-c4c5nc(c(-c6c(F)c(F)c(F)c(F)c6F)c6ccc([nH]6)c(-c6c(F)c(F)c(F)c(F)c6F)c6nc(c(-c7c(F)c(F)c(F)c(F)c7F)c7ccc4[nH]7)C=C6)C=C5)cc3)ccc2N2CCC[C@H](C[NH+]3CCCC3)C2)c1
REMARK SMILES IDX 17 1 16 2 14 3 15 4 13 6 11 7 12 8 88 9 87 10 86 11 10 12
REMARK SMILES IDX 7 14 8 15 9 16 6 17 1 18 2 19 3 20 101 21 4 22 5 23 89 24
REMARK SMILES IDX 90 25 100 26 91 27 93 28 92 29 94 30 95 31 96 32 99 33 97 35
REMARK SMILES IDX 98 36 18 37 19 38 20 39 21 40 22 42 23 43 24 44 85 45 25 46
REMARK SMILES IDX 84 47 26 48 27 49 28 50 78 51 29 52 83 53 77 54 79 55 30 56
REMARK SMILES IDX 82 57 76 58 75 59 31 61 63 62 43 63 62 64 44 65 47 66 61 67
REMARK SMILES IDX 80 68 45 69 46 70 60 72 81 73 48 74 32 75 33 76 41 77 34 78
REMARK SMILES IDX 35 79 39 80 42 81 36 82 37 83 40 84 38 85 64 86 65 87 73 88
REMARK SMILES IDX 66 89 67 90 71 91 74 92 68 93 69 94 72 95 70 96 49 97 50 98
REMARK SMILES IDX 58 99 51 100 52 101 56 102 59 103 53 104 54 105 57 106
REMARK SMILES IDX 55 107
REMARK H PARENT 16 5 10 13 95 34 20 41 79 60 47 71
REMARK Flexibility Score: inf
ROOT
ATOM      1  C   UNL A   1      39.227  22.490  26.218  1.00  0.00     0.118 C 
ENDROOT
BRANCH   1   2
ATOM      2  N   UNL A   1      38.538  21.292  25.753  1.00  0.00    -0.352 N 
ATOM      3  C   UNL A   1      37.350  21.113  25.078  1.00  0.00     0.251 C 
ATOM      4  O   UNL A   1      37.087  19.978  24.682  1.00  0.00    -0.269 OA
ATOM      5  H   UNL A   1      39.012  20.454  25.958  1.00  0.00     0.163 HD
BRANCH   3   6
ATOM      6  C   UNL A   1      36.395  22.219  24.770  1.00  0.00     0.042 A 
ATOM      7  C   UNL A   1      34.466  23.134  23.626  1.00  0.00     0.073 A 
ATOM      8  C   UNL A   1      35.439  22.153  23.766  1.00  0.00     0.042 A 
ATOM      9  C   UNL A   1      34.528  24.328  24.359  1.00  0.00     0.061 A 
ATOM     10  C   UNL A   1      35.553  24.442  25.308  1.00  0.00     0.029 A 
ATOM     11  C   UNL A   1      36.454  23.390  25.537  1.00  0.00     0.016 A 
BRANCH   7  12
ATOM     12  N   UNL A   1      33.395  22.905  22.720  1.00  0.00    -0.277 N 
ATOM     13  H   UNL A   1      33.367  23.424  21.884  1.00  0.00     0.180 HD
BRANCH  12  14
ATOM     14  S   UNL A   1      32.168  21.781  23.014  1.00  0.00     0.261 S 
ATOM     15  O   UNL A   1      31.792  21.299  21.686  1.00  0.00    -0.201 OA
ATOM     16  O   UNL A   1      31.214  22.462  23.842  1.00  0.00    -0.201 OA
BRANCH  14  17
ATOM     17  C   UNL A   1      32.676  20.321  23.918  1.00  0.00     0.088 A 
ATOM     18  C   UNL A   1      33.262  16.581  23.521  1.00  0.00     0.044 C 
ATOM     19  C   UNL A   1      33.151  17.948  24.135  1.00  0.00    -0.050 A 
ATOM     20  C   UNL A   1      33.063  18.059  25.529  1.00  0.00     0.003 A 
ATOM     21  C   UNL A   1      33.034  19.103  23.337  1.00  0.00     0.025 A 
ATOM     22  C   UNL A   1      32.817  19.294  26.121  1.00  0.00     0.002 A 
ATOM     23  C   UNL A   1      32.598  20.413  25.319  1.00  0.00     0.022 A 
ENDBRANCH  14  17
ENDBRANCH  12  14
ENDBRANCH   7  12
BRANCH   9  24
ATOM     24  N   UNL A   1      33.656  25.385  24.170  1.00  0.00    -0.369 N 
ATOM     25  C   UNL A   1      33.679  26.055  22.871  1.00  0.00     0.116 C 
ATOM     26  C   UNL A   1      32.499  25.618  25.033  1.00  0.00     0.126 C 
ATOM     27  C   UNL A   1      33.514  27.557  23.075  1.00  0.00     0.022 C 
ATOM     28  C   UNL A   1      32.358  27.123  25.315  1.00  0.00     0.064 C 
ATOM     29  C   UNL A   1      32.309  27.868  23.966  1.00  0.00     0.013 C 
BRANCH  28  30
ATOM     30  C   UNL A   1      33.482  27.557  26.292  1.00  0.00     0.267 C 
BRANCH  30  31
ATOM     31  N   UNL A   1      33.199  28.519  27.356  1.00  0.00    -0.335 N 
ATOM     32  C   UNL A   1      31.919  29.214  27.251  1.00  0.00     0.262 C 
ATOM     33  C   UNL A   1      34.234  29.516  27.612  1.00  0.00     0.262 C 
ATOM     34  H   UNL A   1      33.166  27.882  28.151  1.00  0.00     0.348 HD
ATOM     35  C   UNL A   1      32.256  30.590  26.716  1.00  0.00     0.067 C 
ATOM     36  C   UNL A   1      33.627  30.879  27.299  1.00  0.00     0.067 C 
ENDBRANCH  30  31
ENDBRANCH  28  30
ENDBRANCH   9  24
ENDBRANCH   3   6
ENDBRANCH   1   2
BRANCH   1  37
ATOM     37  C   UNL A   1      40.321  22.183  27.242  1.00  0.00     0.042 C 
BRANCH  37  38
ATOM     38  C   UNL A   1      41.171  23.378  27.600  1.00  0.00     0.118 C 
BRANCH  38  39
ATOM     39  N   UNL A   1      42.077  23.820  26.544  1.00  0.00    -0.352 N 
ATOM     40  C   UNL A   1      42.050  25.034  25.876  1.00  0.00     0.251 C 
ATOM     41  H   UNL A   1      42.784  23.188  26.277  1.00  0.00     0.163 HD
ATOM     42  O   UNL A   1      42.858  25.315  25.003  1.00  0.00    -0.269 OA
BRANCH  40  43
ATOM     43  C   UNL A   1      41.071  26.037  26.353  1.00  0.00     0.039 A 
ATOM     44  C   UNL A   1      41.151  27.316  25.798  1.00  0.00     0.014 A 
ATOM     45  C   UNL A   1      40.427  25.816  27.568  1.00  0.00     0.014 A 
ATOM     46  C   UNL A   1      40.829  28.411  26.591  1.00  0.00     0.010 A 
ATOM     47  C   UNL A   1      40.229  26.903  28.396  1.00  0.00     0.010 A 
ATOM     48  C   UNL A   1      40.495  28.197  27.929  1.00  0.00    -0.014 A 
BRANCH  48  49
ATOM     49  C   UNL A   1      40.465  29.271  28.916  1.00  0.00     0.031 A 
ATOM     50  C   UNL A   1      39.347  30.237  28.896  1.00  0.00     0.074 A 
ATOM     51  C   UNL A   1      41.426  29.381  29.862  1.00  0.00     0.049 A 
ATOM     52  N   UNL A   1      39.430  31.456  29.310  1.00  0.00    -0.248 NA
ATOM     53  C   UNL A   1      38.037  29.903  28.352  1.00  0.00     0.031 C 
ATOM     54  C   UNL A   1      41.407  30.254  31.035  1.00  0.00     0.029 A 
ATOM     55  N   UNL A   1      42.723  28.840  29.856  1.00  0.00    -0.354 N 
ATOM     56  C   UNL A   1      38.156  31.974  29.342  1.00  0.00     0.074 A 
ATOM     57  C   UNL A   1      37.334  30.987  28.682  1.00  0.00     0.031 C 
ATOM     58  C   UNL A   1      42.664  30.441  31.461  1.00  0.00     0.029 A 
ATOM     59  C   UNL A   1      43.546  29.791  30.512  1.00  0.00     0.049 A 
ATOM     60  H   UNL A   1      43.004  27.978  29.474  1.00  0.00     0.167 HD
ATOM     61  C   UNL A   1      37.916  33.122  30.042  1.00  0.00     0.037 A 
ATOM     62  C   UNL A   1      44.606  30.381  29.886  1.00  0.00     0.037 A 
ATOM     63  C   UNL A   1      39.152  33.680  30.587  1.00  0.00     0.049 A 
ATOM     64  C   UNL A   1      44.486  31.881  29.766  1.00  0.00     0.074 A 
ATOM     65  C   UNL A   1      39.746  33.587  31.835  1.00  0.00     0.029 A 
ATOM     66  N   UNL A   1      40.128  34.172  29.724  1.00  0.00    -0.354 N 
ATOM     67  N   UNL A   1      43.381  32.536  29.987  1.00  0.00    -0.248 NA
ATOM     68  C   UNL A   1      45.575  32.751  29.326  1.00  0.00     0.031 C 
ATOM     69  C   UNL A   1      41.104  33.969  31.708  1.00  0.00     0.029 A 
ATOM     70  C   UNL A   1      41.335  34.309  30.386  1.00  0.00     0.049 A 
ATOM     71  H   UNL A   1      39.980  34.393  28.776  1.00  0.00     0.167 HD
ATOM     72  C   UNL A   1      43.562  33.853  29.662  1.00  0.00     0.074 A 
ATOM     73  C   UNL A   1      44.961  33.947  29.290  1.00  0.00     0.031 C 
ATOM     74  C   UNL A   1      42.534  34.751  29.690  1.00  0.00     0.037 A 
BRANCH  61  75
ATOM     75  C   UNL A   1      36.529  33.533  30.490  1.00  0.00     0.064 A 
ATOM     76  C   UNL A   1      35.576  34.006  29.563  1.00  0.00     0.173 A 
ATOM     77  C   UNL A   1      36.105  33.558  31.832  1.00  0.00     0.173 A 
ATOM     78  F   UNL A   1      35.782  33.927  28.243  1.00  0.00    -0.203 F 
ATOM     79  C   UNL A   1      34.366  34.586  29.959  1.00  0.00     0.198 A 
ATOM     80  C   UNL A   1      34.926  34.195  32.234  1.00  0.00     0.198 A 
ATOM     81  F   UNL A   1      36.791  32.919  32.787  1.00  0.00    -0.203 F 
ATOM     82  F   UNL A   1      33.506  35.027  29.031  1.00  0.00    -0.200 F 
ATOM     83  C   UNL A   1      34.063  34.723  31.297  1.00  0.00     0.200 A 
ATOM     84  F   UNL A   1      34.636  34.294  33.539  1.00  0.00    -0.200 F 
ATOM     85  F   UNL A   1      32.933  35.332  31.680  1.00  0.00    -0.200 F 
ENDBRANCH  61  75
BRANCH  62  86
ATOM     86  C   UNL A   1      45.235  29.485  28.881  1.00  0.00     0.064 A 
ATOM     87  C   UNL A   1      46.026  28.428  29.372  1.00  0.00     0.173 A 
ATOM     88  C   UNL A   1      44.705  29.362  27.593  1.00  0.00     0.173 A 
ATOM     89  F   UNL A   1      46.577  28.513  30.594  1.00  0.00    -0.203 F 
ATOM     90  C   UNL A   1      46.110  27.221  28.688  1.00  0.00     0.198 A 
ATOM     91  C   UNL A   1      44.822  28.160  26.895  1.00  0.00     0.198 A 
ATOM     92  F   UNL A   1      43.956  30.344  27.069  1.00  0.00    -0.203 F 
ATOM     93  F   UNL A   1      46.720  26.172  29.259  1.00  0.00    -0.200 F 
ATOM     94  C   UNL A   1      45.472  27.075  27.468  1.00  0.00     0.200 A 
ATOM     95  F   UNL A   1      44.207  28.015  25.713  1.00  0.00    -0.200 F 
ATOM     96  F   UNL A   1      45.439  25.875  26.872  1.00  0.00    -0.200 F 
ENDBRANCH  62  86
BRANCH  74  97
ATOM     97  C   UNL A   1      42.613  36.154  29.154  1.00  0.00     0.064 A 
ATOM     98  C   UNL A   1      41.973  36.571  27.975  1.00  0.00     0.173 A 
ATOM     99  C   UNL A   1      43.259  37.167  29.897  1.00  0.00     0.173 A 
ATOM    100  F   UNL A   1      41.220  35.726  27.259  1.00  0.00    -0.203 F 
ATOM    101  C   UNL A   1      42.052  37.889  27.522  1.00  0.00     0.198 A 
ATOM    102  C   UNL A   1      43.289  38.493  29.469  1.00  0.00     0.198 A 
ATOM    103  F   UNL A   1      43.864  36.897  31.064  1.00  0.00    -0.203 F 
ATOM    104  F   UNL A   1      41.472  38.227  26.362  1.00  0.00    -0.200 F 
ATOM    105  C   UNL A   1      42.706  38.851  28.271  1.00  0.00     0.200 A 
ATOM    106  F   UNL A   1      43.878  39.425  30.232  1.00  0.00    -0.200 F 
ATOM    107  F   UNL A   1      42.755  40.120  27.847  1.00  0.00    -0.200 F 
ENDBRANCH  74  97
ENDBRANCH  48  49
ENDBRANCH  40  43
ENDBRANCH  38  39
ENDBRANCH  37  38
ENDBRANCH   1  37
TORSDOF 16
ENDMDL
MODEL 2
REMARK VINA RESULT:     -13.3      4.013      7.849
REMARK SMILES Cc1cccc(S(=O)(=O)Nc2cc(C(=O)NCCCNC(=O)c3ccc(-c4c5nc(c(-c6c(F)c(F)c(F)c(F)c6F)c6ccc([nH]6)c(-c6c(F)c(F)c(F)c(F)c6F)c6nc(c(-c7c(F)c(F)c(F)c(F)c7F)c7ccc4[nH]7)C=C6)C=C5)cc3)ccc2N2CCC[C@H](C[NH+]3CCCC3)C2)c1
REMARK SMILES IDX 17 1 16 2 14 3 15 4 13 6 11 7 12 8 88 9 87 10 86 11 10 12
REMARK SMILES IDX 7 14 8 15 9 16 6 17 1 18 2 19 3 20 101 21 4 22 5 23 89 24
REMARK SMILES IDX 90 25 100 26 91 27 93 28 92 29 94 30 95 31 96 32 99 33 97 35
REMARK SMILES IDX 98 36 18 37 19 38 20 39 21 40 22 42 23 43 24 44 85 45 25 46
REMARK SMILES IDX 84 47 26 48 27 49 28 50 78 51 29 52 83 53 77 54 79 55 30 56
REMARK SMILES IDX 82 57 76 58 75 59 31 61 63 62 43 63 62 64 44 65 47 66 61 67
REMARK SMILES IDX 80 68 45 69 46 70 60 72 81 73 48 74 32 75 33 76 41 77 34 78
REMARK SMILES IDX 35 79 39 80 42 81 36 82 37 83 40 84 38 85 64 86 65 87 73 88
REMARK SMILES IDX 66 89 67 90 71 91 74 92 68 93 69 94 72 95 70 96 49 97 50 98
REMARK SMILES IDX 58 99 51 100 52 101 56 102 59 103 53 104 54 105 57 106
REMARK SMILES IDX 55 107
REMARK H PARENT 16 5 10 13 95 34 20 41 79 60 47 71
REMARK Flexibility Score: inf
ROOT
ATOM      1  C   UNL A   1      39.278  24.331  27.426  1.00  0.00     0.118 C 
ENDROOT
BRANCH   1   2
ATOM      2  N   UNL A   1      39.382  23.005  26.829  1.00  0.00    -0.352 N 
ATOM      3  C   UNL A   1      38.497  22.254  26.086  1.00  0.00     0.251 C 
ATOM      4  O   UNL A   1      38.918  21.212  25.584  1.00  0.00    -0.269 OA
ATOM      5  H   UNL A   1      40.248  22.562  26.987  1.00  0.00     0.163 HD
BRANCH   3   6
ATOM      6  C   UNL A   1      37.083  22.655  25.826  1.00  0.00     0.042 A 
ATOM      7  C   UNL A   1      34.699  22.222  25.794  1.00  0.00     0.073 A 
ATOM      8  C   UNL A   1      36.011  21.774  25.877  1.00  0.00     0.042 A 
ATOM      9  C   UNL A   1      34.406  23.551  25.454  1.00  0.00     0.061 A 
ATOM     10  C   UNL A   1      35.492  24.425  25.303  1.00  0.00     0.029 A 
ATOM     11  C   UNL A   1      36.810  23.995  25.520  1.00  0.00     0.016 A 
BRANCH   7  12
ATOM     12  N   UNL A   1      33.649  21.304  26.064  1.00  0.00    -0.277 N 
ATOM     13  H   UNL A   1      33.344  21.198  26.994  1.00  0.00     0.180 HD
BRANCH  12  14
ATOM     14  S   UNL A   1      32.901  20.385  24.860  1.00  0.00     0.261 S 
ATOM     15  O   UNL A   1      33.393  20.957  23.608  1.00  0.00    -0.201 OA
ATOM     16  O   UNL A   1      31.500  20.409  25.173  1.00  0.00    -0.201 OA
BRANCH  14  17
ATOM     17  C   UNL A   1      33.382  18.661  24.810  1.00  0.00     0.088 A 
ATOM     18  C   UNL A   1      32.230  15.178  25.824  1.00  0.00     0.044 C 
ATOM     19  C   UNL A   1      33.070  16.296  25.274  1.00  0.00    -0.050 A 
ATOM     20  C   UNL A   1      34.435  16.074  25.053  1.00  0.00     0.003 A 
ATOM     21  C   UNL A   1      32.533  17.584  25.072  1.00  0.00     0.025 A 
ATOM     22  C   UNL A   1      35.267  17.125  24.682  1.00  0.00     0.002 A 
ATOM     23  C   UNL A   1      34.749  18.416  24.586  1.00  0.00     0.022 A 
ENDBRANCH  14  17
ENDBRANCH  12  14
ENDBRANCH   7  12
BRANCH   9  24
ATOM     24  N   UNL A   1      33.122  24.018  25.239  1.00  0.00    -0.369 N 
ATOM     25  C   UNL A   1      32.647  24.076  23.858  1.00  0.00     0.116 C 
ATOM     26  C   UNL A   1      32.124  24.099  26.303  1.00  0.00     0.126 C 
ATOM     27  C   UNL A   1      31.822  25.343  23.661  1.00  0.00     0.022 C 
ATOM     28  C   UNL A   1      31.330  25.409  26.170  1.00  0.00     0.064 C 
ATOM     29  C   UNL A   1      30.749  25.482  24.743  1.00  0.00     0.013 C 
BRANCH  28  30
ATOM     30  C   UNL A   1      32.238  26.591  26.597  1.00  0.00     0.267 C 
BRANCH  30  31
ATOM     31  N   UNL A   1      31.873  27.962  26.241  1.00  0.00    -0.335 N 
ATOM     32  C   UNL A   1      32.737  28.608  25.257  1.00  0.00     0.262 C 
ATOM     33  C   UNL A   1      31.688  28.887  27.355  1.00  0.00     0.262 C 
ATOM     34  H   UNL A   1      30.962  27.786  25.817  1.00  0.00     0.348 HD
ATOM     35  C   UNL A   1      33.628  29.534  26.058  1.00  0.00     0.067 C 
ATOM     36  C   UNL A   1      32.750  29.972  27.215  1.00  0.00     0.067 C 
ENDBRANCH  30  31
ENDBRANCH  28  30
ENDBRANCH   9  24
ENDBRANCH   3   6
ENDBRANCH   1   2
BRANCH   1  37
ATOM     37  C   UNL A   1      40.561  24.760  28.141  1.00  0.00     0.042 C 
BRANCH  37  38
ATOM     38  C   UNL A   1      41.256  25.932  27.490  1.00  0.00     0.118 C 
BRANCH  38  39
ATOM     39  N   UNL A   1      40.358  26.912  26.885  1.00  0.00    -0.352 N 
ATOM     40  C   UNL A   1      40.024  28.159  27.390  1.00  0.00     0.251 C 
ATOM     41  H   UNL A   1      39.947  26.661  26.026  1.00  0.00     0.163 HD
ATOM     42  O   UNL A   1      39.262  28.914  26.804  1.00  0.00    -0.269 OA
BRANCH  40  43
ATOM     43  C   UNL A   1      40.731  28.595  28.615  1.00  0.00     0.039 A 
ATOM     44  C   UNL A   1      40.042  28.472  29.823  1.00  0.00     0.014 A 
ATOM     45  C   UNL A   1      41.818  29.457  28.488  1.00  0.00     0.014 A 
ATOM     46  C   UNL A   1      40.267  29.415  30.821  1.00  0.00     0.010 A 
ATOM     47  C   UNL A   1      41.950  30.465  29.423  1.00  0.00     0.010 A 
ATOM     48  C   UNL A   1      41.128  30.481  30.557  1.00  0.00    -0.014 A 
BRANCH  48  49
ATOM     49  C   UNL A   1      41.178  31.678  31.389  1.00  0.00     0.031 A 
ATOM     50  C   UNL A   1      42.180  31.761  32.472  1.00  0.00     0.074 A 
ATOM     51  C   UNL A   1      40.344  32.721  31.169  1.00  0.00     0.049 A 
ATOM     52  N   UNL A   1      42.029  32.449  33.553  1.00  0.00    -0.248 NA
ATOM     53  C   UNL A   1      43.434  31.019  32.433  1.00  0.00     0.031 C 
ATOM     54  C   UNL A   1      40.429  34.053  31.766  1.00  0.00     0.029 A 
ATOM     55  N   UNL A   1      39.119  32.728  30.481  1.00  0.00    -0.354 N 
ATOM     56  C   UNL A   1      43.237  32.464  34.211  1.00  0.00     0.074 A 
ATOM     57  C   UNL A   1      44.061  31.513  33.502  1.00  0.00     0.031 C 
ATOM     58  C   UNL A   1      39.226  34.641  31.694  1.00  0.00     0.029 A 
ATOM     59  C   UNL A   1      38.297  33.667  31.155  1.00  0.00     0.049 A 
ATOM     60  H   UNL A   1      38.879  32.191  29.692  1.00  0.00     0.167 HD
ATOM     61  C   UNL A   1      43.449  33.378  35.203  1.00  0.00     0.037 A 
ATOM     62  C   UNL A   1      37.110  33.308  31.725  1.00  0.00     0.037 A 
ATOM     63  C   UNL A   1      42.246  34.164  35.467  1.00  0.00     0.049 A 
ATOM     64  C   UNL A   1      37.060  33.522  33.218  1.00  0.00     0.074 A 
ATOM     65  C   UNL A   1      41.833  35.413  35.034  1.00  0.00     0.029 A 
ATOM     66  N   UNL A   1      41.120  33.544  36.004  1.00  0.00    -0.354 N 
ATOM     67  N   UNL A   1      38.113  33.769  33.947  1.00  0.00    -0.248 NA
ATOM     68  C   UNL A   1      35.841  33.410  34.016  1.00  0.00     0.031 C 
ATOM     69  C   UNL A   1      40.439  35.521  35.257  1.00  0.00     0.029 A 
ATOM     70  C   UNL A   1      40.003  34.343  35.840  1.00  0.00     0.049 A 
ATOM     71  H   UNL A   1      41.119  32.661  36.440  1.00  0.00     0.167 HD
ATOM     72  C   UNL A   1      37.758  33.774  35.268  1.00  0.00     0.074 A 
ATOM     73  C   UNL A   1      36.320  33.583  35.259  1.00  0.00     0.031 C 
ATOM     74  C   UNL A   1      38.684  33.897  36.263  1.00  0.00     0.037 A 
BRANCH  61  75
ATOM     75  C   UNL A   1      44.835  33.759  35.682  1.00  0.00     0.064 A 
ATOM     76  C   UNL A   1      45.528  32.956  36.613  1.00  0.00     0.173 A 
ATOM     77  C   UNL A   1      45.499  34.946  35.321  1.00  0.00     0.173 A 
ATOM     78  F   UNL A   1      45.086  31.741  36.958  1.00  0.00    -0.203 F 
ATOM     79  C   UNL A   1      46.710  33.376  37.233  1.00  0.00     0.198 A 
ATOM     80  C   UNL A   1      46.645  35.396  35.986  1.00  0.00     0.198 A 
ATOM     81  F   UNL A   1      45.092  35.677  34.276  1.00  0.00    -0.203 F 
ATOM     82  F   UNL A   1      47.316  32.573  38.118  1.00  0.00    -0.200 F 
ATOM     83  C   UNL A   1      47.242  34.617  36.954  1.00  0.00     0.200 A 
ATOM     84  F   UNL A   1      47.163  36.594  35.681  1.00  0.00    -0.200 F 
ATOM     85  F   UNL A   1      48.340  35.044  37.591  1.00  0.00    -0.200 F 
ENDBRANCH  61  75
BRANCH  62  86
ATOM     86  C   UNL A   1      36.448  32.197  30.992  1.00  0.00     0.064 A 
ATOM     87  C   UNL A   1      35.951  32.485  29.707  1.00  0.00     0.173 A 
ATOM     88  C   UNL A   1      36.727  30.862  31.301  1.00  0.00     0.173 A 
ATOM     89  F   UNL A   1      35.644  33.750  29.373  1.00  0.00    -0.203 F 
ATOM     90  C   UNL A   1      35.929  31.512  28.714  1.00  0.00     0.198 A 
ATOM     91  C   UNL A   1      36.670  29.882  30.310  1.00  0.00     0.198 A 
ATOM     92  F   UNL A   1      37.190  30.528  32.515  1.00  0.00    -0.203 F 
ATOM     93  F   UNL A   1      35.620  31.852  27.454  1.00  0.00    -0.200 F 
ATOM     94  C   UNL A   1      36.330  30.221  29.007  1.00  0.00     0.200 A 
ATOM     95  F   UNL A   1      37.056  28.630  30.591  1.00  0.00    -0.200 F 
ATOM     96  F   UNL A   1      36.437  29.315  28.024  1.00  0.00    -0.200 F 
ENDBRANCH  62  86
BRANCH  74  97
ATOM     97  C   UNL A   1      38.393  33.707  37.727  1.00  0.00     0.064 A 
ATOM     98  C   UNL A   1      37.943  32.496  38.276  1.00  0.00     0.173 A 
ATOM     99  C   UNL A   1      38.679  34.736  38.651  1.00  0.00     0.173 A 
ATOM    100  F   UNL A   1      37.764  31.411  37.511  1.00  0.00    -0.203 F 
ATOM    101  C   UNL A   1      37.705  32.352  39.645  1.00  0.00     0.198 A 
ATOM    102  C   UNL A   1      38.493  34.571  40.023  1.00  0.00     0.198 A 
ATOM    103  F   UNL A   1      39.162  35.921  38.248  1.00  0.00    -0.203 F 
ATOM    104  F   UNL A   1      37.221  31.194  40.116  1.00  0.00    -0.200 F 
ATOM    105  C   UNL A   1      37.985  33.388  40.518  1.00  0.00     0.200 A 
ATOM    106  F   UNL A   1      38.821  35.563  40.863  1.00  0.00    -0.200 F 
ATOM    107  F   UNL A   1      37.783  33.237  41.833  1.00  0.00    -0.200 F 
ENDBRANCH  74  97
ENDBRANCH  48  49
ENDBRANCH  40  43
ENDBRANCH  38  39
ENDBRANCH  37  38
ENDBRANCH   1  37
TORSDOF 16
ENDMDL
MODEL 3
REMARK VINA RESULT:     -13.2      1.384      2.404
REMARK SMILES Cc1cccc(S(=O)(=O)Nc2cc(C(=O)NCCCNC(=O)c3ccc(-c4c5nc(c(-c6c(F)c(F)c(F)c(F)c6F)c6ccc([nH]6)c(-c6c(F)c(F)c(F)c(F)c6F)c6nc(c(-c7c(F)c(F)c(F)c(F)c7F)c7ccc4[nH]7)C=C6)C=C5)cc3)ccc2N2CCC[C@H](C[NH+]3CCCC3)C2)c1
REMARK SMILES IDX 17 1 16 2 14 3 15 4 13 6 11 7 12 8 88 9 87 10 86 11 10 12
REMARK SMILES IDX 7 14 8 15 9 16 6 17 1 18 2 19 3 20 101 21 4 22 5 23 89 24
REMARK SMILES IDX 90 25 100 26 91 27 93 28 92 29 94 30 95 31 96 32 99 33 97 35
REMARK SMILES IDX 98 36 18 37 19 38 20 39 21 40 22 42 23 43 24 44 85 45 25 46
REMARK SMILES IDX 84 47 26 48 27 49 28 50 78 51 29 52 83 53 77 54 79 55 30 56
REMARK SMILES IDX 82 57 76 58 75 59 31 61 63 62 43 63 62 64 44 65 47 66 61 67
REMARK SMILES IDX 80 68 45 69 46 70 60 72 81 73 48 74 32 75 33 76 41 77 34 78
REMARK SMILES IDX 35 79 39 80 42 81 36 82 37 83 40 84 38 85 64 86 65 87 73 88
REMARK SMILES IDX 66 89 67 90 71 91 74 92 68 93 69 94 72 95 70 96 49 97 50 98
REMARK SMILES IDX 58 99 51 100 52 101 56 102 59 103 53 104 54 105 57 106
REMARK SMILES IDX 55 107
REMARK H PARENT 16 5 10 13 95 34 20 41 79 60 47 71
REMARK Flexibility Score: inf
ROOT
ATOM      1  C   UNL A   1      39.771  22.585  26.847  1.00  0.00     0.118 C 
ENDROOT
BRANCH   1   2
ATOM      2  N   UNL A   1      39.347  21.458  26.024  1.00  0.00    -0.352 N 
ATOM      3  C   UNL A   1      38.160  21.177  25.383  1.00  0.00     0.251 C 
ATOM      4  O   UNL A   1      38.139  20.205  24.628  1.00  0.00    -0.269 OA
ATOM      5  H   UNL A   1      40.041  20.769  25.903  1.00  0.00     0.163 HD
BRANCH   3   6
ATOM      6  C   UNL A   1      36.925  22.003  25.523  1.00  0.00     0.042 A 
ATOM      7  C   UNL A   1      34.541  22.260  25.872  1.00  0.00     0.073 A 
ATOM      8  C   UNL A   1      35.644  21.470  25.574  1.00  0.00     0.042 A 
ATOM      9  C   UNL A   1      34.645  23.658  25.935  1.00  0.00     0.061 A 
ATOM     10  C   UNL A   1      35.925  24.210  25.785  1.00  0.00     0.029 A 
ATOM     11  C   UNL A   1      37.055  23.395  25.616  1.00  0.00     0.016 A 
BRANCH   7  12
ATOM     12  N   UNL A   1      33.295  21.623  26.118  1.00  0.00    -0.277 N 
ATOM     13  H   UNL A   1      33.007  21.498  27.051  1.00  0.00     0.180 HD
BRANCH  12  14
ATOM     14  S   UNL A   1      32.287  21.071  24.879  1.00  0.00     0.261 S 
ATOM     15  O   UNL A   1      32.622  21.917  23.734  1.00  0.00    -0.201 OA
ATOM     16  O   UNL A   1      30.961  21.078  25.431  1.00  0.00    -0.201 OA
BRANCH  14  17
ATOM     17  C   UNL A   1      32.602  19.395  24.334  1.00  0.00     0.088 A 
ATOM     18  C   UNL A   1      34.676  16.304  25.130  1.00  0.00     0.044 C 
ATOM     19  C   UNL A   1      33.713  17.237  24.451  1.00  0.00    -0.050 A 
ATOM     20  C   UNL A   1      33.318  16.963  23.135  1.00  0.00     0.003 A 
ATOM     21  C   UNL A   1      33.282  18.426  25.073  1.00  0.00     0.025 A 
ATOM     22  C   UNL A   1      32.544  17.878  22.430  1.00  0.00     0.002 A 
ATOM     23  C   UNL A   1      32.210  19.098  23.016  1.00  0.00     0.022 A 
ENDBRANCH  14  17
ENDBRANCH  12  14
ENDBRANCH   7  12
BRANCH   9  24
ATOM     24  N   UNL A   1      33.559  24.496  26.107  1.00  0.00    -0.369 N 
ATOM     25  C   UNL A   1      32.480  24.031  26.978  1.00  0.00     0.116 C 
ATOM     26  C   UNL A   1      33.600  25.920  25.780  1.00  0.00     0.126 C 
ATOM     27  C   UNL A   1      31.138  24.435  26.376  1.00  0.00     0.022 C 
ATOM     28  C   UNL A   1      32.283  26.333  25.101  1.00  0.00     0.064 C 
ATOM     29  C   UNL A   1      31.114  25.923  26.019  1.00  0.00     0.013 C 
BRANCH  28  30
ATOM     30  C   UNL A   1      32.257  25.753  23.664  1.00  0.00     0.267 C 
BRANCH  30  31
ATOM     31  N   UNL A   1      32.229  26.651  22.510  1.00  0.00    -0.335 N 
ATOM     32  C   UNL A   1      33.379  27.540  22.377  1.00  0.00     0.262 C 
ATOM     33  C   UNL A   1      31.019  27.452  22.349  1.00  0.00     0.262 C 
ATOM     34  H   UNL A   1      32.255  25.959  21.761  1.00  0.00     0.348 HD
ATOM     35  C   UNL A   1      32.898  28.889  22.867  1.00  0.00     0.067 C 
ATOM     36  C   UNL A   1      31.431  28.914  22.480  1.00  0.00     0.067 C 
ENDBRANCH  30  31
ENDBRANCH  28  30
ENDBRANCH   9  24
ENDBRANCH   3   6
ENDBRANCH   1   2
BRANCH   1  37
ATOM     37  C   UNL A   1      41.072  22.310  27.602  1.00  0.00     0.042 C 
BRANCH  37  38
ATOM     38  C   UNL A   1      41.915  23.542  27.829  1.00  0.00     0.118 C 
BRANCH  38  39
ATOM     39  N   UNL A   1      42.557  24.070  26.628  1.00  0.00    -0.352 N 
ATOM     40  C   UNL A   1      42.293  25.280  26.006  1.00  0.00     0.251 C 
ATOM     41  H   UNL A   1      43.252  23.506  26.217  1.00  0.00     0.163 HD
ATOM     42  O   UNL A   1      42.889  25.637  25.000  1.00  0.00    -0.269 OA
BRANCH  40  43
ATOM     43  C   UNL A   1      41.340  26.186  26.684  1.00  0.00     0.039 A 
ATOM     44  C   UNL A   1      41.157  27.451  26.122  1.00  0.00     0.014 A 
ATOM     45  C   UNL A   1      41.005  25.931  28.012  1.00  0.00     0.014 A 
ATOM     46  C   UNL A   1      40.900  28.527  26.964  1.00  0.00     0.010 A 
ATOM     47  C   UNL A   1      40.877  27.013  28.861  1.00  0.00     0.010 A 
ATOM     48  C   UNL A   1      40.892  28.315  28.343  1.00  0.00    -0.014 A 
BRANCH  48  49
ATOM     49  C   UNL A   1      40.963  29.406  29.310  1.00  0.00     0.031 A 
ATOM     50  C   UNL A   1      39.808  30.315  29.455  1.00  0.00     0.074 A 
ATOM     51  C   UNL A   1      42.054  29.581  30.090  1.00  0.00     0.049 A 
ATOM     52  N   UNL A   1      39.893  31.545  29.836  1.00  0.00    -0.248 NA
ATOM     53  C   UNL A   1      38.448  29.907  29.128  1.00  0.00     0.031 C 
ATOM     54  C   UNL A   1      42.175  30.475  31.241  1.00  0.00     0.029 A 
ATOM     55  N   UNL A   1      43.360  29.104  29.886  1.00  0.00    -0.354 N 
ATOM     56  C   UNL A   1      38.615  32.001  30.063  1.00  0.00     0.074 A 
ATOM     57  C   UNL A   1      37.751  30.962  29.553  1.00  0.00     0.031 C 
ATOM     58  C   UNL A   1      43.473  30.731  31.461  1.00  0.00     0.029 A 
ATOM     59  C   UNL A   1      44.226  30.106  30.392  1.00  0.00     0.049 A 
ATOM     60  H   UNL A   1      43.621  28.248  29.474  1.00  0.00     0.167 HD
ATOM     61  C   UNL A   1      38.430  33.149  30.778  1.00  0.00     0.037 A 
ATOM     62  C   UNL A   1      45.143  30.735  29.599  1.00  0.00     0.037 A 
ATOM     63  C   UNL A   1      39.706  33.778  31.115  1.00  0.00     0.049 A 
ATOM     64  C   UNL A   1      44.929  32.224  29.482  1.00  0.00     0.074 A 
ATOM     65  C   UNL A   1      40.493  33.739  32.254  1.00  0.00     0.029 A 
ATOM     66  N   UNL A   1      40.508  34.299  30.102  1.00  0.00    -0.354 N 
ATOM     67  N   UNL A   1      43.841  32.829  29.867  1.00  0.00    -0.248 NA
ATOM     68  C   UNL A   1      45.889  33.137  28.865  1.00  0.00     0.031 C 
ATOM     69  C   UNL A   1      41.793  34.184  31.909  1.00  0.00     0.029 A 
ATOM     70  C   UNL A   1      41.795  34.508  30.563  1.00  0.00     0.049 A 
ATOM     71  H   UNL A   1      40.201  34.493  29.187  1.00  0.00     0.167 HD
ATOM     72  C   UNL A   1      43.901  34.146  29.502  1.00  0.00     0.074 A 
ATOM     73  C   UNL A   1      45.217  34.300  28.912  1.00  0.00     0.031 C 
ATOM     74  C   UNL A   1      42.845  34.993  29.681  1.00  0.00     0.037 A 
BRANCH  61  75
ATOM     75  C   UNL A   1      37.111  33.501  31.435  1.00  0.00     0.064 A 
ATOM     76  C   UNL A   1      36.925  33.338  32.825  1.00  0.00     0.173 A 
ATOM     77  C   UNL A   1      35.967  33.929  30.736  1.00  0.00     0.173 A 
ATOM     78  F   UNL A   1      37.948  33.060  33.641  1.00  0.00    -0.203 F 
ATOM     79  C   UNL A   1      35.671  33.453  33.433  1.00  0.00     0.198 A 
ATOM     80  C   UNL A   1      34.701  33.982  31.330  1.00  0.00     0.198 A 
ATOM     81  F   UNL A   1      36.049  34.363  29.472  1.00  0.00    -0.203 F 
ATOM     82  F   UNL A   1      35.557  33.276  34.756  1.00  0.00    -0.200 F 
ATOM     83  C   UNL A   1      34.551  33.728  32.677  1.00  0.00     0.200 A 
ATOM     84  F   UNL A   1      33.628  34.278  30.583  1.00  0.00    -0.200 F 
ATOM     85  F   UNL A   1      33.341  33.780  33.249  1.00  0.00    -0.200 F 
ENDBRANCH  61  75
BRANCH  62  86
ATOM     86  C   UNL A   1      45.651  29.850  28.519  1.00  0.00     0.064 A 
ATOM     87  C   UNL A   1      46.598  28.873  28.883  1.00  0.00     0.173 A 
ATOM     88  C   UNL A   1      44.911  29.640  27.351  1.00  0.00     0.173 A 
ATOM     89  F   UNL A   1      47.351  29.045  29.982  1.00  0.00    -0.203 F 
ATOM     90  C   UNL A   1      46.654  27.651  28.223  1.00  0.00     0.198 A 
ATOM     91  C   UNL A   1      44.996  28.425  26.672  1.00  0.00     0.198 A 
ATOM     92  F   UNL A   1      44.005  30.544  26.949  1.00  0.00    -0.203 F 
ATOM     93  F   UNL A   1      47.437  26.672  28.698  1.00  0.00    -0.200 F 
ATOM     94  C   UNL A   1      45.821  27.413  27.143  1.00  0.00     0.200 A 
ATOM     95  F   UNL A   1      44.193  28.191  25.624  1.00  0.00    -0.200 F 
ATOM     96  F   UNL A   1      45.778  26.192  26.590  1.00  0.00    -0.200 F 
ENDBRANCH  62  86
BRANCH  74  97
ATOM     97  C   UNL A   1      42.768  36.388  29.122  1.00  0.00     0.064 A 
ATOM     98  C   UNL A   1      43.435  37.487  29.687  1.00  0.00     0.173 A 
ATOM     99  C   UNL A   1      42.094  36.633  27.905  1.00  0.00     0.173 A 
ATOM    100  F   UNL A   1      44.214  37.346  30.768  1.00  0.00    -0.203 F 
ATOM    101  C   UNL A   1      43.357  38.763  29.125  1.00  0.00     0.198 A 
ATOM    102  C   UNL A   1      42.064  37.897  27.318  1.00  0.00     0.198 A 
ATOM    103  F   UNL A   1      41.462  35.649  27.248  1.00  0.00    -0.203 F 
ATOM    104  F   UNL A   1      43.964  39.793  29.731  1.00  0.00    -0.200 F 
ATOM    105  C   UNL A   1      42.675  38.967  27.939  1.00  0.00     0.200 A 
ATOM    106  F   UNL A   1      41.448  38.069  26.140  1.00  0.00    -0.200 F 
ATOM    107  F   UNL A   1      42.626  40.186  27.388  1.00  0.00    -0.200 F 
ENDBRANCH  74  97
ENDBRANCH  48  49
ENDBRANCH  40  43
ENDBRANCH  38  39
ENDBRANCH  37  38
ENDBRANCH   1  37
TORSDOF 16
ENDMDL
