MODEL 1
REMARK VINA RESULT:     -12.8      0.000      0.000
REMARK SMILES O=C(NCCCNC(=O)c1ccc(F)cc1-c1ccc(F)c(Cl)c1)c1ccc(-c2c3nc(c(-c4c(F)c(F)c(F)c(F)c4F)c4ccc([nH]4)c(-c4c(F)c(F)c(F)c(F)c4F)c4nc(c(-c5c(F)c(F)c(F)c(F)c5F)c5ccc2[nH]5)C=C4)C=C3)cc1
REMARK SMILES IDX 4 1 3 2 1 3 2 4 25 6 26 7 87 8 27 9 86 10 28 11 29 12 30 13
REMARK SMILES IDX 80 14 31 15 85 16 79 17 81 18 32 19 84 20 78 21 77 22 33 24
REMARK SMILES IDX 65 25 45 26 64 27 46 28 49 29 63 30 82 31 47 32 48 33 62 35
REMARK SMILES IDX 83 36 50 37 34 38 35 39 43 40 36 41 37 42 41 43 44 44 38 45
REMARK SMILES IDX 39 46 42 47 40 48 66 49 67 50 75 51 68 52 69 53 73 54 76 55
REMARK SMILES IDX 70 56 71 57 74 58 72 59 51 60 52 61 60 62 53 63 54 64 58 65
REMARK SMILES IDX 61 66 55 67 56 68 59 69 57 70 5 71 6 72 7 73 8 74 9 76 10 77
REMARK SMILES IDX 11 78 16 79 12 80 15 81 13 82 14 83 17 84 18 85 24 86 19 87
REMARK SMILES IDX 22 88 20 89 23 90 21 91
REMARK H PARENT 3 5 81 23 49 34 7 75
REMARK Flexibility Score: inf
ROOT
ATOM      1  C   UNL A   1      33.061  28.662  25.536  1.00  0.00     0.118 C 
ENDROOT
BRANCH   1   2
ATOM      2  N   UNL A   1      32.602  30.010  25.843  1.00  0.00    -0.352 N 
ATOM      3  O   UNL A   1      32.402  31.948  26.969  1.00  0.00    -0.269 OA
ATOM      4  C   UNL A   1      33.055  30.927  26.760  1.00  0.00     0.251 C 
ATOM      5  H   UNL A   1      31.839  30.316  25.301  1.00  0.00     0.163 HD
BRANCH   4   6
ATOM      6  C   UNL A   1      34.307  30.694  27.514  1.00  0.00     0.039 A 
ATOM      7  C   UNL A   1      34.606  29.437  28.039  1.00  0.00     0.014 A 
ATOM      8  C   UNL A   1      35.223  31.742  27.660  1.00  0.00     0.014 A 
ATOM      9  C   UNL A   1      35.723  29.270  28.847  1.00  0.00     0.010 A 
ATOM     10  C   UNL A   1      36.406  31.544  28.382  1.00  0.00     0.010 A 
ATOM     11  C   UNL A   1      36.651  30.313  29.007  1.00  0.00    -0.014 A 
BRANCH  11  12
ATOM     12  C   UNL A   1      37.903  30.047  29.760  1.00  0.00     0.031 A 
ATOM     13  C   UNL A   1      38.114  30.582  31.147  1.00  0.00     0.074 A 
ATOM     14  C   UNL A   1      38.835  29.256  29.189  1.00  0.00     0.049 A 
ATOM     15  N   UNL A   1      39.130  30.395  31.953  1.00  0.00    -0.248 NA
ATOM     16  C   UNL A   1      37.059  31.440  31.706  1.00  0.00     0.031 C 
ATOM     17  C   UNL A   1      38.739  28.689  27.841  1.00  0.00     0.029 A 
ATOM     18  N   UNL A   1      40.021  28.767  29.670  1.00  0.00    -0.354 N 
ATOM     19  C   UNL A   1      38.842  31.117  33.103  1.00  0.00     0.074 A 
ATOM     20  C   UNL A   1      37.569  31.768  32.886  1.00  0.00     0.031 C 
ATOM     21  C   UNL A   1      39.783  27.876  27.631  1.00  0.00     0.029 A 
ATOM     22  C   UNL A   1      40.659  27.920  28.795  1.00  0.00     0.049 A 
ATOM     23  H   UNL A   1      40.382  28.999  30.556  1.00  0.00     0.167 HD
ATOM     24  C   UNL A   1      39.575  31.213  34.239  1.00  0.00     0.037 A 
ATOM     25  C   UNL A   1      41.826  27.261  28.909  1.00  0.00     0.037 A 
ATOM     26  C   UNL A   1      40.833  30.545  34.455  1.00  0.00     0.049 A 
ATOM     27  C   UNL A   1      42.628  27.414  30.169  1.00  0.00     0.074 A 
ATOM     28  C   UNL A   1      41.632  30.560  35.586  1.00  0.00     0.029 A 
ATOM     29  N   UNL A   1      41.474  29.741  33.524  1.00  0.00    -0.354 N 
ATOM     30  N   UNL A   1      42.334  28.085  31.255  1.00  0.00    -0.248 NA
ATOM     31  C   UNL A   1      43.925  26.729  30.215  1.00  0.00     0.031 C 
ATOM     32  C   UNL A   1      42.778  29.804  35.322  1.00  0.00     0.029 A 
ATOM     33  C   UNL A   1      42.671  29.277  34.046  1.00  0.00     0.049 A 
ATOM     34  H   UNL A   1      41.131  29.533  32.625  1.00  0.00     0.167 HD
ATOM     35  C   UNL A   1      43.405  27.902  32.116  1.00  0.00     0.074 A 
ATOM     36  C   UNL A   1      44.343  27.031  31.436  1.00  0.00     0.031 C 
ATOM     37  C   UNL A   1      43.597  28.417  33.354  1.00  0.00     0.037 A 
BRANCH  24  38
ATOM     38  C   UNL A   1      39.048  32.072  35.352  1.00  0.00     0.064 A 
ATOM     39  C   UNL A   1      39.367  33.437  35.409  1.00  0.00     0.173 A 
ATOM     40  C   UNL A   1      38.319  31.523  36.418  1.00  0.00     0.173 A 
ATOM     41  F   UNL A   1      40.070  34.008  34.418  1.00  0.00    -0.203 F 
ATOM     42  C   UNL A   1      38.995  34.216  36.501  1.00  0.00     0.198 A 
ATOM     43  C   UNL A   1      37.928  32.311  37.498  1.00  0.00     0.198 A 
ATOM     44  F   UNL A   1      37.980  30.225  36.407  1.00  0.00    -0.203 F 
ATOM     45  F   UNL A   1      39.346  35.509  36.552  1.00  0.00    -0.200 F 
ATOM     46  C   UNL A   1      38.277  33.653  37.545  1.00  0.00     0.200 A 
ATOM     47  F   UNL A   1      37.217  31.770  38.497  1.00  0.00    -0.200 F 
ATOM     48  F   UNL A   1      37.921  34.403  38.596  1.00  0.00    -0.200 F 
ENDBRANCH  24  38
BRANCH  25  49
ATOM     49  C   UNL A   1      42.297  26.402  27.792  1.00  0.00     0.064 A 
ATOM     50  C   UNL A   1      43.209  26.883  26.839  1.00  0.00     0.173 A 
ATOM     51  C   UNL A   1      41.817  25.095  27.635  1.00  0.00     0.173 A 
ATOM     52  F   UNL A   1      43.693  28.129  26.943  1.00  0.00    -0.203 F 
ATOM     53  C   UNL A   1      43.601  26.098  25.758  1.00  0.00     0.198 A 
ATOM     54  C   UNL A   1      42.235  24.300  26.570  1.00  0.00     0.198 A 
ATOM     55  F   UNL A   1      40.959  24.586  28.530  1.00  0.00    -0.203 F 
ATOM     56  F   UNL A   1      44.439  26.599  24.840  1.00  0.00    -0.200 F 
ATOM     57  C   UNL A   1      43.118  24.806  25.628  1.00  0.00     0.200 A 
ATOM     58  F   UNL A   1      41.785  23.043  26.460  1.00  0.00    -0.200 F 
ATOM     59  F   UNL A   1      43.506  24.046  24.594  1.00  0.00    -0.200 F 
ENDBRANCH  25  49
BRANCH  37  60
ATOM     60  C   UNL A   1      44.869  28.052  34.060  1.00  0.00     0.064 A 
ATOM     61  C   UNL A   1      46.019  28.841  33.912  1.00  0.00     0.173 A 
ATOM     62  C   UNL A   1      44.962  26.889  34.838  1.00  0.00     0.173 A 
ATOM     63  F   UNL A   1      45.980  29.960  33.172  1.00  0.00    -0.203 F 
ATOM     64  C   UNL A   1      47.221  28.472  34.507  1.00  0.00     0.198 A 
ATOM     65  C   UNL A   1      46.159  26.538  35.456  1.00  0.00     0.198 A 
ATOM     66  F   UNL A   1      43.885  26.111  35.022  1.00  0.00    -0.203 F 
ATOM     67  F   UNL A   1      48.315  29.225  34.328  1.00  0.00    -0.200 F 
ATOM     68  C   UNL A   1      47.289  27.324  35.283  1.00  0.00     0.200 A 
ATOM     69  F   UNL A   1      46.217  25.443  36.225  1.00  0.00    -0.200 F 
ATOM     70  F   UNL A   1      48.444  26.977  35.867  1.00  0.00    -0.200 F 
ENDBRANCH  37  60
ENDBRANCH  11  12
ENDBRANCH   4   6
ENDBRANCH   1   2
BRANCH   1  71
ATOM     71  C   UNL A   1      34.120  28.628  24.443  1.00  0.00     0.042 C 
BRANCH  71  72
ATOM     72  C   UNL A   1      33.606  29.041  23.072  1.00  0.00     0.118 C 
BRANCH  72  73
ATOM     73  N   UNL A   1      33.739  27.983  22.081  1.00  0.00    -0.352 N 
ATOM     74  C   UNL A   1      32.956  26.879  21.842  1.00  0.00     0.251 C 
ATOM     75  H   UNL A   1      34.516  28.072  21.484  1.00  0.00     0.163 HD
ATOM     76  O   UNL A   1      33.298  26.066  20.988  1.00  0.00    -0.269 OA
BRANCH  74  77
ATOM     77  C   UNL A   1      31.700  26.685  22.604  1.00  0.00     0.047 A 
ATOM     78  C   UNL A   1      30.648  27.589  22.368  1.00  0.00     0.017 A 
ATOM     79  C   UNL A   1      31.530  25.596  23.487  1.00  0.00    -0.003 A 
ATOM     80  C   UNL A   1      29.458  27.487  23.081  1.00  0.00     0.040 A 
ATOM     81  C   UNL A   1      30.314  25.516  24.195  1.00  0.00     0.048 A 
ATOM     82  C   UNL A   1      29.308  26.459  23.999  1.00  0.00     0.123 A 
ATOM     83  F   UNL A   1      28.169  26.361  24.695  1.00  0.00    -0.207 F 
BRANCH  79  84
ATOM     84  C   UNL A   1      32.526  24.527  23.675  1.00  0.00    -0.016 A 
ATOM     85  C   UNL A   1      32.379  23.261  23.084  1.00  0.00     0.012 A 
ATOM     86  C   UNL A   1      33.669  24.769  24.464  1.00  0.00     0.032 A 
ATOM     87  C   UNL A   1      33.342  22.265  23.281  1.00  0.00     0.041 A 
ATOM     88  C   UNL A   1      34.629  23.775  24.657  1.00  0.00     0.077 A 
ATOM     89  C   UNL A   1      34.460  22.527  24.066  1.00  0.00     0.141 A 
ATOM     90  Cl  UNL A   1      36.015  24.113  25.621  1.00  0.00    -0.081 Cl
ATOM     91  F   UNL A   1      35.371  21.558  24.235  1.00  0.00    -0.205 F 
ENDBRANCH  79  84
ENDBRANCH  74  77
ENDBRANCH  72  73
ENDBRANCH  71  72
ENDBRANCH   1  71
TORSDOF 11
ENDMDL
MODEL 2
REMARK VINA RESULT:     -12.8      1.824      3.081
REMARK SMILES O=C(NCCCNC(=O)c1ccc(F)cc1-c1ccc(F)c(Cl)c1)c1ccc(-c2c3nc(c(-c4c(F)c(F)c(F)c(F)c4F)c4ccc([nH]4)c(-c4c(F)c(F)c(F)c(F)c4F)c4nc(c(-c5c(F)c(F)c(F)c(F)c5F)c5ccc2[nH]5)C=C4)C=C3)cc1
REMARK SMILES IDX 4 1 3 2 1 3 2 4 25 6 26 7 87 8 27 9 86 10 28 11 29 12 30 13
REMARK SMILES IDX 80 14 31 15 85 16 79 17 81 18 32 19 84 20 78 21 77 22 33 24
REMARK SMILES IDX 65 25 45 26 64 27 46 28 49 29 63 30 82 31 47 32 48 33 62 35
REMARK SMILES IDX 83 36 50 37 34 38 35 39 43 40 36 41 37 42 41 43 44 44 38 45
REMARK SMILES IDX 39 46 42 47 40 48 66 49 67 50 75 51 68 52 69 53 73 54 76 55
REMARK SMILES IDX 70 56 71 57 74 58 72 59 51 60 52 61 60 62 53 63 54 64 58 65
REMARK SMILES IDX 61 66 55 67 56 68 59 69 57 70 5 71 6 72 7 73 8 74 9 76 10 77
REMARK SMILES IDX 11 78 16 79 12 80 15 81 13 82 14 83 17 84 18 85 24 86 19 87
REMARK SMILES IDX 22 88 20 89 23 90 21 91
REMARK H PARENT 3 5 81 23 49 34 7 75
REMARK Flexibility Score: inf
ROOT
ATOM      1  C   UNL A   1      32.707  32.185  26.876  1.00  0.00     0.118 C 
ENDROOT
BRANCH   1   2
ATOM      2  N   UNL A   1      32.568  33.545  27.380  1.00  0.00    -0.352 N 
ATOM      3  O   UNL A   1      32.842  35.308  28.751  1.00  0.00    -0.269 OA
ATOM      4  C   UNL A   1      33.246  34.209  28.373  1.00  0.00     0.251 C 
ATOM      5  H   UNL A   1      31.872  34.078  26.932  1.00  0.00     0.163 HD
BRANCH   4   6
ATOM      6  C   UNL A   1      34.442  33.613  29.007  1.00  0.00     0.039 A 
ATOM      7  C   UNL A   1      34.345  32.459  29.783  1.00  0.00     0.014 A 
ATOM      8  C   UNL A   1      35.696  34.195  28.785  1.00  0.00     0.014 A 
ATOM      9  C   UNL A   1      35.455  31.988  30.470  1.00  0.00     0.010 A 
ATOM     10  C   UNL A   1      36.837  33.653  29.389  1.00  0.00     0.010 A 
ATOM     11  C   UNL A   1      36.720  32.561  30.261  1.00  0.00    -0.014 A 
BRANCH  11  12
ATOM     12  C   UNL A   1      37.905  31.936  30.903  1.00  0.00     0.031 A 
ATOM     13  C   UNL A   1      38.299  32.266  32.314  1.00  0.00     0.074 A 
ATOM     14  C   UNL A   1      38.594  31.010  30.205  1.00  0.00     0.049 A 
ATOM     15  N   UNL A   1      39.275  31.766  33.031  1.00  0.00    -0.248 NA
ATOM     16  C   UNL A   1      37.505  33.287  33.014  1.00  0.00     0.031 C 
ATOM     17  C   UNL A   1      38.306  30.619  28.822  1.00  0.00     0.029 A 
ATOM     18  N   UNL A   1      39.649  30.211  30.561  1.00  0.00    -0.354 N 
ATOM     19  C   UNL A   1      39.220  32.417  34.256  1.00  0.00     0.074 A 
ATOM     20  C   UNL A   1      38.131  33.367  34.182  1.00  0.00     0.031 C 
ATOM     21  C   UNL A   1      39.114  29.609  28.473  1.00  0.00     0.029 A 
ATOM     22  C   UNL A   1      40.026  29.330  29.576  1.00  0.00     0.049 A 
ATOM     23  H   UNL A   1      40.094  30.263  31.438  1.00  0.00     0.167 HD
ATOM     24  C   UNL A   1      40.004  32.226  35.344  1.00  0.00     0.037 A 
ATOM     25  C   UNL A   1      41.005  28.409  29.554  1.00  0.00     0.037 A 
ATOM     26  C   UNL A   1      41.074  31.263  35.417  1.00  0.00     0.049 A 
ATOM     27  C   UNL A   1      41.875  28.243  30.766  1.00  0.00     0.074 A 
ATOM     28  C   UNL A   1      41.903  30.978  36.489  1.00  0.00     0.029 A 
ATOM     29  N   UNL A   1      41.463  30.429  34.379  1.00  0.00    -0.354 N 
ATOM     30  N   UNL A   1      41.799  28.853  31.923  1.00  0.00    -0.248 NA
ATOM     31  C   UNL A   1      42.972  27.273  30.666  1.00  0.00     0.031 C 
ATOM     32  C   UNL A   1      42.822  30.006  36.085  1.00  0.00     0.029 A 
ATOM     33  C   UNL A   1      42.535  29.648  34.778  1.00  0.00     0.049 A 
ATOM     34  H   UNL A   1      41.040  30.398  33.490  1.00  0.00     0.167 HD
ATOM     35  C   UNL A   1      42.832  28.339  32.691  1.00  0.00     0.074 A 
ATOM     36  C   UNL A   1      43.504  27.346  31.878  1.00  0.00     0.031 C 
ATOM     37  C   UNL A   1      43.197  28.668  33.954  1.00  0.00     0.037 A 
BRANCH  24  38
ATOM     38  C   UNL A   1      39.748  33.068  36.560  1.00  0.00     0.064 A 
ATOM     39  C   UNL A   1      38.754  32.703  37.481  1.00  0.00     0.173 A 
ATOM     40  C   UNL A   1      40.410  34.289  36.757  1.00  0.00     0.173 A 
ATOM     41  F   UNL A   1      38.086  31.549  37.332  1.00  0.00    -0.203 F 
ATOM     42  C   UNL A   1      38.417  33.540  38.541  1.00  0.00     0.198 A 
ATOM     43  C   UNL A   1      40.086  35.112  37.833  1.00  0.00     0.198 A 
ATOM     44  F   UNL A   1      41.375  34.679  35.910  1.00  0.00    -0.203 F 
ATOM     45  F   UNL A   1      37.436  33.189  39.385  1.00  0.00    -0.200 F 
ATOM     46  C   UNL A   1      39.082  34.743  38.717  1.00  0.00     0.200 A 
ATOM     47  F   UNL A   1      40.743  36.267  38.012  1.00  0.00    -0.200 F 
ATOM     48  F   UNL A   1      38.756  35.549  39.736  1.00  0.00    -0.200 F 
ENDBRANCH  24  38
BRANCH  25  49
ATOM     49  C   UNL A   1      41.207  27.580  28.338  1.00  0.00     0.064 A 
ATOM     50  C   UNL A   1      40.552  26.349  28.180  1.00  0.00     0.173 A 
ATOM     51  C   UNL A   1      42.088  27.985  27.327  1.00  0.00     0.173 A 
ATOM     52  F   UNL A   1      39.703  25.914  29.122  1.00  0.00    -0.203 F 
ATOM     53  C   UNL A   1      40.791  25.544  27.068  1.00  0.00     0.198 A 
ATOM     54  C   UNL A   1      42.301  27.193  26.200  1.00  0.00     0.198 A 
ATOM     55  F   UNL A   1      42.723  29.162  27.425  1.00  0.00    -0.203 F 
ATOM     56  F   UNL A   1      40.183  24.354  26.964  1.00  0.00    -0.200 F 
ATOM     57  C   UNL A   1      41.661  25.970  26.077  1.00  0.00     0.200 A 
ATOM     58  F   UNL A   1      43.125  27.619  25.233  1.00  0.00    -0.200 F 
ATOM     59  F   UNL A   1      41.880  25.202  25.001  1.00  0.00    -0.200 F 
ENDBRANCH  25  49
BRANCH  37  60
ATOM     60  C   UNL A   1      44.375  27.947  34.539  1.00  0.00     0.064 A 
ATOM     61  C   UNL A   1      44.200  26.744  35.237  1.00  0.00     0.173 A 
ATOM     62  C   UNL A   1      45.670  28.480  34.456  1.00  0.00     0.173 A 
ATOM     63  F   UNL A   1      42.979  26.198  35.349  1.00  0.00    -0.203 F 
ATOM     64  C   UNL A   1      45.278  26.104  35.841  1.00  0.00     0.198 A 
ATOM     65  C   UNL A   1      46.750  27.823  35.037  1.00  0.00     0.198 A 
ATOM     66  F   UNL A   1      45.888  29.621  33.785  1.00  0.00    -0.203 F 
ATOM     67  F   UNL A   1      45.083  24.970  36.529  1.00  0.00    -0.200 F 
ATOM     68  C   UNL A   1      46.552  26.641  35.737  1.00  0.00     0.200 A 
ATOM     69  F   UNL A   1      47.984  28.329  34.914  1.00  0.00    -0.200 F 
ATOM     70  F   UNL A   1      47.592  26.018  36.308  1.00  0.00    -0.200 F 
ENDBRANCH  37  60
ENDBRANCH  11  12
ENDBRANCH   4   6
ENDBRANCH   1   2
BRANCH   1  71
ATOM     71  C   UNL A   1      31.401  31.611  26.346  1.00  0.00     0.042 C 
BRANCH  71  72
ATOM     72  C   UNL A   1      31.446  30.113  26.082  1.00  0.00     0.118 C 
BRANCH  72  73
ATOM     73  N   UNL A   1      32.166  29.779  24.861  1.00  0.00    -0.352 N 
ATOM     74  C   UNL A   1      31.723  29.216  23.688  1.00  0.00     0.251 C 
ATOM     75  H   UNL A   1      33.127  29.992  24.878  1.00  0.00     0.163 HD
ATOM     76  O   UNL A   1      32.528  28.953  22.801  1.00  0.00    -0.269 OA
BRANCH  74  77
ATOM     77  C   UNL A   1      30.279  28.945  23.499  1.00  0.00     0.047 A 
ATOM     78  C   UNL A   1      29.498  29.953  22.904  1.00  0.00     0.017 A 
ATOM     79  C   UNL A   1      29.709  27.698  23.837  1.00  0.00    -0.003 A 
ATOM     80  C   UNL A   1      28.129  29.777  22.736  1.00  0.00     0.040 A 
ATOM     81  C   UNL A   1      28.320  27.546  23.655  1.00  0.00     0.048 A 
ATOM     82  C   UNL A   1      27.550  28.580  23.126  1.00  0.00     0.123 A 
ATOM     83  F   UNL A   1      26.231  28.407  22.976  1.00  0.00    -0.207 F 
BRANCH  79  84
ATOM     84  C   UNL A   1      30.486  26.545  24.325  1.00  0.00    -0.016 A 
ATOM     85  C   UNL A   1      30.665  26.293  25.695  1.00  0.00     0.012 A 
ATOM     86  C   UNL A   1      31.070  25.656  23.399  1.00  0.00     0.032 A 
ATOM     87  C   UNL A   1      31.409  25.190  26.127  1.00  0.00     0.041 A 
ATOM     88  C   UNL A   1      31.810  24.555  23.833  1.00  0.00     0.077 A 
ATOM     89  C   UNL A   1      31.978  24.328  25.194  1.00  0.00     0.141 A 
ATOM     90  Cl  UNL A   1      32.500  23.488  22.670  1.00  0.00    -0.081 Cl
ATOM     91  F   UNL A   1      32.682  23.275  25.634  1.00  0.00    -0.205 F 
ENDBRANCH  79  84
ENDBRANCH  74  77
ENDBRANCH  72  73
ENDBRANCH  71  72
ENDBRANCH   1  71
TORSDOF 11
ENDMDL
MODEL 3
REMARK VINA RESULT:     -12.8      1.788      2.829
REMARK SMILES O=C(NCCCNC(=O)c1ccc(F)cc1-c1ccc(F)c(Cl)c1)c1ccc(-c2c3nc(c(-c4c(F)c(F)c(F)c(F)c4F)c4ccc([nH]4)c(-c4c(F)c(F)c(F)c(F)c4F)c4nc(c(-c5c(F)c(F)c(F)c(F)c5F)c5ccc2[nH]5)C=C4)C=C3)cc1
REMARK SMILES IDX 4 1 3 2 1 3 2 4 25 6 26 7 87 8 27 9 86 10 28 11 29 12 30 13
REMARK SMILES IDX 80 14 31 15 85 16 79 17 81 18 32 19 84 20 78 21 77 22 33 24
REMARK SMILES IDX 65 25 45 26 64 27 46 28 49 29 63 30 82 31 47 32 48 33 62 35
REMARK SMILES IDX 83 36 50 37 34 38 35 39 43 40 36 41 37 42 41 43 44 44 38 45
REMARK SMILES IDX 39 46 42 47 40 48 66 49 67 50 75 51 68 52 69 53 73 54 76 55
REMARK SMILES IDX 70 56 71 57 74 58 72 59 51 60 52 61 60 62 53 63 54 64 58 65
REMARK SMILES IDX 61 66 55 67 56 68 59 69 57 70 5 71 6 72 7 73 8 74 9 76 10 77
REMARK SMILES IDX 11 78 16 79 12 80 15 81 13 82 14 83 17 84 18 85 24 86 19 87
REMARK SMILES IDX 22 88 20 89 23 90 21 91
REMARK H PARENT 3 5 81 23 49 34 7 75
REMARK Flexibility Score: inf
ROOT
ATOM      1  C   UNL A   1      32.721  32.184  26.876  1.00  0.00     0.118 C 
ENDROOT
BRANCH   1   2
ATOM      2  N   UNL A   1      32.582  33.545  27.380  1.00  0.00    -0.352 N 
ATOM      3  O   UNL A   1      32.855  35.307  28.752  1.00  0.00    -0.269 OA
ATOM      4  C   UNL A   1      33.259  34.208  28.374  1.00  0.00     0.251 C 
ATOM      5  H   UNL A   1      31.886  34.078  26.932  1.00  0.00     0.163 HD
BRANCH   4   6
ATOM      6  C   UNL A   1      34.455  33.613  29.008  1.00  0.00     0.039 A 
ATOM      7  C   UNL A   1      34.356  32.468  29.798  1.00  0.00     0.014 A 
ATOM      8  C   UNL A   1      35.712  34.184  28.772  1.00  0.00     0.014 A 
ATOM      9  C   UNL A   1      35.468  31.998  30.484  1.00  0.00     0.010 A 
ATOM     10  C   UNL A   1      36.853  33.642  29.375  1.00  0.00     0.010 A 
ATOM     11  C   UNL A   1      36.735  32.561  30.260  1.00  0.00    -0.014 A 
BRANCH  11  12
ATOM     12  C   UNL A   1      37.919  31.936  30.903  1.00  0.00     0.031 A 
ATOM     13  C   UNL A   1      38.313  32.265  32.314  1.00  0.00     0.074 A 
ATOM     14  C   UNL A   1      38.609  31.011  30.205  1.00  0.00     0.049 A 
ATOM     15  N   UNL A   1      39.288  31.766  33.031  1.00  0.00    -0.248 NA
ATOM     16  C   UNL A   1      37.518  33.286  33.014  1.00  0.00     0.031 C 
ATOM     17  C   UNL A   1      38.322  30.619  28.822  1.00  0.00     0.029 A 
ATOM     18  N   UNL A   1      39.664  30.212  30.562  1.00  0.00    -0.354 N 
ATOM     19  C   UNL A   1      39.233  32.416  34.257  1.00  0.00     0.074 A 
ATOM     20  C   UNL A   1      38.143  33.366  34.182  1.00  0.00     0.031 C 
ATOM     21  C   UNL A   1      39.131  29.610  28.473  1.00  0.00     0.029 A 
ATOM     22  C   UNL A   1      40.042  29.331  29.576  1.00  0.00     0.049 A 
ATOM     23  H   UNL A   1      40.108  30.264  31.439  1.00  0.00     0.167 HD
ATOM     24  C   UNL A   1      40.016  32.225  35.346  1.00  0.00     0.037 A 
ATOM     25  C   UNL A   1      41.021  28.410  29.555  1.00  0.00     0.037 A 
ATOM     26  C   UNL A   1      41.086  31.263  35.418  1.00  0.00     0.049 A 
ATOM     27  C   UNL A   1      41.891  28.244  30.767  1.00  0.00     0.074 A 
ATOM     28  C   UNL A   1      41.915  30.977  36.491  1.00  0.00     0.029 A 
ATOM     29  N   UNL A   1      41.475  30.429  34.380  1.00  0.00    -0.354 N 
ATOM     30  N   UNL A   1      41.814  28.854  31.924  1.00  0.00    -0.248 NA
ATOM     31  C   UNL A   1      42.988  27.274  30.667  1.00  0.00     0.031 C 
ATOM     32  C   UNL A   1      42.834  30.005  36.087  1.00  0.00     0.029 A 
ATOM     33  C   UNL A   1      42.548  29.647  34.779  1.00  0.00     0.049 A 
ATOM     34  H   UNL A   1      41.053  30.398  33.491  1.00  0.00     0.167 HD
ATOM     35  C   UNL A   1      42.847  28.340  32.693  1.00  0.00     0.074 A 
ATOM     36  C   UNL A   1      43.519  27.347  31.880  1.00  0.00     0.031 C 
ATOM     37  C   UNL A   1      43.211  28.669  33.956  1.00  0.00     0.037 A 
BRANCH  24  38
ATOM     38  C   UNL A   1      39.759  33.066  36.561  1.00  0.00     0.064 A 
ATOM     39  C   UNL A   1      38.763  32.703  37.480  1.00  0.00     0.173 A 
ATOM     40  C   UNL A   1      40.422  34.286  36.760  1.00  0.00     0.173 A 
ATOM     41  F   UNL A   1      38.094  31.549  37.330  1.00  0.00    -0.203 F 
ATOM     42  C   UNL A   1      38.425  33.539  38.541  1.00  0.00     0.198 A 
ATOM     43  C   UNL A   1      40.098  35.109  37.836  1.00  0.00     0.198 A 
ATOM     44  F   UNL A   1      41.389  34.675  35.916  1.00  0.00    -0.203 F 
ATOM     45  F   UNL A   1      37.443  33.189  39.383  1.00  0.00    -0.200 F 
ATOM     46  C   UNL A   1      39.092  34.741  38.718  1.00  0.00     0.200 A 
ATOM     47  F   UNL A   1      40.756  36.263  38.018  1.00  0.00    -0.200 F 
ATOM     48  F   UNL A   1      38.765  35.546  39.738  1.00  0.00    -0.200 F 
ENDBRANCH  24  38
BRANCH  25  49
ATOM     49  C   UNL A   1      41.224  27.581  28.339  1.00  0.00     0.064 A 
ATOM     50  C   UNL A   1      40.568  26.351  28.179  1.00  0.00     0.173 A 
ATOM     51  C   UNL A   1      42.106  27.987  27.328  1.00  0.00     0.173 A 
ATOM     52  F   UNL A   1      39.718  25.916  29.120  1.00  0.00    -0.203 F 
ATOM     53  C   UNL A   1      40.807  25.546  27.067  1.00  0.00     0.198 A 
ATOM     54  C   UNL A   1      42.320  27.195  26.202  1.00  0.00     0.198 A 
ATOM     55  F   UNL A   1      42.743  29.163  27.428  1.00  0.00    -0.203 F 
ATOM     56  F   UNL A   1      40.199  24.357  26.961  1.00  0.00    -0.200 F 
ATOM     57  C   UNL A   1      41.679  25.972  26.077  1.00  0.00     0.200 A 
ATOM     58  F   UNL A   1      43.145  27.621  25.236  1.00  0.00    -0.200 F 
ATOM     59  F   UNL A   1      41.899  25.205  25.001  1.00  0.00    -0.200 F 
ENDBRANCH  25  49
BRANCH  37  60
ATOM     60  C   UNL A   1      44.388  27.948  34.541  1.00  0.00     0.064 A 
ATOM     61  C   UNL A   1      45.685  28.458  34.388  1.00  0.00     0.173 A 
ATOM     62  C   UNL A   1      44.236  26.722  35.206  1.00  0.00     0.173 A 
ATOM     63  F   UNL A   1      45.883  29.625  33.754  1.00  0.00    -0.203 F 
ATOM     64  C   UNL A   1      46.789  27.761  34.868  1.00  0.00     0.198 A 
ATOM     65  C   UNL A   1      45.339  26.041  35.709  1.00  0.00     0.198 A 
ATOM     66  F   UNL A   1      43.013  26.202  35.390  1.00  0.00    -0.203 F 
ATOM     67  F   UNL A   1      48.023  28.253  34.684  1.00  0.00    -0.200 F 
ATOM     68  C   UNL A   1      46.616  26.556  35.533  1.00  0.00     0.200 A 
ATOM     69  F   UNL A   1      45.168  24.890  36.373  1.00  0.00    -0.200 F 
ATOM     70  F   UNL A   1      47.679  25.892  36.007  1.00  0.00    -0.200 F 
ENDBRANCH  37  60
ENDBRANCH  11  12
ENDBRANCH   4   6
ENDBRANCH   1   2
BRANCH   1  71
ATOM     71  C   UNL A   1      31.399  31.578  26.427  1.00  0.00     0.042 C 
BRANCH  71  72
ATOM     72  C   UNL A   1      31.475  30.091  26.117  1.00  0.00     0.118 C 
BRANCH  72  73
ATOM     73  N   UNL A   1      32.156  29.814  24.860  1.00  0.00    -0.352 N 
ATOM     74  C   UNL A   1      31.674  29.313  23.674  1.00  0.00     0.251 C 
ATOM     75  H   UNL A   1      33.118  30.020  24.858  1.00  0.00     0.163 HD
ATOM     76  O   UNL A   1      32.449  29.089  22.750  1.00  0.00    -0.269 OA
BRANCH  74  77
ATOM     77  C   UNL A   1      30.222  29.061  23.515  1.00  0.00     0.047 A 
ATOM     78  C   UNL A   1      29.400  30.159  23.201  1.00  0.00     0.017 A 
ATOM     79  C   UNL A   1      29.682  27.759  23.606  1.00  0.00    -0.003 A 
ATOM     80  C   UNL A   1      28.024  29.996  23.080  1.00  0.00     0.040 A 
ATOM     81  C   UNL A   1      28.286  27.623  23.476  1.00  0.00     0.048 A 
ATOM     82  C   UNL A   1      27.478  28.731  23.232  1.00  0.00     0.123 A 
ATOM     83  F   UNL A   1      26.153  28.569  23.126  1.00  0.00    -0.207 F 
BRANCH  79  84
ATOM     84  C   UNL A   1      30.496  26.543  23.782  1.00  0.00    -0.016 A 
ATOM     85  C   UNL A   1      31.062  25.861  22.693  1.00  0.00     0.012 A 
ATOM     86  C   UNL A   1      30.725  26.040  25.079  1.00  0.00     0.032 A 
ATOM     87  C   UNL A   1      31.829  24.708  22.892  1.00  0.00     0.041 A 
ATOM     88  C   UNL A   1      31.492  24.890  25.276  1.00  0.00     0.077 A 
ATOM     89  C   UNL A   1      32.039  24.229  24.181  1.00  0.00     0.141 A 
ATOM     90  Cl  UNL A   1      31.756  24.312  26.876  1.00  0.00    -0.081 Cl
ATOM     91  F   UNL A   1      32.783  23.125  24.346  1.00  0.00    -0.205 F 
ENDBRANCH  79  84
ENDBRANCH  74  77
ENDBRANCH  72  73
ENDBRANCH  71  72
ENDBRANCH   1  71
TORSDOF 11
ENDMDL
