MODEL 1
REMARK VINA RESULT:      -9.2      0.000      0.000
REMARK SMILES C[C@H]([NH3+])[C@@H](CC(=O)NCCCNC(=O)c1ccc(-c2c3nc(c(-c4c(F)c(F)c(F)c(F)c4F)c4ccc([nH]4)c(-c4c(F)c(F)c(F)c(F)c4F)c4nc(c(-c5c(F)c(F)c(F)c(F)c5F)c5ccc2[nH]5)C=C4)C=C3)cc1)c1ccccc1
REMARK SMILES IDX 9 1 8 2 6 3 7 4 5 6 4 7 2 8 1 9 3 10 78 14 79 15 83 16 80 17
REMARK SMILES IDX 82 18 81 19 10 20 11 21 12 22 13 23 14 25 15 26 16 27 77 28
REMARK SMILES IDX 17 29 76 30 18 31 19 32 20 33 70 34 21 35 75 36 69 37 71 38
REMARK SMILES IDX 22 39 74 40 68 41 67 42 23 44 55 45 35 46 54 47 36 48 39 49
REMARK SMILES IDX 53 50 72 51 37 52 38 53 52 55 73 56 40 57 24 58 25 59 33 60
REMARK SMILES IDX 26 61 27 62 31 63 34 64 28 65 29 66 32 67 30 68 56 69 57 70
REMARK SMILES IDX 65 71 58 72 59 73 63 74 66 75 60 76 61 77 64 78 62 79 41 80
REMARK SMILES IDX 42 81 50 82 43 83 44 84 48 85 51 86 45 87 46 88 49 89 47 90
REMARK H PARENT 8 5 3 11 3 12 3 13 12 24 71 43 39 54
REMARK Flexibility Score: inf
ROOT
ATOM      1  C   UNL A   1      35.938  32.555  31.460  1.00  0.00     0.117 C 
ENDROOT
BRANCH   1   2
ATOM      2  N   UNL A   1      36.253  33.556  32.457  1.00  0.00    -0.356 N 
ATOM      3  C   UNL A   1      37.344  33.747  33.237  1.00  0.00     0.220 C 
ATOM      4  O   UNL A   1      37.391  34.831  33.831  1.00  0.00    -0.275 OA
ATOM      5  H   UNL A   1      35.541  34.222  32.593  1.00  0.00     0.163 HD
BRANCH   3   6
ATOM      6  C   UNL A   1      38.498  32.761  33.371  1.00  0.00     0.114 C 
BRANCH   6   7
ATOM      7  C   UNL A   1      38.370  31.392  34.124  1.00  0.00     0.086 C 
BRANCH   7   8
ATOM      8  C   UNL A   1      38.054  31.617  35.653  1.00  0.00     0.185 C 
ATOM      9  C   UNL A   1      38.916  32.598  36.447  1.00  0.00     0.076 C 
BRANCH   8  10
ATOM     10  N   UNL A   1      38.054  30.349  36.406  1.00  0.00    -0.355 N 
ATOM     11  H   UNL A   1      37.469  30.445  37.237  1.00  0.00     0.344 HD
ATOM     12  H   UNL A   1      39.007  30.119  36.687  1.00  0.00     0.344 HD
ATOM     13  H   UNL A   1      37.685  29.603  35.816  1.00  0.00     0.344 HD
ENDBRANCH   8  10
ENDBRANCH   7   8
BRANCH   7  14
ATOM     14  C   UNL A   1      39.371  30.277  33.770  1.00  0.00    -0.038 A 
ATOM     15  C   UNL A   1      38.918  29.160  33.037  1.00  0.00     0.004 A 
ATOM     16  C   UNL A   1      40.743  30.307  34.050  1.00  0.00     0.004 A 
ATOM     17  C   UNL A   1      39.757  28.090  32.707  1.00  0.00     0.000 A 
ATOM     18  C   UNL A   1      41.599  29.255  33.690  1.00  0.00     0.000 A 
ATOM     19  C   UNL A   1      41.102  28.135  33.041  1.00  0.00     0.000 A 
ENDBRANCH   7  14
ENDBRANCH   6   7
ENDBRANCH   3   6
ENDBRANCH   1   2
BRANCH   1  20
ATOM     20  C   UNL A   1      34.691  32.922  30.656  1.00  0.00     0.042 C 
BRANCH  20  21
ATOM     21  C   UNL A   1      34.848  32.810  29.148  1.00  0.00     0.118 C 
BRANCH  21  22
ATOM     22  N   UNL A   1      34.134  31.670  28.596  1.00  0.00    -0.352 N 
ATOM     23  C   UNL A   1      34.586  30.467  28.115  1.00  0.00     0.251 C 
ATOM     24  H   UNL A   1      33.156  31.781  28.561  1.00  0.00     0.163 HD
ATOM     25  O   UNL A   1      33.797  29.743  27.511  1.00  0.00    -0.269 OA
BRANCH  23  26
ATOM     26  C   UNL A   1      35.990  30.015  28.296  1.00  0.00     0.039 A 
ATOM     27  C   UNL A   1      36.347  29.434  29.520  1.00  0.00     0.014 A 
ATOM     28  C   UNL A   1      36.979  30.237  27.336  1.00  0.00     0.014 A 
ATOM     29  C   UNL A   1      37.673  29.061  29.767  1.00  0.00     0.010 A 
ATOM     30  C   UNL A   1      38.280  29.778  27.543  1.00  0.00     0.010 A 
ATOM     31  C   UNL A   1      38.651  29.220  28.774  1.00  0.00    -0.014 A 
BRANCH  31  32
ATOM     32  C   UNL A   1      40.079  28.896  29.037  1.00  0.00     0.031 A 
ATOM     33  C   UNL A   1      40.948  29.886  29.770  1.00  0.00     0.074 A 
ATOM     34  C   UNL A   1      40.608  27.742  28.588  1.00  0.00     0.049 A 
ATOM     35  N   UNL A   1      42.229  29.831  30.039  1.00  0.00    -0.248 NA
ATOM     36  C   UNL A   1      40.296  31.122  30.234  1.00  0.00     0.031 C 
ATOM     37  C   UNL A   1      39.890  26.719  27.829  1.00  0.00     0.029 A 
ATOM     38  N   UNL A   1      41.882  27.240  28.701  1.00  0.00    -0.354 N 
ATOM     39  C   UNL A   1      42.536  31.029  30.671  1.00  0.00     0.074 A 
ATOM     40  C   UNL A   1      41.323  31.815  30.700  1.00  0.00     0.031 C 
ATOM     41  C   UNL A   1      40.724  25.701  27.565  1.00  0.00     0.029 A 
ATOM     42  C   UNL A   1      42.043  26.011  28.110  1.00  0.00     0.049 A 
ATOM     43  H   UNL A   1      42.609  27.715  29.163  1.00  0.00     0.167 HD
ATOM     44  C   UNL A   1      43.715  31.430  31.205  1.00  0.00     0.037 A 
ATOM     45  C   UNL A   1      43.132  25.223  28.021  1.00  0.00     0.037 A 
ATOM     46  C   UNL A   1      44.909  30.628  31.223  1.00  0.00     0.049 A 
ATOM     47  C   UNL A   1      44.418  25.671  28.662  1.00  0.00     0.074 A 
ATOM     48  C   UNL A   1      46.139  30.920  31.785  1.00  0.00     0.029 A 
ATOM     49  N   UNL A   1      45.014  29.365  30.661  1.00  0.00    -0.354 N 
ATOM     50  N   UNL A   1      44.681  26.784  29.302  1.00  0.00    -0.248 NA
ATOM     51  C   UNL A   1      45.556  24.744  28.581  1.00  0.00     0.031 C 
ATOM     52  C   UNL A   1      46.999  29.844  31.538  1.00  0.00     0.029 A 
ATOM     53  C   UNL A   1      46.291  28.865  30.860  1.00  0.00     0.049 A 
ATOM     54  H   UNL A   1      44.290  28.893  30.189  1.00  0.00     0.167 HD
ATOM     55  C   UNL A   1      45.998  26.677  29.730  1.00  0.00     0.074 A 
ATOM     56  C   UNL A   1      46.477  25.385  29.284  1.00  0.00     0.031 C 
ATOM     57  C   UNL A   1      46.742  27.567  30.430  1.00  0.00     0.037 A 
BRANCH  44  58
ATOM     58  C   UNL A   1      43.766  32.798  31.824  1.00  0.00     0.064 A 
ATOM     59  C   UNL A   1      43.662  32.982  33.211  1.00  0.00     0.173 A 
ATOM     60  C   UNL A   1      43.942  33.936  31.024  1.00  0.00     0.173 A 
ATOM     61  F   UNL A   1      43.479  31.928  34.020  1.00  0.00    -0.203 F 
ATOM     62  C   UNL A   1      43.699  34.257  33.770  1.00  0.00     0.198 A 
ATOM     63  C   UNL A   1      44.010  35.207  31.589  1.00  0.00     0.198 A 
ATOM     64  F   UNL A   1      44.052  33.817  29.692  1.00  0.00    -0.203 F 
ATOM     65  F   UNL A   1      43.541  34.411  35.093  1.00  0.00    -0.200 F 
ATOM     66  C   UNL A   1      43.878  35.367  32.960  1.00  0.00     0.200 A 
ATOM     67  F   UNL A   1      44.195  36.279  30.805  1.00  0.00    -0.200 F 
ATOM     68  F   UNL A   1      43.917  36.594  33.500  1.00  0.00    -0.200 F 
ENDBRANCH  44  58
BRANCH  45  69
ATOM     69  C   UNL A   1      43.042  23.908  27.337  1.00  0.00     0.064 A 
ATOM     70  C   UNL A   1      43.426  23.769  25.995  1.00  0.00     0.173 A 
ATOM     71  C   UNL A   1      42.570  22.768  28.002  1.00  0.00     0.173 A 
ATOM     72  F   UNL A   1      43.865  24.836  25.311  1.00  0.00    -0.203 F 
ATOM     73  C   UNL A   1      43.321  22.545  25.339  1.00  0.00     0.198 A 
ATOM     74  C   UNL A   1      42.490  21.538  27.353  1.00  0.00     0.198 A 
ATOM     75  F   UNL A   1      42.197  22.847  29.288  1.00  0.00    -0.203 F 
ATOM     76  F   UNL A   1      43.653  22.450  24.045  1.00  0.00    -0.200 F 
ATOM     77  C   UNL A   1      42.859  21.428  26.020  1.00  0.00     0.200 A 
ATOM     78  F   UNL A   1      42.055  20.458  28.017  1.00  0.00    -0.200 F 
ATOM     79  F   UNL A   1      42.760  20.250  25.390  1.00  0.00    -0.200 F 
ENDBRANCH  45  69
BRANCH  57  80
ATOM     80  C   UNL A   1      48.134  27.153  30.810  1.00  0.00     0.064 A 
ATOM     81  C   UNL A   1      48.396  26.444  31.990  1.00  0.00     0.173 A 
ATOM     82  C   UNL A   1      49.213  27.443  29.961  1.00  0.00     0.173 A 
ATOM     83  F   UNL A   1      47.400  26.155  32.842  1.00  0.00    -0.203 F 
ATOM     84  C   UNL A   1      49.694  26.062  32.320  1.00  0.00     0.198 A 
ATOM     85  C   UNL A   1      50.504  27.035  30.280  1.00  0.00     0.198 A 
ATOM     86  F   UNL A   1      49.012  28.112  28.817  1.00  0.00    -0.203 F 
ATOM     87  F   UNL A   1      49.929  25.425  33.476  1.00  0.00    -0.200 F 
ATOM     88  C   UNL A   1      50.745  26.352  31.463  1.00  0.00     0.200 A 
ATOM     89  F   UNL A   1      51.516  27.306  29.445  1.00  0.00    -0.200 F 
ATOM     90  F   UNL A   1      51.993  25.980  31.780  1.00  0.00    -0.200 F 
ENDBRANCH  57  80
ENDBRANCH  31  32
ENDBRANCH  23  26
ENDBRANCH  21  22
ENDBRANCH  20  21
ENDBRANCH   1  20
TORSDOF 14
ENDMDL
MODEL 2
REMARK VINA RESULT:      -9.1      4.076      7.130
REMARK SMILES C[C@H]([NH3+])[C@@H](CC(=O)NCCCNC(=O)c1ccc(-c2c3nc(c(-c4c(F)c(F)c(F)c(F)c4F)c4ccc([nH]4)c(-c4c(F)c(F)c(F)c(F)c4F)c4nc(c(-c5c(F)c(F)c(F)c(F)c5F)c5ccc2[nH]5)C=C4)C=C3)cc1)c1ccccc1
REMARK SMILES IDX 9 1 8 2 6 3 7 4 5 6 4 7 2 8 1 9 3 10 78 14 79 15 83 16 80 17
REMARK SMILES IDX 82 18 81 19 10 20 11 21 12 22 13 23 14 25 15 26 16 27 77 28
REMARK SMILES IDX 17 29 76 30 18 31 19 32 20 33 70 34 21 35 75 36 69 37 71 38
REMARK SMILES IDX 22 39 74 40 68 41 67 42 23 44 55 45 35 46 54 47 36 48 39 49
REMARK SMILES IDX 53 50 72 51 37 52 38 53 52 55 73 56 40 57 24 58 25 59 33 60
REMARK SMILES IDX 26 61 27 62 31 63 34 64 28 65 29 66 32 67 30 68 56 69 57 70
REMARK SMILES IDX 65 71 58 72 59 73 63 74 66 75 60 76 61 77 64 78 62 79 41 80
REMARK SMILES IDX 42 81 50 82 43 83 44 84 48 85 51 86 45 87 46 88 49 89 47 90
REMARK H PARENT 8 5 3 11 3 12 3 13 12 24 71 43 39 54
REMARK Flexibility Score: inf
ROOT
ATOM      1  C   UNL A   1      32.318  28.617  23.080  1.00  0.00     0.117 C 
ENDROOT
BRANCH   1   2
ATOM      2  N   UNL A   1      32.813  27.756  22.027  1.00  0.00    -0.356 N 
ATOM      3  C   UNL A   1      33.065  26.425  21.987  1.00  0.00     0.220 C 
ATOM      4  O   UNL A   1      33.273  25.957  20.861  1.00  0.00    -0.275 OA
ATOM      5  H   UNL A   1      33.001  28.225  21.183  1.00  0.00     0.163 HD
BRANCH   3   6
ATOM      6  C   UNL A   1      33.050  25.502  23.200  1.00  0.00     0.114 C 
BRANCH   6   7
ATOM      7  C   UNL A   1      33.546  24.016  23.150  1.00  0.00     0.086 C 
BRANCH   7   8
ATOM      8  C   UNL A   1      32.349  23.013  23.369  1.00  0.00     0.185 C 
ATOM      9  C   UNL A   1      32.338  21.698  22.590  1.00  0.00     0.076 C 
BRANCH   8  10
ATOM     10  N   UNL A   1      31.043  23.657  23.131  1.00  0.00    -0.355 N 
ATOM     11  H   UNL A   1      30.294  23.009  23.377  1.00  0.00     0.344 HD
ATOM     12  H   UNL A   1      30.962  23.910  22.146  1.00  0.00     0.344 HD
ATOM     13  H   UNL A   1      30.968  24.497  23.705  1.00  0.00     0.344 HD
ENDBRANCH   8  10
ENDBRANCH   7   8
BRANCH   7  14
ATOM     14  C   UNL A   1      34.881  23.679  23.839  1.00  0.00    -0.038 A 
ATOM     15  C   UNL A   1      35.178  24.277  25.082  1.00  0.00     0.004 A 
ATOM     16  C   UNL A   1      35.818  22.750  23.370  1.00  0.00     0.004 A 
ATOM     17  C   UNL A   1      36.384  24.049  25.754  1.00  0.00     0.000 A 
ATOM     18  C   UNL A   1      37.013  22.487  24.057  1.00  0.00     0.000 A 
ATOM     19  C   UNL A   1      37.309  23.155  25.236  1.00  0.00     0.000 A 
ENDBRANCH   7  14
ENDBRANCH   6   7
ENDBRANCH   3   6
ENDBRANCH   1   2
BRANCH   1  20
ATOM     20  C   UNL A   1      33.431  29.055  24.031  1.00  0.00     0.042 C 
BRANCH  20  21
ATOM     21  C   UNL A   1      33.040  29.083  25.501  1.00  0.00     0.118 C 
BRANCH  21  22
ATOM     22  N   UNL A   1      32.763  30.427  25.978  1.00  0.00    -0.352 N 
ATOM     23  C   UNL A   1      33.363  31.182  26.955  1.00  0.00     0.251 C 
ATOM     24  H   UNL A   1      32.014  30.875  25.521  1.00  0.00     0.163 HD
ATOM     25  O   UNL A   1      32.813  32.221  27.314  1.00  0.00    -0.269 OA
BRANCH  23  26
ATOM     26  C   UNL A   1      34.645  30.784  27.591  1.00  0.00     0.039 A 
ATOM     27  C   UNL A   1      34.785  29.462  28.032  1.00  0.00     0.014 A 
ATOM     28  C   UNL A   1      35.668  31.697  27.852  1.00  0.00     0.014 A 
ATOM     29  C   UNL A   1      35.944  29.058  28.704  1.00  0.00     0.010 A 
ATOM     30  C   UNL A   1      36.862  31.274  28.434  1.00  0.00     0.010 A 
ATOM     31  C   UNL A   1      36.999  29.960  28.902  1.00  0.00    -0.014 A 
BRANCH  31  32
ATOM     32  C   UNL A   1      38.211  29.574  29.674  1.00  0.00     0.031 A 
ATOM     33  C   UNL A   1      38.426  30.131  31.059  1.00  0.00     0.074 A 
ATOM     34  C   UNL A   1      39.136  28.762  29.127  1.00  0.00     0.049 A 
ATOM     35  N   UNL A   1      39.443  29.979  31.870  1.00  0.00    -0.248 NA
ATOM     36  C   UNL A   1      37.368  31.007  31.590  1.00  0.00     0.031 C 
ATOM     37  C   UNL A   1      39.072  28.189  27.783  1.00  0.00     0.029 A 
ATOM     38  N   UNL A   1      40.319  28.283  29.637  1.00  0.00    -0.354 N 
ATOM     39  C   UNL A   1      39.161  30.759  32.983  1.00  0.00     0.074 A 
ATOM     40  C   UNL A   1      37.904  31.425  32.726  1.00  0.00     0.031 C 
ATOM     41  C   UNL A   1      40.153  27.418  27.582  1.00  0.00     0.029 A 
ATOM     42  C   UNL A   1      41.000  27.465  28.771  1.00  0.00     0.049 A 
ATOM     43  H   UNL A   1      40.646  28.506  30.538  1.00  0.00     0.167 HD
ATOM     44  C   UNL A   1      39.868  30.889  34.131  1.00  0.00     0.037 A 
ATOM     45  C   UNL A   1      42.175  26.822  28.921  1.00  0.00     0.037 A 
ATOM     46  C   UNL A   1      41.092  30.187  34.410  1.00  0.00     0.049 A 
ATOM     47  C   UNL A   1      42.920  26.947  30.222  1.00  0.00     0.074 A 
ATOM     48  C   UNL A   1      41.860  30.208  35.562  1.00  0.00     0.029 A 
ATOM     49  N   UNL A   1      41.721  29.323  33.526  1.00  0.00    -0.354 N 
ATOM     50  N   UNL A   1      42.616  27.647  31.288  1.00  0.00    -0.248 NA
ATOM     51  C   UNL A   1      44.166  26.177  30.347  1.00  0.00     0.031 C 
ATOM     52  C   UNL A   1      42.969  29.379  35.364  1.00  0.00     0.029 A 
ATOM     53  C   UNL A   1      42.869  28.808  34.106  1.00  0.00     0.049 A 
ATOM     54  H   UNL A   1      41.400  29.109  32.620  1.00  0.00     0.167 HD
ATOM     55  C   UNL A   1      43.609  27.376  32.220  1.00  0.00     0.074 A 
ATOM     56  C   UNL A   1      44.521  26.440  31.597  1.00  0.00     0.031 C 
ATOM     57  C   UNL A   1      43.752  27.858  33.479  1.00  0.00     0.037 A 
BRANCH  44  58
ATOM     58  C   UNL A   1      39.328  31.823  35.177  1.00  0.00     0.064 A 
ATOM     59  C   UNL A   1      38.513  31.362  36.223  1.00  0.00     0.173 A 
ATOM     60  C   UNL A   1      39.645  33.188  35.146  1.00  0.00     0.173 A 
ATOM     61  F   UNL A   1      38.170  30.068  36.291  1.00  0.00    -0.203 F 
ATOM     62  C   UNL A   1      38.010  32.240  37.179  1.00  0.00     0.198 A 
ATOM     63  C   UNL A   1      39.165  34.059  36.121  1.00  0.00     0.198 A 
ATOM     64  F   UNL A   1      40.424  33.680  34.171  1.00  0.00    -0.203 F 
ATOM     65  F   UNL A   1      37.188  31.786  38.136  1.00  0.00    -0.200 F 
ATOM     66  C   UNL A   1      38.339  33.586  37.131  1.00  0.00     0.200 A 
ATOM     67  F   UNL A   1      39.495  35.357  36.080  1.00  0.00    -0.200 F 
ATOM     68  F   UNL A   1      37.856  34.429  38.054  1.00  0.00    -0.200 F 
ENDBRANCH  44  58
BRANCH  45  69
ATOM     69  C   UNL A   1      42.696  25.965  27.826  1.00  0.00     0.064 A 
ATOM     70  C   UNL A   1      43.610  26.473  26.890  1.00  0.00     0.173 A 
ATOM     71  C   UNL A   1      42.295  24.629  27.688  1.00  0.00     0.173 A 
ATOM     72  F   UNL A   1      44.007  27.752  26.970  1.00  0.00    -0.203 F 
ATOM     73  C   UNL A   1      44.084  25.683  25.846  1.00  0.00     0.198 A 
ATOM     74  C   UNL A   1      42.791  23.832  26.658  1.00  0.00     0.198 A 
ATOM     75  F   UNL A   1      41.429  24.095  28.561  1.00  0.00    -0.203 F 
ATOM     76  F   UNL A   1      44.921  26.207  24.940  1.00  0.00    -0.200 F 
ATOM     77  C   UNL A   1      43.679  24.362  25.734  1.00  0.00     0.200 A 
ATOM     78  F   UNL A   1      42.408  22.552  26.560  1.00  0.00    -0.200 F 
ATOM     79  F   UNL A   1      44.137  23.601  24.730  1.00  0.00    -0.200 F 
ENDBRANCH  45  69
BRANCH  57  80
ATOM     80  C   UNL A   1      44.902  27.338  34.289  1.00  0.00     0.064 A 
ATOM     81  C   UNL A   1      46.145  27.988  34.305  1.00  0.00     0.173 A 
ATOM     82  C   UNL A   1      44.746  26.195  35.086  1.00  0.00     0.173 A 
ATOM     83  F   UNL A   1      46.349  29.077  33.549  1.00  0.00    -0.203 F 
ATOM     84  C   UNL A   1      47.198  27.494  35.071  1.00  0.00     0.198 A 
ATOM     85  C   UNL A   1      45.792  25.721  35.872  1.00  0.00     0.198 A 
ATOM     86  F   UNL A   1      43.574  25.544  35.111  1.00  0.00    -0.203 F 
ATOM     87  F   UNL A   1      48.392  28.103  35.035  1.00  0.00    -0.200 F 
ATOM     88  C   UNL A   1      47.019  26.366  35.858  1.00  0.00     0.200 A 
ATOM     89  F   UNL A   1      45.613  24.638  36.640  1.00  0.00    -0.200 F 
ATOM     90  F   UNL A   1      48.033  25.895  36.597  1.00  0.00    -0.200 F 
ENDBRANCH  57  80
ENDBRANCH  31  32
ENDBRANCH  23  26
ENDBRANCH  21  22
ENDBRANCH  20  21
ENDBRANCH   1  20
TORSDOF 14
ENDMDL
MODEL 3
REMARK VINA RESULT:      -9.1      4.107      7.688
REMARK SMILES C[C@H]([NH3+])[C@@H](CC(=O)NCCCNC(=O)c1ccc(-c2c3nc(c(-c4c(F)c(F)c(F)c(F)c4F)c4ccc([nH]4)c(-c4c(F)c(F)c(F)c(F)c4F)c4nc(c(-c5c(F)c(F)c(F)c(F)c5F)c5ccc2[nH]5)C=C4)C=C3)cc1)c1ccccc1
REMARK SMILES IDX 9 1 8 2 6 3 7 4 5 6 4 7 2 8 1 9 3 10 78 14 79 15 83 16 80 17
REMARK SMILES IDX 82 18 81 19 10 20 11 21 12 22 13 23 14 25 15 26 16 27 77 28
REMARK SMILES IDX 17 29 76 30 18 31 19 32 20 33 70 34 21 35 75 36 69 37 71 38
REMARK SMILES IDX 22 39 74 40 68 41 67 42 23 44 55 45 35 46 54 47 36 48 39 49
REMARK SMILES IDX 53 50 72 51 37 52 38 53 52 55 73 56 40 57 24 58 25 59 33 60
REMARK SMILES IDX 26 61 27 62 31 63 34 64 28 65 29 66 32 67 30 68 56 69 57 70
REMARK SMILES IDX 65 71 58 72 59 73 63 74 66 75 60 76 61 77 64 78 62 79 41 80
REMARK SMILES IDX 42 81 50 82 43 83 44 84 48 85 51 86 45 87 46 88 49 89 47 90
REMARK H PARENT 8 5 3 11 3 12 3 13 12 24 71 43 39 54
REMARK Flexibility Score: inf
ROOT
ATOM      1  C   UNL A   1      33.329  27.457  24.770  1.00  0.00     0.117 C 
ENDROOT
BRANCH   1   2
ATOM      2  N   UNL A   1      33.729  27.128  23.418  1.00  0.00    -0.356 N 
ATOM      3  C   UNL A   1      33.015  26.792  22.317  1.00  0.00     0.220 C 
ATOM      4  O   UNL A   1      33.647  26.788  21.254  1.00  0.00    -0.275 OA
ATOM      5  H   UNL A   1      34.702  27.155  23.273  1.00  0.00     0.163 HD
BRANCH   3   6
ATOM      6  C   UNL A   1      31.522  26.486  22.312  1.00  0.00     0.114 C 
BRANCH   6   7
ATOM      7  C   UNL A   1      30.531  27.044  23.390  1.00  0.00     0.086 C 
BRANCH   7   8
ATOM      8  C   UNL A   1      29.888  25.871  24.227  1.00  0.00     0.185 C 
ATOM      9  C   UNL A   1      30.164  25.801  25.729  1.00  0.00     0.076 C 
BRANCH   8  10
ATOM     10  N   UNL A   1      30.231  24.549  23.672  1.00  0.00    -0.355 N 
ATOM     11  H   UNL A   1      29.972  23.822  24.339  1.00  0.00     0.344 HD
ATOM     12  H   UNL A   1      31.234  24.504  23.493  1.00  0.00     0.344 HD
ATOM     13  H   UNL A   1      29.724  24.405  22.798  1.00  0.00     0.344 HD
ENDBRANCH   8  10
ENDBRANCH   7   8
BRANCH   7  14
ATOM     14  C   UNL A   1      29.606  28.208  22.987  1.00  0.00    -0.038 A 
ATOM     15  C   UNL A   1      30.163  29.326  22.332  1.00  0.00     0.004 A 
ATOM     16  C   UNL A   1      28.215  28.225  23.148  1.00  0.00     0.004 A 
ATOM     17  C   UNL A   1      29.396  30.438  21.966  1.00  0.00     0.000 A 
ATOM     18  C   UNL A   1      27.434  29.320  22.748  1.00  0.00     0.000 A 
ATOM     19  C   UNL A   1      28.026  30.438  22.181  1.00  0.00     0.000 A 
ENDBRANCH   7  14
ENDBRANCH   6   7
ENDBRANCH   3   6
ENDBRANCH   1   2
BRANCH   1  20
ATOM     20  C   UNL A   1      33.171  28.964  24.970  1.00  0.00     0.042 C 
BRANCH  20  21
ATOM     21  C   UNL A   1      32.552  29.371  26.298  1.00  0.00     0.118 C 
BRANCH  21  22
ATOM     22  N   UNL A   1      32.524  30.811  26.482  1.00  0.00    -0.352 N 
ATOM     23  C   UNL A   1      33.336  31.647  27.209  1.00  0.00     0.251 C 
ATOM     24  H   UNL A   1      31.795  31.269  26.002  1.00  0.00     0.163 HD
ATOM     25  O   UNL A   1      32.983  32.813  27.370  1.00  0.00    -0.269 OA
BRANCH  23  26
ATOM     26  C   UNL A   1      34.617  31.189  27.805  1.00  0.00     0.039 A 
ATOM     27  C   UNL A   1      34.695  29.871  28.276  1.00  0.00     0.014 A 
ATOM     28  C   UNL A   1      35.702  32.044  28.001  1.00  0.00     0.014 A 
ATOM     29  C   UNL A   1      35.854  29.415  28.914  1.00  0.00     0.010 A 
ATOM     30  C   UNL A   1      36.891  31.565  28.549  1.00  0.00     0.010 A 
ATOM     31  C   UNL A   1      36.969  30.256  29.046  1.00  0.00    -0.014 A 
BRANCH  31  32
ATOM     32  C   UNL A   1      38.186  29.818  29.782  1.00  0.00     0.031 A 
ATOM     33  C   UNL A   1      38.436  30.319  31.181  1.00  0.00     0.074 A 
ATOM     34  C   UNL A   1      39.084  29.009  29.188  1.00  0.00     0.049 A 
ATOM     35  N   UNL A   1      39.464  30.116  31.967  1.00  0.00    -0.248 NA
ATOM     36  C   UNL A   1      37.406  31.195  31.764  1.00  0.00     0.031 C 
ATOM     37  C   UNL A   1      38.984  28.488  27.825  1.00  0.00     0.029 A 
ATOM     38  N   UNL A   1      40.265  28.488  29.658  1.00  0.00    -0.354 N 
ATOM     39  C   UNL A   1      39.218  30.860  33.114  1.00  0.00     0.074 A 
ATOM     40  C   UNL A   1      37.971  31.560  32.904  1.00  0.00     0.031 C 
ATOM     41  C   UNL A   1      40.045  27.703  27.576  1.00  0.00     0.029 A 
ATOM     42  C   UNL A   1      40.914  27.688  28.750  1.00  0.00     0.049 A 
ATOM     43  H   UNL A   1      40.612  28.670  30.560  1.00  0.00     0.167 HD
ATOM     44  C   UNL A   1      39.948  30.932  34.253  1.00  0.00     0.037 A 
ATOM     45  C   UNL A   1      42.078  27.017  28.854  1.00  0.00     0.037 A 
ATOM     46  C   UNL A   1      41.161  30.195  34.483  1.00  0.00     0.049 A 
ATOM     47  C   UNL A   1      42.848  27.078  30.146  1.00  0.00     0.074 A 
ATOM     48  C   UNL A   1      41.949  30.158  35.620  1.00  0.00     0.029 A 
ATOM     49  N   UNL A   1      41.757  29.353  33.556  1.00  0.00    -0.354 N 
ATOM     50  N   UNL A   1      42.577  27.744  31.242  1.00  0.00    -0.248 NA
ATOM     51  C   UNL A   1      44.080  26.280  30.219  1.00  0.00     0.031 C 
ATOM     52  C   UNL A   1      43.038  29.315  35.372  1.00  0.00     0.029 A 
ATOM     53  C   UNL A   1      42.903  28.793  34.095  1.00  0.00     0.049 A 
ATOM     54  H   UNL A   1      41.415  29.179  32.649  1.00  0.00     0.167 HD
ATOM     55  C   UNL A   1      43.580  27.418  32.145  1.00  0.00     0.074 A 
ATOM     56  C   UNL A   1      44.462  26.488  31.471  1.00  0.00     0.031 C 
ATOM     57  C   UNL A   1      43.755  27.850  33.418  1.00  0.00     0.037 A 
BRANCH  44  58
ATOM     58  C   UNL A   1      39.445  31.837  35.342  1.00  0.00     0.064 A 
ATOM     59  C   UNL A   1      39.827  33.185  35.412  1.00  0.00     0.173 A 
ATOM     60  C   UNL A   1      38.556  31.357  36.314  1.00  0.00     0.173 A 
ATOM     61  F   UNL A   1      40.686  33.691  34.514  1.00  0.00    -0.203 F 
ATOM     62  C   UNL A   1      39.363  34.010  36.433  1.00  0.00     0.198 A 
ATOM     63  C   UNL A   1      38.069  32.193  37.316  1.00  0.00     0.198 A 
ATOM     64  F   UNL A   1      38.154  30.077  36.290  1.00  0.00    -0.203 F 
ATOM     65  F   UNL A   1      39.786  35.280  36.511  1.00  0.00    -0.200 F 
ATOM     66  C   UNL A   1      38.481  33.515  37.381  1.00  0.00     0.200 A 
ATOM     67  F   UNL A   1      37.206  31.716  38.224  1.00  0.00    -0.200 F 
ATOM     68  F   UNL A   1      38.032  34.312  38.362  1.00  0.00    -0.200 F 
ENDBRANCH  44  58
BRANCH  45  69
ATOM     69  C   UNL A   1      42.561  26.191  27.719  1.00  0.00     0.064 A 
ATOM     70  C   UNL A   1      42.098  24.879  27.538  1.00  0.00     0.173 A 
ATOM     71  C   UNL A   1      43.492  26.688  26.796  1.00  0.00     0.173 A 
ATOM     72  F   UNL A   1      41.222  24.354  28.407  1.00  0.00    -0.203 F 
ATOM     73  C   UNL A   1      42.565  24.089  26.490  1.00  0.00     0.198 A 
ATOM     74  C   UNL A   1      43.940  25.906  25.734  1.00  0.00     0.198 A 
ATOM     75  F   UNL A   1      43.961  27.938  26.922  1.00  0.00    -0.203 F 
ATOM     76  F   UNL A   1      42.140  22.825  26.367  1.00  0.00    -0.200 F 
ATOM     77  C   UNL A   1      43.481  24.605  25.585  1.00  0.00     0.200 A 
ATOM     78  F   UNL A   1      44.814  26.411  24.853  1.00  0.00    -0.200 F 
ATOM     79  F   UNL A   1      43.929  23.846  24.576  1.00  0.00    -0.200 F 
ENDBRANCH  45  69
BRANCH  57  80
ATOM     80  C   UNL A   1      44.909  27.278  34.187  1.00  0.00     0.064 A 
ATOM     81  C   UNL A   1      46.163  27.905  34.211  1.00  0.00     0.173 A 
ATOM     82  C   UNL A   1      44.745  26.104  34.938  1.00  0.00     0.173 A 
ATOM     83  F   UNL A   1      46.373  29.023  33.498  1.00  0.00    -0.203 F 
ATOM     84  C   UNL A   1      47.218  27.362  34.938  1.00  0.00     0.198 A 
ATOM     85  C   UNL A   1      45.794  25.580  35.686  1.00  0.00     0.198 A 
ATOM     86  F   UNL A   1      43.562  25.471  34.953  1.00  0.00    -0.203 F 
ATOM     87  F   UNL A   1      48.422  27.952  34.910  1.00  0.00    -0.200 F 
ATOM     88  C   UNL A   1      47.032  26.205  35.680  1.00  0.00     0.200 A 
ATOM     89  F   UNL A   1      45.609  24.468  36.410  1.00  0.00    -0.200 F 
ATOM     90  F   UNL A   1      48.048  25.686  36.382  1.00  0.00    -0.200 F 
ENDBRANCH  57  80
ENDBRANCH  31  32
ENDBRANCH  23  26
ENDBRANCH  21  22
ENDBRANCH  20  21
ENDBRANCH   1  20
TORSDOF 14
ENDMDL
