MODEL 1
REMARK VINA RESULT:     -13.6      0.000      0.000
REMARK SMILES O=C(NCCCNC(=O)[C@@H]1CC=CC[C@@H]1C(=O)Nc1sc2c(c1C(=O)N1CCCCC1)CCCC2)c1ccc(-c2c3nc(c(-c4c(F)c(F)c(F)c(F)c4F)c4ccc([nH]4)c(-c4c(F)c(F)c(F)c(F)c4F)c4nc(c(-c5c(F)c(F)c(F)c(F)c5F)c5ccc2[nH]5)C=C4)C=C3)cc1
REMARK SMILES IDX 5 1 4 2 3 3 1 4 2 5 36 7 37 8 98 9 38 10 97 11 39 12 40 13
REMARK SMILES IDX 41 14 91 15 42 16 96 17 90 18 92 19 43 20 95 21 89 22 88 23
REMARK SMILES IDX 44 25 76 26 56 27 75 28 57 29 60 30 74 31 93 32 58 33 59 34
REMARK SMILES IDX 73 36 94 37 61 38 45 39 46 40 54 41 47 42 48 43 52 44 55 45
REMARK SMILES IDX 49 46 50 47 53 48 51 49 77 50 78 51 86 52 79 53 80 54 84 55
REMARK SMILES IDX 87 56 81 57 82 58 85 59 83 60 62 61 63 62 71 63 64 64 65 65
REMARK SMILES IDX 69 66 72 67 66 68 67 69 70 70 68 71 6 72 7 73 8 74 9 76
REMARK SMILES IDX 10 77 11 78 15 79 12 80 14 81 13 82 16 83 17 84 18 85 19 87
REMARK SMILES IDX 20 88 23 89 21 90 22 91 35 92 32 93 34 94 33 95 24 96 25 97
REMARK SMILES IDX 26 98 27 99 31 100 28 101 30 102 29 103
REMARK H PARENT 3 6 92 24 60 35 7 75 18 86
REMARK Flexibility Score: inf
ROOT
ATOM      1  C   UNL A   1      38.087  20.012  24.818  1.00  0.00     0.042 C 
ENDROOT
BRANCH   1   2
ATOM      2  C   UNL A   1      39.022  20.199  26.003  1.00  0.00     0.118 C 
BRANCH   2   3
ATOM      3  N   UNL A   1      40.156  19.285  25.969  1.00  0.00    -0.352 N 
ATOM      4  O   UNL A   1      42.315  18.663  25.786  1.00  0.00    -0.269 OA
ATOM      5  C   UNL A   1      41.499  19.547  26.045  1.00  0.00     0.251 C 
ATOM      6  H   UNL A   1      39.921  18.333  25.878  1.00  0.00     0.163 HD
BRANCH   5   7
ATOM      7  C   UNL A   1      41.971  20.894  26.417  1.00  0.00     0.039 A 
ATOM      8  C   UNL A   1      42.092  21.900  25.454  1.00  0.00     0.014 A 
ATOM      9  C   UNL A   1      42.268  21.165  27.755  1.00  0.00     0.014 A 
ATOM     10  C   UNL A   1      42.652  23.124  25.798  1.00  0.00     0.010 A 
ATOM     11  C   UNL A   1      42.736  22.429  28.117  1.00  0.00     0.010 A 
ATOM     12  C   UNL A   1      42.955  23.410  27.136  1.00  0.00    -0.014 A 
BRANCH  12  13
ATOM     13  C   UNL A   1      43.427  24.763  27.511  1.00  0.00     0.031 A 
ATOM     14  C   UNL A   1      42.485  25.777  28.087  1.00  0.00     0.074 A 
ATOM     15  C   UNL A   1      44.717  25.080  27.294  1.00  0.00     0.049 A 
ATOM     16  N   UNL A   1      42.706  27.031  28.394  1.00  0.00    -0.248 NA
ATOM     17  C   UNL A   1      41.108  25.329  28.343  1.00  0.00     0.031 C 
ATOM     18  C   UNL A   1      45.720  24.174  26.730  1.00  0.00     0.029 A 
ATOM     19  N   UNL A   1      45.404  26.247  27.506  1.00  0.00    -0.354 N 
ATOM     20  C   UNL A   1      41.494  27.528  28.853  1.00  0.00     0.074 A 
ATOM     21  C   UNL A   1      40.534  26.448  28.759  1.00  0.00     0.031 C 
ATOM     22  C   UNL A   1      46.893  24.815  26.648  1.00  0.00     0.029 A 
ATOM     23  C   UNL A   1      46.708  26.193  27.084  1.00  0.00     0.049 A 
ATOM     24  H   UNL A   1      45.002  27.044  27.920  1.00  0.00     0.167 HD
ATOM     25  C   UNL A   1      41.216  28.773  29.312  1.00  0.00     0.037 A 
ATOM     26  C   UNL A   1      47.644  27.157  27.012  1.00  0.00     0.037 A 
ATOM     27  C   UNL A   1      42.186  29.835  29.399  1.00  0.00     0.049 A 
ATOM     28  C   UNL A   1      47.303  28.541  27.485  1.00  0.00     0.074 A 
ATOM     29  C   UNL A   1      42.022  31.116  29.896  1.00  0.00     0.029 A 
ATOM     30  N   UNL A   1      43.501  29.745  28.959  1.00  0.00    -0.354 N 
ATOM     31  N   UNL A   1      46.169  28.990  27.964  1.00  0.00    -0.248 NA
ATOM     32  C   UNL A   1      48.368  29.549  27.411  1.00  0.00     0.031 C 
ATOM     33  C   UNL A   1      43.213  31.820  29.692  1.00  0.00     0.029 A 
ATOM     34  C   UNL A   1      44.146  30.958  29.137  1.00  0.00     0.049 A 
ATOM     35  H   UNL A   1      43.913  28.936  28.576  1.00  0.00     0.167 HD
ATOM     36  C   UNL A   1      46.386  30.326  28.270  1.00  0.00     0.074 A 
ATOM     37  C   UNL A   1      47.766  30.611  27.928  1.00  0.00     0.031 C 
ATOM     38  C   UNL A   1      45.521  31.228  28.793  1.00  0.00     0.037 A 
BRANCH  25  39
ATOM     39  C   UNL A   1      39.796  29.064  29.714  1.00  0.00     0.064 A 
ATOM     40  C   UNL A   1      39.333  28.859  31.022  1.00  0.00     0.173 A 
ATOM     41  C   UNL A   1      38.886  29.568  28.771  1.00  0.00     0.173 A 
ATOM     42  F   UNL A   1      40.158  28.372  31.962  1.00  0.00    -0.203 F 
ATOM     43  C   UNL A   1      38.004  29.099  31.360  1.00  0.00     0.198 A 
ATOM     44  C   UNL A   1      37.566  29.844  29.122  1.00  0.00     0.198 A 
ATOM     45  F   UNL A   1      39.273  29.796  27.508  1.00  0.00    -0.203 F 
ATOM     46  F   UNL A   1      37.569  28.829  32.599  1.00  0.00    -0.200 F 
ATOM     47  C   UNL A   1      37.122  29.597  30.412  1.00  0.00     0.200 A 
ATOM     48  F   UNL A   1      36.721  30.340  28.208  1.00  0.00    -0.200 F 
ATOM     49  F   UNL A   1      35.843  29.825  30.738  1.00  0.00    -0.200 F 
ENDBRANCH  25  39
BRANCH  26  50
ATOM     50  C   UNL A   1      48.976  26.828  26.446  1.00  0.00     0.064 A 
ATOM     51  C   UNL A   1      49.976  26.246  27.234  1.00  0.00     0.173 A 
ATOM     52  C   UNL A   1      49.251  27.032  25.084  1.00  0.00     0.173 A 
ATOM     53  F   UNL A   1      49.765  26.045  28.542  1.00  0.00    -0.203 F 
ATOM     54  C   UNL A   1      51.204  25.884  26.683  1.00  0.00     0.198 A 
ATOM     55  C   UNL A   1      50.466  26.640  24.528  1.00  0.00     0.198 A 
ATOM     56  F   UNL A   1      48.321  27.574  24.285  1.00  0.00    -0.203 F 
ATOM     57  F   UNL A   1      52.154  25.353  27.463  1.00  0.00    -0.200 F 
ATOM     58  C   UNL A   1      51.443  26.070  25.329  1.00  0.00     0.200 A 
ATOM     59  F   UNL A   1      50.683  26.802  23.215  1.00  0.00    -0.200 F 
ATOM     60  F   UNL A   1      52.616  25.701  24.796  1.00  0.00    -0.200 F 
ENDBRANCH  26  50
BRANCH  38  61
ATOM     61  C   UNL A   1      46.043  32.608  29.070  1.00  0.00     0.064 A 
ATOM     62  C   UNL A   1      46.692  32.927  30.272  1.00  0.00     0.173 A 
ATOM     63  C   UNL A   1      45.958  33.605  28.084  1.00  0.00     0.173 A 
ATOM     64  F   UNL A   1      46.782  32.016  31.252  1.00  0.00    -0.203 F 
ATOM     65  C   UNL A   1      47.228  34.195  30.480  1.00  0.00     0.198 A 
ATOM     66  C   UNL A   1      46.524  34.860  28.284  1.00  0.00     0.198 A 
ATOM     67  F   UNL A   1      45.351  33.349  26.916  1.00  0.00    -0.203 F 
ATOM     68  F   UNL A   1      47.815  34.489  31.649  1.00  0.00    -0.200 F 
ATOM     69  C   UNL A   1      47.155  35.155  29.482  1.00  0.00     0.200 A 
ATOM     70  F   UNL A   1      46.466  35.781  27.311  1.00  0.00    -0.200 F 
ATOM     71  F   UNL A   1      47.693  36.368  29.675  1.00  0.00    -0.200 F 
ENDBRANCH  38  61
ENDBRANCH  12  13
ENDBRANCH   5   7
ENDBRANCH   2   3
ENDBRANCH   1   2
BRANCH   1  72
ATOM     72  C   UNL A   1      36.729  20.670  25.001  1.00  0.00     0.117 C 
BRANCH  72  73
ATOM     73  N   UNL A   1      36.581  21.850  24.169  1.00  0.00    -0.356 N 
ATOM     74  C   UNL A   1      35.464  22.574  23.872  1.00  0.00     0.224 C 
ATOM     75  H   UNL A   1      37.412  22.178  23.757  1.00  0.00     0.163 HD
ATOM     76  O   UNL A   1      35.536  23.370  22.937  1.00  0.00    -0.275 OA
BRANCH  74  77
ATOM     77  C   UNL A   1      34.181  22.297  24.640  1.00  0.00     0.095 C 
ATOM     78  C   UNL A   1      33.432  21.080  24.060  1.00  0.00     0.041 C 
ATOM     79  C   UNL A   1      33.240  23.526  24.784  1.00  0.00     0.095 C 
ATOM     80  C   UNL A   1      32.087  20.874  24.697  1.00  0.00    -0.030 C 
ATOM     81  C   UNL A   1      32.132  23.117  25.781  1.00  0.00     0.041 C 
ATOM     82  C   UNL A   1      31.514  21.783  25.497  1.00  0.00    -0.030 C 
BRANCH  79  83
ATOM     83  C   UNL A   1      32.731  24.043  23.424  1.00  0.00     0.229 C 
ATOM     84  O   UNL A   1      32.507  23.265  22.492  1.00  0.00    -0.274 OA
ATOM     85  N   UNL A   1      32.499  25.368  23.179  1.00  0.00    -0.317 N 
ATOM     86  H   UNL A   1      32.056  25.561  22.322  1.00  0.00     0.170 HD
BRANCH  85  87
ATOM     87  C   UNL A   1      32.792  26.473  23.946  1.00  0.00     0.108 A 
ATOM     88  S   UNL A   1      34.153  26.436  24.958  1.00  0.00    -0.122 S 
ATOM     89  C   UNL A   1      32.118  27.692  23.950  1.00  0.00     0.078 A 
ATOM     90  C   UNL A   1      33.711  27.903  25.675  1.00  0.00     0.011 A 
ATOM     91  C   UNL A   1      32.661  28.527  25.018  1.00  0.00    -0.019 A 
ATOM     92  C   UNL A   1      34.434  28.426  26.878  1.00  0.00     0.047 C 
ATOM     93  C   UNL A   1      32.170  29.864  25.493  1.00  0.00     0.037 C 
ATOM     94  C   UNL A   1      33.614  29.529  27.557  1.00  0.00     0.006 C 
ATOM     95  C   UNL A   1      33.092  30.527  26.526  1.00  0.00     0.005 C 
BRANCH  89  96
ATOM     96  C   UNL A   1      30.937  27.878  23.073  1.00  0.00     0.257 C 
ATOM     97  O   UNL A   1      30.840  27.305  21.987  1.00  0.00    -0.269 OA
ATOM     98  N   UNL A   1      29.861  28.583  23.593  1.00  0.00    -0.339 N 
ATOM     99  C   UNL A   1      28.578  27.898  23.698  1.00  0.00     0.120 C 
ATOM    100  C   UNL A   1      29.833  30.037  23.515  1.00  0.00     0.120 C 
ATOM    101  C   UNL A   1      27.537  28.423  22.712  1.00  0.00     0.022 C 
ATOM    102  C   UNL A   1      28.805  30.561  22.516  1.00  0.00     0.022 C 
ATOM    103  C   UNL A   1      27.436  29.943  22.786  1.00  0.00     0.004 C 
ENDBRANCH  89  96
ENDBRANCH  85  87
ENDBRANCH  79  83
ENDBRANCH  74  77
ENDBRANCH  72  73
ENDBRANCH   1  72
TORSDOF 13
ENDMDL
MODEL 2
REMARK VINA RESULT:     -13.3      9.262     16.082
REMARK SMILES O=C(NCCCNC(=O)[C@@H]1CC=CC[C@@H]1C(=O)Nc1sc2c(c1C(=O)N1CCCCC1)CCCC2)c1ccc(-c2c3nc(c(-c4c(F)c(F)c(F)c(F)c4F)c4ccc([nH]4)c(-c4c(F)c(F)c(F)c(F)c4F)c4nc(c(-c5c(F)c(F)c(F)c(F)c5F)c5ccc2[nH]5)C=C4)C=C3)cc1
REMARK SMILES IDX 5 1 4 2 3 3 1 4 2 5 36 7 37 8 98 9 38 10 97 11 39 12 40 13
REMARK SMILES IDX 41 14 91 15 42 16 96 17 90 18 92 19 43 20 95 21 89 22 88 23
REMARK SMILES IDX 44 25 76 26 56 27 75 28 57 29 60 30 74 31 93 32 58 33 59 34
REMARK SMILES IDX 73 36 94 37 61 38 45 39 46 40 54 41 47 42 48 43 52 44 55 45
REMARK SMILES IDX 49 46 50 47 53 48 51 49 77 50 78 51 86 52 79 53 80 54 84 55
REMARK SMILES IDX 87 56 81 57 82 58 85 59 83 60 62 61 63 62 71 63 64 64 65 65
REMARK SMILES IDX 69 66 72 67 66 68 67 69 70 70 68 71 6 72 7 73 8 74 9 76
REMARK SMILES IDX 10 77 11 78 15 79 12 80 14 81 13 82 16 83 17 84 18 85 19 87
REMARK SMILES IDX 20 88 23 89 21 90 22 91 35 92 32 93 34 94 33 95 24 96 25 97
REMARK SMILES IDX 26 98 27 99 31 100 28 101 30 102 29 103
REMARK H PARENT 3 6 92 24 60 35 7 75 18 86
REMARK Flexibility Score: inf
ROOT
ATOM      1  C   UNL A   1      46.048  25.893  39.923  1.00  0.00     0.042 C 
ENDROOT
BRANCH   1   2
ATOM      2  C   UNL A   1      46.555  26.919  38.921  1.00  0.00     0.118 C 
BRANCH   2   3
ATOM      3  N   UNL A   1      47.532  26.360  37.996  1.00  0.00    -0.352 N 
ATOM      4  O   UNL A   1      48.286  25.435  36.084  1.00  0.00    -0.269 OA
ATOM      5  C   UNL A   1      47.426  26.106  36.653  1.00  0.00     0.251 C 
ATOM      6  H   UNL A   1      48.401  26.130  38.397  1.00  0.00     0.163 HD
BRANCH   5   7
ATOM      7  C   UNL A   1      46.272  26.619  35.891  1.00  0.00     0.039 A 
ATOM      8  C   UNL A   1      45.091  25.877  35.799  1.00  0.00     0.014 A 
ATOM      9  C   UNL A   1      46.361  27.874  35.284  1.00  0.00     0.014 A 
ATOM     10  C   UNL A   1      44.059  26.317  34.978  1.00  0.00     0.010 A 
ATOM     11  C   UNL A   1      45.284  28.361  34.542  1.00  0.00     0.010 A 
ATOM     12  C   UNL A   1      44.135  27.574  34.364  1.00  0.00    -0.014 A 
BRANCH  12  13
ATOM     13  C   UNL A   1      42.975  28.090  33.599  1.00  0.00     0.031 A 
ATOM     14  C   UNL A   1      42.797  27.756  32.148  1.00  0.00     0.074 A 
ATOM     15  C   UNL A   1      42.097  28.895  34.224  1.00  0.00     0.049 A 
ATOM     16  N   UNL A   1      41.891  28.186  31.306  1.00  0.00    -0.248 NA
ATOM     17  C   UNL A   1      43.772  26.826  31.560  1.00  0.00     0.031 C 
ATOM     18  C   UNL A   1      42.178  29.294  35.632  1.00  0.00     0.029 A 
ATOM     19  N   UNL A   1      40.976  29.535  33.761  1.00  0.00    -0.354 N 
ATOM     20  C   UNL A   1      42.200  27.602  30.086  1.00  0.00     0.074 A 
ATOM     21  C   UNL A   1      43.394  26.807  30.290  1.00  0.00     0.031 C 
ATOM     22  C   UNL A   1      41.148  30.101  35.919  1.00  0.00     0.029 A 
ATOM     23  C   UNL A   1      40.379  30.334  34.703  1.00  0.00     0.049 A 
ATOM     24  H   UNL A   1      40.634  29.430  32.845  1.00  0.00     0.167 HD
ATOM     25  C   UNL A   1      41.541  27.718  28.907  1.00  0.00     0.037 A 
ATOM     26  C   UNL A   1      39.352  31.197  34.593  1.00  0.00     0.037 A 
ATOM     27  C   UNL A   1      40.354  28.514  28.724  1.00  0.00     0.049 A 
ATOM     28  C   UNL A   1      38.664  31.345  33.268  1.00  0.00     0.074 A 
ATOM     29  C   UNL A   1      39.580  28.660  27.585  1.00  0.00     0.029 A 
ATOM     30  N   UNL A   1      39.777  29.314  29.702  1.00  0.00    -0.354 N 
ATOM     31  N   UNL A   1      38.931  30.750  32.131  1.00  0.00    -0.248 NA
ATOM     32  C   UNL A   1      37.532  32.278  33.208  1.00  0.00     0.031 C 
ATOM     33  C   UNL A   1      38.581  29.601  27.853  1.00  0.00     0.029 A 
ATOM     34  C   UNL A   1      38.683  29.987  29.182  1.00  0.00     0.049 A 
ATOM     35  H   UNL A   1      40.100  29.392  30.629  1.00  0.00     0.167 HD
ATOM     36  C   UNL A   1      37.990  31.218  31.224  1.00  0.00     0.074 A 
ATOM     37  C   UNL A   1      37.140  32.142  31.949  1.00  0.00     0.031 C 
ATOM     38  C   UNL A   1      37.843  30.903  29.915  1.00  0.00     0.037 A 
BRANCH  25  39
ATOM     39  C   UNL A   1      42.117  27.004  27.716  1.00  0.00     0.064 A 
ATOM     40  C   UNL A   1      41.748  25.692  27.382  1.00  0.00     0.173 A 
ATOM     41  C   UNL A   1      43.049  27.651  26.887  1.00  0.00     0.173 A 
ATOM     42  F   UNL A   1      40.868  25.024  28.142  1.00  0.00    -0.203 F 
ATOM     43  C   UNL A   1      42.325  25.038  26.295  1.00  0.00     0.198 A 
ATOM     44  C   UNL A   1      43.595  27.007  25.780  1.00  0.00     0.198 A 
ATOM     45  F   UNL A   1      43.431  28.909  27.150  1.00  0.00    -0.203 F 
ATOM     46  F   UNL A   1      42.008  23.762  26.038  1.00  0.00    -0.200 F 
ATOM     47  C   UNL A   1      43.244  25.697  25.492  1.00  0.00     0.200 A 
ATOM     48  F   UNL A   1      44.470  27.652  24.996  1.00  0.00    -0.200 F 
ATOM     49  F   UNL A   1      43.800  25.066  24.449  1.00  0.00    -0.200 F 
ENDBRANCH  25  39
BRANCH  26  50
ATOM     50  C   UNL A   1      38.949  31.992  35.780  1.00  0.00     0.064 A 
ATOM     51  C   UNL A   1      38.162  31.434  36.794  1.00  0.00     0.173 A 
ATOM     52  C   UNL A   1      39.400  33.311  35.951  1.00  0.00     0.173 A 
ATOM     53  F   UNL A   1      37.697  30.183  36.668  1.00  0.00    -0.203 F 
ATOM     54  C   UNL A   1      37.836  32.165  37.934  1.00  0.00     0.198 A 
ATOM     55  C   UNL A   1      39.100  34.029  37.106  1.00  0.00     0.198 A 
ATOM     56  F   UNL A   1      40.167  33.886  35.014  1.00  0.00    -0.203 F 
ATOM     57  F   UNL A   1      37.060  31.618  38.879  1.00  0.00    -0.200 F 
ATOM     58  C   UNL A   1      38.315  33.458  38.095  1.00  0.00     0.200 A 
ATOM     59  F   UNL A   1      39.584  35.270  37.265  1.00  0.00    -0.200 F 
ATOM     60  F   UNL A   1      38.019  34.153  39.202  1.00  0.00    -0.200 F 
ENDBRANCH  26  50
BRANCH  38  61
ATOM     61  C   UNL A   1      36.696  31.529  29.176  1.00  0.00     0.064 A 
ATOM     62  C   UNL A   1      35.563  30.790  28.805  1.00  0.00     0.173 A 
ATOM     63  C   UNL A   1      36.700  32.906  28.905  1.00  0.00     0.173 A 
ATOM     64  F   UNL A   1      35.518  29.467  29.025  1.00  0.00    -0.203 F 
ATOM     65  C   UNL A   1      34.481  31.405  28.181  1.00  0.00     0.198 A 
ATOM     66  C   UNL A   1      35.604  33.523  28.310  1.00  0.00     0.198 A 
ATOM     67  F   UNL A   1      37.758  33.659  29.243  1.00  0.00    -0.203 F 
ATOM     68  F   UNL A   1      33.423  30.675  27.804  1.00  0.00    -0.200 F 
ATOM     69  C   UNL A   1      34.498  32.772  27.946  1.00  0.00     0.200 A 
ATOM     70  F   UNL A   1      35.615  34.847  28.099  1.00  0.00    -0.200 F 
ATOM     71  F   UNL A   1      33.445  33.367  27.366  1.00  0.00    -0.200 F 
ENDBRANCH  38  61
ENDBRANCH  12  13
ENDBRANCH   5   7
ENDBRANCH   2   3
ENDBRANCH   1   2
BRANCH   1  72
ATOM     72  C   UNL A   1      45.047  24.909  39.339  1.00  0.00     0.117 C 
BRANCH  72  73
ATOM     73  N   UNL A   1      45.003  23.669  40.092  1.00  0.00    -0.356 N 
ATOM     74  C   UNL A   1      45.535  22.448  39.795  1.00  0.00     0.224 C 
ATOM     75  H   UNL A   1      44.516  23.715  40.945  1.00  0.00     0.163 HD
ATOM     76  O   UNL A   1      45.143  21.485  40.451  1.00  0.00    -0.275 OA
BRANCH  74  77
ATOM     77  C   UNL A   1      46.501  22.331  38.627  1.00  0.00     0.095 C 
ATOM     78  C   UNL A   1      45.781  22.549  37.280  1.00  0.00     0.041 C 
ATOM     79  C   UNL A   1      47.339  21.021  38.616  1.00  0.00     0.095 C 
ATOM     80  C   UNL A   1      46.675  22.288  36.101  1.00  0.00    -0.030 C 
ATOM     81  C   UNL A   1      48.410  21.195  37.515  1.00  0.00     0.041 C 
ATOM     82  C   UNL A   1      47.874  21.702  36.212  1.00  0.00    -0.030 C 
BRANCH  79  83
ATOM     83  C   UNL A   1      46.463  19.760  38.477  1.00  0.00     0.229 C 
ATOM     84  O   UNL A   1      45.796  19.559  37.458  1.00  0.00    -0.274 OA
ATOM     85  N   UNL A   1      46.382  18.808  39.455  1.00  0.00    -0.317 N 
ATOM     86  H   UNL A   1      45.896  17.991  39.200  1.00  0.00     0.170 HD
BRANCH  85  87
ATOM     87  C   UNL A   1      46.875  18.817  40.740  1.00  0.00     0.108 A 
ATOM     88  S   UNL A   1      48.463  19.351  41.009  1.00  0.00    -0.122 S 
ATOM     89  C   UNL A   1      46.184  18.488  41.904  1.00  0.00     0.078 A 
ATOM     90  C   UNL A   1      48.398  18.858  42.626  1.00  0.00     0.011 A 
ATOM     91  C   UNL A   1      47.122  18.485  43.023  1.00  0.00    -0.019 A 
ATOM     92  C   UNL A   1      49.623  18.869  43.489  1.00  0.00     0.047 C 
ATOM     93  C   UNL A   1      46.874  18.063  44.443  1.00  0.00     0.037 C 
ATOM     94  C   UNL A   1      49.397  18.025  44.749  1.00  0.00     0.006 C 
ATOM     95  C   UNL A   1      48.049  18.356  45.387  1.00  0.00     0.005 C 
BRANCH  89  96
ATOM     96  C   UNL A   1      44.770  18.052  41.818  1.00  0.00     0.257 C 
ATOM     97  O   UNL A   1      43.849  18.862  41.701  1.00  0.00    -0.269 OA
ATOM     98  N   UNL A   1      44.527  16.692  41.697  1.00  0.00    -0.339 N 
ATOM     99  C   UNL A   1      43.829  16.222  40.506  1.00  0.00     0.120 C 
ATOM    100  C   UNL A   1      44.450  15.855  42.885  1.00  0.00     0.120 C 
ATOM    101  C   UNL A   1      42.414  15.730  40.797  1.00  0.00     0.022 C 
ATOM    102  C   UNL A   1      43.032  15.377  43.187  1.00  0.00     0.022 C 
ATOM    103  C   UNL A   1      42.412  14.732  41.951  1.00  0.00     0.004 C 
ENDBRANCH  89  96
ENDBRANCH  85  87
ENDBRANCH  79  83
ENDBRANCH  74  77
ENDBRANCH  72  73
ENDBRANCH   1  72
TORSDOF 13
ENDMDL
MODEL 3
REMARK VINA RESULT:     -13.3      1.492      2.367
REMARK SMILES O=C(NCCCNC(=O)[C@@H]1CC=CC[C@@H]1C(=O)Nc1sc2c(c1C(=O)N1CCCCC1)CCCC2)c1ccc(-c2c3nc(c(-c4c(F)c(F)c(F)c(F)c4F)c4ccc([nH]4)c(-c4c(F)c(F)c(F)c(F)c4F)c4nc(c(-c5c(F)c(F)c(F)c(F)c5F)c5ccc2[nH]5)C=C4)C=C3)cc1
REMARK SMILES IDX 5 1 4 2 3 3 1 4 2 5 36 7 37 8 98 9 38 10 97 11 39 12 40 13
REMARK SMILES IDX 41 14 91 15 42 16 96 17 90 18 92 19 43 20 95 21 89 22 88 23
REMARK SMILES IDX 44 25 76 26 56 27 75 28 57 29 60 30 74 31 93 32 58 33 59 34
REMARK SMILES IDX 73 36 94 37 61 38 45 39 46 40 54 41 47 42 48 43 52 44 55 45
REMARK SMILES IDX 49 46 50 47 53 48 51 49 77 50 78 51 86 52 79 53 80 54 84 55
REMARK SMILES IDX 87 56 81 57 82 58 85 59 83 60 62 61 63 62 71 63 64 64 65 65
REMARK SMILES IDX 69 66 72 67 66 68 67 69 70 70 68 71 6 72 7 73 8 74 9 76
REMARK SMILES IDX 10 77 11 78 15 79 12 80 14 81 13 82 16 83 17 84 18 85 19 87
REMARK SMILES IDX 20 88 23 89 21 90 22 91 35 92 32 93 34 94 33 95 24 96 25 97
REMARK SMILES IDX 26 98 27 99 31 100 28 101 30 102 29 103
REMARK H PARENT 3 6 92 24 60 35 7 75 18 86
REMARK Flexibility Score: inf
ROOT
ATOM      1  C   UNL A   1      36.908  22.036  25.886  1.00  0.00     0.042 C 
ENDROOT
BRANCH   1   2
ATOM      2  C   UNL A   1      38.283  21.709  25.324  1.00  0.00     0.118 C 
BRANCH   2   3
ATOM      3  N   UNL A   1      38.998  20.729  26.131  1.00  0.00    -0.352 N 
ATOM      4  O   UNL A   1      40.712  19.874  27.319  1.00  0.00    -0.269 OA
ATOM      5  C   UNL A   1      40.140  20.869  26.875  1.00  0.00     0.251 C 
ATOM      6  H   UNL A   1      38.599  19.829  26.144  1.00  0.00     0.163 HD
BRANCH   5   7
ATOM      7  C   UNL A   1      40.700  22.211  27.128  1.00  0.00     0.039 A 
ATOM      8  C   UNL A   1      41.553  22.436  28.211  1.00  0.00     0.014 A 
ATOM      9  C   UNL A   1      40.388  23.253  26.251  1.00  0.00     0.014 A 
ATOM     10  C   UNL A   1      41.973  23.727  28.506  1.00  0.00     0.010 A 
ATOM     11  C   UNL A   1      40.894  24.532  26.491  1.00  0.00     0.010 A 
ATOM     12  C   UNL A   1      41.670  24.782  27.635  1.00  0.00    -0.014 A 
BRANCH  12  13
ATOM     13  C   UNL A   1      42.232  26.130  27.887  1.00  0.00     0.031 A 
ATOM     14  C   UNL A   1      41.427  27.184  28.586  1.00  0.00     0.074 A 
ATOM     15  C   UNL A   1      43.474  26.403  27.447  1.00  0.00     0.049 A 
ATOM     16  N   UNL A   1      41.727  28.437  28.816  1.00  0.00    -0.248 NA
ATOM     17  C   UNL A   1      40.103  26.782  29.083  1.00  0.00     0.031 C 
ATOM     18  C   UNL A   1      44.344  25.456  26.747  1.00  0.00     0.029 A 
ATOM     19  N   UNL A   1      44.216  27.555  27.507  1.00  0.00    -0.354 N 
ATOM     20  C   UNL A   1      40.624  28.981  29.459  1.00  0.00     0.074 A 
ATOM     21  C   UNL A   1      39.635  27.927  29.559  1.00  0.00     0.031 C 
ATOM     22  C   UNL A   1      45.502  26.061  26.450  1.00  0.00     0.029 A 
ATOM     23  C   UNL A   1      45.428  27.453  26.873  1.00  0.00     0.049 A 
ATOM     24  H   UNL A   1      43.909  28.373  27.961  1.00  0.00     0.167 HD
ATOM     25  C   UNL A   1      40.459  30.243  29.924  1.00  0.00     0.037 A 
ATOM     26  C   UNL A   1      46.362  28.388  26.618  1.00  0.00     0.037 A 
ATOM     27  C   UNL A   1      41.456  31.277  29.816  1.00  0.00     0.049 A 
ATOM     28  C   UNL A   1      46.141  29.791  27.102  1.00  0.00     0.074 A 
ATOM     29  C   UNL A   1      41.410  32.574  30.299  1.00  0.00     0.029 A 
ATOM     30  N   UNL A   1      42.674  31.139  29.163  1.00  0.00    -0.354 N 
ATOM     31  N   UNL A   1      45.115  30.284  27.754  1.00  0.00    -0.248 NA
ATOM     32  C   UNL A   1      47.202  30.766  26.822  1.00  0.00     0.031 C 
ATOM     33  C   UNL A   1      42.566  33.239  29.877  1.00  0.00     0.029 A 
ATOM     34  C   UNL A   1      43.370  32.337  29.196  1.00  0.00     0.049 A 
ATOM     35  H   UNL A   1      42.996  30.310  28.739  1.00  0.00     0.167 HD
ATOM     36  C   UNL A   1      45.415  31.620  27.981  1.00  0.00     0.074 A 
ATOM     37  C   UNL A   1      46.723  31.856  27.403  1.00  0.00     0.031 C 
ATOM     38  C   UNL A   1      44.673  32.559  28.618  1.00  0.00     0.037 A 
BRANCH  25  39
ATOM     39  C   UNL A   1      39.136  30.585  30.551  1.00  0.00     0.064 A 
ATOM     40  C   UNL A   1      38.042  31.028  29.792  1.00  0.00     0.173 A 
ATOM     41  C   UNL A   1      38.957  30.456  31.938  1.00  0.00     0.173 A 
ATOM     42  F   UNL A   1      38.158  31.177  28.463  1.00  0.00    -0.203 F 
ATOM     43  C   UNL A   1      36.838  31.375  30.401  1.00  0.00     0.198 A 
ATOM     44  C   UNL A   1      37.740  30.769  32.539  1.00  0.00     0.198 A 
ATOM     45  F   UNL A   1      39.963  30.026  32.714  1.00  0.00    -0.203 F 
ATOM     46  F   UNL A   1      35.831  31.862  29.662  1.00  0.00    -0.200 F 
ATOM     47  C   UNL A   1      36.686  31.241  31.773  1.00  0.00     0.200 A 
ATOM     48  F   UNL A   1      37.591  30.621  33.862  1.00  0.00    -0.200 F 
ATOM     49  F   UNL A   1      35.528  31.578  32.357  1.00  0.00    -0.200 F 
ENDBRANCH  25  39
BRANCH  26  50
ATOM     50  C   UNL A   1      47.570  28.006  25.843  1.00  0.00     0.064 A 
ATOM     51  C   UNL A   1      48.771  27.684  26.486  1.00  0.00     0.173 A 
ATOM     52  C   UNL A   1      47.525  27.897  24.444  1.00  0.00     0.173 A 
ATOM     53  F   UNL A   1      48.866  27.787  27.819  1.00  0.00    -0.203 F 
ATOM     54  C   UNL A   1      49.884  27.269  25.758  1.00  0.00     0.198 A 
ATOM     55  C   UNL A   1      48.628  27.451  23.721  1.00  0.00     0.198 A 
ATOM     56  F   UNL A   1      46.393  28.183  23.784  1.00  0.00    -0.203 F 
ATOM     57  F   UNL A   1      51.031  26.991  26.393  1.00  0.00    -0.200 F 
ATOM     58  C   UNL A   1      49.809  27.142  24.378  1.00  0.00     0.200 A 
ATOM     59  F   UNL A   1      48.542  27.310  22.391  1.00  0.00    -0.200 F 
ATOM     60  F   UNL A   1      50.874  26.722  23.681  1.00  0.00    -0.200 F 
ENDBRANCH  26  50
BRANCH  38  61
ATOM     61  C   UNL A   1      45.269  33.929  28.764  1.00  0.00     0.064 A 
ATOM     62  C   UNL A   1      45.031  34.944  27.826  1.00  0.00     0.173 A 
ATOM     63  C   UNL A   1      46.028  34.249  29.902  1.00  0.00     0.173 A 
ATOM     64  F   UNL A   1      44.329  34.683  26.714  1.00  0.00    -0.203 F 
ATOM     65  C   UNL A   1      45.538  36.227  28.017  1.00  0.00     0.198 A 
ATOM     66  C   UNL A   1      46.505  35.540  30.104  1.00  0.00     0.198 A 
ATOM     67  F   UNL A   1      46.281  33.315  30.831  1.00  0.00    -0.203 F 
ATOM     68  F   UNL A   1      45.328  37.173  27.092  1.00  0.00    -0.200 F 
ATOM     69  C   UNL A   1      46.263  36.526  29.161  1.00  0.00     0.200 A 
ATOM     70  F   UNL A   1      47.192  35.832  31.218  1.00  0.00    -0.200 F 
ATOM     71  F   UNL A   1      46.731  37.768  29.354  1.00  0.00    -0.200 F 
ENDBRANCH  38  61
ENDBRANCH  12  13
ENDBRANCH   5   7
ENDBRANCH   2   3
ENDBRANCH   1   2
BRANCH   1  72
ATOM     72  C   UNL A   1      36.480  23.476  25.656  1.00  0.00     0.117 C 
BRANCH  72  73
ATOM     73  N   UNL A   1      36.037  23.699  24.293  1.00  0.00    -0.356 N 
ATOM     74  C   UNL A   1      34.836  23.418  23.708  1.00  0.00     0.224 C 
ATOM     75  H   UNL A   1      36.701  24.117  23.700  1.00  0.00     0.163 HD
ATOM     76  O   UNL A   1      34.783  23.450  22.480  1.00  0.00    -0.275 OA
BRANCH  74  77
ATOM     77  C   UNL A   1      33.670  22.996  24.588  1.00  0.00     0.095 C 
ATOM     78  C   UNL A   1      32.934  21.776  23.996  1.00  0.00     0.041 C 
ATOM     79  C   UNL A   1      32.679  24.143  24.933  1.00  0.00     0.095 C 
ATOM     80  C   UNL A   1      31.687  21.430  24.759  1.00  0.00    -0.030 C 
ATOM     81  C   UNL A   1      31.720  23.585  26.010  1.00  0.00     0.041 C 
ATOM     82  C   UNL A   1      31.155  22.236  25.688  1.00  0.00    -0.030 C 
BRANCH  79  83
ATOM     83  C   UNL A   1      31.986  24.722  23.684  1.00  0.00     0.229 C 
ATOM     84  O   UNL A   1      31.570  23.982  22.787  1.00  0.00    -0.274 OA
ATOM     85  N   UNL A   1      31.792  26.063  23.503  1.00  0.00    -0.317 N 
ATOM     86  H   UNL A   1      31.227  26.302  22.734  1.00  0.00     0.170 HD
BRANCH  85  87
ATOM     87  C   UNL A   1      32.266  27.130  24.232  1.00  0.00     0.108 A 
ATOM     88  S   UNL A   1      33.841  27.064  24.860  1.00  0.00    -0.122 S 
ATOM     89  C   UNL A   1      31.611  28.335  24.476  1.00  0.00     0.078 A 
ATOM     90  C   UNL A   1      33.590  28.482  25.748  1.00  0.00     0.011 A 
ATOM     91  C   UNL A   1      32.405  29.122  25.416  1.00  0.00    -0.019 A 
ATOM     92  C   UNL A   1      34.594  28.953  26.756  1.00  0.00     0.047 C 
ATOM     93  C   UNL A   1      32.046  30.422  26.076  1.00  0.00     0.037 C 
ATOM     94  C   UNL A   1      33.971  30.003  27.682  1.00  0.00     0.006 C 
ATOM     95  C   UNL A   1      33.199  31.045  26.875  1.00  0.00     0.005 C 
BRANCH  89  96
ATOM     96  C   UNL A   1      30.245  28.547  23.941  1.00  0.00     0.257 C 
ATOM     97  O   UNL A   1      29.349  27.718  24.107  1.00  0.00    -0.269 OA
ATOM     98  N   UNL A   1      29.958  29.789  23.395  1.00  0.00    -0.339 N 
ATOM     99  C   UNL A   1      28.894  30.578  24.005  1.00  0.00     0.120 C 
ATOM    100  C   UNL A   1      30.275  30.067  22.001  1.00  0.00     0.120 C 
ATOM    101  C   UNL A   1      27.653  30.691  23.122  1.00  0.00     0.022 C 
ATOM    102  C   UNL A   1      29.036  30.163  21.116  1.00  0.00     0.022 C 
ATOM    103  C   UNL A   1      28.028  31.139  21.712  1.00  0.00     0.004 C 
ENDBRANCH  89  96
ENDBRANCH  85  87
ENDBRANCH  79  83
ENDBRANCH  74  77
ENDBRANCH  72  73
ENDBRANCH   1  72
TORSDOF 13
ENDMDL
