MODEL 1
REMARK VINA RESULT:     -13.5      0.000      0.000
REMARK SMILES CCCn1ncc(C(=O)N2CCC(C(=O)NCCCNC(=O)c3ccc(-c4c5nc(c(-c6c(F)c(F)c(F)c(F)c6F)c6ccc([nH]6)c(-c6c(F)c(F)c(F)c(F)c6F)c6nc(c(-c7c(F)c(F)c(F)c(F)c7F)c7ccc4[nH]7)C=C6)C=C5)cc3)CC2)c1C
REMARK SMILES IDX 17 1 16 2 14 3 15 4 13 6 8 7 9 8 10 9 11 10 87 11 12 12
REMARK SMILES IDX 86 13 7 14 4 15 5 16 88 17 6 18 89 19 3 20 2 21 1 22 18 23
REMARK SMILES IDX 19 24 20 25 21 26 22 28 23 29 24 30 85 31 25 32 84 33 26 34
REMARK SMILES IDX 27 35 28 36 78 37 29 38 83 39 77 40 79 41 30 42 82 43 76 44
REMARK SMILES IDX 75 45 31 47 63 48 43 49 62 50 44 51 47 52 61 53 80 54 45 55
REMARK SMILES IDX 46 56 60 58 81 59 48 60 32 61 33 62 41 63 34 64 35 65 39 66
REMARK SMILES IDX 42 67 36 68 37 69 40 70 38 71 64 72 65 73 73 74 66 75 67 76
REMARK SMILES IDX 71 77 74 78 68 79 69 80 72 81 70 82 49 83 50 84 58 85 51 86
REMARK SMILES IDX 52 87 56 88 59 89 53 90 54 91 57 92 55 93
REMARK H PARENT 16 5 20 27 79 46 47 57
REMARK Flexibility Score: inf
ROOT
ATOM      1  C   UNL A   1      37.040  22.357  25.238  1.00  0.00     0.117 C 
ENDROOT
BRANCH   1   2
ATOM      2  N   UNL A   1      36.229  22.424  26.453  1.00  0.00    -0.356 N 
ATOM      3  C   UNL A   1      34.927  22.780  26.650  1.00  0.00     0.223 C 
ATOM      4  O   UNL A   1      34.469  22.684  27.791  1.00  0.00    -0.275 OA
ATOM      5  H   UNL A   1      36.707  22.166  27.273  1.00  0.00     0.163 HD
BRANCH   3   6
ATOM      6  C   UNL A   1      34.056  23.303  25.514  1.00  0.00     0.082 C 
ATOM      7  C   UNL A   1      31.124  26.046  25.639  1.00  0.00     0.257 C 
ATOM      8  O   UNL A   1      30.577  25.714  26.691  1.00  0.00    -0.269 OA
ATOM      9  N   UNL A   1      31.961  25.168  24.961  1.00  0.00    -0.338 N 
ATOM     10  C   UNL A   1      31.628  23.760  24.942  1.00  0.00     0.120 C 
ATOM     11  C   UNL A   1      33.275  25.516  24.441  1.00  0.00     0.120 C 
ATOM     12  C   UNL A   1      32.587  22.970  25.801  1.00  0.00     0.035 C 
ATOM     13  C   UNL A   1      34.385  24.769  25.180  1.00  0.00     0.035 C 
BRANCH   7  14
ATOM     14  C   UNL A   1      30.800  27.298  24.960  1.00  0.00     0.080 A 
ATOM     15  N   UNL A   1      29.963  28.764  23.531  1.00  0.00    -0.269 N 
ATOM     16  N   UNL A   1      30.977  29.420  24.121  1.00  0.00    -0.180 NA
ATOM     17  C   UNL A   1      29.744  27.518  24.077  1.00  0.00     0.048 A 
ATOM     18  C   UNL A   1      31.524  28.509  24.919  1.00  0.00     0.149 A 
ATOM     19  C   UNL A   1      28.621  26.624  23.682  1.00  0.00     0.067 C 
BRANCH  15  20
ATOM     20  C   UNL A   1      29.266  29.362  22.403  1.00  0.00     0.144 C 
BRANCH  20  21
ATOM     21  C   UNL A   1      27.825  29.828  22.648  1.00  0.00     0.020 C 
ATOM     22  C   UNL A   1      27.723  31.075  23.518  1.00  0.00     0.006 C 
ENDBRANCH  20  21
ENDBRANCH  15  20
ENDBRANCH   7  14
ENDBRANCH   3   6
ENDBRANCH   1   2
BRANCH   1  23
ATOM     23  C   UNL A   1      38.309  21.514  25.373  1.00  0.00     0.042 C 
BRANCH  23  24
ATOM     24  C   UNL A   1      39.266  22.030  26.427  1.00  0.00     0.118 C 
BRANCH  24  25
ATOM     25  N   UNL A   1      40.671  21.970  26.027  1.00  0.00    -0.352 N 
ATOM     26  C   UNL A   1      41.589  23.002  26.049  1.00  0.00     0.251 C 
ATOM     27  H   UNL A   1      40.999  21.099  25.706  1.00  0.00     0.163 HD
ATOM     28  O   UNL A   1      42.629  22.944  25.401  1.00  0.00    -0.269 OA
BRANCH  26  29
ATOM     29  C   UNL A   1      41.272  24.197  26.851  1.00  0.00     0.039 A 
ATOM     30  C   UNL A   1      42.008  24.517  27.989  1.00  0.00     0.014 A 
ATOM     31  C   UNL A   1      40.286  25.056  26.377  1.00  0.00     0.014 A 
ATOM     32  C   UNL A   1      41.815  25.764  28.580  1.00  0.00     0.010 A 
ATOM     33  C   UNL A   1      40.232  26.346  26.845  1.00  0.00     0.010 A 
ATOM     34  C   UNL A   1      40.953  26.702  27.977  1.00  0.00    -0.014 A 
BRANCH  34  35
ATOM     35  C   UNL A   1      40.882  28.072  28.488  1.00  0.00     0.031 A 
ATOM     36  C   UNL A   1      41.960  28.986  28.010  1.00  0.00     0.074 A 
ATOM     37  C   UNL A   1      39.870  28.568  29.233  1.00  0.00     0.049 A 
ATOM     38  N   UNL A   1      42.918  29.496  28.710  1.00  0.00    -0.248 NA
ATOM     39  C   UNL A   1      42.049  29.281  26.572  1.00  0.00     0.031 C 
ATOM     40  C   UNL A   1      38.587  27.952  29.588  1.00  0.00     0.029 A 
ATOM     41  N   UNL A   1      39.763  29.810  29.787  1.00  0.00    -0.354 N 
ATOM     42  C   UNL A   1      43.644  30.311  27.848  1.00  0.00     0.074 A 
ATOM     43  C   UNL A   1      43.150  30.037  26.523  1.00  0.00     0.031 C 
ATOM     44  C   UNL A   1      37.753  28.886  30.095  1.00  0.00     0.029 A 
ATOM     45  C   UNL A   1      38.503  30.111  30.285  1.00  0.00     0.049 A 
ATOM     46  H   UNL A   1      40.517  30.442  29.829  1.00  0.00     0.167 HD
ATOM     47  C   UNL A   1      44.454  31.294  28.331  1.00  0.00     0.037 A 
ATOM     48  C   UNL A   1      38.100  31.283  30.832  1.00  0.00     0.037 A 
ATOM     49  C   UNL A   1      44.760  31.080  29.724  1.00  0.00     0.049 A 
ATOM     50  C   UNL A   1      39.316  31.991  31.292  1.00  0.00     0.074 A 
ATOM     51  C   UNL A   1      45.385  30.075  30.440  1.00  0.00     0.029 A 
ATOM     52  N   UNL A   1      44.078  31.820  30.656  1.00  0.00    -0.354 N 
ATOM     53  N   UNL A   1      40.055  31.593  32.289  1.00  0.00    -0.248 NA
ATOM     54  C   UNL A   1      39.947  32.924  30.376  1.00  0.00     0.031 C 
ATOM     55  C   UNL A   1      44.642  29.972  31.656  1.00  0.00     0.029 A 
ATOM     56  C   UNL A   1      43.654  30.956  31.633  1.00  0.00     0.049 A 
ATOM     57  H   UNL A   1      43.923  32.791  30.630  1.00  0.00     0.167 HD
ATOM     58  C   UNL A   1      41.353  31.858  31.884  1.00  0.00     0.074 A 
ATOM     59  C   UNL A   1      41.217  32.777  30.757  1.00  0.00     0.031 C 
ATOM     60  C   UNL A   1      42.394  31.093  32.324  1.00  0.00     0.037 A 
BRANCH  47  61
ATOM     61  C   UNL A   1      44.667  32.632  27.662  1.00  0.00     0.064 A 
ATOM     62  C   UNL A   1      45.840  32.846  26.908  1.00  0.00     0.173 A 
ATOM     63  C   UNL A   1      43.937  33.795  27.988  1.00  0.00     0.173 A 
ATOM     64  F   UNL A   1      46.622  31.815  26.552  1.00  0.00    -0.203 F 
ATOM     65  C   UNL A   1      46.292  34.130  26.590  1.00  0.00     0.198 A 
ATOM     66  C   UNL A   1      44.364  35.072  27.623  1.00  0.00     0.198 A 
ATOM     67  F   UNL A   1      42.850  33.759  28.766  1.00  0.00    -0.203 F 
ATOM     68  F   UNL A   1      47.481  34.288  25.992  1.00  0.00    -0.200 F 
ATOM     69  C   UNL A   1      45.558  35.242  26.956  1.00  0.00     0.200 A 
ATOM     70  F   UNL A   1      43.647  36.138  28.004  1.00  0.00    -0.200 F 
ATOM     71  F   UNL A   1      46.021  36.475  26.715  1.00  0.00    -0.200 F 
ENDBRANCH  47  61
BRANCH  48  72
ATOM     72  C   UNL A   1      36.781  31.945  30.748  1.00  0.00     0.064 A 
ATOM     73  C   UNL A   1      35.934  31.999  31.867  1.00  0.00     0.173 A 
ATOM     74  C   UNL A   1      36.464  32.802  29.677  1.00  0.00     0.173 A 
ATOM     75  F   UNL A   1      36.186  31.237  32.942  1.00  0.00    -0.203 F 
ATOM     76  C   UNL A   1      34.866  32.897  31.934  1.00  0.00     0.198 A 
ATOM     77  C   UNL A   1      35.393  33.693  29.742  1.00  0.00     0.198 A 
ATOM     78  F   UNL A   1      37.249  32.864  28.592  1.00  0.00    -0.203 F 
ATOM     79  F   UNL A   1      34.130  32.978  33.051  1.00  0.00    -0.200 F 
ATOM     80  C   UNL A   1      34.607  33.756  30.878  1.00  0.00     0.200 A 
ATOM     81  F   UNL A   1      35.173  34.543  28.729  1.00  0.00    -0.200 F 
ATOM     82  F   UNL A   1      33.631  34.670  30.973  1.00  0.00    -0.200 F 
ENDBRANCH  48  72
BRANCH  60  83
ATOM     83  C   UNL A   1      42.132  30.157  33.475  1.00  0.00     0.064 A 
ATOM     84  C   UNL A   1      41.702  28.825  33.334  1.00  0.00     0.173 A 
ATOM     85  C   UNL A   1      42.428  30.601  34.770  1.00  0.00     0.173 A 
ATOM     86  F   UNL A   1      41.496  28.288  32.126  1.00  0.00    -0.203 F 
ATOM     87  C   UNL A   1      41.521  28.001  34.445  1.00  0.00     0.198 A 
ATOM     88  C   UNL A   1      42.284  29.764  35.874  1.00  0.00     0.198 A 
ATOM     89  F   UNL A   1      42.893  31.845  34.965  1.00  0.00    -0.203 F 
ATOM     90  F   UNL A   1      41.085  26.742  34.285  1.00  0.00    -0.200 F 
ATOM     91  C   UNL A   1      41.817  28.470  35.713  1.00  0.00     0.200 A 
ATOM     92  F   UNL A   1      42.617  30.209  37.093  1.00  0.00    -0.200 F 
ATOM     93  F   UNL A   1      41.673  27.669  36.779  1.00  0.00    -0.200 F 
ENDBRANCH  60  83
ENDBRANCH  34  35
ENDBRANCH  26  29
ENDBRANCH  24  25
ENDBRANCH  23  24
ENDBRANCH   1  23
TORSDOF 13
ENDMDL
MODEL 2
REMARK VINA RESULT:     -13.4      3.552      9.223
REMARK SMILES CCCn1ncc(C(=O)N2CCC(C(=O)NCCCNC(=O)c3ccc(-c4c5nc(c(-c6c(F)c(F)c(F)c(F)c6F)c6ccc([nH]6)c(-c6c(F)c(F)c(F)c(F)c6F)c6nc(c(-c7c(F)c(F)c(F)c(F)c7F)c7ccc4[nH]7)C=C6)C=C5)cc3)CC2)c1C
REMARK SMILES IDX 17 1 16 2 14 3 15 4 13 6 8 7 9 8 10 9 11 10 87 11 12 12
REMARK SMILES IDX 86 13 7 14 4 15 5 16 88 17 6 18 89 19 3 20 2 21 1 22 18 23
REMARK SMILES IDX 19 24 20 25 21 26 22 28 23 29 24 30 85 31 25 32 84 33 26 34
REMARK SMILES IDX 27 35 28 36 78 37 29 38 83 39 77 40 79 41 30 42 82 43 76 44
REMARK SMILES IDX 75 45 31 47 63 48 43 49 62 50 44 51 47 52 61 53 80 54 45 55
REMARK SMILES IDX 46 56 60 58 81 59 48 60 32 61 33 62 41 63 34 64 35 65 39 66
REMARK SMILES IDX 42 67 36 68 37 69 40 70 38 71 64 72 65 73 73 74 66 75 67 76
REMARK SMILES IDX 71 77 74 78 68 79 69 80 72 81 70 82 49 83 50 84 58 85 51 86
REMARK SMILES IDX 52 87 56 88 59 89 53 90 54 91 57 92 55 93
REMARK H PARENT 16 5 20 27 79 46 47 57
REMARK Flexibility Score: inf
ROOT
ATOM      1  C   UNL A   1      33.985  29.451  27.043  1.00  0.00     0.117 C 
ENDROOT
BRANCH   1   2
ATOM      2  N   UNL A   1      33.876  29.089  25.631  1.00  0.00    -0.356 N 
ATOM      3  C   UNL A   1      33.614  27.897  25.023  1.00  0.00     0.223 C 
ATOM      4  O   UNL A   1      33.515  27.884  23.794  1.00  0.00    -0.275 OA
ATOM      5  H   UNL A   1      34.017  29.838  25.009  1.00  0.00     0.163 HD
BRANCH   3   6
ATOM      6  C   UNL A   1      33.465  26.605  25.818  1.00  0.00     0.082 C 
ATOM      7  C   UNL A   1      31.780  23.134  24.700  1.00  0.00     0.257 C 
ATOM      8  O   UNL A   1      30.797  23.567  24.098  1.00  0.00    -0.269 OA
ATOM      9  N   UNL A   1      32.475  23.931  25.602  1.00  0.00    -0.338 N 
ATOM     10  C   UNL A   1      31.733  24.856  26.431  1.00  0.00     0.120 C 
ATOM     11  C   UNL A   1      33.922  24.072  25.634  1.00  0.00     0.120 C 
ATOM     12  C   UNL A   1      31.976  26.282  25.996  1.00  0.00     0.035 C 
ATOM     13  C   UNL A   1      34.356  25.486  25.249  1.00  0.00     0.035 C 
BRANCH   7  14
ATOM     14  C   UNL A   1      32.168  21.727  24.637  1.00  0.00     0.080 A 
ATOM     15  N   UNL A   1      32.426  19.641  23.947  1.00  0.00    -0.269 N 
ATOM     16  N   UNL A   1      32.673  19.585  25.267  1.00  0.00    -0.180 NA
ATOM     17  C   UNL A   1      32.223  20.928  23.497  1.00  0.00     0.048 A 
ATOM     18  C   UNL A   1      32.438  20.824  25.688  1.00  0.00     0.149 A 
ATOM     19  C   UNL A   1      32.031  21.285  22.064  1.00  0.00     0.067 C 
BRANCH  15  20
ATOM     20  C   UNL A   1      32.342  18.416  23.169  1.00  0.00     0.144 C 
BRANCH  20  21
ATOM     21  C   UNL A   1      33.571  17.498  23.190  1.00  0.00     0.020 C 
ATOM     22  C   UNL A   1      33.419  16.288  24.103  1.00  0.00     0.006 C 
ENDBRANCH  20  21
ENDBRANCH  15  20
ENDBRANCH   7  14
ENDBRANCH   3   6
ENDBRANCH   1   2
BRANCH   1  23
ATOM     23  C   UNL A   1      33.408  30.826  27.387  1.00  0.00     0.042 C 
BRANCH  23  24
ATOM     24  C   UNL A   1      34.468  31.876  27.647  1.00  0.00     0.118 C 
BRANCH  24  25
ATOM     25  N   UNL A   1      34.456  32.399  29.012  1.00  0.00    -0.352 N 
ATOM     26  C   UNL A   1      35.256  31.998  30.066  1.00  0.00     0.251 C 
ATOM     27  H   UNL A   1      33.808  33.115  29.202  1.00  0.00     0.163 HD
ATOM     28  O   UNL A   1      34.957  32.256  31.227  1.00  0.00    -0.269 OA
BRANCH  26  29
ATOM     29  C   UNL A   1      36.470  31.221  29.760  1.00  0.00     0.039 A 
ATOM     30  C   UNL A   1      37.714  31.839  29.658  1.00  0.00     0.014 A 
ATOM     31  C   UNL A   1      36.354  29.837  29.686  1.00  0.00     0.014 A 
ATOM     32  C   UNL A   1      38.853  31.038  29.589  1.00  0.00     0.010 A 
ATOM     33  C   UNL A   1      37.479  29.057  29.807  1.00  0.00     0.010 A 
ATOM     34  C   UNL A   1      38.737  29.639  29.711  1.00  0.00    -0.014 A 
BRANCH  34  35
ATOM     35  C   UNL A   1      39.936  28.807  29.821  1.00  0.00     0.031 A 
ATOM     36  C   UNL A   1      40.447  28.608  31.208  1.00  0.00     0.074 A 
ATOM     37  C   UNL A   1      40.508  28.135  28.797  1.00  0.00     0.049 A 
ATOM     38  N   UNL A   1      41.544  29.069  31.709  1.00  0.00    -0.248 NA
ATOM     39  C   UNL A   1      39.593  27.911  32.182  1.00  0.00     0.031 C 
ATOM     40  C   UNL A   1      40.033  27.954  27.422  1.00  0.00     0.029 A 
ATOM     41  N   UNL A   1      41.650  27.389  28.814  1.00  0.00    -0.354 N 
ATOM     42  C   UNL A   1      41.613  28.590  33.013  1.00  0.00     0.074 A 
ATOM     43  C   UNL A   1      40.330  27.999  33.293  1.00  0.00     0.031 C 
ATOM     44  C   UNL A   1      40.748  26.983  26.812  1.00  0.00     0.029 A 
ATOM     45  C   UNL A   1      41.851  26.619  27.678  1.00  0.00     0.049 A 
ATOM     46  H   UNL A   1      42.280  27.397  29.571  1.00  0.00     0.167 HD
ATOM     47  C   UNL A   1      42.800  28.543  33.680  1.00  0.00     0.037 A 
ATOM     48  C   UNL A   1      42.862  25.747  27.451  1.00  0.00     0.037 A 
ATOM     49  C   UNL A   1      43.781  29.399  33.058  1.00  0.00     0.049 A 
ATOM     50  C   UNL A   1      43.977  26.128  28.347  1.00  0.00     0.074 A 
ATOM     51  C   UNL A   1      43.865  30.754  32.798  1.00  0.00     0.029 A 
ATOM     52  N   UNL A   1      44.733  28.816  32.261  1.00  0.00    -0.354 N 
ATOM     53  N   UNL A   1      44.674  27.221  28.216  1.00  0.00    -0.248 NA
ATOM     54  C   UNL A   1      44.051  25.488  29.649  1.00  0.00     0.031 C 
ATOM     55  C   UNL A   1      44.491  30.846  31.517  1.00  0.00     0.029 A 
ATOM     56  C   UNL A   1      44.803  29.551  31.105  1.00  0.00     0.049 A 
ATOM     57  H   UNL A   1      45.268  28.019  32.478  1.00  0.00     0.167 HD
ATOM     58  C   UNL A   1      44.901  27.644  29.516  1.00  0.00     0.074 A 
ATOM     59  C   UNL A   1      44.597  26.484  30.349  1.00  0.00     0.031 C 
ATOM     60  C   UNL A   1      45.045  28.970  29.805  1.00  0.00     0.037 A 
BRANCH  47  61
ATOM     61  C   UNL A   1      43.190  27.460  34.659  1.00  0.00     0.064 A 
ATOM     62  C   UNL A   1      43.411  27.800  36.009  1.00  0.00     0.173 A 
ATOM     63  C   UNL A   1      43.656  26.186  34.271  1.00  0.00     0.173 A 
ATOM     64  F   UNL A   1      43.021  28.992  36.488  1.00  0.00    -0.203 F 
ATOM     65  C   UNL A   1      44.127  26.967  36.875  1.00  0.00     0.198 A 
ATOM     66  C   UNL A   1      44.325  25.336  35.151  1.00  0.00     0.198 A 
ATOM     67  F   UNL A   1      43.592  25.758  33.005  1.00  0.00    -0.203 F 
ATOM     68  F   UNL A   1      44.430  27.393  38.109  1.00  0.00    -0.200 F 
ATOM     69  C   UNL A   1      44.592  25.740  36.442  1.00  0.00     0.200 A 
ATOM     70  F   UNL A   1      44.784  24.158  34.706  1.00  0.00    -0.200 F 
ATOM     71  F   UNL A   1      45.338  24.971  37.245  1.00  0.00    -0.200 F 
ENDBRANCH  47  61
BRANCH  48  72
ATOM     72  C   UNL A   1      42.839  24.464  26.715  1.00  0.00     0.064 A 
ATOM     73  C   UNL A   1      43.467  24.344  25.465  1.00  0.00     0.173 A 
ATOM     74  C   UNL A   1      42.481  23.264  27.358  1.00  0.00     0.173 A 
ATOM     75  F   UNL A   1      43.868  25.439  24.803  1.00  0.00    -0.203 F 
ATOM     76  C   UNL A   1      43.770  23.096  24.914  1.00  0.00     0.198 A 
ATOM     77  C   UNL A   1      42.778  22.018  26.804  1.00  0.00     0.198 A 
ATOM     78  F   UNL A   1      41.932  23.277  28.581  1.00  0.00    -0.203 F 
ATOM     79  F   UNL A   1      44.443  23.021  23.758  1.00  0.00    -0.200 F 
ATOM     80  C   UNL A   1      43.440  21.934  25.593  1.00  0.00     0.200 A 
ATOM     81  F   UNL A   1      42.485  20.901  27.486  1.00  0.00    -0.200 F 
ATOM     82  F   UNL A   1      43.799  20.740  25.103  1.00  0.00    -0.200 F 
ENDBRANCH  48  72
BRANCH  60  83
ATOM     83  C   UNL A   1      45.244  29.917  28.652  1.00  0.00     0.064 A 
ATOM     84  C   UNL A   1      44.199  30.513  27.922  1.00  0.00     0.173 A 
ATOM     85  C   UNL A   1      46.551  30.314  28.339  1.00  0.00     0.173 A 
ATOM     86  F   UNL A   1      42.919  30.269  28.223  1.00  0.00    -0.203 F 
ATOM     87  C   UNL A   1      44.459  31.416  26.892  1.00  0.00     0.198 A 
ATOM     88  C   UNL A   1      46.805  31.246  27.336  1.00  0.00     0.198 A 
ATOM     89  F   UNL A   1      47.588  29.822  29.035  1.00  0.00    -0.203 F 
ATOM     90  F   UNL A   1      43.444  31.950  26.195  1.00  0.00    -0.200 F 
ATOM     91  C   UNL A   1      45.761  31.785  26.603  1.00  0.00     0.200 A 
ATOM     92  F   UNL A   1      48.064  31.635  27.093  1.00  0.00    -0.200 F 
ATOM     93  F   UNL A   1      46.010  32.677  25.633  1.00  0.00    -0.200 F 
ENDBRANCH  60  83
ENDBRANCH  34  35
ENDBRANCH  26  29
ENDBRANCH  24  25
ENDBRANCH  23  24
ENDBRANCH   1  23
TORSDOF 13
ENDMDL
MODEL 3
REMARK VINA RESULT:     -12.8      4.889      9.592
REMARK SMILES CCCn1ncc(C(=O)N2CCC(C(=O)NCCCNC(=O)c3ccc(-c4c5nc(c(-c6c(F)c(F)c(F)c(F)c6F)c6ccc([nH]6)c(-c6c(F)c(F)c(F)c(F)c6F)c6nc(c(-c7c(F)c(F)c(F)c(F)c7F)c7ccc4[nH]7)C=C6)C=C5)cc3)CC2)c1C
REMARK SMILES IDX 17 1 16 2 14 3 15 4 13 6 8 7 9 8 10 9 11 10 87 11 12 12
REMARK SMILES IDX 86 13 7 14 4 15 5 16 88 17 6 18 89 19 3 20 2 21 1 22 18 23
REMARK SMILES IDX 19 24 20 25 21 26 22 28 23 29 24 30 85 31 25 32 84 33 26 34
REMARK SMILES IDX 27 35 28 36 78 37 29 38 83 39 77 40 79 41 30 42 82 43 76 44
REMARK SMILES IDX 75 45 31 47 63 48 43 49 62 50 44 51 47 52 61 53 80 54 45 55
REMARK SMILES IDX 46 56 60 58 81 59 48 60 32 61 33 62 41 63 34 64 35 65 39 66
REMARK SMILES IDX 42 67 36 68 37 69 40 70 38 71 64 72 65 73 73 74 66 75 67 76
REMARK SMILES IDX 71 77 74 78 68 79 69 80 72 81 70 82 49 83 50 84 58 85 51 86
REMARK SMILES IDX 52 87 56 88 59 89 53 90 54 91 57 92 55 93
REMARK H PARENT 16 5 20 27 79 46 47 57
REMARK Flexibility Score: inf
ROOT
ATOM      1  C   UNL A   1      45.488  32.455  26.222  1.00  0.00     0.117 C 
ENDROOT
BRANCH   1   2
ATOM      2  N   UNL A   1      45.555  31.635  27.430  1.00  0.00    -0.356 N 
ATOM      3  C   UNL A   1      45.360  30.299  27.625  1.00  0.00     0.223 C 
ATOM      4  O   UNL A   1      45.544  29.848  28.758  1.00  0.00    -0.275 OA
ATOM      5  H   UNL A   1      45.779  32.135  28.247  1.00  0.00     0.163 HD
BRANCH   3   6
ATOM      6  C   UNL A   1      44.909  29.380  26.497  1.00  0.00     0.082 C 
ATOM      7  C   UNL A   1      44.586  25.375  26.481  1.00  0.00     0.257 C 
ATOM      8  O   UNL A   1      45.610  25.084  27.099  1.00  0.00    -0.269 OA
ATOM      9  N   UNL A   1      44.438  26.625  25.891  1.00  0.00    -0.338 N 
ATOM     10  C   UNL A   1      45.594  27.255  25.292  1.00  0.00     0.120 C 
ATOM     11  C   UNL A   1      43.253  27.460  26.014  1.00  0.00     0.120 C 
ATOM     12  C   UNL A   1      46.054  28.432  26.120  1.00  0.00     0.035 C 
ATOM     13  C   UNL A   1      43.546  28.735  26.805  1.00  0.00     0.035 C 
BRANCH   7  14
ATOM     14  C   UNL A   1      43.553  24.386  26.186  1.00  0.00     0.080 A 
ATOM     15  N   UNL A   1      41.871  22.966  26.406  1.00  0.00    -0.269 N 
ATOM     16  N   UNL A   1      42.452  22.613  25.246  1.00  0.00    -0.180 NA
ATOM     17  C   UNL A   1      42.430  24.097  26.959  1.00  0.00     0.048 A 
ATOM     18  C   UNL A   1      43.507  23.417  25.160  1.00  0.00     0.149 A 
ATOM     19  C   UNL A   1      41.912  24.762  28.187  1.00  0.00     0.067 C 
BRANCH  15  20
ATOM     20  C   UNL A   1      40.812  22.144  26.970  1.00  0.00     0.144 C 
BRANCH  20  21
ATOM     21  C   UNL A   1      39.432  22.244  26.307  1.00  0.00     0.020 C 
ATOM     22  C   UNL A   1      38.723  23.569  26.562  1.00  0.00     0.006 C 
ENDBRANCH  20  21
ENDBRANCH  15  20
ENDBRANCH   7  14
ENDBRANCH   3   6
ENDBRANCH   1   2
BRANCH   1  23
ATOM     23  C   UNL A   1      44.079  32.927  25.858  1.00  0.00     0.042 C 
BRANCH  23  24
ATOM     24  C   UNL A   1      44.001  34.407  25.548  1.00  0.00     0.118 C 
BRANCH  24  25
ATOM     25  N   UNL A   1      45.166  35.167  26.001  1.00  0.00    -0.352 N 
ATOM     26  C   UNL A   1      45.295  35.871  27.182  1.00  0.00     0.251 C 
ATOM     27  H   UNL A   1      45.943  35.178  25.397  1.00  0.00     0.163 HD
ATOM     28  O   UNL A   1      46.162  36.727  27.323  1.00  0.00    -0.269 OA
BRANCH  26  29
ATOM     29  C   UNL A   1      44.338  35.589  28.267  1.00  0.00     0.039 A 
ATOM     30  C   UNL A   1      43.132  36.280  28.363  1.00  0.00     0.014 A 
ATOM     31  C   UNL A   1      44.625  34.537  29.130  1.00  0.00     0.014 A 
ATOM     32  C   UNL A   1      42.173  35.826  29.267  1.00  0.00     0.010 A 
ATOM     33  C   UNL A   1      43.616  33.982  29.880  1.00  0.00     0.010 A 
ATOM     34  C   UNL A   1      42.400  34.643  29.997  1.00  0.00    -0.014 A 
BRANCH  34  35
ATOM     35  C   UNL A   1      41.329  34.063  30.809  1.00  0.00     0.031 A 
ATOM     36  C   UNL A   1      41.691  33.777  32.227  1.00  0.00     0.074 A 
ATOM     37  C   UNL A   1      40.051  33.897  30.402  1.00  0.00     0.049 A 
ATOM     38  N   UNL A   1      41.817  32.617  32.782  1.00  0.00    -0.248 NA
ATOM     39  C   UNL A   1      42.062  34.899  33.103  1.00  0.00     0.031 C 
ATOM     40  C   UNL A   1      39.402  34.354  29.168  1.00  0.00     0.029 A 
ATOM     41  N   UNL A   1      39.020  33.318  31.080  1.00  0.00    -0.354 N 
ATOM     42  C   UNL A   1      42.122  32.850  34.119  1.00  0.00     0.074 A 
ATOM     43  C   UNL A   1      42.391  34.262  34.230  1.00  0.00     0.031 C 
ATOM     44  C   UNL A   1      38.061  34.237  29.284  1.00  0.00     0.029 A 
ATOM     45  C   UNL A   1      37.771  33.517  30.508  1.00  0.00     0.049 A 
ATOM     46  H   UNL A   1      39.150  32.802  31.909  1.00  0.00     0.167 HD
ATOM     47  C   UNL A   1      41.923  31.886  35.061  1.00  0.00     0.037 A 
ATOM     48  C   UNL A   1      36.576  33.108  30.995  1.00  0.00     0.037 A 
ATOM     49  C   UNL A   1      41.799  30.584  34.454  1.00  0.00     0.049 A 
ATOM     50  C   UNL A   1      36.843  31.988  31.925  1.00  0.00     0.074 A 
ATOM     51  C   UNL A   1      42.618  29.792  33.672  1.00  0.00     0.029 A 
ATOM     52  N   UNL A   1      40.541  30.055  34.314  1.00  0.00    -0.354 N 
ATOM     53  N   UNL A   1      37.273  30.817  31.548  1.00  0.00    -0.248 NA
ATOM     54  C   UNL A   1      37.026  32.301  33.331  1.00  0.00     0.031 C 
ATOM     55  C   UNL A   1      41.742  29.172  32.730  1.00  0.00     0.029 A 
ATOM     56  C   UNL A   1      40.441  29.573  33.034  1.00  0.00     0.049 A 
ATOM     57  H   UNL A   1      39.840  30.026  35.004  1.00  0.00     0.167 HD
ATOM     58  C   UNL A   1      38.167  30.442  32.538  1.00  0.00     0.074 A 
ATOM     59  C   UNL A   1      37.888  31.336  33.658  1.00  0.00     0.031 C 
ATOM     60  C   UNL A   1      39.228  29.632  32.253  1.00  0.00     0.037 A 
BRANCH  47  61
ATOM     61  C   UNL A   1      41.476  32.155  36.479  1.00  0.00     0.064 A 
ATOM     62  C   UNL A   1      40.317  32.927  36.700  1.00  0.00     0.173 A 
ATOM     63  C   UNL A   1      42.299  31.960  37.609  1.00  0.00     0.173 A 
ATOM     64  F   UNL A   1      39.466  33.189  35.696  1.00  0.00    -0.203 F 
ATOM     65  C   UNL A   1      40.055  33.532  37.934  1.00  0.00     0.198 A 
ATOM     66  C   UNL A   1      42.007  32.523  38.851  1.00  0.00     0.198 A 
ATOM     67  F   UNL A   1      43.471  31.320  37.535  1.00  0.00    -0.203 F 
ATOM     68  F   UNL A   1      39.014  34.367  38.057  1.00  0.00    -0.200 F 
ATOM     69  C   UNL A   1      40.906  33.338  39.005  1.00  0.00     0.200 A 
ATOM     70  F   UNL A   1      42.855  32.337  39.872  1.00  0.00    -0.200 F 
ATOM     71  F   UNL A   1      40.697  33.971  40.166  1.00  0.00    -0.200 F 
ENDBRANCH  47  61
BRANCH  48  72
ATOM     72  C   UNL A   1      35.260  33.778  30.919  1.00  0.00     0.064 A 
ATOM     73  C   UNL A   1      34.906  34.771  31.847  1.00  0.00     0.173 A 
ATOM     74  C   UNL A   1      34.462  33.685  29.762  1.00  0.00     0.173 A 
ATOM     75  F   UNL A   1      35.635  34.945  32.959  1.00  0.00    -0.203 F 
ATOM     76  C   UNL A   1      33.852  35.656  31.607  1.00  0.00     0.198 A 
ATOM     77  C   UNL A   1      33.405  34.565  29.527  1.00  0.00     0.198 A 
ATOM     78  F   UNL A   1      34.759  32.809  28.792  1.00  0.00    -0.203 F 
ATOM     79  F   UNL A   1      33.597  36.642  32.477  1.00  0.00    -0.200 F 
ATOM     80  C   UNL A   1      33.113  35.563  30.439  1.00  0.00     0.200 A 
ATOM     81  F   UNL A   1      32.720  34.487  28.378  1.00  0.00    -0.200 F 
ATOM     82  F   UNL A   1      32.153  36.459  30.172  1.00  0.00    -0.200 F 
ENDBRANCH  48  72
BRANCH  60  83
ATOM     83  C   UNL A   1      39.229  28.929  30.921  1.00  0.00     0.064 A 
ATOM     84  C   UNL A   1      39.678  29.505  29.718  1.00  0.00     0.173 A 
ATOM     85  C   UNL A   1      38.853  27.580  30.884  1.00  0.00     0.173 A 
ATOM     86  F   UNL A   1      40.151  30.756  29.684  1.00  0.00    -0.203 F 
ATOM     87  C   UNL A   1      39.690  28.778  28.528  1.00  0.00     0.198 A 
ATOM     88  C   UNL A   1      38.904  26.846  29.702  1.00  0.00     0.198 A 
ATOM     89  F   UNL A   1      38.467  26.958  32.010  1.00  0.00    -0.203 F 
ATOM     90  F   UNL A   1      40.097  29.359  27.389  1.00  0.00    -0.200 F 
ATOM     91  C   UNL A   1      39.308  27.448  28.522  1.00  0.00     0.200 A 
ATOM     92  F   UNL A   1      38.579  25.546  29.713  1.00  0.00    -0.200 F 
ATOM     93  F   UNL A   1      39.349  26.739  27.385  1.00  0.00    -0.200 F 
ENDBRANCH  60  83
ENDBRANCH  34  35
ENDBRANCH  26  29
ENDBRANCH  24  25
ENDBRANCH  23  24
ENDBRANCH   1  23
TORSDOF 13
ENDMDL
