MODEL 1
REMARK VINA RESULT:     -12.6      0.000      0.000
REMARK SMILES O=C(NCCCNC(=O)c1nn(-c2ccc([N+](=O)[O-])cc2)cc1CCO)c1ccc(-c2c3nc(c(-c4c(F)c(F)c(F)c(F)c4F)c4ccc([nH]4)c(-c4c(F)c(F)c(F)c(F)c4F)c4nc(c(-c5c(F)c(F)c(F)c(F)c5F)c5ccc2[nH]5)C=C4)C=C3)cc1
REMARK SMILES IDX 5 1 4 2 3 3 1 4 2 5 27 7 28 8 89 9 29 10 88 11 30 12 31 13
REMARK SMILES IDX 32 14 82 15 33 16 87 17 81 18 83 19 34 20 86 21 80 22 79 23
REMARK SMILES IDX 35 25 67 26 47 27 66 28 48 29 51 30 65 31 84 32 49 33 50 34
REMARK SMILES IDX 64 36 85 37 52 38 36 39 37 40 45 41 38 42 39 43 43 44 46 45
REMARK SMILES IDX 40 46 41 47 44 48 42 49 68 50 69 51 77 52 70 53 71 54 75 55
REMARK SMILES IDX 78 56 72 57 73 58 76 59 74 60 53 61 54 62 62 63 55 64 56 65
REMARK SMILES IDX 60 66 63 67 57 68 58 69 61 70 59 71 6 72 7 73 8 74 9 76
REMARK SMILES IDX 10 77 11 78 23 79 12 80 22 81 24 82 25 83 26 84 13 86 14 87
REMARK SMILES IDX 21 88 15 89 20 90 16 91 17 92 18 93 19 94
REMARK H PARENT 3 6 83 24 51 35 7 75 26 85
REMARK Flexibility Score: inf
ROOT
ATOM      1  C   UNL A   1      36.743  23.334  24.424  1.00  0.00     0.042 C 
ENDROOT
BRANCH   1   2
ATOM      2  C   UNL A   1      37.053  22.324  25.528  1.00  0.00     0.118 C 
BRANCH   2   3
ATOM      3  N   UNL A   1      38.402  21.795  25.529  1.00  0.00    -0.352 N 
ATOM      4  O   UNL A   1      40.483  21.296  26.079  1.00  0.00    -0.269 OA
ATOM      5  C   UNL A   1      39.556  22.100  26.192  1.00  0.00     0.251 C 
ATOM      6  H   UNL A   1      38.512  21.040  24.907  1.00  0.00     0.163 HD
BRANCH   5   7
ATOM      7  C   UNL A   1      39.794  23.358  26.945  1.00  0.00     0.039 A 
ATOM      8  C   UNL A   1      39.042  24.530  26.837  1.00  0.00     0.014 A 
ATOM      9  C   UNL A   1      40.919  23.350  27.789  1.00  0.00     0.014 A 
ATOM     10  C   UNL A   1      39.475  25.703  27.445  1.00  0.00     0.010 A 
ATOM     11  C   UNL A   1      41.342  24.508  28.421  1.00  0.00     0.010 A 
ATOM     12  C   UNL A   1      40.648  25.696  28.197  1.00  0.00    -0.014 A 
BRANCH  12  13
ATOM     13  C   UNL A   1      41.078  26.931  28.847  1.00  0.00     0.031 A 
ATOM     14  C   UNL A   1      42.345  27.525  28.313  1.00  0.00     0.074 A 
ATOM     15  C   UNL A   1      40.261  27.566  29.714  1.00  0.00     0.049 A 
ATOM     16  N   UNL A   1      43.366  27.993  28.959  1.00  0.00    -0.248 NA
ATOM     17  C   UNL A   1      42.522  27.532  26.848  1.00  0.00     0.031 C 
ATOM     18  C   UNL A   1      38.886  27.204  30.077  1.00  0.00     0.029 A 
ATOM     19  N   UNL A   1      40.436  28.752  30.358  1.00  0.00    -0.354 N 
ATOM     20  C   UNL A   1      44.239  28.499  27.992  1.00  0.00     0.074 A 
ATOM     21  C   UNL A   1      43.728  28.082  26.715  1.00  0.00     0.031 C 
ATOM     22  C   UNL A   1      38.283  28.261  30.662  1.00  0.00     0.029 A 
ATOM     23  C   UNL A   1      39.258  29.325  30.820  1.00  0.00     0.049 A 
ATOM     24  H   UNL A   1      41.319  29.166  30.487  1.00  0.00     0.167 HD
ATOM     25  C   UNL A   1      45.210  29.404  28.294  1.00  0.00     0.037 A 
ATOM     26  C   UNL A   1      39.082  30.615  31.205  1.00  0.00     0.037 A 
ATOM     27  C   UNL A   1      45.578  29.337  29.681  1.00  0.00     0.049 A 
ATOM     28  C   UNL A   1      40.425  31.192  31.462  1.00  0.00     0.074 A 
ATOM     29  C   UNL A   1      46.139  28.367  30.490  1.00  0.00     0.029 A 
ATOM     30  N   UNL A   1      45.088  30.287  30.540  1.00  0.00    -0.354 N 
ATOM     31  N   UNL A   1      41.204  30.818  32.439  1.00  0.00    -0.248 NA
ATOM     32  C   UNL A   1      41.088  31.860  30.351  1.00  0.00     0.031 C 
ATOM     33  C   UNL A   1      45.501  28.530  31.753  1.00  0.00     0.029 A 
ATOM     34  C   UNL A   1      44.635  29.619  31.647  1.00  0.00     0.049 A 
ATOM     35  H   UNL A   1      45.066  31.260  30.390  1.00  0.00     0.167 HD
ATOM     36  C   UNL A   1      42.479  30.824  31.894  1.00  0.00     0.074 A 
ATOM     37  C   UNL A   1      42.354  31.539  30.628  1.00  0.00     0.031 C 
ATOM     38  C   UNL A   1      43.458  30.006  32.381  1.00  0.00     0.037 A 
BRANCH  25  39
ATOM     39  C   UNL A   1      45.561  30.588  27.421  1.00  0.00     0.064 A 
ATOM     40  C   UNL A   1      46.918  30.889  27.181  1.00  0.00     0.173 A 
ATOM     41  C   UNL A   1      44.647  31.613  27.089  1.00  0.00     0.173 A 
ATOM     42  F   UNL A   1      47.877  29.993  27.458  1.00  0.00    -0.203 F 
ATOM     43  C   UNL A   1      47.330  32.153  26.749  1.00  0.00     0.198 A 
ATOM     44  C   UNL A   1      45.059  32.857  26.611  1.00  0.00     0.198 A 
ATOM     45  F   UNL A   1      43.333  31.500  27.314  1.00  0.00    -0.203 F 
ATOM     46  F   UNL A   1      48.638  32.435  26.670  1.00  0.00    -0.200 F 
ATOM     47  C   UNL A   1      46.401  33.140  26.478  1.00  0.00     0.200 A 
ATOM     48  F   UNL A   1      44.143  33.803  26.365  1.00  0.00    -0.200 F 
ATOM     49  F   UNL A   1      46.795  34.374  26.139  1.00  0.00    -0.200 F 
ENDBRANCH  25  39
BRANCH  26  50
ATOM     50  C   UNL A   1      37.880  31.458  30.988  1.00  0.00     0.064 A 
ATOM     51  C   UNL A   1      37.459  31.817  29.698  1.00  0.00     0.173 A 
ATOM     52  C   UNL A   1      36.970  31.714  32.035  1.00  0.00     0.173 A 
ATOM     53  F   UNL A   1      38.238  31.554  28.638  1.00  0.00    -0.203 F 
ATOM     54  C   UNL A   1      36.202  32.392  29.469  1.00  0.00     0.198 A 
ATOM     55  C   UNL A   1      35.723  32.295  31.807  1.00  0.00     0.198 A 
ATOM     56  F   UNL A   1      37.234  31.317  33.288  1.00  0.00    -0.203 F 
ATOM     57  F   UNL A   1      35.812  32.672  28.218  1.00  0.00    -0.200 F 
ATOM     58  C   UNL A   1      35.334  32.626  30.523  1.00  0.00     0.200 A 
ATOM     59  F   UNL A   1      34.878  32.477  32.832  1.00  0.00    -0.200 F 
ATOM     60  F   UNL A   1      34.111  33.128  30.299  1.00  0.00    -0.200 F 
ENDBRANCH  26  50
BRANCH  38  61
ATOM     61  C   UNL A   1      43.175  29.251  33.649  1.00  0.00     0.064 A 
ATOM     62  C   UNL A   1      42.525  28.005  33.680  1.00  0.00     0.173 A 
ATOM     63  C   UNL A   1      43.727  29.720  34.846  1.00  0.00     0.173 A 
ATOM     64  F   UNL A   1      42.070  27.437  32.558  1.00  0.00    -0.203 F 
ATOM     65  C   UNL A   1      42.400  27.283  34.865  1.00  0.00     0.198 A 
ATOM     66  C   UNL A   1      43.632  28.980  36.021  1.00  0.00     0.198 A 
ATOM     67  F   UNL A   1      44.416  30.872  34.862  1.00  0.00    -0.203 F 
ATOM     68  F   UNL A   1      41.776  26.095  34.866  1.00  0.00    -0.200 F 
ATOM     69  C   UNL A   1      42.961  27.768  36.033  1.00  0.00     0.200 A 
ATOM     70  F   UNL A   1      44.225  29.426  37.137  1.00  0.00    -0.200 F 
ATOM     71  F   UNL A   1      42.886  27.050  37.163  1.00  0.00    -0.200 F 
ENDBRANCH  38  61
ENDBRANCH  12  13
ENDBRANCH   5   7
ENDBRANCH   2   3
ENDBRANCH   1   2
BRANCH   1  72
ATOM     72  C   UNL A   1      35.564  24.266  24.713  1.00  0.00     0.118 C 
BRANCH  72  73
ATOM     73  N   UNL A   1      34.725  24.496  23.548  1.00  0.00    -0.351 N 
ATOM     74  C   UNL A   1      33.622  23.802  23.103  1.00  0.00     0.272 C 
ATOM     75  H   UNL A   1      34.985  25.267  22.992  1.00  0.00     0.163 HD
ATOM     76  O   UNL A   1      33.124  24.097  22.024  1.00  0.00    -0.267 OA
BRANCH  74  77
ATOM     77  C   UNL A   1      33.124  22.678  23.899  1.00  0.00     0.153 A 
ATOM     78  N   UNL A   1      33.817  21.532  24.024  1.00  0.00    -0.162 NA
ATOM     79  C   UNL A   1      31.927  22.645  24.672  1.00  0.00     0.006 A 
ATOM     80  N   UNL A   1      32.985  20.699  24.680  1.00  0.00    -0.240 N 
ATOM     81  C   UNL A   1      31.836  21.331  25.085  1.00  0.00     0.119 A 
BRANCH  79  82
ATOM     82  C   UNL A   1      30.943  23.747  24.926  1.00  0.00     0.068 C 
BRANCH  82  83
ATOM     83  C   UNL A   1      30.623  23.952  26.411  1.00  0.00     0.161 C 
BRANCH  83  84
ATOM     84  O   UNL A   1      31.478  24.912  27.015  1.00  0.00    -0.396 OA
ATOM     85  H   UNL A   1      31.132  25.149  27.890  1.00  0.00     0.210 HD
ENDBRANCH  83  84
ENDBRANCH  82  83
ENDBRANCH  79  82
BRANCH  80  86
ATOM     86  C   UNL A   1      33.302  19.332  24.827  1.00  0.00     0.065 A 
ATOM     87  C   UNL A   1      34.549  18.863  24.392  1.00  0.00     0.035 A 
ATOM     88  C   UNL A   1      32.359  18.458  25.381  1.00  0.00     0.035 A 
ATOM     89  C   UNL A   1      34.875  17.515  24.557  1.00  0.00     0.088 A 
ATOM     90  C   UNL A   1      32.659  17.098  25.487  1.00  0.00     0.088 A 
ATOM     91  C   UNL A   1      33.924  16.634  25.093  1.00  0.00     0.269 A 
BRANCH  91  92
ATOM     92  N   UNL A   1      34.253  15.212  25.248  1.00  0.00     0.062 N 
ATOM     93  O   UNL A   1      35.441  14.879  25.129  1.00  0.00    -0.258 OA
ATOM     94  O   UNL A   1      33.324  14.431  25.497  1.00  0.00    -0.258 OA
ENDBRANCH  91  92
ENDBRANCH  80  86
ENDBRANCH  74  77
ENDBRANCH  72  73
ENDBRANCH   1  72
TORSDOF 15
ENDMDL
MODEL 2
REMARK VINA RESULT:     -12.6      4.601      9.707
REMARK SMILES O=C(NCCCNC(=O)c1nn(-c2ccc([N+](=O)[O-])cc2)cc1CCO)c1ccc(-c2c3nc(c(-c4c(F)c(F)c(F)c(F)c4F)c4ccc([nH]4)c(-c4c(F)c(F)c(F)c(F)c4F)c4nc(c(-c5c(F)c(F)c(F)c(F)c5F)c5ccc2[nH]5)C=C4)C=C3)cc1
REMARK SMILES IDX 5 1 4 2 3 3 1 4 2 5 27 7 28 8 89 9 29 10 88 11 30 12 31 13
REMARK SMILES IDX 32 14 82 15 33 16 87 17 81 18 83 19 34 20 86 21 80 22 79 23
REMARK SMILES IDX 35 25 67 26 47 27 66 28 48 29 51 30 65 31 84 32 49 33 50 34
REMARK SMILES IDX 64 36 85 37 52 38 36 39 37 40 45 41 38 42 39 43 43 44 46 45
REMARK SMILES IDX 40 46 41 47 44 48 42 49 68 50 69 51 77 52 70 53 71 54 75 55
REMARK SMILES IDX 78 56 72 57 73 58 76 59 74 60 53 61 54 62 62 63 55 64 56 65
REMARK SMILES IDX 60 66 63 67 57 68 58 69 61 70 59 71 6 72 7 73 8 74 9 76
REMARK SMILES IDX 10 77 11 78 23 79 12 80 22 81 24 82 25 83 26 84 13 86 14 87
REMARK SMILES IDX 21 88 15 89 20 90 16 91 17 92 18 93 19 94
REMARK H PARENT 3 6 83 24 51 35 7 75 26 85
REMARK Flexibility Score: inf
ROOT
ATOM      1  C   UNL A   1      35.409  30.036  27.500  1.00  0.00     0.042 C 
ENDROOT
BRANCH   1   2
ATOM      2  C   UNL A   1      35.119  31.448  28.008  1.00  0.00     0.118 C 
BRANCH   2   3
ATOM      3  N   UNL A   1      35.069  31.596  29.448  1.00  0.00    -0.352 N 
ATOM      4  O   UNL A   1      35.616  31.771  31.582  1.00  0.00    -0.269 OA
ATOM      5  C   UNL A   1      35.929  31.329  30.474  1.00  0.00     0.251 C 
ATOM      6  H   UNL A   1      34.216  31.978  29.759  1.00  0.00     0.163 HD
BRANCH   5   7
ATOM      7  C   UNL A   1      37.140  30.476  30.366  1.00  0.00     0.039 A 
ATOM      8  C   UNL A   1      37.174  29.086  30.487  1.00  0.00     0.014 A 
ATOM      9  C   UNL A   1      38.349  31.170  30.182  1.00  0.00     0.014 A 
ATOM     10  C   UNL A   1      38.389  28.415  30.561  1.00  0.00     0.010 A 
ATOM     11  C   UNL A   1      39.564  30.506  30.227  1.00  0.00     0.010 A 
ATOM     12  C   UNL A   1      39.580  29.135  30.475  1.00  0.00    -0.014 A 
BRANCH  12  13
ATOM     13  C   UNL A   1      40.847  28.413  30.533  1.00  0.00     0.031 A 
ATOM     14  C   UNL A   1      41.408  28.217  31.908  1.00  0.00     0.074 A 
ATOM     15  C   UNL A   1      41.337  27.805  29.432  1.00  0.00     0.049 A 
ATOM     16  N   UNL A   1      42.620  28.390  32.331  1.00  0.00    -0.248 NA
ATOM     17  C   UNL A   1      40.460  27.840  32.976  1.00  0.00     0.031 C 
ATOM     18  C   UNL A   1      40.708  27.706  28.109  1.00  0.00     0.029 A 
ATOM     19  N   UNL A   1      42.446  27.027  29.293  1.00  0.00    -0.354 N 
ATOM     20  C   UNL A   1      42.625  27.992  33.671  1.00  0.00     0.074 A 
ATOM     21  C   UNL A   1      41.253  27.780  34.044  1.00  0.00     0.031 C 
ATOM     22  C   UNL A   1      41.308  26.726  27.400  1.00  0.00     0.029 A 
ATOM     23  C   UNL A   1      42.430  26.215  28.167  1.00  0.00     0.049 A 
ATOM     24  H   UNL A   1      43.193  27.040  29.934  1.00  0.00     0.167 HD
ATOM     25  C   UNL A   1      43.773  27.662  34.324  1.00  0.00     0.037 A 
ATOM     26  C   UNL A   1      43.219  25.134  27.937  1.00  0.00     0.037 A 
ATOM     27  C   UNL A   1      44.920  28.275  33.716  1.00  0.00     0.049 A 
ATOM     28  C   UNL A   1      44.374  25.218  28.865  1.00  0.00     0.074 A 
ATOM     29  C   UNL A   1      45.331  29.580  33.518  1.00  0.00     0.029 A 
ATOM     30  N   UNL A   1      45.723  27.515  32.906  1.00  0.00    -0.354 N 
ATOM     31  N   UNL A   1      45.299  26.135  28.796  1.00  0.00    -0.248 NA
ATOM     32  C   UNL A   1      44.243  24.556  30.155  1.00  0.00     0.031 C 
ATOM     33  C   UNL A   1      45.974  29.571  32.247  1.00  0.00     0.029 A 
ATOM     34  C   UNL A   1      45.960  28.257  31.779  1.00  0.00     0.049 A 
ATOM     35  H   UNL A   1      46.063  26.610  33.096  1.00  0.00     0.167 HD
ATOM     36  C   UNL A   1      45.579  26.454  30.116  1.00  0.00     0.074 A 
ATOM     37  C   UNL A   1      44.949  25.402  30.908  1.00  0.00     0.031 C 
ATOM     38  C   UNL A   1      46.051  27.689  30.458  1.00  0.00     0.037 A 
BRANCH  25  39
ATOM     39  C   UNL A   1      43.891  26.498  35.284  1.00  0.00     0.064 A 
ATOM     40  C   UNL A   1      44.435  26.717  36.567  1.00  0.00     0.173 A 
ATOM     41  C   UNL A   1      43.804  25.145  34.888  1.00  0.00     0.173 A 
ATOM     42  F   UNL A   1      44.567  27.961  37.051  1.00  0.00    -0.203 F 
ATOM     43  C   UNL A   1      44.949  25.673  37.341  1.00  0.00     0.198 A 
ATOM     44  C   UNL A   1      44.274  24.101  35.684  1.00  0.00     0.198 A 
ATOM     45  F   UNL A   1      43.368  24.782  33.677  1.00  0.00    -0.203 F 
ATOM     46  F   UNL A   1      45.581  25.945  38.491  1.00  0.00    -0.200 F 
ATOM     47  C   UNL A   1      44.881  24.367  36.893  1.00  0.00     0.200 A 
ATOM     48  F   UNL A   1      44.209  22.844  35.225  1.00  0.00    -0.200 F 
ATOM     49  F   UNL A   1      45.441  23.374  37.595  1.00  0.00    -0.200 F 
ENDBRANCH  25  39
BRANCH  26  50
ATOM     50  C   UNL A   1      42.835  23.873  27.255  1.00  0.00     0.064 A 
ATOM     51  C   UNL A   1      43.602  23.345  26.205  1.00  0.00     0.173 A 
ATOM     52  C   UNL A   1      41.847  23.024  27.794  1.00  0.00     0.173 A 
ATOM     53  F   UNL A   1      44.602  24.064  25.674  1.00  0.00    -0.203 F 
ATOM     54  C   UNL A   1      43.396  22.044  25.727  1.00  0.00     0.198 A 
ATOM     55  C   UNL A   1      41.636  21.732  27.312  1.00  0.00     0.198 A 
ATOM     56  F   UNL A   1      41.130  23.395  28.864  1.00  0.00    -0.203 F 
ATOM     57  F   UNL A   1      44.183  21.554  24.759  1.00  0.00    -0.200 F 
ATOM     58  C   UNL A   1      42.416  21.238  26.284  1.00  0.00     0.200 A 
ATOM     59  F   UNL A   1      40.712  20.951  27.888  1.00  0.00    -0.200 F 
ATOM     60  F   UNL A   1      42.253  19.976  25.863  1.00  0.00    -0.200 F 
ENDBRANCH  26  50
BRANCH  38  61
ATOM     61  C   UNL A   1      46.450  28.620  29.349  1.00  0.00     0.064 A 
ATOM     62  C   UNL A   1      45.565  29.528  28.744  1.00  0.00     0.173 A 
ATOM     63  C   UNL A   1      47.804  28.715  29.009  1.00  0.00     0.173 A 
ATOM     64  F   UNL A   1      44.276  29.575  29.100  1.00  0.00    -0.203 F 
ATOM     65  C   UNL A   1      46.010  30.461  27.810  1.00  0.00     0.198 A 
ATOM     66  C   UNL A   1      48.253  29.672  28.102  1.00  0.00     0.198 A 
ATOM     67  F   UNL A   1      48.705  27.919  29.605  1.00  0.00    -0.203 F 
ATOM     68  F   UNL A   1      45.143  31.317  27.248  1.00  0.00    -0.200 F 
ATOM     69  C   UNL A   1      47.356  30.537  27.496  1.00  0.00     0.200 A 
ATOM     70  F   UNL A   1      49.564  29.780  27.844  1.00  0.00    -0.200 F 
ATOM     71  F   UNL A   1      47.794  31.468  26.636  1.00  0.00    -0.200 F 
ENDBRANCH  38  61
ENDBRANCH  12  13
ENDBRANCH   5   7
ENDBRANCH   2   3
ENDBRANCH   1   2
BRANCH   1  72
ATOM     72  C   UNL A   1      34.251  29.367  26.754  1.00  0.00     0.118 C 
BRANCH  72  73
ATOM     73  N   UNL A   1      33.296  28.729  27.645  1.00  0.00    -0.351 N 
ATOM     74  C   UNL A   1      32.051  28.207  27.376  1.00  0.00     0.272 C 
ATOM     75  H   UNL A   1      33.584  28.659  28.584  1.00  0.00     0.163 HD
ATOM     76  O   UNL A   1      31.354  27.813  28.303  1.00  0.00    -0.267 OA
BRANCH  74  77
ATOM     77  C   UNL A   1      31.565  28.210  25.994  1.00  0.00     0.153 A 
ATOM     78  N   UNL A   1      31.155  29.338  25.386  1.00  0.00    -0.162 NA
ATOM     79  C   UNL A   1      31.511  27.095  25.108  1.00  0.00     0.006 A 
ATOM     80  N   UNL A   1      30.642  28.924  24.211  1.00  0.00    -0.240 N 
ATOM     81  C   UNL A   1      30.834  27.581  24.007  1.00  0.00     0.119 A 
BRANCH  79  82
ATOM     82  C   UNL A   1      31.997  25.695  25.329  1.00  0.00     0.068 C 
BRANCH  82  83
ATOM     83  C   UNL A   1      30.874  24.652  25.353  1.00  0.00     0.161 C 
BRANCH  83  84
ATOM     84  O   UNL A   1      30.345  24.464  26.659  1.00  0.00    -0.396 OA
ATOM     85  H   UNL A   1      29.376  24.470  26.620  1.00  0.00     0.210 HD
ENDBRANCH  83  84
ENDBRANCH  82  83
ENDBRANCH  79  82
BRANCH  80  86
ATOM     86  C   UNL A   1      29.939  29.820  23.378  1.00  0.00     0.065 A 
ATOM     87  C   UNL A   1      29.456  31.023  23.911  1.00  0.00     0.035 A 
ATOM     88  C   UNL A   1      29.711  29.485  22.037  1.00  0.00     0.035 A 
ATOM     89  C   UNL A   1      28.779  31.922  23.083  1.00  0.00     0.088 A 
ATOM     90  C   UNL A   1      28.978  30.354  21.225  1.00  0.00     0.088 A 
ATOM     91  C   UNL A   1      28.533  31.579  21.745  1.00  0.00     0.269 A 
BRANCH  91  92
ATOM     92  N   UNL A   1      27.803  32.511  20.876  1.00  0.00     0.062 N 
ATOM     93  O   UNL A   1      27.393  32.083  19.788  1.00  0.00    -0.258 OA
ATOM     94  O   UNL A   1      27.633  33.668  21.288  1.00  0.00    -0.258 OA
ENDBRANCH  91  92
ENDBRANCH  80  86
ENDBRANCH  74  77
ENDBRANCH  72  73
ENDBRANCH   1  72
TORSDOF 15
ENDMDL
MODEL 3
REMARK VINA RESULT:     -12.4      3.387      8.198
REMARK SMILES O=C(NCCCNC(=O)c1nn(-c2ccc([N+](=O)[O-])cc2)cc1CCO)c1ccc(-c2c3nc(c(-c4c(F)c(F)c(F)c(F)c4F)c4ccc([nH]4)c(-c4c(F)c(F)c(F)c(F)c4F)c4nc(c(-c5c(F)c(F)c(F)c(F)c5F)c5ccc2[nH]5)C=C4)C=C3)cc1
REMARK SMILES IDX 5 1 4 2 3 3 1 4 2 5 27 7 28 8 89 9 29 10 88 11 30 12 31 13
REMARK SMILES IDX 32 14 82 15 33 16 87 17 81 18 83 19 34 20 86 21 80 22 79 23
REMARK SMILES IDX 35 25 67 26 47 27 66 28 48 29 51 30 65 31 84 32 49 33 50 34
REMARK SMILES IDX 64 36 85 37 52 38 36 39 37 40 45 41 38 42 39 43 43 44 46 45
REMARK SMILES IDX 40 46 41 47 44 48 42 49 68 50 69 51 77 52 70 53 71 54 75 55
REMARK SMILES IDX 78 56 72 57 73 58 76 59 74 60 53 61 54 62 62 63 55 64 56 65
REMARK SMILES IDX 60 66 63 67 57 68 58 69 61 70 59 71 6 72 7 73 8 74 9 76
REMARK SMILES IDX 10 77 11 78 23 79 12 80 22 81 24 82 25 83 26 84 13 86 14 87
REMARK SMILES IDX 21 88 15 89 20 90 16 91 17 92 18 93 19 94
REMARK H PARENT 3 6 83 24 51 35 7 75 26 85
REMARK Flexibility Score: inf
ROOT
ATOM      1  C   UNL A   1      33.542  29.416  27.112  1.00  0.00     0.042 C 
ENDROOT
BRANCH   1   2
ATOM      2  C   UNL A   1      34.570  30.514  27.387  1.00  0.00     0.118 C 
BRANCH   2   3
ATOM      3  N   UNL A   1      34.396  31.232  28.634  1.00  0.00    -0.352 N 
ATOM      4  O   UNL A   1      34.757  32.377  30.489  1.00  0.00    -0.269 OA
ATOM      5  C   UNL A   1      35.219  31.586  29.664  1.00  0.00     0.251 C 
ATOM      6  H   UNL A   1      33.469  31.535  28.770  1.00  0.00     0.163 HD
BRANCH   5   7
ATOM      7  C   UNL A   1      36.570  31.018  29.904  1.00  0.00     0.039 A 
ATOM      8  C   UNL A   1      37.775  31.722  29.841  1.00  0.00     0.014 A 
ATOM      9  C   UNL A   1      36.606  29.636  30.157  1.00  0.00     0.014 A 
ATOM     10  C   UNL A   1      38.989  31.046  29.891  1.00  0.00     0.010 A 
ATOM     11  C   UNL A   1      37.811  28.958  30.238  1.00  0.00     0.010 A 
ATOM     12  C   UNL A   1      38.999  29.661  30.045  1.00  0.00    -0.014 A 
BRANCH  12  13
ATOM     13  C   UNL A   1      40.283  28.968  30.119  1.00  0.00     0.031 A 
ATOM     14  C   UNL A   1      40.846  28.813  31.499  1.00  0.00     0.074 A 
ATOM     15  C   UNL A   1      40.787  28.348  29.031  1.00  0.00     0.049 A 
ATOM     16  N   UNL A   1      42.053  29.022  31.919  1.00  0.00    -0.248 NA
ATOM     17  C   UNL A   1      39.905  28.438  32.573  1.00  0.00     0.031 C 
ATOM     18  C   UNL A   1      40.162  28.208  27.710  1.00  0.00     0.029 A 
ATOM     19  N   UNL A   1      41.913  27.593  28.910  1.00  0.00    -0.354 N 
ATOM     20  C   UNL A   1      42.065  28.652  33.266  1.00  0.00     0.074 A 
ATOM     21  C   UNL A   1      40.698  28.418  33.643  1.00  0.00     0.031 C 
ATOM     22  C   UNL A   1      40.785  27.226  27.022  1.00  0.00     0.029 A 
ATOM     23  C   UNL A   1      41.916  26.757  27.801  1.00  0.00     0.049 A 
ATOM     24  H   UNL A   1      42.659  27.635  29.550  1.00  0.00     0.167 HD
ATOM     25  C   UNL A   1      43.219  28.361  33.927  1.00  0.00     0.037 A 
ATOM     26  C   UNL A   1      42.729  25.689  27.594  1.00  0.00     0.037 A 
ATOM     27  C   UNL A   1      44.354  28.987  33.307  1.00  0.00     0.049 A 
ATOM     28  C   UNL A   1      43.881  25.818  28.521  1.00  0.00     0.074 A 
ATOM     29  C   UNL A   1      44.736  30.296  33.082  1.00  0.00     0.029 A 
ATOM     30  N   UNL A   1      45.174  28.228  32.514  1.00  0.00    -0.354 N 
ATOM     31  N   UNL A   1      44.786  26.754  28.433  1.00  0.00    -0.248 NA
ATOM     32  C   UNL A   1      43.763  25.180  29.824  1.00  0.00     0.031 C 
ATOM     33  C   UNL A   1      45.381  30.275  31.812  1.00  0.00     0.029 A 
ATOM     34  C   UNL A   1      45.396  28.951  31.372  1.00  0.00     0.049 A 
ATOM     35  H   UNL A   1      45.534  27.335  32.723  1.00  0.00     0.167 HD
ATOM     36  C   UNL A   1      45.057  27.106  29.746  1.00  0.00     0.074 A 
ATOM     37  C   UNL A   1      44.450  26.057  30.560  1.00  0.00     0.031 C 
ATOM     38  C   UNL A   1      45.501  28.358  30.063  1.00  0.00     0.037 A 
BRANCH  25  39
ATOM     39  C   UNL A   1      43.363  27.221  34.911  1.00  0.00     0.064 A 
ATOM     40  C   UNL A   1      43.635  27.510  36.265  1.00  0.00     0.173 A 
ATOM     41  C   UNL A   1      43.569  25.877  34.527  1.00  0.00     0.173 A 
ATOM     42  F   UNL A   1      43.475  28.752  36.745  1.00  0.00    -0.203 F 
ATOM     43  C   UNL A   1      44.174  26.555  37.132  1.00  0.00     0.198 A 
ATOM     44  C   UNL A   1      44.062  24.915  35.408  1.00  0.00     0.198 A 
ATOM     45  F   UNL A   1      43.413  25.463  33.265  1.00  0.00    -0.203 F 
ATOM     46  F   UNL A   1      44.547  26.913  38.368  1.00  0.00    -0.200 F 
ATOM     47  C   UNL A   1      44.401  25.262  36.698  1.00  0.00     0.200 A 
ATOM     48  F   UNL A   1      44.284  23.670  34.964  1.00  0.00    -0.200 F 
ATOM     49  F   UNL A   1      44.988  24.366  37.501  1.00  0.00    -0.200 F 
ENDBRANCH  25  39
BRANCH  26  50
ATOM     50  C   UNL A   1      42.374  24.406  26.938  1.00  0.00     0.064 A 
ATOM     51  C   UNL A   1      43.221  23.807  25.992  1.00  0.00     0.173 A 
ATOM     52  C   UNL A   1      41.314  23.610  27.419  1.00  0.00     0.173 A 
ATOM     53  F   UNL A   1      44.288  24.473  25.527  1.00  0.00    -0.203 F 
ATOM     54  C   UNL A   1      43.022  22.490  25.558  1.00  0.00     0.198 A 
ATOM     55  C   UNL A   1      41.111  22.302  26.979  1.00  0.00     0.198 A 
ATOM     56  F   UNL A   1      40.511  24.052  28.397  1.00  0.00    -0.203 F 
ATOM     57  F   UNL A   1      43.882  21.933  24.695  1.00  0.00    -0.200 F 
ATOM     58  C   UNL A   1      41.971  21.737  26.056  1.00  0.00     0.200 A 
ATOM     59  F   UNL A   1      40.114  21.574  27.501  1.00  0.00    -0.200 F 
ATOM     60  F   UNL A   1      41.810  20.460  25.681  1.00  0.00    -0.200 F 
ENDBRANCH  26  50
BRANCH  38  61
ATOM     61  C   UNL A   1      45.881  29.274  28.935  1.00  0.00     0.064 A 
ATOM     62  C   UNL A   1      44.963  30.104  28.269  1.00  0.00     0.173 A 
ATOM     63  C   UNL A   1      47.238  29.442  28.636  1.00  0.00     0.173 A 
ATOM     64  F   UNL A   1      43.663  30.082  28.580  1.00  0.00    -0.203 F 
ATOM     65  C   UNL A   1      45.383  31.031  27.317  1.00  0.00     0.198 A 
ATOM     66  C   UNL A   1      47.658  30.394  27.711  1.00  0.00     0.198 A 
ATOM     67  F   UNL A   1      48.164  28.724  29.290  1.00  0.00    -0.203 F 
ATOM     68  F   UNL A   1      44.486  31.812  26.697  1.00  0.00    -0.200 F 
ATOM     69  C   UNL A   1      46.732  31.181  27.045  1.00  0.00     0.200 A 
ATOM     70  F   UNL A   1      48.968  30.575  27.492  1.00  0.00    -0.200 F 
ATOM     71  F   UNL A   1      47.142  32.108  26.168  1.00  0.00    -0.200 F 
ENDBRANCH  38  61
ENDBRANCH  12  13
ENDBRANCH   5   7
ENDBRANCH   2   3
ENDBRANCH   1   2
BRANCH   1  72
ATOM     72  C   UNL A   1      32.594  29.698  25.944  1.00  0.00     0.118 C 
BRANCH  72  73
ATOM     73  N   UNL A   1      33.264  29.687  24.654  1.00  0.00    -0.351 N 
ATOM     74  C   UNL A   1      33.211  28.758  23.639  1.00  0.00     0.272 C 
ATOM     75  H   UNL A   1      33.846  30.463  24.479  1.00  0.00     0.163 HD
ATOM     76  O   UNL A   1      33.951  28.885  22.671  1.00  0.00    -0.267 OA
BRANCH  74  77
ATOM     77  C   UNL A   1      32.323  27.601  23.783  1.00  0.00     0.153 A 
ATOM     78  N   UNL A   1      32.792  26.380  24.098  1.00  0.00    -0.162 NA
ATOM     79  C   UNL A   1      30.902  27.600  23.681  1.00  0.00     0.006 A 
ATOM     80  N   UNL A   1      31.725  25.566  23.983  1.00  0.00    -0.240 N 
ATOM     81  C   UNL A   1      30.569  26.261  23.731  1.00  0.00     0.119 A 
BRANCH  79  82
ATOM     82  C   UNL A   1      29.973  28.760  23.485  1.00  0.00     0.068 C 
BRANCH  82  83
ATOM     83  C   UNL A   1      29.882  29.232  22.030  1.00  0.00     0.161 C 
BRANCH  83  84
ATOM     84  O   UNL A   1      31.023  29.983  21.638  1.00  0.00    -0.396 OA
ATOM     85  H   UNL A   1      30.993  30.859  22.055  1.00  0.00     0.210 HD
ENDBRANCH  83  84
ENDBRANCH  82  83
ENDBRANCH  79  82
BRANCH  80  86
ATOM     86  C   UNL A   1      31.876  24.165  24.056  1.00  0.00     0.065 A 
ATOM     87  C   UNL A   1      32.351  23.464  22.938  1.00  0.00     0.035 A 
ATOM     88  C   UNL A   1      31.528  23.490  25.232  1.00  0.00     0.035 A 
ATOM     89  C   UNL A   1      32.524  22.080  23.014  1.00  0.00     0.088 A 
ATOM     90  C   UNL A   1      31.639  22.098  25.287  1.00  0.00     0.088 A 
ATOM     91  C   UNL A   1      32.156  21.400  24.185  1.00  0.00     0.269 A 
BRANCH  91  92
ATOM     92  N   UNL A   1      32.315  19.942  24.262  1.00  0.00     0.062 N 
ATOM     93  O   UNL A   1      32.163  19.404  25.367  1.00  0.00    -0.258 OA
ATOM     94  O   UNL A   1      32.584  19.338  23.214  1.00  0.00    -0.258 OA
ENDBRANCH  91  92
ENDBRANCH  80  86
ENDBRANCH  74  77
ENDBRANCH  72  73
ENDBRANCH   1  72
TORSDOF 15
ENDMDL
