MODEL 1
REMARK VINA RESULT:     -13.0      0.000      0.000
REMARK SMILES Cc1cc(C)n(CC(=O)N[C@H]2C=C[C@@H](C(=O)NCCCNC(=O)c3ccc(-c4c5nc(c(-c6c(F)c(F)c(F)c(F)c6F)c6ccc([nH]6)c(-c6c(F)c(F)c(F)c(F)c6F)c6nc(c(-c7c(F)c(F)c(F)c(F)c7F)c7ccc4[nH]7)C=C6)C=C5)cc3)C2)n1
REMARK SMILES IDX 18 1 17 2 15 3 16 4 14 6 11 7 12 8 87 9 13 10 10 11 8 12
REMARK SMILES IDX 9 13 7 15 6 16 1 17 2 18 3 19 88 20 4 21 5 22 19 23 20 24
REMARK SMILES IDX 21 25 22 26 23 28 24 29 25 30 86 31 26 32 85 33 27 34 28 35
REMARK SMILES IDX 29 36 79 37 30 38 84 39 78 40 80 41 31 42 83 43 77 44 76 45
REMARK SMILES IDX 32 47 64 48 44 49 63 50 45 51 48 52 62 53 81 54 46 55 47 56
REMARK SMILES IDX 61 58 82 59 49 60 33 61 34 62 42 63 35 64 36 65 40 66 43 67
REMARK SMILES IDX 37 68 38 69 41 70 39 71 65 72 66 73 74 74 67 75 68 76 72 77
REMARK SMILES IDX 75 78 69 79 70 80 73 81 71 82 50 83 51 84 59 85 52 86 53 87
REMARK SMILES IDX 57 88 60 89 54 90 55 91 58 92 56 93
REMARK H PARENT 17 5 10 14 21 27 80 46 48 57
REMARK Flexibility Score: inf
ROOT
ATOM      1  C   UNL A   1      37.617  20.570  25.034  1.00  0.00     0.117 C 
ENDROOT
BRANCH   1   2
ATOM      2  N   UNL A   1      36.214  20.554  25.386  1.00  0.00    -0.356 N 
ATOM      3  C   UNL A   1      35.212  21.354  24.932  1.00  0.00     0.227 C 
ATOM      4  O   UNL A   1      34.069  20.880  24.993  1.00  0.00    -0.274 OA
ATOM      5  H   UNL A   1      35.948  19.872  26.042  1.00  0.00     0.163 HD
BRANCH   3   6
ATOM      6  C   UNL A   1      35.416  22.766  24.355  1.00  0.00     0.103 C 
ATOM      7  C   UNL A   1      33.876  24.535  23.529  1.00  0.00     0.106 C 
ATOM      8  C   UNL A   1      34.424  24.832  24.870  1.00  0.00    -0.006 C 
ATOM      9  C   UNL A   1      34.590  23.212  23.140  1.00  0.00     0.047 C 
ATOM     10  C   UNL A   1      35.229  23.871  25.335  1.00  0.00    -0.016 C 
BRANCH   7  11
ATOM     11  N   UNL A   1      32.425  24.379  23.455  1.00  0.00    -0.348 N 
ATOM     12  C   UNL A   1      31.349  25.159  23.178  1.00  0.00     0.242 C 
ATOM     13  O   UNL A   1      30.263  24.564  23.144  1.00  0.00    -0.273 OA
ATOM     14  H   UNL A   1      32.154  23.456  23.665  1.00  0.00     0.164 HD
BRANCH  12  15
ATOM     15  C   UNL A   1      31.395  26.649  22.932  1.00  0.00     0.244 C 
BRANCH  15  16
ATOM     16  N   UNL A   1      31.951  27.386  24.054  1.00  0.00    -0.260 N 
ATOM     17  C   UNL A   1      31.649  28.240  27.477  1.00  0.00     0.069 C 
ATOM     18  C   UNL A   1      32.083  28.052  26.070  1.00  0.00     0.060 A 
ATOM     19  C   UNL A   1      33.082  28.747  25.354  1.00  0.00     0.048 A 
ATOM     20  N   UNL A   1      31.465  27.164  25.290  1.00  0.00    -0.178 NA
ATOM     21  C   UNL A   1      32.979  28.299  24.050  1.00  0.00     0.036 A 
ATOM     22  C   UNL A   1      33.730  28.692  22.831  1.00  0.00     0.066 C 
ENDBRANCH  15  16
ENDBRANCH  12  15
ENDBRANCH   7  11
ENDBRANCH   3   6
ENDBRANCH   1   2
BRANCH   1  23
ATOM     23  C   UNL A   1      38.325  21.885  25.357  1.00  0.00     0.042 C 
BRANCH  23  24
ATOM     24  C   UNL A   1      39.383  21.696  26.439  1.00  0.00     0.118 C 
BRANCH  24  25
ATOM     25  N   UNL A   1      40.748  21.921  25.947  1.00  0.00    -0.352 N 
ATOM     26  C   UNL A   1      41.537  23.063  26.025  1.00  0.00     0.251 C 
ATOM     27  H   UNL A   1      41.165  21.152  25.496  1.00  0.00     0.163 HD
ATOM     28  O   UNL A   1      42.563  23.202  25.406  1.00  0.00    -0.269 OA
BRANCH  26  29
ATOM     29  C   UNL A   1      41.054  24.117  26.928  1.00  0.00     0.039 A 
ATOM     30  C   UNL A   1      41.592  24.277  28.204  1.00  0.00     0.014 A 
ATOM     31  C   UNL A   1      40.247  25.079  26.342  1.00  0.00     0.014 A 
ATOM     32  C   UNL A   1      41.441  25.511  28.830  1.00  0.00     0.010 A 
ATOM     33  C   UNL A   1      40.283  26.341  26.868  1.00  0.00     0.010 A 
ATOM     34  C   UNL A   1      40.843  26.568  28.125  1.00  0.00    -0.014 A 
BRANCH  34  35
ATOM     35  C   UNL A   1      40.917  27.941  28.624  1.00  0.00     0.031 A 
ATOM     36  C   UNL A   1      42.018  28.790  28.082  1.00  0.00     0.074 A 
ATOM     37  C   UNL A   1      39.932  28.524  29.339  1.00  0.00     0.049 A 
ATOM     38  N   UNL A   1      43.016  29.290  28.734  1.00  0.00    -0.248 NA
ATOM     39  C   UNL A   1      42.053  29.070  26.640  1.00  0.00     0.031 C 
ATOM     40  C   UNL A   1      38.620  27.969  29.706  1.00  0.00     0.029 A 
ATOM     41  N   UNL A   1      39.854  29.806  29.794  1.00  0.00    -0.354 N 
ATOM     42  C   UNL A   1      43.715  30.089  27.831  1.00  0.00     0.074 A 
ATOM     43  C   UNL A   1      43.164  29.805  26.532  1.00  0.00     0.031 C 
ATOM     44  C   UNL A   1      37.797  28.965  30.084  1.00  0.00     0.029 A 
ATOM     45  C   UNL A   1      38.586  30.173  30.213  1.00  0.00     0.049 A 
ATOM     46  H   UNL A   1      40.627  30.415  29.823  1.00  0.00     0.167 HD
ATOM     47  C   UNL A   1      44.537  31.086  28.269  1.00  0.00     0.037 A 
ATOM     48  C   UNL A   1      38.194  31.376  30.677  1.00  0.00     0.037 A 
ATOM     49  C   UNL A   1      44.765  30.979  29.687  1.00  0.00     0.049 A 
ATOM     50  C   UNL A   1      39.394  32.052  31.213  1.00  0.00     0.074 A 
ATOM     51  C   UNL A   1      45.449  30.130  30.526  1.00  0.00     0.029 A 
ATOM     52  N   UNL A   1      43.899  31.702  30.464  1.00  0.00    -0.354 N 
ATOM     53  N   UNL A   1      40.071  31.618  32.242  1.00  0.00    -0.248 NA
ATOM     54  C   UNL A   1      40.066  33.065  30.409  1.00  0.00     0.031 C 
ATOM     55  C   UNL A   1      44.738  30.155  31.765  1.00  0.00     0.029 A 
ATOM     56  C   UNL A   1      43.665  31.040  31.639  1.00  0.00     0.049 A 
ATOM     57  H   UNL A   1      43.505  32.568  30.215  1.00  0.00     0.167 HD
ATOM     58  C   UNL A   1      41.379  31.967  31.966  1.00  0.00     0.074 A 
ATOM     59  C   UNL A   1      41.285  33.007  30.950  1.00  0.00     0.031 C 
ATOM     60  C   UNL A   1      42.413  31.166  32.356  1.00  0.00     0.037 A 
BRANCH  47  61
ATOM     61  C   UNL A   1      44.803  32.398  27.557  1.00  0.00     0.064 A 
ATOM     62  C   UNL A   1      46.037  32.578  26.891  1.00  0.00     0.173 A 
ATOM     63  C   UNL A   1      44.061  33.575  27.780  1.00  0.00     0.173 A 
ATOM     64  F   UNL A   1      46.838  31.531  26.639  1.00  0.00    -0.203 F 
ATOM     65  C   UNL A   1      46.523  33.845  26.554  1.00  0.00     0.198 A 
ATOM     66  C   UNL A   1      44.525  34.834  27.393  1.00  0.00     0.198 A 
ATOM     67  F   UNL A   1      42.921  33.573  28.480  1.00  0.00    -0.203 F 
ATOM     68  F   UNL A   1      47.754  33.975  26.043  1.00  0.00    -0.200 F 
ATOM     69  C   UNL A   1      45.768  34.974  26.812  1.00  0.00     0.200 A 
ATOM     70  F   UNL A   1      43.789  35.920  27.670  1.00  0.00    -0.200 F 
ATOM     71  F   UNL A   1      46.255  36.194  26.549  1.00  0.00    -0.200 F 
ENDBRANCH  47  61
BRANCH  48  72
ATOM     72  C   UNL A   1      36.873  32.013  30.533  1.00  0.00     0.064 A 
ATOM     73  C   UNL A   1      35.936  31.984  31.573  1.00  0.00     0.173 A 
ATOM     74  C   UNL A   1      36.605  32.887  29.459  1.00  0.00     0.173 A 
ATOM     75  F   UNL A   1      36.138  31.197  32.639  1.00  0.00    -0.203 F 
ATOM     76  C   UNL A   1      34.813  32.814  31.561  1.00  0.00     0.198 A 
ATOM     77  C   UNL A   1      35.480  33.709  29.446  1.00  0.00     0.198 A 
ATOM     78  F   UNL A   1      37.479  33.024  28.449  1.00  0.00    -0.203 F 
ATOM     79  F   UNL A   1      33.972  32.809  32.605  1.00  0.00    -0.200 F 
ATOM     80  C   UNL A   1      34.593  33.684  30.506  1.00  0.00     0.200 A 
ATOM     81  F   UNL A   1      35.295  34.568  28.434  1.00  0.00    -0.200 F 
ATOM     82  F   UNL A   1      33.552  34.528  30.530  1.00  0.00    -0.200 F 
ENDBRANCH  48  72
BRANCH  60  83
ATOM     83  C   UNL A   1      42.156  30.206  33.480  1.00  0.00     0.064 A 
ATOM     84  C   UNL A   1      41.755  28.871  33.314  1.00  0.00     0.173 A 
ATOM     85  C   UNL A   1      42.418  30.643  34.786  1.00  0.00     0.173 A 
ATOM     86  F   UNL A   1      41.572  28.351  32.096  1.00  0.00    -0.203 F 
ATOM     87  C   UNL A   1      41.577  28.029  34.411  1.00  0.00     0.198 A 
ATOM     88  C   UNL A   1      42.276  29.789  35.876  1.00  0.00     0.198 A 
ATOM     89  F   UNL A   1      42.853  31.894  35.002  1.00  0.00    -0.203 F 
ATOM     90  F   UNL A   1      41.170  26.763  34.227  1.00  0.00    -0.200 F 
ATOM     91  C   UNL A   1      41.842  28.487  35.690  1.00  0.00     0.200 A 
ATOM     92  F   UNL A   1      42.578  30.226  37.107  1.00  0.00    -0.200 F 
ATOM     93  F   UNL A   1      41.701  27.669  36.742  1.00  0.00    -0.200 F 
ENDBRANCH  60  83
ENDBRANCH  34  35
ENDBRANCH  26  29
ENDBRANCH  24  25
ENDBRANCH  23  24
ENDBRANCH   1  23
TORSDOF 13
ENDMDL
MODEL 2
REMARK VINA RESULT:     -13.0      3.446      8.785
REMARK SMILES Cc1cc(C)n(CC(=O)N[C@H]2C=C[C@@H](C(=O)NCCCNC(=O)c3ccc(-c4c5nc(c(-c6c(F)c(F)c(F)c(F)c6F)c6ccc([nH]6)c(-c6c(F)c(F)c(F)c(F)c6F)c6nc(c(-c7c(F)c(F)c(F)c(F)c7F)c7ccc4[nH]7)C=C6)C=C5)cc3)C2)n1
REMARK SMILES IDX 18 1 17 2 15 3 16 4 14 6 11 7 12 8 87 9 13 10 10 11 8 12
REMARK SMILES IDX 9 13 7 15 6 16 1 17 2 18 3 19 88 20 4 21 5 22 19 23 20 24
REMARK SMILES IDX 21 25 22 26 23 28 24 29 25 30 86 31 26 32 85 33 27 34 28 35
REMARK SMILES IDX 29 36 79 37 30 38 84 39 78 40 80 41 31 42 83 43 77 44 76 45
REMARK SMILES IDX 32 47 64 48 44 49 63 50 45 51 48 52 62 53 81 54 46 55 47 56
REMARK SMILES IDX 61 58 82 59 49 60 33 61 34 62 42 63 35 64 36 65 40 66 43 67
REMARK SMILES IDX 37 68 38 69 41 70 39 71 65 72 66 73 74 74 67 75 68 76 72 77
REMARK SMILES IDX 75 78 69 79 70 80 73 81 71 82 50 83 51 84 59 85 52 86 53 87
REMARK SMILES IDX 57 88 60 89 54 90 55 91 58 92 56 93
REMARK H PARENT 17 5 10 14 21 27 80 46 48 57
REMARK Flexibility Score: inf
ROOT
ATOM      1  C   UNL A   1      33.032  33.254  27.977  1.00  0.00     0.117 C 
ENDROOT
BRANCH   1   2
ATOM      2  N   UNL A   1      33.943  32.134  28.070  1.00  0.00    -0.356 N 
ATOM      3  C   UNL A   1      33.819  30.887  27.539  1.00  0.00     0.227 C 
ATOM      4  O   UNL A   1      34.877  30.274  27.343  1.00  0.00    -0.274 OA
ATOM      5  H   UNL A   1      34.763  32.295  28.588  1.00  0.00     0.163 HD
BRANCH   3   6
ATOM      6  C   UNL A   1      32.480  30.225  27.170  1.00  0.00     0.103 C 
ATOM      7  C   UNL A   1      31.694  28.879  25.234  1.00  0.00     0.106 C 
ATOM      8  C   UNL A   1      31.949  28.058  26.437  1.00  0.00    -0.006 C 
ATOM      9  C   UNL A   1      31.959  30.326  25.730  1.00  0.00     0.047 C 
ATOM     10  C   UNL A   1      32.402  28.770  27.474  1.00  0.00    -0.016 C 
BRANCH   7  11
ATOM     11  N   UNL A   1      32.520  28.572  24.068  1.00  0.00    -0.348 N 
ATOM     12  C   UNL A   1      32.363  27.967  22.863  1.00  0.00     0.242 C 
ATOM     13  O   UNL A   1      33.352  28.012  22.120  1.00  0.00    -0.273 OA
ATOM     14  H   UNL A   1      33.444  28.891  24.191  1.00  0.00     0.164 HD
BRANCH  12  15
ATOM     15  C   UNL A   1      31.109  27.262  22.401  1.00  0.00     0.244 C 
BRANCH  15  16
ATOM     16  N   UNL A   1      29.930  28.109  22.472  1.00  0.00    -0.260 N 
ATOM     17  C   UNL A   1      28.516  31.279  21.771  1.00  0.00     0.069 C 
ATOM     18  C   UNL A   1      28.777  29.869  22.154  1.00  0.00     0.060 A 
ATOM     19  C   UNL A   1      27.975  28.999  22.924  1.00  0.00     0.048 A 
ATOM     20  N   UNL A   1      29.925  29.282  21.809  1.00  0.00    -0.178 NA
ATOM     21  C   UNL A   1      28.741  27.865  23.117  1.00  0.00     0.036 A 
ATOM     22  C   UNL A   1      28.456  26.625  23.881  1.00  0.00     0.066 C 
ENDBRANCH  15  16
ENDBRANCH  12  15
ENDBRANCH   7  11
ENDBRANCH   3   6
ENDBRANCH   1   2
BRANCH   1  23
ATOM     23  C   UNL A   1      33.719  34.618  28.012  1.00  0.00     0.042 C 
BRANCH  23  24
ATOM     24  C   UNL A   1      34.424  34.852  29.344  1.00  0.00     0.118 C 
BRANCH  24  25
ATOM     25  N   UNL A   1      33.526  35.378  30.380  1.00  0.00    -0.352 N 
ATOM     26  C   UNL A   1      33.430  35.032  31.723  1.00  0.00     0.251 C 
ATOM     27  H   UNL A   1      32.901  36.077  30.080  1.00  0.00     0.163 HD
ATOM     28  O   UNL A   1      32.518  35.379  32.433  1.00  0.00    -0.269 OA
BRANCH  26  29
ATOM     29  C   UNL A   1      34.525  34.208  32.254  1.00  0.00     0.039 A 
ATOM     30  C   UNL A   1      34.458  32.816  32.233  1.00  0.00     0.014 A 
ATOM     31  C   UNL A   1      35.705  34.885  32.518  1.00  0.00     0.014 A 
ATOM     32  C   UNL A   1      35.648  32.100  32.319  1.00  0.00     0.010 A 
ATOM     33  C   UNL A   1      36.876  34.189  32.392  1.00  0.00     0.010 A 
ATOM     34  C   UNL A   1      36.868  32.796  32.328  1.00  0.00    -0.014 A 
BRANCH  34  35
ATOM     35  C   UNL A   1      38.136  32.094  32.132  1.00  0.00     0.031 A 
ATOM     36  C   UNL A   1      38.920  31.776  33.360  1.00  0.00     0.074 A 
ATOM     37  C   UNL A   1      38.496  31.530  30.960  1.00  0.00     0.049 A 
ATOM     38  N   UNL A   1      40.082  32.237  33.690  1.00  0.00    -0.248 NA
ATOM     39  C   UNL A   1      38.325  30.893  34.373  1.00  0.00     0.031 C 
ATOM     40  C   UNL A   1      37.724  31.446  29.711  1.00  0.00     0.029 A 
ATOM     41  N   UNL A   1      39.608  30.795  30.675  1.00  0.00    -0.354 N 
ATOM     42  C   UNL A   1      40.450  31.578  34.862  1.00  0.00     0.074 A 
ATOM     43  C   UNL A   1      39.278  30.873  35.311  1.00  0.00     0.031 C 
ATOM     44  C   UNL A   1      38.258  30.504  28.911  1.00  0.00     0.029 A 
ATOM     45  C   UNL A   1      39.526  30.100  29.482  1.00  0.00     0.049 A 
ATOM     46  H   UNL A   1      40.397  30.762  31.264  1.00  0.00     0.167 HD
ATOM     47  C   UNL A   1      41.759  31.490  35.235  1.00  0.00     0.037 A 
ATOM     48  C   UNL A   1      40.447  29.268  28.954  1.00  0.00     0.037 A 
ATOM     49  C   UNL A   1      42.579  32.371  34.444  1.00  0.00     0.049 A 
ATOM     50  C   UNL A   1      41.758  29.648  29.521  1.00  0.00     0.074 A 
ATOM     51  C   UNL A   1      42.765  33.730  34.332  1.00  0.00     0.029 A 
ATOM     52  N   UNL A   1      43.126  31.797  33.327  1.00  0.00    -0.354 N 
ATOM     53  N   UNL A   1      42.335  30.798  29.302  1.00  0.00    -0.248 NA
ATOM     54  C   UNL A   1      42.317  28.870  30.619  1.00  0.00     0.031 C 
ATOM     55  C   UNL A   1      43.154  33.957  32.977  1.00  0.00     0.029 A 
ATOM     56  C   UNL A   1      43.216  32.724  32.324  1.00  0.00     0.049 A 
ATOM     57  H   UNL A   1      43.413  30.858  33.256  1.00  0.00     0.167 HD
ATOM     58  C   UNL A   1      43.014  31.072  30.474  1.00  0.00     0.074 A 
ATOM     59  C   UNL A   1      43.128  29.787  31.151  1.00  0.00     0.031 C 
ATOM     60  C   UNL A   1      43.140  32.354  30.926  1.00  0.00     0.037 A 
BRANCH  47  61
ATOM     61  C   UNL A   1      42.395  30.340  35.990  1.00  0.00     0.064 A 
ATOM     62  C   UNL A   1      43.343  30.625  37.000  1.00  0.00     0.173 A 
ATOM     63  C   UNL A   1      42.367  29.002  35.550  1.00  0.00     0.173 A 
ATOM     64  F   UNL A   1      43.473  31.868  37.486  1.00  0.00    -0.203 F 
ATOM     65  C   UNL A   1      44.246  29.663  37.465  1.00  0.00     0.198 A 
ATOM     66  C   UNL A   1      43.233  28.031  36.056  1.00  0.00     0.198 A 
ATOM     67  F   UNL A   1      41.588  28.606  34.536  1.00  0.00    -0.203 F 
ATOM     68  F   UNL A   1      45.211  30.013  38.325  1.00  0.00    -0.200 F 
ATOM     69  C   UNL A   1      44.194  28.368  36.987  1.00  0.00     0.200 A 
ATOM     70  F   UNL A   1      43.183  26.784  35.566  1.00  0.00    -0.200 F 
ATOM     71  F   UNL A   1      45.096  27.458  37.382  1.00  0.00    -0.200 F 
ENDBRANCH  47  61
BRANCH  48  72
ATOM     72  C   UNL A   1      40.214  28.078  28.115  1.00  0.00     0.064 A 
ATOM     73  C   UNL A   1      40.874  27.914  26.891  1.00  0.00     0.173 A 
ATOM     74  C   UNL A   1      39.531  26.956  28.626  1.00  0.00     0.173 A 
ATOM     75  F   UNL A   1      41.567  28.930  26.358  1.00  0.00    -0.203 F 
ATOM     76  C   UNL A   1      40.886  26.682  26.233  1.00  0.00     0.198 A 
ATOM     77  C   UNL A   1      39.538  25.730  27.964  1.00  0.00     0.198 A 
ATOM     78  F   UNL A   1      38.923  27.006  29.821  1.00  0.00    -0.203 F 
ATOM     79  F   UNL A   1      41.583  26.542  25.097  1.00  0.00    -0.200 F 
ATOM     80  C   UNL A   1      40.231  25.589  26.775  1.00  0.00     0.200 A 
ATOM     81  F   UNL A   1      38.925  24.673  28.515  1.00  0.00    -0.200 F 
ATOM     82  F   UNL A   1      40.301  24.392  26.177  1.00  0.00    -0.200 F 
ENDBRANCH  48  72
BRANCH  60  83
ATOM     83  C   UNL A   1      42.984  33.458  29.922  1.00  0.00     0.064 A 
ATOM     84  C   UNL A   1      43.967  33.837  28.994  1.00  0.00     0.173 A 
ATOM     85  C   UNL A   1      41.740  34.099  29.842  1.00  0.00     0.173 A 
ATOM     86  F   UNL A   1      45.148  33.213  28.944  1.00  0.00    -0.203 F 
ATOM     87  C   UNL A   1      43.730  34.847  28.063  1.00  0.00     0.198 A 
ATOM     88  C   UNL A   1      41.494  35.082  28.887  1.00  0.00     0.198 A 
ATOM     89  F   UNL A   1      40.746  33.743  30.670  1.00  0.00    -0.203 F 
ATOM     90  F   UNL A   1      44.694  35.208  27.202  1.00  0.00    -0.200 F 
ATOM     91  C   UNL A   1      42.493  35.465  28.007  1.00  0.00     0.200 A 
ATOM     92  F   UNL A   1      40.280  35.643  28.809  1.00  0.00    -0.200 F 
ATOM     93  F   UNL A   1      42.254  36.415  27.092  1.00  0.00    -0.200 F 
ENDBRANCH  60  83
ENDBRANCH  34  35
ENDBRANCH  26  29
ENDBRANCH  24  25
ENDBRANCH  23  24
ENDBRANCH   1  23
TORSDOF 13
ENDMDL
MODEL 3
REMARK VINA RESULT:     -12.8      5.093     11.007
REMARK SMILES Cc1cc(C)n(CC(=O)N[C@H]2C=C[C@@H](C(=O)NCCCNC(=O)c3ccc(-c4c5nc(c(-c6c(F)c(F)c(F)c(F)c6F)c6ccc([nH]6)c(-c6c(F)c(F)c(F)c(F)c6F)c6nc(c(-c7c(F)c(F)c(F)c(F)c7F)c7ccc4[nH]7)C=C6)C=C5)cc3)C2)n1
REMARK SMILES IDX 18 1 17 2 15 3 16 4 14 6 11 7 12 8 87 9 13 10 10 11 8 12
REMARK SMILES IDX 9 13 7 15 6 16 1 17 2 18 3 19 88 20 4 21 5 22 19 23 20 24
REMARK SMILES IDX 21 25 22 26 23 28 24 29 25 30 86 31 26 32 85 33 27 34 28 35
REMARK SMILES IDX 29 36 79 37 30 38 84 39 78 40 80 41 31 42 83 43 77 44 76 45
REMARK SMILES IDX 32 47 64 48 44 49 63 50 45 51 48 52 62 53 81 54 46 55 47 56
REMARK SMILES IDX 61 58 82 59 49 60 33 61 34 62 42 63 35 64 36 65 40 66 43 67
REMARK SMILES IDX 37 68 38 69 41 70 39 71 65 72 66 73 74 74 67 75 68 76 72 77
REMARK SMILES IDX 75 78 69 79 70 80 73 81 71 82 50 83 51 84 59 85 52 86 53 87
REMARK SMILES IDX 57 88 60 89 54 90 55 91 58 92 56 93
REMARK H PARENT 17 5 10 14 21 27 80 46 48 57
REMARK Flexibility Score: inf
ROOT
ATOM      1  C   UNL A   1      32.988  34.201  28.394  1.00  0.00     0.117 C 
ENDROOT
BRANCH   1   2
ATOM      2  N   UNL A   1      32.941  35.646  28.358  1.00  0.00    -0.356 N 
ATOM      3  C   UNL A   1      33.156  36.532  29.368  1.00  0.00     0.227 C 
ATOM      4  O   UNL A   1      33.524  37.664  29.027  1.00  0.00    -0.274 OA
ATOM      5  H   UNL A   1      32.726  36.042  27.484  1.00  0.00     0.163 HD
BRANCH   3   6
ATOM      6  C   UNL A   1      32.982  36.209  30.863  1.00  0.00     0.103 C 
ATOM      7  C   UNL A   1      34.543  35.538  32.678  1.00  0.00     0.106 C 
ATOM      8  C   UNL A   1      34.127  36.954  32.773  1.00  0.00    -0.006 C 
ATOM      9  C   UNL A   1      33.726  35.010  31.468  1.00  0.00     0.047 C 
ATOM     10  C   UNL A   1      33.312  37.332  31.783  1.00  0.00    -0.016 C 
BRANCH   7  11
ATOM     11  N   UNL A   1      35.972  35.307  32.477  1.00  0.00    -0.348 N 
ATOM     12  C   UNL A   1      36.957  34.575  33.056  1.00  0.00     0.242 C 
ATOM     13  O   UNL A   1      38.051  34.614  32.477  1.00  0.00    -0.273 OA
ATOM     14  H   UNL A   1      36.313  35.825  31.712  1.00  0.00     0.164 HD
BRANCH  12  15
ATOM     15  C   UNL A   1      36.807  33.760  34.320  1.00  0.00     0.244 C 
BRANCH  15  16
ATOM     16  N   UNL A   1      38.085  33.398  34.910  1.00  0.00    -0.260 N 
ATOM     17  C   UNL A   1      40.867  34.456  36.827  1.00  0.00     0.069 C 
ATOM     18  C   UNL A   1      39.855  33.696  36.051  1.00  0.00     0.060 A 
ATOM     19  C   UNL A   1      39.968  32.416  35.468  1.00  0.00     0.048 A 
ATOM     20  N   UNL A   1      38.669  34.244  35.780  1.00  0.00    -0.178 NA
ATOM     21  C   UNL A   1      38.810  32.243  34.733  1.00  0.00     0.036 A 
ATOM     22  C   UNL A   1      38.373  31.119  33.868  1.00  0.00     0.066 C 
ENDBRANCH  15  16
ENDBRANCH  12  15
ENDBRANCH   7  11
ENDBRANCH   3   6
ENDBRANCH   1   2
BRANCH   1  23
ATOM     23  C   UNL A   1      34.348  33.612  28.022  1.00  0.00     0.042 C 
BRANCH  23  24
ATOM     24  C   UNL A   1      34.547  32.233  28.642  1.00  0.00     0.118 C 
BRANCH  24  25
ATOM     25  N   UNL A   1      34.627  32.273  30.107  1.00  0.00    -0.352 N 
ATOM     26  C   UNL A   1      35.534  31.653  30.959  1.00  0.00     0.251 C 
ATOM     27  H   UNL A   1      33.938  32.818  30.553  1.00  0.00     0.163 HD
ATOM     28  O   UNL A   1      35.382  31.587  32.154  1.00  0.00    -0.269 OA
BRANCH  26  29
ATOM     29  C   UNL A   1      36.724  31.074  30.319  1.00  0.00     0.039 A 
ATOM     30  C   UNL A   1      37.901  31.808  30.184  1.00  0.00     0.014 A 
ATOM     31  C   UNL A   1      36.681  29.704  30.112  1.00  0.00     0.014 A 
ATOM     32  C   UNL A   1      39.091  31.111  29.997  1.00  0.00     0.010 A 
ATOM     33  C   UNL A   1      37.866  29.023  30.138  1.00  0.00     0.010 A 
ATOM     34  C   UNL A   1      39.078  29.707  30.044  1.00  0.00    -0.014 A 
BRANCH  34  35
ATOM     35  C   UNL A   1      40.324  28.946  30.138  1.00  0.00     0.031 A 
ATOM     36  C   UNL A   1      40.892  28.762  31.505  1.00  0.00     0.074 A 
ATOM     37  C   UNL A   1      40.832  28.228  29.115  1.00  0.00     0.049 A 
ATOM     38  N   UNL A   1      42.011  29.224  31.958  1.00  0.00    -0.248 NA
ATOM     39  C   UNL A   1      40.104  28.033  32.508  1.00  0.00     0.031 C 
ATOM     40  C   UNL A   1      40.258  28.011  27.778  1.00  0.00     0.029 A 
ATOM     41  N   UNL A   1      41.935  27.429  29.101  1.00  0.00    -0.354 N 
ATOM     42  C   UNL A   1      42.160  28.707  33.244  1.00  0.00     0.074 A 
ATOM     43  C   UNL A   1      40.898  28.101  33.581  1.00  0.00     0.031 C 
ATOM     44  C   UNL A   1      40.860  26.959  27.192  1.00  0.00     0.029 A 
ATOM     45  C   UNL A   1      42.003  26.591  28.001  1.00  0.00     0.049 A 
ATOM     46  H   UNL A   1      42.621  27.446  29.807  1.00  0.00     0.167 HD
ATOM     47  C   UNL A   1      43.390  28.626  33.828  1.00  0.00     0.037 A 
ATOM     48  C   UNL A   1      42.951  25.671  27.731  1.00  0.00     0.037 A 
ATOM     49  C   UNL A   1      44.366  29.374  33.078  1.00  0.00     0.049 A 
ATOM     50  C   UNL A   1      44.176  26.078  28.449  1.00  0.00     0.074 A 
ATOM     51  C   UNL A   1      44.635  30.702  32.836  1.00  0.00     0.029 A 
ATOM     52  N   UNL A   1      45.049  28.646  32.139  1.00  0.00    -0.354 N 
ATOM     53  N   UNL A   1      44.838  27.172  28.189  1.00  0.00    -0.248 NA
ATOM     54  C   UNL A   1      44.519  25.428  29.708  1.00  0.00     0.031 C 
ATOM     55  C   UNL A   1      45.240  30.743  31.542  1.00  0.00     0.029 A 
ATOM     56  C   UNL A   1      45.339  29.436  31.060  1.00  0.00     0.049 A 
ATOM     57  H   UNL A   1      45.295  27.698  32.228  1.00  0.00     0.167 HD
ATOM     58  C   UNL A   1      45.341  27.571  29.413  1.00  0.00     0.074 A 
ATOM     59  C   UNL A   1      45.284  26.379  30.248  1.00  0.00     0.031 C 
ATOM     60  C   UNL A   1      45.461  28.895  29.722  1.00  0.00     0.037 A 
BRANCH  47  61
ATOM     61  C   UNL A   1      43.843  27.561  34.807  1.00  0.00     0.064 A 
ATOM     62  C   UNL A   1      43.813  26.205  34.407  1.00  0.00     0.173 A 
ATOM     63  C   UNL A   1      43.981  27.778  36.193  1.00  0.00     0.173 A 
ATOM     64  F   UNL A   1      43.668  25.876  33.114  1.00  0.00    -0.203 F 
ATOM     65  C   UNL A   1      43.833  25.156  35.332  1.00  0.00     0.198 A 
ATOM     66  C   UNL A   1      44.056  26.726  37.109  1.00  0.00     0.198 A 
ATOM     67  F   UNL A   1      43.930  29.004  36.727  1.00  0.00    -0.203 F 
ATOM     68  F   UNL A   1      43.670  23.894  34.914  1.00  0.00    -0.200 F 
ATOM     69  C   UNL A   1      43.948  25.419  36.683  1.00  0.00     0.200 A 
ATOM     70  F   UNL A   1      44.146  27.000  38.418  1.00  0.00    -0.200 F 
ATOM     71  F   UNL A   1      43.905  24.422  37.578  1.00  0.00    -0.200 F 
ENDBRANCH  47  61
BRANCH  48  72
ATOM     72  C   UNL A   1      42.790  24.392  27.014  1.00  0.00     0.064 A 
ATOM     73  C   UNL A   1      43.239  24.238  25.697  1.00  0.00     0.173 A 
ATOM     74  C   UNL A   1      42.422  23.219  27.703  1.00  0.00     0.173 A 
ATOM     75  F   UNL A   1      43.631  25.307  24.989  1.00  0.00    -0.203 F 
ATOM     76  C   UNL A   1      43.355  22.974  25.113  1.00  0.00     0.198 A 
ATOM     77  C   UNL A   1      42.531  21.959  27.116  1.00  0.00     0.198 A 
ATOM     78  F   UNL A   1      42.038  23.267  28.988  1.00  0.00    -0.203 F 
ATOM     79  F   UNL A   1      43.852  22.858  23.874  1.00  0.00    -0.200 F 
ATOM     80  C   UNL A   1      43.014  21.837  25.826  1.00  0.00     0.200 A 
ATOM     81  F   UNL A   1      42.226  20.865  27.828  1.00  0.00    -0.200 F 
ATOM     82  F   UNL A   1      43.190  20.622  25.289  1.00  0.00    -0.200 F 
ENDBRANCH  48  72
BRANCH  60  83
ATOM     83  C   UNL A   1      45.518  29.867  28.581  1.00  0.00     0.064 A 
ATOM     84  C   UNL A   1      44.397  30.481  27.999  1.00  0.00     0.173 A 
ATOM     85  C   UNL A   1      46.781  30.260  28.118  1.00  0.00     0.173 A 
ATOM     86  F   UNL A   1      43.162  30.229  28.444  1.00  0.00    -0.203 F 
ATOM     87  C   UNL A   1      44.537  31.408  26.967  1.00  0.00     0.198 A 
ATOM     88  C   UNL A   1      46.919  31.213  27.113  1.00  0.00     0.198 A 
ATOM     89  F   UNL A   1      47.890  29.744  28.672  1.00  0.00    -0.203 F 
ATOM     90  F   UNL A   1      43.448  31.963  26.411  1.00  0.00    -0.200 F 
ATOM     91  C   UNL A   1      45.796  31.776  26.528  1.00  0.00     0.200 A 
ATOM     92  F   UNL A   1      48.142  31.599  26.725  1.00  0.00    -0.200 F 
ATOM     93  F   UNL A   1      45.932  32.690  25.558  1.00  0.00    -0.200 F 
ENDBRANCH  60  83
ENDBRANCH  34  35
ENDBRANCH  26  29
ENDBRANCH  24  25
ENDBRANCH  23  24
ENDBRANCH   1  23
TORSDOF 13
ENDMDL
