MODEL 1
REMARK VINA RESULT:     -13.0      0.000      0.000
REMARK SMILES CCC[N@@H+]1CC2(CCN(C(=O)Cn3nnnc3C)CC2)C[C@H]1C(=O)NCCCNC(=O)c1ccc(-c2c3nc(c(-c4c(F)c(F)c(F)c(F)c4F)c4ccc([nH]4)c(-c4c(F)c(F)c(F)c(F)c4F)c4nc(c(-c5c(F)c(F)c(F)c(F)c5F)c5ccc2[nH]5)C=C4)C=C3)cc1
REMARK SMILES IDX 27 1 26 2 25 3 23 4 24 5 22 7 4 8 5 9 6 11 21 12 7 13 20 14
REMARK SMILES IDX 8 15 19 16 9 17 10 18 11 19 3 20 2 21 1 22 12 23 13 24 14 25
REMARK SMILES IDX 17 26 15 27 16 28 18 29 28 30 29 31 30 32 31 34 32 35 33 36
REMARK SMILES IDX 94 37 34 38 93 39 35 40 36 41 37 42 87 43 38 44 92 45 86 46
REMARK SMILES IDX 88 47 39 48 91 49 85 50 84 51 40 53 72 54 52 55 71 56 53 57
REMARK SMILES IDX 56 58 70 59 89 60 54 61 55 62 69 64 90 65 57 66 41 67 42 68
REMARK SMILES IDX 50 69 43 70 44 71 48 72 51 73 45 74 46 75 49 76 47 77 73 78
REMARK SMILES IDX 74 79 82 80 75 81 76 82 80 83 83 84 77 85 78 86 81 87 79 88
REMARK SMILES IDX 58 89 59 90 67 91 60 92 61 93 65 94 68 95 62 96 63 97 66 98
REMARK SMILES IDX 64 99
REMARK H PARENT 25 6 4 10 29 33 88 52 56 63
REMARK Flexibility Score: inf
ROOT
ATOM      1  C   UNL A   1      41.197  19.463  26.475  1.00  0.00     0.042 C 
ENDROOT
BRANCH   1   2
ATOM      2  C   UNL A   1      39.860  20.002  25.960  1.00  0.00     0.118 C 
BRANCH   2   3
ATOM      3  N   UNL A   1      39.642  21.420  26.134  1.00  0.00    -0.351 N 
ATOM      4  C   UNL A   1      38.598  22.240  25.828  1.00  0.00     0.278 C 
ATOM      5  O   UNL A   1      38.664  23.368  26.345  1.00  0.00    -0.268 OA
ATOM      6  H   UNL A   1      40.398  21.886  26.559  1.00  0.00     0.163 HD
BRANCH   4   7
ATOM      7  C   UNL A   1      37.375  21.910  24.917  1.00  0.00     0.274 C 
ATOM      8  N   UNL A   1      36.312  21.174  25.649  1.00  0.00    -0.324 N 
ATOM      9  C   UNL A   1      35.248  22.152  25.871  1.00  0.00     0.270 C 
ATOM     10  H   UNL A   1      36.594  20.803  26.556  1.00  0.00     0.348 HD
ATOM     11  C   UNL A   1      35.273  23.207  24.745  1.00  0.00     0.029 C 
ATOM     12  C   UNL A   1      36.669  23.011  24.118  1.00  0.00     0.088 C 
ATOM     13  C   UNL A   1      35.123  24.697  25.131  1.00  0.00     0.034 C 
ATOM     14  C   UNL A   1      34.048  22.959  23.829  1.00  0.00     0.034 C 
ATOM     15  C   UNL A   1      33.911  24.923  25.998  1.00  0.00     0.120 C 
ATOM     16  C   UNL A   1      32.713  23.280  24.560  1.00  0.00     0.120 C 
ATOM     17  N   UNL A   1      32.701  24.568  25.272  1.00  0.00    -0.341 N 
ATOM     18  C   UNL A   1      31.471  25.177  25.529  1.00  0.00     0.244 C 
ATOM     19  O   UNL A   1      30.408  24.672  25.158  1.00  0.00    -0.273 OA
BRANCH   8  20
ATOM     20  C   UNL A   1      35.928  19.982  24.863  1.00  0.00     0.262 C 
BRANCH  20  21
ATOM     21  C   UNL A   1      34.451  19.557  24.895  1.00  0.00     0.058 C 
ATOM     22  C   UNL A   1      34.176  18.212  24.234  1.00  0.00     0.010 C 
ENDBRANCH  20  21
ENDBRANCH   8  20
BRANCH  18  23
ATOM     23  C   UNL A   1      31.451  26.540  26.200  1.00  0.00     0.248 C 
BRANCH  23  24
ATOM     24  N   UNL A   1      31.966  27.614  25.381  1.00  0.00    -0.220 N 
ATOM     25  N   UNL A   1      31.368  27.964  24.226  1.00  0.00    -0.044 NA
ATOM     26  C   UNL A   1      32.923  28.548  25.693  1.00  0.00     0.148 A 
ATOM     27  N   UNL A   1      31.995  29.055  23.818  1.00  0.00    -0.024 NA
ATOM     28  N   UNL A   1      32.958  29.431  24.715  1.00  0.00    -0.114 NA
ATOM     29  C   UNL A   1      33.749  28.579  26.919  1.00  0.00     0.091 C 
ENDBRANCH  23  24
ENDBRANCH  18  23
ENDBRANCH   4   7
ENDBRANCH   2   3
ENDBRANCH   1   2
BRANCH   1  30
ATOM     30  C   UNL A   1      42.358  20.422  26.291  1.00  0.00     0.118 C 
BRANCH  30  31
ATOM     31  N   UNL A   1      43.401  19.879  25.409  1.00  0.00    -0.352 N 
ATOM     32  C   UNL A   1      44.326  20.579  24.661  1.00  0.00     0.251 C 
ATOM     33  H   UNL A   1      43.445  18.898  25.344  1.00  0.00     0.163 HD
ATOM     34  O   UNL A   1      44.955  20.058  23.749  1.00  0.00    -0.269 OA
BRANCH  32  35
ATOM     35  C   UNL A   1      44.521  21.996  24.988  1.00  0.00     0.039 A 
ATOM     36  C   UNL A   1      43.749  22.976  24.363  1.00  0.00     0.014 A 
ATOM     37  C   UNL A   1      45.326  22.289  26.083  1.00  0.00     0.014 A 
ATOM     38  C   UNL A   1      43.691  24.242  24.937  1.00  0.00     0.010 A 
ATOM     39  C   UNL A   1      45.144  23.491  26.727  1.00  0.00     0.010 A 
ATOM     40  C   UNL A   1      44.345  24.485  26.158  1.00  0.00    -0.014 A 
BRANCH  40  41
ATOM     41  C   UNL A   1      44.068  25.720  26.901  1.00  0.00     0.031 A 
ATOM     42  C   UNL A   1      44.981  26.876  26.624  1.00  0.00     0.074 A 
ATOM     43  C   UNL A   1      42.953  25.927  27.634  1.00  0.00     0.049 A 
ATOM     44  N   UNL A   1      45.745  27.503  27.460  1.00  0.00    -0.248 NA
ATOM     45  C   UNL A   1      45.110  27.349  25.236  1.00  0.00     0.031 C 
ATOM     46  C   UNL A   1      41.783  25.055  27.789  1.00  0.00     0.029 A 
ATOM     47  N   UNL A   1      42.587  27.043  28.329  1.00  0.00    -0.354 N 
ATOM     48  C   UNL A   1      46.333  28.551  26.750  1.00  0.00     0.074 A 
ATOM     49  C   UNL A   1      46.006  28.331  25.366  1.00  0.00     0.031 C 
ATOM     50  C   UNL A   1      40.758  25.759  28.315  1.00  0.00     0.029 A 
ATOM     51  C   UNL A   1      41.256  27.058  28.717  1.00  0.00     0.049 A 
ATOM     52  H   UNL A   1      43.214  27.774  28.536  1.00  0.00     0.167 HD
ATOM     53  C   UNL A   1      46.871  29.629  27.389  1.00  0.00     0.037 A 
ATOM     54  C   UNL A   1      40.594  28.066  29.330  1.00  0.00     0.037 A 
ATOM     55  C   UNL A   1      47.145  29.332  28.772  1.00  0.00     0.049 A 
ATOM     56  C   UNL A   1      41.609  28.936  29.966  1.00  0.00     0.074 A 
ATOM     57  C   UNL A   1      47.937  28.417  29.440  1.00  0.00     0.029 A 
ATOM     58  N   UNL A   1      46.289  29.831  29.719  1.00  0.00    -0.354 N 
ATOM     59  N   UNL A   1      42.342  28.582  30.984  1.00  0.00    -0.248 NA
ATOM     60  C   UNL A   1      42.079  30.096  29.227  1.00  0.00     0.031 C 
ATOM     61  C   UNL A   1      47.190  28.063  30.604  1.00  0.00     0.029 A 
ATOM     62  C   UNL A   1      46.017  28.818  30.599  1.00  0.00     0.049 A 
ATOM     63  H   UNL A   1      45.935  30.750  29.760  1.00  0.00     0.167 HD
ATOM     64  C   UNL A   1      43.566  29.187  30.757  1.00  0.00     0.074 A 
ATOM     65  C   UNL A   1      43.303  30.207  29.747  1.00  0.00     0.031 C 
ATOM     66  C   UNL A   1      44.722  28.614  31.203  1.00  0.00     0.037 A 
BRANCH  53  67
ATOM     67  C   UNL A   1      46.808  31.056  26.881  1.00  0.00     0.064 A 
ATOM     68  C   UNL A   1      47.972  31.854  26.923  1.00  0.00     0.173 A 
ATOM     69  C   UNL A   1      45.604  31.761  26.665  1.00  0.00     0.173 A 
ATOM     70  F   UNL A   1      49.176  31.300  27.131  1.00  0.00    -0.203 F 
ATOM     71  C   UNL A   1      47.920  33.250  26.859  1.00  0.00     0.198 A 
ATOM     72  C   UNL A   1      45.563  33.151  26.548  1.00  0.00     0.198 A 
ATOM     73  F   UNL A   1      44.411  31.156  26.671  1.00  0.00    -0.203 F 
ATOM     74  F   UNL A   1      49.035  33.968  27.050  1.00  0.00    -0.200 F 
ATOM     75  C   UNL A   1      46.712  33.898  26.683  1.00  0.00     0.200 A 
ATOM     76  F   UNL A   1      44.379  33.762  26.392  1.00  0.00    -0.200 F 
ATOM     77  F   UNL A   1      46.647  35.236  26.695  1.00  0.00    -0.200 F 
ENDBRANCH  53  67
BRANCH  54  78
ATOM     78  C   UNL A   1      39.169  28.447  29.231  1.00  0.00     0.064 A 
ATOM     79  C   UNL A   1      38.362  28.506  30.378  1.00  0.00     0.173 A 
ATOM     80  C   UNL A   1      38.650  29.038  28.063  1.00  0.00     0.173 A 
ATOM     81  F   UNL A   1      38.797  27.991  31.537  1.00  0.00    -0.203 F 
ATOM     82  C   UNL A   1      37.128  29.161  30.369  1.00  0.00     0.198 A 
ATOM     83  C   UNL A   1      37.414  29.683  28.054  1.00  0.00     0.198 A 
ATOM     84  F   UNL A   1      39.376  29.085  26.936  1.00  0.00    -0.203 F 
ATOM     85  F   UNL A   1      36.421  29.263  31.504  1.00  0.00    -0.200 F 
ATOM     86  C   UNL A   1      36.662  29.762  29.212  1.00  0.00     0.200 A 
ATOM     87  F   UNL A   1      36.986  30.286  26.936  1.00  0.00    -0.200 F 
ATOM     88  F   UNL A   1      35.514  30.451  29.223  1.00  0.00    -0.200 F 
ENDBRANCH  54  78
BRANCH  66  89
ATOM     89  C   UNL A   1      44.611  27.515  32.222  1.00  0.00     0.064 A 
ATOM     90  C   UNL A   1      44.449  26.155  31.907  1.00  0.00     0.173 A 
ATOM     91  C   UNL A   1      44.800  27.846  33.570  1.00  0.00     0.173 A 
ATOM     92  F   UNL A   1      44.364  25.744  30.637  1.00  0.00    -0.203 F 
ATOM     93  C   UNL A   1      44.427  25.181  32.904  1.00  0.00     0.198 A 
ATOM     94  C   UNL A   1      44.816  26.867  34.560  1.00  0.00     0.198 A 
ATOM     95  F   UNL A   1      45.014  29.123  33.926  1.00  0.00    -0.203 F 
ATOM     96  F   UNL A   1      44.251  23.891  32.580  1.00  0.00    -0.200 F 
ATOM     97  C   UNL A   1      44.618  25.537  34.229  1.00  0.00     0.200 A 
ATOM     98  F   UNL A   1      45.050  27.213  35.834  1.00  0.00    -0.200 F 
ATOM     99  F   UNL A   1      44.634  24.598  35.184  1.00  0.00    -0.200 F 
ENDBRANCH  66  89
ENDBRANCH  40  41
ENDBRANCH  32  35
ENDBRANCH  30  31
ENDBRANCH   1  30
TORSDOF 14
ENDMDL
MODEL 2
REMARK VINA RESULT:     -12.5      2.974      8.890
REMARK SMILES CCC[N@@H+]1CC2(CCN(C(=O)Cn3nnnc3C)CC2)C[C@H]1C(=O)NCCCNC(=O)c1ccc(-c2c3nc(c(-c4c(F)c(F)c(F)c(F)c4F)c4ccc([nH]4)c(-c4c(F)c(F)c(F)c(F)c4F)c4nc(c(-c5c(F)c(F)c(F)c(F)c5F)c5ccc2[nH]5)C=C4)C=C3)cc1
REMARK SMILES IDX 27 1 26 2 25 3 23 4 24 5 22 7 4 8 5 9 6 11 21 12 7 13 20 14
REMARK SMILES IDX 8 15 19 16 9 17 10 18 11 19 3 20 2 21 1 22 12 23 13 24 14 25
REMARK SMILES IDX 17 26 15 27 16 28 18 29 28 30 29 31 30 32 31 34 32 35 33 36
REMARK SMILES IDX 94 37 34 38 93 39 35 40 36 41 37 42 87 43 38 44 92 45 86 46
REMARK SMILES IDX 88 47 39 48 91 49 85 50 84 51 40 53 72 54 52 55 71 56 53 57
REMARK SMILES IDX 56 58 70 59 89 60 54 61 55 62 69 64 90 65 57 66 41 67 42 68
REMARK SMILES IDX 50 69 43 70 44 71 48 72 51 73 45 74 46 75 49 76 47 77 73 78
REMARK SMILES IDX 74 79 82 80 75 81 76 82 80 83 83 84 77 85 78 86 81 87 79 88
REMARK SMILES IDX 58 89 59 90 67 91 60 92 61 93 65 94 68 95 62 96 63 97 66 98
REMARK SMILES IDX 64 99
REMARK H PARENT 25 6 4 10 29 33 88 52 56 63
REMARK Flexibility Score: inf
ROOT
ATOM      1  C   UNL A   1      35.059  29.149  27.520  1.00  0.00     0.042 C 
ENDROOT
BRANCH   1   2
ATOM      2  C   UNL A   1      34.103  29.140  26.325  1.00  0.00     0.118 C 
BRANCH   2   3
ATOM      3  N   UNL A   1      33.207  30.271  26.225  1.00  0.00    -0.351 N 
ATOM      4  C   UNL A   1      31.932  30.402  25.766  1.00  0.00     0.278 C 
ATOM      5  O   UNL A   1      31.392  31.482  26.058  1.00  0.00    -0.268 OA
ATOM      6  H   UNL A   1      33.597  31.112  26.556  1.00  0.00     0.163 HD
BRANCH   4   7
ATOM      7  C   UNL A   1      31.118  29.365  24.931  1.00  0.00     0.274 C 
ATOM      8  N   UNL A   1      31.482  29.393  23.491  1.00  0.00    -0.324 N 
ATOM      9  C   UNL A   1      32.285  28.191  23.273  1.00  0.00     0.270 C 
ATOM     10  H   UNL A   1      32.037  30.200  23.205  1.00  0.00     0.348 HD
ATOM     11  C   UNL A   1      31.859  27.097  24.273  1.00  0.00     0.029 C 
ATOM     12  C   UNL A   1      31.073  27.889  25.338  1.00  0.00     0.088 C 
ATOM     13  C   UNL A   1      32.964  26.287  24.992  1.00  0.00     0.034 C 
ATOM     14  C   UNL A   1      31.082  26.008  23.490  1.00  0.00     0.034 C 
ATOM     15  C   UNL A   1      33.949  25.707  24.011  1.00  0.00     0.120 C 
ATOM     16  C   UNL A   1      32.014  25.229  22.517  1.00  0.00     0.120 C 
ATOM     17  N   UNL A   1      33.279  24.775  23.117  1.00  0.00    -0.341 N 
ATOM     18  C   UNL A   1      33.942  23.691  22.536  1.00  0.00     0.244 C 
ATOM     19  O   UNL A   1      33.482  23.102  21.554  1.00  0.00    -0.273 OA
BRANCH   8  20
ATOM     20  C   UNL A   1      30.246  29.489  22.686  1.00  0.00     0.262 C 
BRANCH  20  21
ATOM     21  C   UNL A   1      29.078  30.298  23.273  1.00  0.00     0.058 C 
ATOM     22  C   UNL A   1      27.702  29.802  22.850  1.00  0.00     0.010 C 
ENDBRANCH  20  21
ENDBRANCH   8  20
BRANCH  18  23
ATOM     23  C   UNL A   1      35.211  23.171  23.188  1.00  0.00     0.248 C 
BRANCH  23  24
ATOM     24  N   UNL A   1      34.997  22.477  24.437  1.00  0.00    -0.220 N 
ATOM     25  N   UNL A   1      34.227  21.373  24.504  1.00  0.00    -0.044 NA
ATOM     26  C   UNL A   1      35.649  22.643  25.634  1.00  0.00     0.148 A 
ATOM     27  N   UNL A   1      34.365  20.917  25.738  1.00  0.00    -0.024 NA
ATOM     28  N   UNL A   1      35.243  21.690  26.449  1.00  0.00    -0.114 NA
ATOM     29  C   UNL A   1      36.649  23.685  25.948  1.00  0.00     0.091 C 
ENDBRANCH  23  24
ENDBRANCH  18  23
ENDBRANCH   4   7
ENDBRANCH   2   3
ENDBRANCH   1   2
BRANCH   1  30
ATOM     30  C   UNL A   1      35.911  30.401  27.617  1.00  0.00     0.118 C 
BRANCH  30  31
ATOM     31  N   UNL A   1      35.325  31.412  28.508  1.00  0.00    -0.352 N 
ATOM     32  C   UNL A   1      35.572  31.601  29.853  1.00  0.00     0.251 C 
ATOM     33  H   UNL A   1      34.680  32.030  28.095  1.00  0.00     0.163 HD
ATOM     34  O   UNL A   1      34.833  32.271  30.563  1.00  0.00    -0.269 OA
BRANCH  32  35
ATOM     35  C   UNL A   1      36.757  30.946  30.417  1.00  0.00     0.039 A 
ATOM     36  C   UNL A   1      36.717  29.595  30.764  1.00  0.00     0.014 A 
ATOM     37  C   UNL A   1      37.952  31.654  30.376  1.00  0.00     0.014 A 
ATOM     38  C   UNL A   1      37.920  28.920  30.945  1.00  0.00     0.010 A 
ATOM     39  C   UNL A   1      39.134  30.949  30.405  1.00  0.00     0.010 A 
ATOM     40  C   UNL A   1      39.136  29.586  30.707  1.00  0.00    -0.014 A 
BRANCH  40  41
ATOM     41  C   UNL A   1      40.385  28.818  30.630  1.00  0.00     0.031 A 
ATOM     42  C   UNL A   1      41.115  28.613  31.922  1.00  0.00     0.074 A 
ATOM     43  C   UNL A   1      40.786  28.136  29.535  1.00  0.00     0.049 A 
ATOM     44  N   UNL A   1      42.315  28.992  32.226  1.00  0.00    -0.248 NA
ATOM     45  C   UNL A   1      40.400  27.966  33.035  1.00  0.00     0.031 C 
ATOM     46  C   UNL A   1      40.076  27.941  28.266  1.00  0.00     0.029 A 
ATOM     47  N   UNL A   1      41.903  27.370  29.373  1.00  0.00    -0.354 N 
ATOM     48  C   UNL A   1      42.575  28.499  33.505  1.00  0.00     0.074 A 
ATOM     49  C   UNL A   1      41.323  27.988  34.000  1.00  0.00     0.031 C 
ATOM     50  C   UNL A   1      40.651  26.934  27.574  1.00  0.00     0.029 A 
ATOM     51  C   UNL A   1      41.875  26.557  28.250  1.00  0.00     0.049 A 
ATOM     52  H   UNL A   1      42.663  27.393  29.999  1.00  0.00     0.167 HD
ATOM     53  C   UNL A   1      43.850  28.366  33.971  1.00  0.00     0.037 A 
ATOM     54  C   UNL A   1      42.792  25.631  27.888  1.00  0.00     0.037 A 
ATOM     55  C   UNL A   1      44.768  29.177  33.212  1.00  0.00     0.049 A 
ATOM     56  C   UNL A   1      44.053  25.964  28.587  1.00  0.00     0.074 A 
ATOM     57  C   UNL A   1      44.899  30.527  32.951  1.00  0.00     0.029 A 
ATOM     58  N   UNL A   1      45.574  28.550  32.296  1.00  0.00    -0.354 N 
ATOM     59  N   UNL A   1      44.777  27.016  28.327  1.00  0.00    -0.248 NA
ATOM     60  C   UNL A   1      44.331  25.307  29.852  1.00  0.00     0.031 C 
ATOM     61  C   UNL A   1      45.368  30.599  31.604  1.00  0.00     0.029 A 
ATOM     62  C   UNL A   1      45.540  29.292  31.147  1.00  0.00     0.049 A 
ATOM     63  H   UNL A   1      46.084  27.719  32.440  1.00  0.00     0.167 HD
ATOM     64  C   UNL A   1      45.282  27.402  29.558  1.00  0.00     0.074 A 
ATOM     65  C   UNL A   1      45.090  26.243  30.425  1.00  0.00     0.031 C 
ATOM     66  C   UNL A   1      45.547  28.713  29.824  1.00  0.00     0.037 A 
BRANCH  53  67
ATOM     67  C   UNL A   1      44.333  27.236  34.859  1.00  0.00     0.064 A 
ATOM     68  C   UNL A   1      44.078  25.901  34.475  1.00  0.00     0.173 A 
ATOM     69  C   UNL A   1      44.735  27.408  36.201  1.00  0.00     0.173 A 
ATOM     70  F   UNL A   1      43.680  25.611  33.226  1.00  0.00    -0.203 F 
ATOM     71  C   UNL A   1      44.122  24.843  35.387  1.00  0.00     0.198 A 
ATOM     72  C   UNL A   1      44.830  26.342  37.095  1.00  0.00     0.198 A 
ATOM     73  F   UNL A   1      44.944  28.617  36.734  1.00  0.00    -0.203 F 
ATOM     74  F   UNL A   1      43.731  23.619  35.008  1.00  0.00    -0.200 F 
ATOM     75  C   UNL A   1      44.487  25.067  36.701  1.00  0.00     0.200 A 
ATOM     76  F   UNL A   1      45.172  26.581  38.370  1.00  0.00    -0.200 F 
ATOM     77  F   UNL A   1      44.460  24.071  37.596  1.00  0.00    -0.200 F 
ENDBRANCH  53  67
BRANCH  54  78
ATOM     78  C   UNL A   1      42.602  24.364  27.150  1.00  0.00     0.064 A 
ATOM     79  C   UNL A   1      43.022  24.242  25.816  1.00  0.00     0.173 A 
ATOM     80  C   UNL A   1      42.273  23.170  27.820  1.00  0.00     0.173 A 
ATOM     81  F   UNL A   1      43.379  25.330  25.118  1.00  0.00    -0.203 F 
ATOM     82  C   UNL A   1      43.154  22.994  25.204  1.00  0.00     0.198 A 
ATOM     83  C   UNL A   1      42.397  21.926  27.204  1.00  0.00     0.198 A 
ATOM     84  F   UNL A   1      41.921  23.183  29.114  1.00  0.00    -0.203 F 
ATOM     85  F   UNL A   1      43.633  22.912  23.954  1.00  0.00    -0.200 F 
ATOM     86  C   UNL A   1      42.856  21.835  25.902  1.00  0.00     0.200 A 
ATOM     87  F   UNL A   1      42.133  20.810  27.898  1.00  0.00    -0.200 F 
ATOM     88  F   UNL A   1      43.051  20.636  25.339  1.00  0.00    -0.200 F 
ENDBRANCH  54  78
BRANCH  66  89
ATOM     89  C   UNL A   1      45.604  29.666  28.664  1.00  0.00     0.064 A 
ATOM     90  C   UNL A   1      44.484  30.303  28.104  1.00  0.00     0.173 A 
ATOM     91  C   UNL A   1      46.865  30.042  28.182  1.00  0.00     0.173 A 
ATOM     92  F   UNL A   1      43.252  30.077  28.576  1.00  0.00    -0.203 F 
ATOM     93  C   UNL A   1      44.620  31.232  27.075  1.00  0.00     0.198 A 
ATOM     94  C   UNL A   1      47.002  30.998  27.180  1.00  0.00     0.198 A 
ATOM     95  F   UNL A   1      47.976  29.508  28.716  1.00  0.00    -0.203 F 
ATOM     96  F   UNL A   1      43.534  31.812  26.542  1.00  0.00    -0.200 F 
ATOM     97  C   UNL A   1      45.880  31.584  26.619  1.00  0.00     0.200 A 
ATOM     98  F   UNL A   1      48.225  31.371  26.777  1.00  0.00    -0.200 F 
ATOM     99  F   UNL A   1      46.015  32.505  25.654  1.00  0.00    -0.200 F 
ENDBRANCH  66  89
ENDBRANCH  40  41
ENDBRANCH  32  35
ENDBRANCH  30  31
ENDBRANCH   1  30
TORSDOF 14
ENDMDL
MODEL 3
REMARK VINA RESULT:     -12.4      2.642      8.152
REMARK SMILES CCC[N@@H+]1CC2(CCN(C(=O)Cn3nnnc3C)CC2)C[C@H]1C(=O)NCCCNC(=O)c1ccc(-c2c3nc(c(-c4c(F)c(F)c(F)c(F)c4F)c4ccc([nH]4)c(-c4c(F)c(F)c(F)c(F)c4F)c4nc(c(-c5c(F)c(F)c(F)c(F)c5F)c5ccc2[nH]5)C=C4)C=C3)cc1
REMARK SMILES IDX 27 1 26 2 25 3 23 4 24 5 22 7 4 8 5 9 6 11 21 12 7 13 20 14
REMARK SMILES IDX 8 15 19 16 9 17 10 18 11 19 3 20 2 21 1 22 12 23 13 24 14 25
REMARK SMILES IDX 17 26 15 27 16 28 18 29 28 30 29 31 30 32 31 34 32 35 33 36
REMARK SMILES IDX 94 37 34 38 93 39 35 40 36 41 37 42 87 43 38 44 92 45 86 46
REMARK SMILES IDX 88 47 39 48 91 49 85 50 84 51 40 53 72 54 52 55 71 56 53 57
REMARK SMILES IDX 56 58 70 59 89 60 54 61 55 62 69 64 90 65 57 66 41 67 42 68
REMARK SMILES IDX 50 69 43 70 44 71 48 72 51 73 45 74 46 75 49 76 47 77 73 78
REMARK SMILES IDX 74 79 82 80 75 81 76 82 80 83 83 84 77 85 78 86 81 87 79 88
REMARK SMILES IDX 58 89 59 90 67 91 60 92 61 93 65 94 68 95 62 96 63 97 66 98
REMARK SMILES IDX 64 99
REMARK H PARENT 25 6 4 10 29 33 88 52 56 63
REMARK Flexibility Score: inf
ROOT
ATOM      1  C   UNL A   1      33.376  29.157  27.202  1.00  0.00     0.042 C 
ENDROOT
BRANCH   1   2
ATOM      2  C   UNL A   1      32.841  29.773  25.906  1.00  0.00     0.118 C 
BRANCH   2   3
ATOM      3  N   UNL A   1      33.317  29.174  24.679  1.00  0.00    -0.351 N 
ATOM      4  C   UNL A   1      33.234  27.912  24.174  1.00  0.00     0.278 C 
ATOM      5  O   UNL A   1      33.550  27.819  22.976  1.00  0.00    -0.268 OA
ATOM      6  H   UNL A   1      33.795  29.804  24.093  1.00  0.00     0.163 HD
BRANCH   4   7
ATOM      7  C   UNL A   1      32.803  26.618  24.932  1.00  0.00     0.274 C 
ATOM      8  N   UNL A   1      32.365  25.544  24.005  1.00  0.00    -0.324 N 
ATOM      9  C   UNL A   1      33.459  24.573  23.994  1.00  0.00     0.270 C 
ATOM     10  H   UNL A   1      32.202  25.846  23.044  1.00  0.00     0.348 HD
ATOM     11  C   UNL A   1      34.201  24.618  25.346  1.00  0.00     0.029 C 
ATOM     12  C   UNL A   1      33.734  25.957  25.953  1.00  0.00     0.088 C 
ATOM     13  C   UNL A   1      35.748  24.606  25.335  1.00  0.00     0.034 C 
ATOM     14  C   UNL A   1      33.847  23.328  26.129  1.00  0.00     0.034 C 
ATOM     15  C   UNL A   1      36.285  23.465  24.509  1.00  0.00     0.120 C 
ATOM     16  C   UNL A   1      34.454  22.065  25.454  1.00  0.00     0.120 C 
ATOM     17  N   UNL A   1      35.873  22.192  25.083  1.00  0.00    -0.341 N 
ATOM     18  C   UNL A   1      36.633  21.030  24.942  1.00  0.00     0.244 C 
ATOM     19  O   UNL A   1      36.150  19.912  25.139  1.00  0.00    -0.273 OA
BRANCH   8  20
ATOM     20  C   UNL A   1      31.056  25.025  24.457  1.00  0.00     0.262 C 
BRANCH  20  21
ATOM     21  C   UNL A   1      29.968  26.053  24.805  1.00  0.00     0.058 C 
ATOM     22  C   UNL A   1      29.449  26.839  23.609  1.00  0.00     0.010 C 
ENDBRANCH  20  21
ENDBRANCH   8  20
BRANCH  18  23
ATOM     23  C   UNL A   1      38.114  21.154  24.628  1.00  0.00     0.248 C 
BRANCH  23  24
ATOM     24  N   UNL A   1      38.978  21.041  25.780  1.00  0.00    -0.220 N 
ATOM     25  N   UNL A   1      39.666  19.911  26.034  1.00  0.00    -0.044 NA
ATOM     26  C   UNL A   1      39.409  22.030  26.630  1.00  0.00     0.148 A 
ATOM     27  N   UNL A   1      40.455  20.196  27.057  1.00  0.00    -0.024 NA
ATOM     28  N   UNL A   1      40.310  21.504  27.436  1.00  0.00    -0.114 NA
ATOM     29  C   UNL A   1      38.968  23.441  26.626  1.00  0.00     0.091 C 
ENDBRANCH  23  24
ENDBRANCH  18  23
ENDBRANCH   4   7
ENDBRANCH   2   3
ENDBRANCH   1   2
BRANCH   1  30
ATOM     30  C   UNL A   1      34.873  29.324  27.389  1.00  0.00     0.118 C 
BRANCH  30  31
ATOM     31  N   UNL A   1      35.203  30.215  28.510  1.00  0.00    -0.352 N 
ATOM     32  C   UNL A   1      36.324  30.185  29.314  1.00  0.00     0.251 C 
ATOM     33  H   UNL A   1      34.544  30.919  28.711  1.00  0.00     0.163 HD
ATOM     34  O   UNL A   1      36.373  30.774  30.386  1.00  0.00    -0.269 OA
BRANCH  32  35
ATOM     35  C   UNL A   1      37.467  29.395  28.843  1.00  0.00     0.039 A 
ATOM     36  C   UNL A   1      38.260  29.860  27.794  1.00  0.00     0.014 A 
ATOM     37  C   UNL A   1      37.847  28.306  29.619  1.00  0.00     0.014 A 
ATOM     38  C   UNL A   1      39.519  29.295  27.612  1.00  0.00     0.010 A 
ATOM     39  C   UNL A   1      39.146  27.860  29.531  1.00  0.00     0.010 A 
ATOM     40  C   UNL A   1      39.988  28.330  28.521  1.00  0.00    -0.014 A 
BRANCH  40  41
ATOM     41  C   UNL A   1      41.401  27.933  28.498  1.00  0.00     0.031 A 
ATOM     42  C   UNL A   1      41.721  26.673  27.751  1.00  0.00     0.074 A 
ATOM     43  C   UNL A   1      42.414  28.720  28.919  1.00  0.00     0.049 A 
ATOM     44  N   UNL A   1      42.262  25.591  28.213  1.00  0.00    -0.248 NA
ATOM     45  C   UNL A   1      41.331  26.581  26.335  1.00  0.00     0.031 C 
ATOM     46  C   UNL A   1      42.360  30.108  29.394  1.00  0.00     0.029 A 
ATOM     47  N   UNL A   1      43.754  28.460  28.909  1.00  0.00    -0.354 N 
ATOM     48  C   UNL A   1      42.432  24.737  27.122  1.00  0.00     0.074 A 
ATOM     49  C   UNL A   1      41.729  25.345  26.023  1.00  0.00     0.031 C 
ATOM     50  C   UNL A   1      43.602  30.637  29.391  1.00  0.00     0.029 A 
ATOM     51  C   UNL A   1      44.550  29.577  29.114  1.00  0.00     0.049 A 
ATOM     52  H   UNL A   1      44.123  27.558  28.767  1.00  0.00     0.167 HD
ATOM     53  C   UNL A   1      43.314  23.698  27.164  1.00  0.00     0.037 A 
ATOM     54  C   UNL A   1      45.899  29.640  29.062  1.00  0.00     0.037 A 
ATOM     55  C   UNL A   1      43.653  23.356  28.522  1.00  0.00     0.049 A 
ATOM     56  C   UNL A   1      46.411  28.264  29.250  1.00  0.00     0.074 A 
ATOM     57  C   UNL A   1      42.947  22.931  29.631  1.00  0.00     0.029 A 
ATOM     58  N   UNL A   1      44.875  23.754  28.999  1.00  0.00    -0.354 N 
ATOM     59  N   UNL A   1      46.324  27.597  30.367  1.00  0.00    -0.248 NA
ATOM     60  C   UNL A   1      46.703  27.473  28.067  1.00  0.00     0.031 C 
ATOM     61  C   UNL A   1      43.591  23.559  30.741  1.00  0.00     0.029 A 
ATOM     62  C   UNL A   1      44.674  24.285  30.245  1.00  0.00     0.049 A 
ATOM     63  H   UNL A   1      45.739  23.673  28.532  1.00  0.00     0.167 HD
ATOM     64  C   UNL A   1      46.119  26.286  29.973  1.00  0.00     0.074 A 
ATOM     65  C   UNL A   1      46.498  26.251  28.564  1.00  0.00     0.031 C 
ATOM     66  C   UNL A   1      45.397  25.428  30.750  1.00  0.00     0.037 A 
BRANCH  53  67
ATOM     67  C   UNL A   1      44.156  23.230  25.993  1.00  0.00     0.064 A 
ATOM     68  C   UNL A   1      44.179  21.856  25.667  1.00  0.00     0.173 A 
ATOM     69  C   UNL A   1      45.174  24.006  25.398  1.00  0.00     0.173 A 
ATOM     70  F   UNL A   1      43.268  21.014  26.178  1.00  0.00    -0.203 F 
ATOM     71  C   UNL A   1      45.199  21.292  24.894  1.00  0.00     0.198 A 
ATOM     72  C   UNL A   1      46.159  23.448  24.583  1.00  0.00     0.198 A 
ATOM     73  F   UNL A   1      45.328  25.307  25.666  1.00  0.00    -0.203 F 
ATOM     74  F   UNL A   1      45.256  19.963  24.733  1.00  0.00    -0.200 F 
ATOM     75  C   UNL A   1      46.195  22.088  24.361  1.00  0.00     0.200 A 
ATOM     76  F   UNL A   1      47.126  24.234  24.088  1.00  0.00    -0.200 F 
ATOM     77  F   UNL A   1      47.213  21.544  23.682  1.00  0.00    -0.200 F 
ENDBRANCH  53  67
BRANCH  54  78
ATOM     78  C   UNL A   1      46.769  30.764  28.655  1.00  0.00     0.064 A 
ATOM     79  C   UNL A   1      46.590  31.397  27.416  1.00  0.00     0.173 A 
ATOM     80  C   UNL A   1      47.595  31.422  29.587  1.00  0.00     0.173 A 
ATOM     81  F   UNL A   1      45.797  30.847  26.485  1.00  0.00    -0.203 F 
ATOM     82  C   UNL A   1      47.164  32.641  27.142  1.00  0.00     0.198 A 
ATOM     83  C   UNL A   1      48.174  32.659  29.308  1.00  0.00     0.198 A 
ATOM     84  F   UNL A   1      47.775  30.924  30.819  1.00  0.00    -0.203 F 
ATOM     85  F   UNL A   1      46.907  33.250  25.976  1.00  0.00    -0.200 F 
ATOM     86  C   UNL A   1      47.943  33.278  28.093  1.00  0.00     0.200 A 
ATOM     87  F   UNL A   1      48.902  33.280  30.247  1.00  0.00    -0.200 F 
ATOM     88  F   UNL A   1      48.432  34.503  27.857  1.00  0.00    -0.200 F 
ENDBRANCH  54  78
BRANCH  66  89
ATOM     89  C   UNL A   1      45.129  25.829  32.173  1.00  0.00     0.064 A 
ATOM     90  C   UNL A   1      46.008  25.592  33.243  1.00  0.00     0.173 A 
ATOM     91  C   UNL A   1      43.985  26.595  32.437  1.00  0.00     0.173 A 
ATOM     92  F   UNL A   1      47.170  24.956  33.056  1.00  0.00    -0.203 F 
ATOM     93  C   UNL A   1      45.726  26.057  34.527  1.00  0.00     0.198 A 
ATOM     94  C   UNL A   1      43.725  27.092  33.711  1.00  0.00     0.198 A 
ATOM     95  F   UNL A   1      43.136  26.900  31.442  1.00  0.00    -0.203 F 
ATOM     96  F   UNL A   1      46.571  25.801  35.536  1.00  0.00    -0.200 F 
ATOM     97  C   UNL A   1      44.589  26.813  34.757  1.00  0.00     0.200 A 
ATOM     98  F   UNL A   1      42.648  27.863  33.918  1.00  0.00    -0.200 F 
ATOM     99  F   UNL A   1      44.335  27.293  35.983  1.00  0.00    -0.200 F 
ENDBRANCH  66  89
ENDBRANCH  40  41
ENDBRANCH  32  35
ENDBRANCH  30  31
ENDBRANCH   1  30
TORSDOF 14
ENDMDL
