MODEL 1
REMARK VINA RESULT:     -13.4      0.000      0.000
REMARK SMILES O=C(NCCCNC(=O)c1nnn(Cc2ccccc2Cl)c1-c1ccc(Cl)cc1)c1ccc(-c2c3nc(c(-c4c(F)c(F)c(F)c(F)c4F)c4ccc([nH]4)c(-c4c(F)c(F)c(F)c(F)c4F)c4nc(c(-c5c(F)c(F)c(F)c(F)c5F)c5ccc2[nH]5)C=C4)C=C3)cc1
REMARK SMILES IDX 5 1 4 2 3 3 1 4 2 5 30 7 31 8 92 9 32 10 91 11 33 12 34 13
REMARK SMILES IDX 35 14 85 15 36 16 90 17 84 18 86 19 37 20 89 21 83 22 82 23
REMARK SMILES IDX 38 25 70 26 50 27 69 28 51 29 54 30 68 31 87 32 52 33 53 34
REMARK SMILES IDX 67 36 88 37 55 38 39 39 40 40 48 41 41 42 42 43 46 44 49 45
REMARK SMILES IDX 43 46 44 47 47 48 45 49 71 50 72 51 80 52 73 53 74 54 78 55
REMARK SMILES IDX 81 56 75 57 76 58 79 59 77 60 56 61 57 62 65 63 58 64 59 65
REMARK SMILES IDX 63 66 66 67 60 68 61 69 64 70 62 71 6 72 7 73 8 74 9 76
REMARK SMILES IDX 10 77 11 78 22 79 12 80 13 81 23 82 24 83 29 84 25 85 28 86
REMARK SMILES IDX 26 87 27 88 14 89 15 90 16 91 20 92 17 93 19 94 21 95 18 96
REMARK H PARENT 3 6 86 24 54 35 7 75
REMARK Flexibility Score: inf
ROOT
ATOM      1  C   UNL A   1      36.190  21.732  25.743  1.00  0.00     0.042 C 
ENDROOT
BRANCH   1   2
ATOM      2  C   UNL A   1      37.465  21.915  24.924  1.00  0.00     0.118 C 
BRANCH   2   3
ATOM      3  N   UNL A   1      38.636  21.216  25.417  1.00  0.00    -0.352 N 
ATOM      4  O   UNL A   1      40.368  20.546  26.609  1.00  0.00    -0.269 OA
ATOM      5  C   UNL A   1      39.631  21.491  26.313  1.00  0.00     0.251 C 
ATOM      6  H   UNL A   1      38.738  20.326  25.007  1.00  0.00     0.163 HD
BRANCH   5   7
ATOM      7  C   UNL A   1      39.926  22.829  26.898  1.00  0.00     0.039 A 
ATOM      8  C   UNL A   1      39.224  24.004  26.638  1.00  0.00     0.014 A 
ATOM      9  C   UNL A   1      41.036  22.895  27.763  1.00  0.00     0.014 A 
ATOM     10  C   UNL A   1      39.670  25.226  27.140  1.00  0.00     0.010 A 
ATOM     11  C   UNL A   1      41.464  24.107  28.301  1.00  0.00     0.010 A 
ATOM     12  C   UNL A   1      40.798  25.282  27.960  1.00  0.00    -0.014 A 
BRANCH  12  13
ATOM     13  C   UNL A   1      41.159  26.572  28.551  1.00  0.00     0.031 A 
ATOM     14  C   UNL A   1      42.388  27.223  28.008  1.00  0.00     0.074 A 
ATOM     15  C   UNL A   1      40.364  27.256  29.400  1.00  0.00     0.049 A 
ATOM     16  N   UNL A   1      43.402  27.704  28.655  1.00  0.00    -0.248 NA
ATOM     17  C   UNL A   1      42.507  27.330  26.545  1.00  0.00     0.031 C 
ATOM     18  C   UNL A   1      38.992  26.928  29.787  1.00  0.00     0.029 A 
ATOM     19  N   UNL A   1      40.583  28.465  30.001  1.00  0.00    -0.354 N 
ATOM     20  C   UNL A   1      44.214  28.316  27.700  1.00  0.00     0.074 A 
ATOM     21  C   UNL A   1      43.669  27.970  26.414  1.00  0.00     0.031 C 
ATOM     22  C   UNL A   1      38.430  28.008  30.372  1.00  0.00     0.029 A 
ATOM     23  C   UNL A   1      39.431  29.054  30.501  1.00  0.00     0.049 A 
ATOM     24  H   UNL A   1      41.473  28.879  30.072  1.00  0.00     0.167 HD
ATOM     25  C   UNL A   1      45.161  29.233  28.042  1.00  0.00     0.037 A 
ATOM     26  C   UNL A   1      39.282  30.332  30.923  1.00  0.00     0.037 A 
ATOM     27  C   UNL A   1      45.557  29.108  29.419  1.00  0.00     0.049 A 
ATOM     28  C   UNL A   1      40.621  30.890  31.219  1.00  0.00     0.074 A 
ATOM     29  C   UNL A   1      46.113  28.111  30.197  1.00  0.00     0.029 A 
ATOM     30  N   UNL A   1      45.162  30.079  30.301  1.00  0.00    -0.354 N 
ATOM     31  N   UNL A   1      41.361  30.549  32.236  1.00  0.00    -0.248 NA
ATOM     32  C   UNL A   1      41.298  31.660  30.186  1.00  0.00     0.031 C 
ATOM     33  C   UNL A   1      45.608  28.331  31.513  1.00  0.00     0.029 A 
ATOM     34  C   UNL A   1      44.782  29.453  31.456  1.00  0.00     0.049 A 
ATOM     35  H   UNL A   1      45.153  31.050  30.134  1.00  0.00     0.167 HD
ATOM     36  C   UNL A   1      42.661  30.685  31.780  1.00  0.00     0.074 A 
ATOM     37  C   UNL A   1      42.561  31.512  30.586  1.00  0.00     0.031 C 
ATOM     38  C   UNL A   1      43.652  29.871  32.246  1.00  0.00     0.037 A 
BRANCH  25  39
ATOM     39  C   UNL A   1      45.455  30.488  27.240  1.00  0.00     0.064 A 
ATOM     40  C   UNL A   1      46.799  30.851  27.009  1.00  0.00     0.173 A 
ATOM     41  C   UNL A   1      44.505  31.505  27.002  1.00  0.00     0.173 A 
ATOM     42  F   UNL A   1      47.790  29.968  27.200  1.00  0.00    -0.203 F 
ATOM     43  C   UNL A   1      47.168  32.162  26.690  1.00  0.00     0.198 A 
ATOM     44  C   UNL A   1      44.874  32.796  26.627  1.00  0.00     0.198 A 
ATOM     45  F   UNL A   1      43.198  31.328  27.226  1.00  0.00    -0.203 F 
ATOM     46  F   UNL A   1      48.465  32.493  26.638  1.00  0.00    -0.200 F 
ATOM     47  C   UNL A   1      46.205  33.137  26.513  1.00  0.00     0.200 A 
ATOM     48  F   UNL A   1      43.927  33.732  26.468  1.00  0.00    -0.200 F 
ATOM     49  F   UNL A   1      46.558  34.409  26.288  1.00  0.00    -0.200 F 
ENDBRANCH  25  39
BRANCH  26  50
ATOM     50  C   UNL A   1      38.068  31.180  30.893  1.00  0.00     0.064 A 
ATOM     51  C   UNL A   1      37.465  31.546  29.678  1.00  0.00     0.173 A 
ATOM     52  C   UNL A   1      37.327  31.445  32.061  1.00  0.00     0.173 A 
ATOM     53  F   UNL A   1      38.078  31.285  28.513  1.00  0.00    -0.203 F 
ATOM     54  C   UNL A   1      36.194  32.128  29.635  1.00  0.00     0.198 A 
ATOM     55  C   UNL A   1      36.067  32.041  32.018  1.00  0.00     0.198 A 
ATOM     56  F   UNL A   1      37.769  31.048  33.263  1.00  0.00    -0.203 F 
ATOM     57  F   UNL A   1      35.627  32.405  28.453  1.00  0.00    -0.200 F 
ATOM     58  C   UNL A   1      35.495  32.370  30.804  1.00  0.00     0.200 A 
ATOM     59  F   UNL A   1      35.387  32.238  33.157  1.00  0.00    -0.200 F 
ATOM     60  F   UNL A   1      34.256  32.880  30.761  1.00  0.00    -0.200 F 
ENDBRANCH  26  50
BRANCH  38  61
ATOM     61  C   UNL A   1      43.406  29.141  33.530  1.00  0.00     0.064 A 
ATOM     62  C   UNL A   1      42.664  27.954  33.628  1.00  0.00     0.173 A 
ATOM     63  C   UNL A   1      44.044  29.608  34.688  1.00  0.00     0.173 A 
ATOM     64  F   UNL A   1      42.118  27.388  32.543  1.00  0.00    -0.203 F 
ATOM     65  C   UNL A   1      42.516  27.299  34.849  1.00  0.00     0.198 A 
ATOM     66  C   UNL A   1      43.926  28.932  35.898  1.00  0.00     0.198 A 
ATOM     67  F   UNL A   1      44.817  30.705  34.636  1.00  0.00    -0.203 F 
ATOM     68  F   UNL A   1      41.782  26.180  34.926  1.00  0.00    -0.200 F 
ATOM     69  C   UNL A   1      43.150  27.787  35.981  1.00  0.00     0.200 A 
ATOM     70  F   UNL A   1      44.583  29.376  36.978  1.00  0.00    -0.200 F 
ATOM     71  F   UNL A   1      43.035  27.137  37.147  1.00  0.00    -0.200 F 
ENDBRANCH  38  61
ENDBRANCH  12  13
ENDBRANCH   5   7
ENDBRANCH   2   3
ENDBRANCH   1   2
BRANCH   1  72
ATOM     72  C   UNL A   1      35.626  22.998  26.371  1.00  0.00     0.118 C 
BRANCH  72  73
ATOM     73  N   UNL A   1      34.576  22.758  27.338  1.00  0.00    -0.351 N 
ATOM     74  C   UNL A   1      33.210  22.823  27.160  1.00  0.00     0.274 C 
ATOM     75  H   UNL A   1      34.876  22.517  28.244  1.00  0.00     0.163 HD
ATOM     76  O   UNL A   1      32.484  22.598  28.129  1.00  0.00    -0.267 OA
BRANCH  74  77
ATOM     77  C   UNL A   1      32.679  23.175  25.852  1.00  0.00     0.178 A 
ATOM     78  N   UNL A   1      32.394  22.216  24.917  1.00  0.00    -0.124 NA
ATOM     79  C   UNL A   1      32.358  24.432  25.341  1.00  0.00     0.102 A 
ATOM     80  N   UNL A   1      31.840  22.809  23.873  1.00  0.00    -0.066 NA
ATOM     81  N   UNL A   1      31.819  24.136  24.106  1.00  0.00    -0.239 N 
BRANCH  79  82
ATOM     82  C   UNL A   1      32.499  25.753  25.947  1.00  0.00     0.002 A 
ATOM     83  C   UNL A   1      31.382  26.380  26.517  1.00  0.00     0.012 A 
ATOM     84  C   UNL A   1      33.705  26.464  25.858  1.00  0.00     0.012 A 
ATOM     85  C   UNL A   1      31.466  27.695  26.980  1.00  0.00     0.021 A 
ATOM     86  C   UNL A   1      33.789  27.781  26.318  1.00  0.00     0.021 A 
ATOM     87  C   UNL A   1      32.668  28.392  26.874  1.00  0.00     0.041 A 
ATOM     88  Cl  UNL A   1      32.764  30.024  27.409  1.00  0.00    -0.084 Cl
ENDBRANCH  79  82
BRANCH  81  89
ATOM     89  C   UNL A   1      31.145  25.003  23.151  1.00  0.00     0.183 C 
BRANCH  89  90
ATOM     90  C   UNL A   1      31.892  26.286  22.894  1.00  0.00    -0.008 A 
ATOM     91  C   UNL A   1      33.222  26.219  22.437  1.00  0.00     0.007 A 
ATOM     92  C   UNL A   1      31.320  27.555  23.099  1.00  0.00     0.046 A 
ATOM     93  C   UNL A   1      33.958  27.382  22.199  1.00  0.00     0.000 A 
ATOM     94  C   UNL A   1      32.056  28.716  22.845  1.00  0.00     0.021 A 
ATOM     95  Cl  UNL A   1      29.718  27.757  23.712  1.00  0.00    -0.084 Cl
ATOM     96  C   UNL A   1      33.374  28.630  22.399  1.00  0.00     0.002 A 
ENDBRANCH  89  90
ENDBRANCH  81  89
ENDBRANCH  74  77
ENDBRANCH  72  73
ENDBRANCH   1  72
TORSDOF 13
ENDMDL
MODEL 2
REMARK VINA RESULT:     -13.2      0.539      1.244
REMARK SMILES O=C(NCCCNC(=O)c1nnn(Cc2ccccc2Cl)c1-c1ccc(Cl)cc1)c1ccc(-c2c3nc(c(-c4c(F)c(F)c(F)c(F)c4F)c4ccc([nH]4)c(-c4c(F)c(F)c(F)c(F)c4F)c4nc(c(-c5c(F)c(F)c(F)c(F)c5F)c5ccc2[nH]5)C=C4)C=C3)cc1
REMARK SMILES IDX 5 1 4 2 3 3 1 4 2 5 30 7 31 8 92 9 32 10 91 11 33 12 34 13
REMARK SMILES IDX 35 14 85 15 36 16 90 17 84 18 86 19 37 20 89 21 83 22 82 23
REMARK SMILES IDX 38 25 70 26 50 27 69 28 51 29 54 30 68 31 87 32 52 33 53 34
REMARK SMILES IDX 67 36 88 37 55 38 39 39 40 40 48 41 41 42 42 43 46 44 49 45
REMARK SMILES IDX 43 46 44 47 47 48 45 49 71 50 72 51 80 52 73 53 74 54 78 55
REMARK SMILES IDX 81 56 75 57 76 58 79 59 77 60 56 61 57 62 65 63 58 64 59 65
REMARK SMILES IDX 63 66 66 67 60 68 61 69 64 70 62 71 6 72 7 73 8 74 9 76
REMARK SMILES IDX 10 77 11 78 22 79 12 80 13 81 23 82 24 83 29 84 25 85 28 86
REMARK SMILES IDX 26 87 27 88 14 89 15 90 16 91 20 92 17 93 19 94 21 95 18 96
REMARK H PARENT 3 6 86 24 54 35 7 75
REMARK Flexibility Score: inf
ROOT
ATOM      1  C   UNL A   1      36.176  22.741  25.547  1.00  0.00     0.042 C 
ENDROOT
BRANCH   1   2
ATOM      2  C   UNL A   1      37.404  22.494  24.675  1.00  0.00     0.118 C 
BRANCH   2   3
ATOM      3  N   UNL A   1      38.460  21.707  25.283  1.00  0.00    -0.352 N 
ATOM      4  O   UNL A   1      40.001  20.908  26.645  1.00  0.00    -0.269 OA
ATOM      5  C   UNL A   1      39.374  21.906  26.280  1.00  0.00     0.251 C 
ATOM      6  H   UNL A   1      38.536  20.812  24.880  1.00  0.00     0.163 HD
BRANCH   5   7
ATOM      7  C   UNL A   1      39.707  23.217  26.902  1.00  0.00     0.039 A 
ATOM      8  C   UNL A   1      38.985  24.399  26.748  1.00  0.00     0.014 A 
ATOM      9  C   UNL A   1      40.877  23.252  27.687  1.00  0.00     0.014 A 
ATOM     10  C   UNL A   1      39.463  25.600  27.271  1.00  0.00     0.010 A 
ATOM     11  C   UNL A   1      41.340  24.440  28.247  1.00  0.00     0.010 A 
ATOM     12  C   UNL A   1      40.648  25.626  28.009  1.00  0.00    -0.014 A 
BRANCH  12  13
ATOM     13  C   UNL A   1      41.047  26.889  28.630  1.00  0.00     0.031 A 
ATOM     14  C   UNL A   1      42.281  27.530  28.084  1.00  0.00     0.074 A 
ATOM     15  C   UNL A   1      40.283  27.566  29.512  1.00  0.00     0.049 A 
ATOM     16  N   UNL A   1      43.317  27.969  28.727  1.00  0.00    -0.248 NA
ATOM     17  C   UNL A   1      42.378  27.676  26.623  1.00  0.00     0.031 C 
ATOM     18  C   UNL A   1      38.910  27.257  29.914  1.00  0.00     0.029 A 
ATOM     19  N   UNL A   1      40.538  28.752  30.144  1.00  0.00    -0.354 N 
ATOM     20  C   UNL A   1      44.126  28.590  27.776  1.00  0.00     0.074 A 
ATOM     21  C   UNL A   1      43.551  28.293  26.490  1.00  0.00     0.031 C 
ATOM     22  C   UNL A   1      38.382  28.331  30.539  1.00  0.00     0.029 A 
ATOM     23  C   UNL A   1      39.408  29.351  30.681  1.00  0.00     0.049 A 
ATOM     24  H   UNL A   1      41.439  29.144  30.210  1.00  0.00     0.167 HD
ATOM     25  C   UNL A   1      45.098  29.477  28.126  1.00  0.00     0.037 A 
ATOM     26  C   UNL A   1      39.295  30.619  31.141  1.00  0.00     0.037 A 
ATOM     27  C   UNL A   1      45.515  29.303  29.492  1.00  0.00     0.049 A 
ATOM     28  C   UNL A   1      40.651  31.139  31.430  1.00  0.00     0.074 A 
ATOM     29  C   UNL A   1      46.061  28.272  30.232  1.00  0.00     0.029 A 
ATOM     30  N   UNL A   1      45.157  30.256  30.409  1.00  0.00    -0.354 N 
ATOM     31  N   UNL A   1      41.400  30.752  32.423  1.00  0.00    -0.248 NA
ATOM     32  C   UNL A   1      41.327  31.924  30.407  1.00  0.00     0.031 C 
ATOM     33  C   UNL A   1      45.585  28.465  31.563  1.00  0.00     0.029 A 
ATOM     34  C   UNL A   1      44.783  29.606  31.552  1.00  0.00     0.049 A 
ATOM     35  H   UNL A   1      45.167  31.231  30.270  1.00  0.00     0.167 HD
ATOM     36  C   UNL A   1      42.695  30.873  31.948  1.00  0.00     0.074 A 
ATOM     37  C   UNL A   1      42.594  31.737  30.780  1.00  0.00     0.031 C 
ATOM     38  C   UNL A   1      43.676  30.025  32.374  1.00  0.00     0.037 A 
BRANCH  25  39
ATOM     39  C   UNL A   1      45.407  30.747  27.357  1.00  0.00     0.064 A 
ATOM     40  C   UNL A   1      46.746  31.029  27.011  1.00  0.00     0.173 A 
ATOM     41  C   UNL A   1      44.515  31.837  27.256  1.00  0.00     0.173 A 
ATOM     42  F   UNL A   1      47.683  30.071  27.067  1.00  0.00    -0.203 F 
ATOM     43  C   UNL A   1      47.178  32.325  26.716  1.00  0.00     0.198 A 
ATOM     44  C   UNL A   1      44.941  33.118  26.905  1.00  0.00     0.198 A 
ATOM     45  F   UNL A   1      43.225  31.739  27.598  1.00  0.00    -0.203 F 
ATOM     46  F   UNL A   1      48.485  32.570  26.553  1.00  0.00    -0.200 F 
ATOM     47  C   UNL A   1      46.276  33.372  26.677  1.00  0.00     0.200 A 
ATOM     48  F   UNL A   1      44.053  34.123  26.879  1.00  0.00    -0.200 F 
ATOM     49  F   UNL A   1      46.698  34.627  26.475  1.00  0.00    -0.200 F 
ENDBRANCH  25  39
BRANCH  26  50
ATOM     50  C   UNL A   1      38.100  31.494  31.157  1.00  0.00     0.064 A 
ATOM     51  C   UNL A   1      37.564  32.015  29.968  1.00  0.00     0.173 A 
ATOM     52  C   UNL A   1      37.308  31.638  32.313  1.00  0.00     0.173 A 
ATOM     53  F   UNL A   1      38.226  31.879  28.810  1.00  0.00    -0.203 F 
ATOM     54  C   UNL A   1      36.307  32.628  29.936  1.00  0.00     0.198 A 
ATOM     55  C   UNL A   1      36.064  32.265  32.284  1.00  0.00     0.198 A 
ATOM     56  F   UNL A   1      37.686  31.091  33.478  1.00  0.00    -0.203 F 
ATOM     57  F   UNL A   1      35.803  33.057  28.771  1.00  0.00    -0.200 F 
ATOM     58  C   UNL A   1      35.557  32.748  31.093  1.00  0.00     0.200 A 
ATOM     59  F   UNL A   1      35.334  32.343  33.406  1.00  0.00    -0.200 F 
ATOM     60  F   UNL A   1      34.332  33.290  31.054  1.00  0.00    -0.200 F 
ENDBRANCH  26  50
BRANCH  38  61
ATOM     61  C   UNL A   1      43.436  29.263  33.641  1.00  0.00     0.064 A 
ATOM     62  C   UNL A   1      43.798  29.727  34.915  1.00  0.00     0.173 A 
ATOM     63  C   UNL A   1      42.711  28.065  33.564  1.00  0.00     0.173 A 
ATOM     64  F   UNL A   1      44.393  30.916  35.074  1.00  0.00    -0.203 F 
ATOM     65  C   UNL A   1      43.499  28.988  36.058  1.00  0.00     0.198 A 
ATOM     66  C   UNL A   1      42.382  27.349  34.710  1.00  0.00     0.198 A 
ATOM     67  F   UNL A   1      42.287  27.609  32.374  1.00  0.00    -0.203 F 
ATOM     68  F   UNL A   1      43.875  29.437  37.264  1.00  0.00    -0.200 F 
ATOM     69  C   UNL A   1      42.789  27.803  35.954  1.00  0.00     0.200 A 
ATOM     70  F   UNL A   1      41.650  26.231  34.610  1.00  0.00    -0.200 F 
ATOM     71  F   UNL A   1      42.473  27.110  37.057  1.00  0.00    -0.200 F 
ENDBRANCH  38  61
ENDBRANCH  12  13
ENDBRANCH   5   7
ENDBRANCH   2   3
ENDBRANCH   1   2
BRANCH   1  72
ATOM     72  C   UNL A   1      35.526  21.496  26.132  1.00  0.00     0.118 C 
BRANCH  72  73
ATOM     73  N   UNL A   1      34.671  21.758  27.272  1.00  0.00    -0.351 N 
ATOM     74  C   UNL A   1      33.364  22.197  27.286  1.00  0.00     0.274 C 
ATOM     75  H   UNL A   1      35.078  21.601  28.154  1.00  0.00     0.163 HD
ATOM     76  O   UNL A   1      32.820  22.374  28.376  1.00  0.00    -0.267 OA
BRANCH  74  77
ATOM     77  C   UNL A   1      32.687  22.455  26.024  1.00  0.00     0.178 A 
ATOM     78  N   UNL A   1      32.306  21.432  25.197  1.00  0.00    -0.124 NA
ATOM     79  C   UNL A   1      32.301  23.673  25.466  1.00  0.00     0.102 A 
ATOM     80  N   UNL A   1      31.634  21.950  24.183  1.00  0.00    -0.066 NA
ATOM     81  N   UNL A   1      31.629  23.290  24.323  1.00  0.00    -0.239 N 
BRANCH  79  82
ATOM     82  C   UNL A   1      32.499  25.034  25.957  1.00  0.00     0.002 A 
ATOM     83  C   UNL A   1      31.430  25.722  26.548  1.00  0.00     0.012 A 
ATOM     84  C   UNL A   1      33.705  25.714  25.736  1.00  0.00     0.012 A 
ATOM     85  C   UNL A   1      31.562  27.068  26.901  1.00  0.00     0.021 A 
ATOM     86  C   UNL A   1      33.837  27.060  26.086  1.00  0.00     0.021 A 
ATOM     87  C   UNL A   1      32.764  27.733  26.664  1.00  0.00     0.041 A 
ATOM     88  Cl  UNL A   1      32.916  29.398  27.064  1.00  0.00    -0.084 Cl
ENDBRANCH  79  82
BRANCH  81  89
ATOM     89  C   UNL A   1      30.845  24.088  23.391  1.00  0.00     0.183 C 
BRANCH  89  90
ATOM     90  C   UNL A   1      31.553  25.345  22.955  1.00  0.00    -0.008 A 
ATOM     91  C   UNL A   1      32.834  25.241  22.383  1.00  0.00     0.007 A 
ATOM     92  C   UNL A   1      30.990  26.625  23.102  1.00  0.00     0.046 A 
ATOM     93  C   UNL A   1      33.533  26.379  21.978  1.00  0.00     0.000 A 
ATOM     94  C   UNL A   1      31.687  27.761  22.680  1.00  0.00     0.021 A 
ATOM     95  Cl  UNL A   1      29.449  26.878  23.843  1.00  0.00    -0.084 Cl
ATOM     96  C   UNL A   1      32.958  27.639  22.122  1.00  0.00     0.002 A 
ENDBRANCH  89  90
ENDBRANCH  81  89
ENDBRANCH  74  77
ENDBRANCH  72  73
ENDBRANCH   1  72
TORSDOF 13
ENDMDL
MODEL 3
REMARK VINA RESULT:     -12.9      3.340      8.189
REMARK SMILES O=C(NCCCNC(=O)c1nnn(Cc2ccccc2Cl)c1-c1ccc(Cl)cc1)c1ccc(-c2c3nc(c(-c4c(F)c(F)c(F)c(F)c4F)c4ccc([nH]4)c(-c4c(F)c(F)c(F)c(F)c4F)c4nc(c(-c5c(F)c(F)c(F)c(F)c5F)c5ccc2[nH]5)C=C4)C=C3)cc1
REMARK SMILES IDX 5 1 4 2 3 3 1 4 2 5 30 7 31 8 92 9 32 10 91 11 33 12 34 13
REMARK SMILES IDX 35 14 85 15 36 16 90 17 84 18 86 19 37 20 89 21 83 22 82 23
REMARK SMILES IDX 38 25 70 26 50 27 69 28 51 29 54 30 68 31 87 32 52 33 53 34
REMARK SMILES IDX 67 36 88 37 55 38 39 39 40 40 48 41 41 42 42 43 46 44 49 45
REMARK SMILES IDX 43 46 44 47 47 48 45 49 71 50 72 51 80 52 73 53 74 54 78 55
REMARK SMILES IDX 81 56 75 57 76 58 79 59 77 60 56 61 57 62 65 63 58 64 59 65
REMARK SMILES IDX 63 66 66 67 60 68 61 69 64 70 62 71 6 72 7 73 8 74 9 76
REMARK SMILES IDX 10 77 11 78 22 79 12 80 13 81 23 82 24 83 29 84 25 85 28 86
REMARK SMILES IDX 26 87 27 88 14 89 15 90 16 91 20 92 17 93 19 94 21 95 18 96
REMARK H PARENT 3 6 86 24 54 35 7 75
REMARK Flexibility Score: inf
ROOT
ATOM      1  C   UNL A   1      33.848  28.991  26.027  1.00  0.00     0.042 C 
ENDROOT
BRANCH   1   2
ATOM      2  C   UNL A   1      33.294  29.433  27.379  1.00  0.00     0.118 C 
BRANCH   2   3
ATOM      3  N   UNL A   1      33.652  30.775  27.798  1.00  0.00    -0.352 N 
ATOM      4  O   UNL A   1      34.730  32.651  28.229  1.00  0.00    -0.269 OA
ATOM      5  C   UNL A   1      34.819  31.429  28.081  1.00  0.00     0.251 C 
ATOM      6  H   UNL A   1      32.864  31.355  27.904  1.00  0.00     0.163 HD
BRANCH   5   7
ATOM      7  C   UNL A   1      36.147  30.786  28.282  1.00  0.00     0.039 A 
ATOM      8  C   UNL A   1      36.449  29.448  28.039  1.00  0.00     0.014 A 
ATOM      9  C   UNL A   1      37.166  31.614  28.793  1.00  0.00     0.014 A 
ATOM     10  C   UNL A   1      37.694  28.923  28.387  1.00  0.00     0.010 A 
ATOM     11  C   UNL A   1      38.424  31.107  29.106  1.00  0.00     0.010 A 
ATOM     12  C   UNL A   1      38.678  29.747  28.935  1.00  0.00    -0.014 A 
BRANCH  12  13
ATOM     13  C   UNL A   1      40.003  29.174  29.178  1.00  0.00     0.031 A 
ATOM     14  C   UNL A   1      40.411  29.049  30.609  1.00  0.00     0.074 A 
ATOM     15  C   UNL A   1      40.763  28.608  28.219  1.00  0.00     0.049 A 
ATOM     16  N   UNL A   1      41.510  29.440  31.174  1.00  0.00    -0.248 NA
ATOM     17  C   UNL A   1      39.453  28.424  31.536  1.00  0.00     0.031 C 
ATOM     18  C   UNL A   1      40.387  28.349  26.829  1.00  0.00     0.029 A 
ATOM     19  N   UNL A   1      41.999  28.030  28.326  1.00  0.00    -0.354 N 
ATOM     20  C   UNL A   1      41.456  28.973  32.488  1.00  0.00     0.074 A 
ATOM     21  C   UNL A   1      40.132  28.445  32.682  1.00  0.00     0.031 C 
ATOM     22  C   UNL A   1      41.271  27.484  26.287  1.00  0.00     0.029 A 
ATOM     23  C   UNL A   1      42.329  27.220  27.249  1.00  0.00     0.049 A 
ATOM     24  H   UNL A   1      42.597  28.176  29.094  1.00  0.00     0.167 HD
ATOM     25  C   UNL A   1      42.572  28.869  33.260  1.00  0.00     0.037 A 
ATOM     26  C   UNL A   1      43.352  26.336  27.174  1.00  0.00     0.037 A 
ATOM     27  C   UNL A   1      43.630  29.725  32.793  1.00  0.00     0.049 A 
ATOM     28  C   UNL A   1      44.351  26.682  28.210  1.00  0.00     0.074 A 
ATOM     29  C   UNL A   1      43.783  31.083  32.596  1.00  0.00     0.029 A 
ATOM     30  N   UNL A   1      44.721  29.147  32.199  1.00  0.00    -0.354 N 
ATOM     31  N   UNL A   1      45.132  27.724  28.172  1.00  0.00    -0.248 NA
ATOM     32  C   UNL A   1      44.290  25.995  29.492  1.00  0.00     0.031 C 
ATOM     33  C   UNL A   1      44.702  31.209  31.511  1.00  0.00     0.029 A 
ATOM     34  C   UNL A   1      45.056  29.918  31.121  1.00  0.00     0.049 A 
ATOM     35  H   UNL A   1      45.180  28.327  32.494  1.00  0.00     0.167 HD
ATOM     36  C   UNL A   1      45.319  28.067  29.500  1.00  0.00     0.074 A 
ATOM     37  C   UNL A   1      44.915  26.890  30.257  1.00  0.00     0.031 C 
ATOM     38  C   UNL A   1      45.502  29.369  29.865  1.00  0.00     0.037 A 
BRANCH  25  39
ATOM     39  C   UNL A   1      42.842  27.718  34.211  1.00  0.00     0.064 A 
ATOM     40  C   UNL A   1      43.238  26.472  33.681  1.00  0.00     0.173 A 
ATOM     41  C   UNL A   1      42.400  27.691  35.552  1.00  0.00     0.173 A 
ATOM     42  F   UNL A   1      43.678  26.374  32.417  1.00  0.00    -0.203 F 
ATOM     43  C   UNL A   1      43.081  25.279  34.393  1.00  0.00     0.198 A 
ATOM     44  C   UNL A   1      42.299  26.504  36.279  1.00  0.00     0.198 A 
ATOM     45  F   UNL A   1      41.945  28.782  36.177  1.00  0.00    -0.203 F 
ATOM     46  F   UNL A   1      43.320  24.108  33.789  1.00  0.00    -0.200 F 
ATOM     47  C   UNL A   1      42.597  25.296  35.687  1.00  0.00     0.200 A 
ATOM     48  F   UNL A   1      41.821  26.538  37.531  1.00  0.00    -0.200 F 
ATOM     49  F   UNL A   1      42.369  24.151  36.343  1.00  0.00    -0.200 F 
ENDBRANCH  25  39
BRANCH  26  50
ATOM     50  C   UNL A   1      43.432  25.078  26.396  1.00  0.00     0.064 A 
ATOM     51  C   UNL A   1      44.383  24.912  25.375  1.00  0.00     0.173 A 
ATOM     52  C   UNL A   1      42.744  23.918  26.802  1.00  0.00     0.173 A 
ATOM     53  F   UNL A   1      45.120  25.954  24.962  1.00  0.00    -0.203 F 
ATOM     54  C   UNL A   1      44.638  23.660  24.807  1.00  0.00     0.198 A 
ATOM     55  C   UNL A   1      42.987  22.674  26.222  1.00  0.00     0.198 A 
ATOM     56  F   UNL A   1      41.886  23.950  27.833  1.00  0.00    -0.203 F 
ATOM     57  F   UNL A   1      45.597  23.532  23.879  1.00  0.00    -0.200 F 
ATOM     58  C   UNL A   1      43.944  22.542  25.234  1.00  0.00     0.200 A 
ATOM     59  F   UNL A   1      42.331  21.594  26.670  1.00  0.00    -0.200 F 
ATOM     60  F   UNL A   1      44.224  21.334  24.726  1.00  0.00    -0.200 F 
ENDBRANCH  26  50
BRANCH  38  61
ATOM     61  C   UNL A   1      45.914  30.339  28.801  1.00  0.00     0.064 A 
ATOM     62  C   UNL A   1      45.018  30.964  27.920  1.00  0.00     0.173 A 
ATOM     63  C   UNL A   1      47.260  30.730  28.748  1.00  0.00     0.173 A 
ATOM     64  F   UNL A   1      43.701  30.723  27.987  1.00  0.00    -0.203 F 
ATOM     65  C   UNL A   1      45.464  31.895  26.985  1.00  0.00     0.198 A 
ATOM     66  C   UNL A   1      47.695  31.687  27.839  1.00  0.00     0.198 A 
ATOM     67  F   UNL A   1      48.147  30.207  29.610  1.00  0.00    -0.203 F 
ATOM     68  F   UNL A   1      44.595  32.463  26.136  1.00  0.00    -0.200 F 
ATOM     69  C   UNL A   1      46.801  32.258  26.948  1.00  0.00     0.200 A 
ATOM     70  F   UNL A   1      48.978  32.074  27.841  1.00  0.00    -0.200 F 
ATOM     71  F   UNL A   1      47.223  33.180  26.071  1.00  0.00    -0.200 F 
ENDBRANCH  38  61
ENDBRANCH  12  13
ENDBRANCH   5   7
ENDBRANCH   2   3
ENDBRANCH   1   2
BRANCH   1  72
ATOM     72  C   UNL A   1      33.075  29.478  24.811  1.00  0.00     0.118 C 
BRANCH  72  73
ATOM     73  N   UNL A   1      33.768  29.280  23.554  1.00  0.00    -0.351 N 
ATOM     74  C   UNL A   1      33.532  28.333  22.581  1.00  0.00     0.274 C 
ATOM     75  H   UNL A   1      34.505  29.905  23.371  1.00  0.00     0.163 HD
ATOM     76  O   UNL A   1      34.256  28.327  21.585  1.00  0.00    -0.267 OA
BRANCH  74  77
ATOM     77  C   UNL A   1      32.460  27.368  22.773  1.00  0.00     0.178 A 
ATOM     78  N   UNL A   1      31.161  27.675  22.469  1.00  0.00    -0.124 NA
ATOM     79  C   UNL A   1      32.532  26.053  23.234  1.00  0.00     0.102 A 
ATOM     80  N   UNL A   1      30.427  26.590  22.649  1.00  0.00    -0.066 NA
ATOM     81  N   UNL A   1      31.230  25.613  23.114  1.00  0.00    -0.239 N 
BRANCH  79  82
ATOM     82  C   UNL A   1      33.684  25.283  23.694  1.00  0.00     0.002 A 
ATOM     83  C   UNL A   1      34.253  24.315  22.856  1.00  0.00     0.012 A 
ATOM     84  C   UNL A   1      34.155  25.404  25.010  1.00  0.00     0.012 A 
ATOM     85  C   UNL A   1      35.268  23.477  23.327  1.00  0.00     0.021 A 
ATOM     86  C   UNL A   1      35.166  24.565  25.482  1.00  0.00     0.021 A 
ATOM     87  C   UNL A   1      35.717  23.602  24.640  1.00  0.00     0.041 A 
ATOM     88  Cl  UNL A   1      36.939  22.548  25.233  1.00  0.00    -0.084 Cl
ENDBRANCH  79  82
BRANCH  81  89
ATOM     89  C   UNL A   1      30.680  24.275  23.279  1.00  0.00     0.183 C 
BRANCH  89  90
ATOM     90  C   UNL A   1      31.145  23.601  24.545  1.00  0.00    -0.008 A 
ATOM     91  C   UNL A   1      30.908  24.234  25.779  1.00  0.00     0.007 A 
ATOM     92  C   UNL A   1      31.814  22.364  24.546  1.00  0.00     0.046 A 
ATOM     93  C   UNL A   1      31.334  23.654  26.976  1.00  0.00     0.000 A 
ATOM     94  C   UNL A   1      32.225  21.780  25.749  1.00  0.00     0.021 A 
ATOM     95  Cl  UNL A   1      32.209  21.526  23.089  1.00  0.00    -0.084 Cl
ATOM     96  C   UNL A   1      31.988  22.425  26.961  1.00  0.00     0.002 A 
ENDBRANCH  89  90
ENDBRANCH  81  89
ENDBRANCH  74  77
ENDBRANCH  72  73
ENDBRANCH   1  72
TORSDOF 13
ENDMDL
