MODEL 1
REMARK VINA RESULT:     -13.6      0.000      0.000
REMARK SMILES C[C@@H]1CN(C(=O)Nc2ccc(O)c(C(=O)NCCCNC(=O)c3ccc(-c4c5nc(c(-c6c(F)c(F)c(F)c(F)c6F)c6ccc([nH]6)c(-c6c(F)c(F)c(F)c(F)c6F)c6nc(c(-c7c(F)c(F)c(F)c(F)c7F)c7ccc4[nH]7)C=C6)C=C5)cc3)c2)C[C@H]1C
REMARK SMILES IDX 18 1 17 2 16 3 14 4 15 5 13 7 8 8 9 9 86 10 10 11 11 12 7 13
REMARK SMILES IDX 1 14 2 15 3 16 88 17 4 18 87 19 89 20 5 21 6 22 12 24 19 26
REMARK SMILES IDX 20 27 21 28 22 30 23 31 24 32 85 33 25 34 84 35 26 36 27 37
REMARK SMILES IDX 28 38 78 39 29 40 83 41 77 42 79 43 30 44 82 45 76 46 75 47
REMARK SMILES IDX 31 49 63 50 43 51 62 52 44 53 47 54 61 55 80 56 45 57 46 58
REMARK SMILES IDX 60 60 81 61 48 62 32 63 33 64 41 65 34 66 35 67 39 68 42 69
REMARK SMILES IDX 36 70 37 71 40 72 38 73 64 74 65 75 73 76 66 77 67 78 71 79
REMARK SMILES IDX 74 80 68 81 69 82 72 83 70 84 49 85 50 86 58 87 51 88 52 89
REMARK SMILES IDX 56 90 59 91 53 92 54 93 57 94 55 95
REMARK H PARENT 16 6 7 23 12 25 20 29 79 48 47 59
REMARK Flexibility Score: inf
ROOT
ATOM      1  C   UNL A   1      31.358  32.184  26.496  1.00  0.00     0.042 C 
ENDROOT
BRANCH   1   2
ATOM      2  C   UNL A   1      31.380  30.668  26.305  1.00  0.00     0.118 C 
BRANCH   2   3
ATOM      3  N   UNL A   1      32.333  30.280  25.285  1.00  0.00    -0.352 N 
ATOM      4  C   UNL A   1      32.379  29.222  24.417  1.00  0.00     0.255 C 
ATOM      5  O   UNL A   1      33.340  29.185  23.644  1.00  0.00    -0.269 OA
ATOM      6  H   UNL A   1      33.096  30.897  25.199  1.00  0.00     0.163 HD
BRANCH   4   7
ATOM      7  C   UNL A   1      31.326  28.177  24.270  1.00  0.00     0.083 A 
ATOM      8  C   UNL A   1      30.280  26.275  25.386  1.00  0.00     0.043 A 
ATOM      9  C   UNL A   1      29.328  26.194  24.376  1.00  0.00     0.030 A 
ATOM     10  C   UNL A   1      31.216  27.310  25.375  1.00  0.00     0.044 A 
ATOM     11  C   UNL A   1      29.410  27.046  23.281  1.00  0.00     0.049 A 
ATOM     12  C   UNL A   1      30.421  28.012  23.214  1.00  0.00     0.128 A 
BRANCH   8  13
ATOM     13  N   UNL A   1      30.330  25.344  26.423  1.00  0.00    -0.308 N 
ATOM     14  C   UNL A   1      34.006  23.305  23.043  1.00  0.00     0.010 C 
ATOM     15  C   UNL A   1      32.688  22.840  23.640  1.00  0.00     0.010 C 
ATOM     16  C   UNL A   1      31.932  23.984  24.311  1.00  0.00     0.125 C 
ATOM     17  C   UNL A   1      32.813  21.817  24.771  1.00  0.00     0.010 C 
ATOM     18  N   UNL A   1      31.143  23.373  25.378  1.00  0.00    -0.324 N 
ATOM     19  C   UNL A   1      31.462  21.956  25.480  1.00  0.00     0.125 C 
ATOM     20  C   UNL A   1      33.079  20.405  24.280  1.00  0.00     0.010 C 
ATOM     21  C   UNL A   1      30.446  23.986  26.393  1.00  0.00     0.321 C 
ATOM     22  O   UNL A   1      30.035  23.355  27.370  1.00  0.00    -0.248 OA
ATOM     23  H   UNL A   1      30.269  25.731  27.327  1.00  0.00     0.171 HD
ENDBRANCH   8  13
BRANCH  12  24
ATOM     24  O   UNL A   1      30.450  28.784  22.096  1.00  0.00    -0.507 OA
ATOM     25  H   UNL A   1      30.445  29.719  22.171  1.00  0.00     0.293 HD
ENDBRANCH  12  24
ENDBRANCH   4   7
ENDBRANCH   2   3
ENDBRANCH   1   2
BRANCH   1  26
ATOM     26  C   UNL A   1      32.629  32.762  27.102  1.00  0.00     0.118 C 
BRANCH  26  27
ATOM     27  N   UNL A   1      32.441  34.115  27.600  1.00  0.00    -0.352 N 
ATOM     28  C   UNL A   1      33.046  34.764  28.649  1.00  0.00     0.251 C 
ATOM     29  H   UNL A   1      31.776  34.649  27.109  1.00  0.00     0.163 HD
ATOM     30  O   UNL A   1      32.594  35.839  29.031  1.00  0.00    -0.269 OA
BRANCH  28  31
ATOM     31  C   UNL A   1      34.226  34.183  29.337  1.00  0.00     0.039 A 
ATOM     32  C   UNL A   1      34.013  33.398  30.476  1.00  0.00     0.014 A 
ATOM     33  C   UNL A   1      35.532  34.447  28.916  1.00  0.00     0.014 A 
ATOM     34  C   UNL A   1      35.100  32.839  31.156  1.00  0.00     0.010 A 
ATOM     35  C   UNL A   1      36.611  33.827  29.546  1.00  0.00     0.010 A 
ATOM     36  C   UNL A   1      36.407  33.027  30.680  1.00  0.00    -0.014 A 
BRANCH  36  37
ATOM     37  C   UNL A   1      37.572  32.410  31.363  1.00  0.00     0.031 A 
ATOM     38  C   UNL A   1      38.327  31.285  30.708  1.00  0.00     0.074 A 
ATOM     39  C   UNL A   1      37.915  32.818  32.599  1.00  0.00     0.049 A 
ATOM     40  N   UNL A   1      39.326  30.576  31.171  1.00  0.00    -0.248 NA
ATOM     41  C   UNL A   1      37.879  30.887  29.365  1.00  0.00     0.031 C 
ATOM     42  C   UNL A   1      37.239  33.870  33.358  1.00  0.00     0.029 A 
ATOM     43  N   UNL A   1      38.912  32.389  33.440  1.00  0.00    -0.354 N 
ATOM     44  C   UNL A   1      39.610  29.637  30.188  1.00  0.00     0.074 A 
ATOM     45  C   UNL A   1      38.649  29.836  29.124  1.00  0.00     0.031 C 
ATOM     46  C   UNL A   1      37.856  34.023  34.541  1.00  0.00     0.029 A 
ATOM     47  C   UNL A   1      38.945  33.056  34.639  1.00  0.00     0.049 A 
ATOM     48  H   UNL A   1      39.544  31.671  33.204  1.00  0.00     0.167 HD
ATOM     49  C   UNL A   1      40.593  28.705  30.166  1.00  0.00     0.037 A 
ATOM     50  C   UNL A   1      39.761  32.904  35.699  1.00  0.00     0.037 A 
ATOM     51  C   UNL A   1      41.568  28.530  31.212  1.00  0.00     0.049 A 
ATOM     52  C   UNL A   1      40.845  31.863  35.652  1.00  0.00     0.074 A 
ATOM     53  C   UNL A   1      42.651  27.670  31.248  1.00  0.00     0.029 A 
ATOM     54  N   UNL A   1      41.571  29.229  32.410  1.00  0.00    -0.354 N 
ATOM     55  N   UNL A   1      41.148  31.028  34.689  1.00  0.00    -0.248 NA
ATOM     56  C   UNL A   1      41.701  31.747  36.841  1.00  0.00     0.031 C 
ATOM     57  C   UNL A   1      43.285  27.818  32.487  1.00  0.00     0.029 A 
ATOM     58  C   UNL A   1      42.623  28.801  33.205  1.00  0.00     0.049 A 
ATOM     59  H   UNL A   1      40.923  29.926  32.659  1.00  0.00     0.167 HD
ATOM     60  C   UNL A   1      42.241  30.303  35.143  1.00  0.00     0.074 A 
ATOM     61  C   UNL A   1      42.556  30.806  36.465  1.00  0.00     0.031 C 
ATOM     62  C   UNL A   1      42.923  29.312  34.519  1.00  0.00     0.037 A 
BRANCH  49  63
ATOM     63  C   UNL A   1      40.658  27.799  28.971  1.00  0.00     0.064 A 
ATOM     64  C   UNL A   1      39.877  26.636  28.883  1.00  0.00     0.173 A 
ATOM     65  C   UNL A   1      41.504  28.102  27.893  1.00  0.00     0.173 A 
ATOM     66  F   UNL A   1      39.061  26.294  29.891  1.00  0.00    -0.203 F 
ATOM     67  C   UNL A   1      39.970  25.792  27.779  1.00  0.00     0.198 A 
ATOM     68  C   UNL A   1      41.570  27.272  26.777  1.00  0.00     0.198 A 
ATOM     69  F   UNL A   1      42.266  29.207  27.921  1.00  0.00    -0.203 F 
ATOM     70  F   UNL A   1      39.257  24.657  27.745  1.00  0.00    -0.200 F 
ATOM     71  C   UNL A   1      40.811  26.112  26.726  1.00  0.00     0.200 A 
ATOM     72  F   UNL A   1      42.376  27.589  25.754  1.00  0.00    -0.200 F 
ATOM     73  F   UNL A   1      40.900  25.298  25.665  1.00  0.00    -0.200 F 
ENDBRANCH  49  63
BRANCH  50  74
ATOM     74  C   UNL A   1      39.605  33.793  36.879  1.00  0.00     0.064 A 
ATOM     75  C   UNL A   1      40.225  35.049  36.912  1.00  0.00     0.173 A 
ATOM     76  C   UNL A   1      38.820  33.421  37.978  1.00  0.00     0.173 A 
ATOM     77  F   UNL A   1      41.003  35.439  35.891  1.00  0.00    -0.203 F 
ATOM     78  C   UNL A   1      40.070  35.899  38.004  1.00  0.00     0.198 A 
ATOM     79  C   UNL A   1      38.646  34.281  39.060  1.00  0.00     0.198 A 
ATOM     80  F   UNL A   1      38.202  32.231  37.991  1.00  0.00    -0.203 F 
ATOM     81  F   UNL A   1      40.696  37.083  38.024  1.00  0.00    -0.200 F 
ATOM     82  C   UNL A   1      39.275  35.517  39.075  1.00  0.00     0.200 A 
ATOM     83  F   UNL A   1      37.865  33.915  40.087  1.00  0.00    -0.200 F 
ATOM     84  F   UNL A   1      39.115  36.340  40.120  1.00  0.00    -0.200 F 
ENDBRANCH  50  74
BRANCH  62  85
ATOM     85  C   UNL A   1      44.094  28.721  35.247  1.00  0.00     0.064 A 
ATOM     86  C   UNL A   1      45.386  29.247  35.107  1.00  0.00     0.173 A 
ATOM     87  C   UNL A   1      43.915  27.639  36.122  1.00  0.00     0.173 A 
ATOM     88  F   UNL A   1      45.612  30.269  34.268  1.00  0.00    -0.203 F 
ATOM     89  C   UNL A   1      46.461  28.697  35.801  1.00  0.00     0.198 A 
ATOM     90  C   UNL A   1      44.986  27.110  36.836  1.00  0.00     0.198 A 
ATOM     91  F   UNL A   1      42.696  27.103  36.294  1.00  0.00    -0.203 F 
ATOM     92  F   UNL A   1      47.695  29.188  35.620  1.00  0.00    -0.200 F 
ATOM     93  C   UNL A   1      46.259  27.635  36.670  1.00  0.00     0.200 A 
ATOM     94  F   UNL A   1      44.787  26.090  37.682  1.00  0.00    -0.200 F 
ATOM     95  F   UNL A   1      47.293  27.111  37.343  1.00  0.00    -0.200 F 
ENDBRANCH  62  85
ENDBRANCH  36  37
ENDBRANCH  28  31
ENDBRANCH  26  27
ENDBRANCH   1  26
TORSDOF 12
ENDMDL
MODEL 2
REMARK VINA RESULT:     -13.5      0.197      1.604
REMARK SMILES C[C@@H]1CN(C(=O)Nc2ccc(O)c(C(=O)NCCCNC(=O)c3ccc(-c4c5nc(c(-c6c(F)c(F)c(F)c(F)c6F)c6ccc([nH]6)c(-c6c(F)c(F)c(F)c(F)c6F)c6nc(c(-c7c(F)c(F)c(F)c(F)c7F)c7ccc4[nH]7)C=C6)C=C5)cc3)c2)C[C@H]1C
REMARK SMILES IDX 18 1 17 2 16 3 14 4 15 5 13 7 8 8 9 9 86 10 10 11 11 12 7 13
REMARK SMILES IDX 1 14 2 15 3 16 88 17 4 18 87 19 89 20 5 21 6 22 12 24 19 26
REMARK SMILES IDX 20 27 21 28 22 30 23 31 24 32 85 33 25 34 84 35 26 36 27 37
REMARK SMILES IDX 28 38 78 39 29 40 83 41 77 42 79 43 30 44 82 45 76 46 75 47
REMARK SMILES IDX 31 49 63 50 43 51 62 52 44 53 47 54 61 55 80 56 45 57 46 58
REMARK SMILES IDX 60 60 81 61 48 62 32 63 33 64 41 65 34 66 35 67 39 68 42 69
REMARK SMILES IDX 36 70 37 71 40 72 38 73 64 74 65 75 73 76 66 77 67 78 71 79
REMARK SMILES IDX 74 80 68 81 69 82 72 83 70 84 49 85 50 86 58 87 51 88 52 89
REMARK SMILES IDX 56 90 59 91 53 92 54 93 57 94 55 95
REMARK H PARENT 16 6 7 23 12 25 20 29 79 48 47 59
REMARK Flexibility Score: inf
ROOT
ATOM      1  C   UNL A   1      31.378  32.257  26.496  1.00  0.00     0.042 C 
ENDROOT
BRANCH   1   2
ATOM      2  C   UNL A   1      31.399  30.739  26.316  1.00  0.00     0.118 C 
BRANCH   2   3
ATOM      3  N   UNL A   1      32.377  30.341  25.324  1.00  0.00    -0.352 N 
ATOM      4  C   UNL A   1      32.443  29.275  24.466  1.00  0.00     0.255 C 
ATOM      5  O   UNL A   1      33.424  29.231  23.719  1.00  0.00    -0.269 OA
ATOM      6  H   UNL A   1      33.142  30.957  25.251  1.00  0.00     0.163 HD
BRANCH   4   7
ATOM      7  C   UNL A   1      31.393  28.231  24.302  1.00  0.00     0.083 A 
ATOM      8  C   UNL A   1      30.333  26.325  25.397  1.00  0.00     0.043 A 
ATOM      9  C   UNL A   1      29.395  26.247  24.374  1.00  0.00     0.030 A 
ATOM     10  C   UNL A   1      31.268  27.360  25.402  1.00  0.00     0.044 A 
ATOM     11  C   UNL A   1      29.491  27.102  23.284  1.00  0.00     0.049 A 
ATOM     12  C   UNL A   1      30.503  28.068  23.233  1.00  0.00     0.128 A 
BRANCH   8  13
ATOM     13  N   UNL A   1      30.369  25.390  26.432  1.00  0.00    -0.308 N 
ATOM     14  C   UNL A   1      34.102  23.372  23.102  1.00  0.00     0.010 C 
ATOM     15  C   UNL A   1      32.777  22.902  23.677  1.00  0.00     0.010 C 
ATOM     16  C   UNL A   1      32.008  24.041  24.340  1.00  0.00     0.125 C 
ATOM     17  C   UNL A   1      32.887  21.875  24.806  1.00  0.00     0.010 C 
ATOM     18  N   UNL A   1      31.204  23.425  25.393  1.00  0.00    -0.324 N 
ATOM     19  C   UNL A   1      31.525  22.008  25.495  1.00  0.00     0.125 C 
ATOM     20  C   UNL A   1      33.165  20.465  24.315  1.00  0.00     0.010 C 
ATOM     21  C   UNL A   1      30.489  24.033  26.399  1.00  0.00     0.321 C 
ATOM     22  O   UNL A   1      30.065  23.398  27.368  1.00  0.00    -0.248 OA
ATOM     23  H   UNL A   1      30.294  25.774  27.336  1.00  0.00     0.171 HD
ENDBRANCH   8  13
BRANCH  12  24
ATOM     24  O   UNL A   1      30.546  28.845  22.118  1.00  0.00    -0.507 OA
ATOM     25  H   UNL A   1      31.198  29.512  22.036  1.00  0.00     0.293 HD
ENDBRANCH  12  24
ENDBRANCH   4   7
ENDBRANCH   2   3
ENDBRANCH   1   2
BRANCH   1  26
ATOM     26  C   UNL A   1      32.644  32.837  27.109  1.00  0.00     0.118 C 
BRANCH  26  27
ATOM     27  N   UNL A   1      32.455  34.196  27.590  1.00  0.00    -0.352 N 
ATOM     28  C   UNL A   1      33.049  34.854  28.640  1.00  0.00     0.251 C 
ATOM     29  H   UNL A   1      31.800  34.728  27.084  1.00  0.00     0.163 HD
ATOM     30  O   UNL A   1      32.597  35.935  29.004  1.00  0.00    -0.269 OA
BRANCH  28  31
ATOM     31  C   UNL A   1      34.216  34.276  29.351  1.00  0.00     0.039 A 
ATOM     32  C   UNL A   1      33.982  33.480  30.479  1.00  0.00     0.014 A 
ATOM     33  C   UNL A   1      35.529  34.551  28.962  1.00  0.00     0.014 A 
ATOM     34  C   UNL A   1      35.056  32.923  31.180  1.00  0.00     0.010 A 
ATOM     35  C   UNL A   1      36.598  33.933  29.613  1.00  0.00     0.010 A 
ATOM     36  C   UNL A   1      36.373  33.123  30.735  1.00  0.00    -0.014 A 
BRANCH  36  37
ATOM     37  C   UNL A   1      37.526  32.508  31.441  1.00  0.00     0.031 A 
ATOM     38  C   UNL A   1      38.274  31.362  30.816  1.00  0.00     0.074 A 
ATOM     39  C   UNL A   1      37.863  32.938  32.671  1.00  0.00     0.049 A 
ATOM     40  N   UNL A   1      39.261  30.652  31.301  1.00  0.00    -0.248 NA
ATOM     41  C   UNL A   1      37.832  30.940  29.478  1.00  0.00     0.031 C 
ATOM     42  C   UNL A   1      37.192  34.013  33.403  1.00  0.00     0.029 A 
ATOM     43  N   UNL A   1      38.849  32.516  33.529  1.00  0.00    -0.354 N 
ATOM     44  C   UNL A   1      39.543  29.689  30.341  1.00  0.00     0.074 A 
ATOM     45  C   UNL A   1      38.593  29.877  29.265  1.00  0.00     0.031 C 
ATOM     46  C   UNL A   1      37.801  34.184  34.587  1.00  0.00     0.029 A 
ATOM     47  C   UNL A   1      38.880  33.208  34.714  1.00  0.00     0.049 A 
ATOM     48  H   UNL A   1      39.475  31.787  33.313  1.00  0.00     0.167 HD
ATOM     49  C   UNL A   1      40.516  28.747  30.346  1.00  0.00     0.037 A 
ATOM     50  C   UNL A   1      39.685  33.070  35.784  1.00  0.00     0.037 A 
ATOM     51  C   UNL A   1      41.480  28.583  31.404  1.00  0.00     0.049 A 
ATOM     52  C   UNL A   1      40.758  32.017  35.767  1.00  0.00     0.074 A 
ATOM     53  C   UNL A   1      42.554  27.713  31.467  1.00  0.00     0.029 A 
ATOM     54  N   UNL A   1      41.482  29.308  32.587  1.00  0.00    -0.354 N 
ATOM     55  N   UNL A   1      41.060  31.158  34.824  1.00  0.00    -0.248 NA
ATOM     56  C   UNL A   1      41.603  31.916  36.966  1.00  0.00     0.031 C 
ATOM     57  C   UNL A   1      43.179  27.880  32.707  1.00  0.00     0.029 A 
ATOM     58  C   UNL A   1      42.523  28.885  33.399  1.00  0.00     0.049 A 
ATOM     59  H   UNL A   1      40.839  30.016  32.816  1.00  0.00     0.167 HD
ATOM     60  C   UNL A   1      42.142  30.431  35.302  1.00  0.00     0.074 A 
ATOM     61  C   UNL A   1      42.451  30.958  36.616  1.00  0.00     0.031 C 
ATOM     62  C   UNL A   1      42.817  29.420  34.704  1.00  0.00     0.037 A 
BRANCH  49  63
ATOM     63  C   UNL A   1      40.581  27.815  29.171  1.00  0.00     0.064 A 
ATOM     64  C   UNL A   1      41.457  28.040  28.098  1.00  0.00     0.173 A 
ATOM     65  C   UNL A   1      39.764  26.675  29.122  1.00  0.00     0.173 A 
ATOM     66  F   UNL A   1      42.251  29.121  28.091  1.00  0.00    -0.203 F 
ATOM     67  C   UNL A   1      41.484  27.180  27.003  1.00  0.00     0.198 A 
ATOM     68  C   UNL A   1      39.816  25.801  28.039  1.00  0.00     0.198 A 
ATOM     69  F   UNL A   1      38.913  26.408  30.125  1.00  0.00    -0.203 F 
ATOM     70  F   UNL A   1      42.287  27.448  25.963  1.00  0.00    -0.200 F 
ATOM     71  C   UNL A   1      40.668  26.060  26.976  1.00  0.00     0.200 A 
ATOM     72  F   UNL A   1      39.035  24.712  28.020  1.00  0.00    -0.200 F 
ATOM     73  F   UNL A   1      40.695  25.234  25.920  1.00  0.00    -0.200 F 
ENDBRANCH  49  63
BRANCH  50  74
ATOM     74  C   UNL A   1      39.530  33.984  36.943  1.00  0.00     0.064 A 
ATOM     75  C   UNL A   1      38.781  33.596  38.063  1.00  0.00     0.173 A 
ATOM     76  C   UNL A   1      40.141  35.245  36.970  1.00  0.00     0.173 A 
ATOM     77  F   UNL A   1      38.162  32.406  38.073  1.00  0.00    -0.203 F 
ATOM     78  C   UNL A   1      38.645  34.437  39.164  1.00  0.00     0.198 A 
ATOM     79  C   UNL A   1      40.024  36.077  38.081  1.00  0.00     0.198 A 
ATOM     80  F   UNL A   1      40.872  35.660  35.925  1.00  0.00    -0.203 F 
ATOM     81  F   UNL A   1      37.901  34.053  40.210  1.00  0.00    -0.200 F 
ATOM     82  C   UNL A   1      39.272  35.674  39.176  1.00  0.00     0.200 A 
ATOM     83  F   UNL A   1      40.642  37.266  38.095  1.00  0.00    -0.200 F 
ATOM     84  F   UNL A   1      39.151  36.479  40.240  1.00  0.00    -0.200 F 
ENDBRANCH  50  74
BRANCH  62  85
ATOM     85  C   UNL A   1      43.976  28.832  35.454  1.00  0.00     0.064 A 
ATOM     86  C   UNL A   1      45.274  29.347  35.321  1.00  0.00     0.173 A 
ATOM     87  C   UNL A   1      43.780  27.765  36.344  1.00  0.00     0.173 A 
ATOM     88  F   UNL A   1      45.516  30.355  34.469  1.00  0.00    -0.203 F 
ATOM     89  C   UNL A   1      46.337  28.800  36.035  1.00  0.00     0.198 A 
ATOM     90  C   UNL A   1      44.839  27.239  37.077  1.00  0.00     0.198 A 
ATOM     91  F   UNL A   1      42.556  27.240  36.510  1.00  0.00    -0.203 F 
ATOM     92  F   UNL A   1      47.576  29.280  35.861  1.00  0.00    -0.200 F 
ATOM     93  C   UNL A   1      46.118  27.753  36.918  1.00  0.00     0.200 A 
ATOM     94  F   UNL A   1      44.624  26.234  37.936  1.00  0.00    -0.200 F 
ATOM     95  F   UNL A   1      47.140  27.232  37.610  1.00  0.00    -0.200 F 
ENDBRANCH  62  85
ENDBRANCH  36  37
ENDBRANCH  28  31
ENDBRANCH  26  27
ENDBRANCH   1  26
TORSDOF 12
ENDMDL
MODEL 3
REMARK VINA RESULT:     -13.3      5.486     11.070
REMARK SMILES C[C@@H]1CN(C(=O)Nc2ccc(O)c(C(=O)NCCCNC(=O)c3ccc(-c4c5nc(c(-c6c(F)c(F)c(F)c(F)c6F)c6ccc([nH]6)c(-c6c(F)c(F)c(F)c(F)c6F)c6nc(c(-c7c(F)c(F)c(F)c(F)c7F)c7ccc4[nH]7)C=C6)C=C5)cc3)c2)C[C@H]1C
REMARK SMILES IDX 18 1 17 2 16 3 14 4 15 5 13 7 8 8 9 9 86 10 10 11 11 12 7 13
REMARK SMILES IDX 1 14 2 15 3 16 88 17 4 18 87 19 89 20 5 21 6 22 12 24 19 26
REMARK SMILES IDX 20 27 21 28 22 30 23 31 24 32 85 33 25 34 84 35 26 36 27 37
REMARK SMILES IDX 28 38 78 39 29 40 83 41 77 42 79 43 30 44 82 45 76 46 75 47
REMARK SMILES IDX 31 49 63 50 43 51 62 52 44 53 47 54 61 55 80 56 45 57 46 58
REMARK SMILES IDX 60 60 81 61 48 62 32 63 33 64 41 65 34 66 35 67 39 68 42 69
REMARK SMILES IDX 36 70 37 71 40 72 38 73 64 74 65 75 73 76 66 77 67 78 71 79
REMARK SMILES IDX 74 80 68 81 69 82 72 83 70 84 49 85 50 86 58 87 51 88 52 89
REMARK SMILES IDX 56 90 59 91 53 92 54 93 57 94 55 95
REMARK H PARENT 16 6 7 23 12 25 20 29 79 48 47 59
REMARK Flexibility Score: inf
ROOT
ATOM      1  C   UNL A   1      37.872  19.553  25.062  1.00  0.00     0.042 C 
ENDROOT
BRANCH   1   2
ATOM      2  C   UNL A   1      36.806  20.585  24.697  1.00  0.00     0.118 C 
BRANCH   2   3
ATOM      3  N   UNL A   1      35.887  20.803  25.795  1.00  0.00    -0.352 N 
ATOM      4  C   UNL A   1      34.580  21.211  25.841  1.00  0.00     0.255 C 
ATOM      5  O   UNL A   1      34.066  21.284  26.960  1.00  0.00    -0.269 OA
ATOM      6  H   UNL A   1      36.277  20.622  26.681  1.00  0.00     0.163 HD
BRANCH   4   7
ATOM      7  C   UNL A   1      33.717  21.480  24.656  1.00  0.00     0.083 A 
ATOM      8  C   UNL A   1      33.395  22.988  22.765  1.00  0.00     0.043 A 
ATOM      9  C   UNL A   1      32.389  22.167  22.269  1.00  0.00     0.030 A 
ATOM     10  C   UNL A   1      34.107  22.603  23.900  1.00  0.00     0.044 A 
ATOM     11  C   UNL A   1      31.993  21.048  22.991  1.00  0.00     0.049 A 
ATOM     12  C   UNL A   1      32.633  20.724  24.194  1.00  0.00     0.128 A 
BRANCH   8  13
ATOM     13  N   UNL A   1      33.718  24.201  22.155  1.00  0.00    -0.308 N 
ATOM     14  C   UNL A   1      29.902  25.785  25.624  1.00  0.00     0.010 C 
ATOM     15  C   UNL A   1      30.084  25.793  24.115  1.00  0.00     0.010 C 
ATOM     16  C   UNL A   1      31.262  24.925  23.679  1.00  0.00     0.125 C 
ATOM     17  C   UNL A   1      30.434  27.155  23.510  1.00  0.00     0.010 C 
ATOM     18  N   UNL A   1      31.764  25.519  22.443  1.00  0.00    -0.324 N 
ATOM     19  C   UNL A   1      31.051  26.759  22.165  1.00  0.00     0.125 C 
ATOM     20  C   UNL A   1      29.236  28.075  23.362  1.00  0.00     0.010 C 
ATOM     21  C   UNL A   1      32.924  25.236  21.760  1.00  0.00     0.321 C 
ATOM     22  O   UNL A   1      33.353  25.981  20.875  1.00  0.00    -0.248 OA
ATOM     23  H   UNL A   1      34.678  24.330  21.981  1.00  0.00     0.171 HD
ENDBRANCH   8  13
BRANCH  12  24
ATOM     24  O   UNL A   1      32.166  19.631  24.855  1.00  0.00    -0.507 OA
ATOM     25  H   UNL A   1      31.245  19.461  24.886  1.00  0.00     0.293 HD
ENDBRANCH  12  24
ENDBRANCH   4   7
ENDBRANCH   2   3
ENDBRANCH   1   2
BRANCH   1  26
ATOM     26  C   UNL A   1      39.043  20.109  25.859  1.00  0.00     0.118 C 
BRANCH  26  27
ATOM     27  N   UNL A   1      40.153  19.174  25.940  1.00  0.00    -0.352 N 
ATOM     28  C   UNL A   1      41.498  19.408  26.093  1.00  0.00     0.251 C 
ATOM     29  H   UNL A   1      39.901  18.225  25.877  1.00  0.00     0.163 HD
ATOM     30  O   UNL A   1      42.291  18.485  25.931  1.00  0.00    -0.269 OA
BRANCH  28  31
ATOM     31  C   UNL A   1      42.012  20.759  26.433  1.00  0.00     0.039 A 
ATOM     32  C   UNL A   1      42.195  21.683  25.397  1.00  0.00     0.014 A 
ATOM     33  C   UNL A   1      42.369  21.106  27.738  1.00  0.00     0.014 A 
ATOM     34  C   UNL A   1      42.683  22.963  25.677  1.00  0.00     0.010 A 
ATOM     35  C   UNL A   1      42.783  22.406  28.029  1.00  0.00     0.010 A 
ATOM     36  C   UNL A   1      42.955  23.344  27.000  1.00  0.00    -0.014 A 
BRANCH  36  37
ATOM     37  C   UNL A   1      43.437  24.711  27.325  1.00  0.00     0.031 A 
ATOM     38  C   UNL A   1      42.500  25.722  27.927  1.00  0.00     0.074 A 
ATOM     39  C   UNL A   1      44.700  25.064  27.021  1.00  0.00     0.049 A 
ATOM     40  N   UNL A   1      42.713  26.981  28.218  1.00  0.00    -0.248 NA
ATOM     41  C   UNL A   1      41.132  25.263  28.212  1.00  0.00     0.031 C 
ATOM     42  C   UNL A   1      45.694  24.189  26.399  1.00  0.00     0.029 A 
ATOM     43  N   UNL A   1      45.361  26.256  27.186  1.00  0.00    -0.354 N 
ATOM     44  C   UNL A   1      41.504  27.468  28.699  1.00  0.00     0.074 A 
ATOM     45  C   UNL A   1      40.550  26.382  28.617  1.00  0.00     0.031 C 
ATOM     46  C   UNL A   1      46.846  24.865  26.258  1.00  0.00     0.029 A 
ATOM     47  C   UNL A   1      46.661  26.229  26.745  1.00  0.00     0.049 A 
ATOM     48  H   UNL A   1      44.943  27.054  27.584  1.00  0.00     0.167 HD
ATOM     49  C   UNL A   1      41.219  28.701  29.182  1.00  0.00     0.037 A 
ATOM     50  C   UNL A   1      47.597  27.197  26.732  1.00  0.00     0.037 A 
ATOM     51  C   UNL A   1      42.179  29.769  29.292  1.00  0.00     0.049 A 
ATOM     52  C   UNL A   1      47.259  28.557  27.273  1.00  0.00     0.074 A 
ATOM     53  C   UNL A   1      42.011  31.028  29.841  1.00  0.00     0.029 A 
ATOM     54  N   UNL A   1      43.488  29.702  28.838  1.00  0.00    -0.354 N 
ATOM     55  N   UNL A   1      46.133  28.986  27.789  1.00  0.00    -0.248 NA
ATOM     56  C   UNL A   1      48.324  29.569  27.230  1.00  0.00     0.031 C 
ATOM     57  C   UNL A   1      43.206  31.738  29.680  1.00  0.00     0.029 A 
ATOM     58  C   UNL A   1      44.133  30.907  29.072  1.00  0.00     0.049 A 
ATOM     59  H   UNL A   1      43.899  28.915  28.414  1.00  0.00     0.167 HD
ATOM     60  C   UNL A   1      46.358  30.306  28.153  1.00  0.00     0.074 A 
ATOM     61  C   UNL A   1      47.733  30.605  27.810  1.00  0.00     0.031 C 
ATOM     62  C   UNL A   1      45.502  31.189  28.723  1.00  0.00     0.037 A 
BRANCH  49  63
ATOM     63  C   UNL A   1      39.808  28.961  29.623  1.00  0.00     0.064 A 
ATOM     64  C   UNL A   1      38.846  29.485  28.746  1.00  0.00     0.173 A 
ATOM     65  C   UNL A   1      39.408  28.670  30.936  1.00  0.00     0.173 A 
ATOM     66  F   UNL A   1      39.179  29.790  27.483  1.00  0.00    -0.203 F 
ATOM     67  C   UNL A   1      37.548  29.745  29.179  1.00  0.00     0.198 A 
ATOM     68  C   UNL A   1      38.101  28.903  31.357  1.00  0.00     0.198 A 
ATOM     69  F   UNL A   1      40.286  28.160  31.814  1.00  0.00    -0.203 F 
ATOM     70  F   UNL A   1      36.663  30.301  28.339  1.00  0.00    -0.200 F 
ATOM     71  C   UNL A   1      37.176  29.450  30.481  1.00  0.00     0.200 A 
ATOM     72  F   UNL A   1      37.740  28.606  32.613  1.00  0.00    -0.200 F 
ATOM     73  F   UNL A   1      35.926  29.703  30.896  1.00  0.00    -0.200 F 
ENDBRANCH  49  63
BRANCH  50  74
ATOM     74  C   UNL A   1      48.960  26.893  26.225  1.00  0.00     0.064 A 
ATOM     75  C   UNL A   1      49.934  26.354  27.076  1.00  0.00     0.173 A 
ATOM     76  C   UNL A   1      49.307  27.107  24.884  1.00  0.00     0.173 A 
ATOM     77  F   UNL A   1      49.653  26.151  28.372  1.00  0.00    -0.203 F 
ATOM     78  C   UNL A   1      51.209  26.047  26.606  1.00  0.00     0.198 A 
ATOM     79  C   UNL A   1      50.575  26.778  24.409  1.00  0.00     0.198 A 
ATOM     80  F   UNL A   1      48.407  27.615  24.030  1.00  0.00    -0.203 F 
ATOM     81  F   UNL A   1      52.131  25.560  27.447  1.00  0.00    -0.200 F 
ATOM     82  C   UNL A   1      51.526  26.252  25.272  1.00  0.00     0.200 A 
ATOM     83  F   UNL A   1      50.874  26.964  23.116  1.00  0.00    -0.200 F 
ATOM     84  F   UNL A   1      52.749  25.945  24.817  1.00  0.00    -0.200 F 
ENDBRANCH  50  74
BRANCH  62  85
ATOM     85  C   UNL A   1      46.034  32.557  29.035  1.00  0.00     0.064 A 
ATOM     86  C   UNL A   1      45.911  33.617  28.125  1.00  0.00     0.173 A 
ATOM     87  C   UNL A   1      46.642  32.819  30.272  1.00  0.00     0.173 A 
ATOM     88  F   UNL A   1      45.354  33.413  26.922  1.00  0.00    -0.203 F 
ATOM     89  C   UNL A   1      46.396  34.885  28.435  1.00  0.00     0.198 A 
ATOM     90  C   UNL A   1      47.101  34.093  30.589  1.00  0.00     0.198 A 
ATOM     91  F   UNL A   1      46.781  31.838  31.178  1.00  0.00    -0.203 F 
ATOM     92  F   UNL A   1      46.306  35.873  27.534  1.00  0.00    -0.200 F 
ATOM     93  C   UNL A   1      46.984  35.124  29.668  1.00  0.00     0.200 A 
ATOM     94  F   UNL A   1      47.660  34.324  31.784  1.00  0.00    -0.200 F 
ATOM     95  F   UNL A   1      47.444  36.346  29.967  1.00  0.00    -0.200 F 
ENDBRANCH  62  85
ENDBRANCH  36  37
ENDBRANCH  28  31
ENDBRANCH  26  27
ENDBRANCH   1  26
TORSDOF 12
ENDMDL
