MODEL 1
REMARK VINA RESULT:     -10.4      0.000      0.000
REMARK SMILES O=C(CCCCc1c[nH]c2ccccc12)NCCCNC(=O)c1ccc(-c2c3nc(c(-c4c(F)c(F)c(F)c(F)c4F)c4ccc([nH]4)c(-c4c(F)c(F)c(F)c(F)c4F)c4nc(c(-c5c(F)c(F)c(F)c(F)c5F)c5ccc2[nH]5)C=C4)C=C3)cc1
REMARK SMILES IDX 17 1 16 2 1 3 2 4 3 6 4 7 5 8 6 9 7 10 8 11 15 12 9 13 10 14
REMARK SMILES IDX 14 15 11 17 13 18 12 19 18 20 19 21 20 22 21 23 22 25 23 26
REMARK SMILES IDX 24 27 85 28 25 29 84 30 26 31 27 32 28 33 78 34 29 35 83 36
REMARK SMILES IDX 77 37 79 38 30 39 82 40 76 41 75 42 31 44 63 45 43 46 62 47
REMARK SMILES IDX 44 48 47 49 61 50 80 51 45 52 46 53 60 55 81 56 48 57 32 58
REMARK SMILES IDX 33 59 41 60 34 61 35 62 39 63 42 64 36 65 37 66 40 67 38 68
REMARK SMILES IDX 64 69 65 70 73 71 66 72 67 73 71 74 74 75 68 76 69 77 72 78
REMARK SMILES IDX 70 79 49 80 50 81 58 82 51 83 52 84 56 85 59 86 53 87 54 88
REMARK SMILES IDX 57 89 55 90
REMARK H PARENT 16 5 9 16 20 24 79 43 47 54
REMARK Flexibility Score: inf
ROOT
ATOM      1  C   UNL A   1      41.932  19.745  26.915  1.00  0.00     0.117 C 
ENDROOT
BRANCH   1   2
ATOM      2  N   UNL A   1      43.220  20.295  26.552  1.00  0.00    -0.356 N 
ATOM      3  O   UNL A   1      43.442  19.166  24.567  1.00  0.00    -0.275 OA
ATOM      4  C   UNL A   1      43.847  20.004  25.365  1.00  0.00     0.219 C 
ATOM      5  H   UNL A   1      43.668  20.904  27.184  1.00  0.00     0.163 HD
BRANCH   4   6
ATOM      6  C   UNL A   1      45.100  20.821  25.113  1.00  0.00     0.100 C 
BRANCH   6   7
ATOM      7  C   UNL A   1      44.894  21.910  24.057  1.00  0.00     0.010 C 
BRANCH   7   8
ATOM      8  C   UNL A   1      43.799  22.954  24.336  1.00  0.00     0.005 C 
BRANCH   8   9
ATOM      9  C   UNL A   1      44.255  24.294  24.929  1.00  0.00     0.038 C 
BRANCH   9  10
ATOM     10  C   UNL A   1      44.849  24.196  26.298  1.00  0.00    -0.023 A 
ATOM     11  C   UNL A   1      46.176  24.363  26.643  1.00  0.00     0.087 A 
ATOM     12  C   UNL A   1      44.152  23.867  27.509  1.00  0.00     0.003 A 
ATOM     13  N   UNL A   1      46.294  24.226  27.999  1.00  0.00    -0.361 N 
ATOM     14  C   UNL A   1      45.077  23.910  28.552  1.00  0.00     0.046 A 
ATOM     15  C   UNL A   1      42.814  23.534  27.817  1.00  0.00     0.010 A 
ATOM     16  H   UNL A   1      47.130  24.339  28.506  1.00  0.00     0.166 HD
ATOM     17  C   UNL A   1      44.733  23.658  29.885  1.00  0.00     0.026 A 
ATOM     18  C   UNL A   1      42.456  23.263  29.142  1.00  0.00     0.001 A 
ATOM     19  C   UNL A   1      43.403  23.331  30.161  1.00  0.00     0.002 A 
ENDBRANCH   9  10
ENDBRANCH   8   9
ENDBRANCH   7   8
ENDBRANCH   6   7
ENDBRANCH   4   6
ENDBRANCH   1   2
BRANCH   1  20
ATOM     20  C   UNL A   1      40.790  20.372  26.127  1.00  0.00     0.042 C 
BRANCH  20  21
ATOM     21  C   UNL A   1      40.202  21.638  26.744  1.00  0.00     0.118 C 
BRANCH  21  22
ATOM     22  N   UNL A   1      39.053  22.163  26.019  1.00  0.00    -0.352 N 
ATOM     23  C   UNL A   1      38.507  23.425  26.034  1.00  0.00     0.251 C 
ATOM     24  H   UNL A   1      38.598  21.517  25.432  1.00  0.00     0.163 HD
ATOM     25  O   UNL A   1      37.456  23.648  25.440  1.00  0.00    -0.269 OA
BRANCH  23  26
ATOM     26  C   UNL A   1      39.160  24.511  26.797  1.00  0.00     0.039 A 
ATOM     27  C   UNL A   1      40.038  25.368  26.126  1.00  0.00     0.014 A 
ATOM     28  C   UNL A   1      38.901  24.700  28.156  1.00  0.00     0.014 A 
ATOM     29  C   UNL A   1      40.578  26.470  26.794  1.00  0.00     0.010 A 
ATOM     30  C   UNL A   1      39.383  25.836  28.801  1.00  0.00     0.010 A 
ATOM     31  C   UNL A   1      40.213  26.743  28.122  1.00  0.00    -0.014 A 
BRANCH  31  32
ATOM     32  C   UNL A   1      40.649  27.989  28.805  1.00  0.00     0.031 A 
ATOM     33  C   UNL A   1      42.050  28.120  29.330  1.00  0.00     0.074 A 
ATOM     34  C   UNL A   1      39.753  28.971  29.028  1.00  0.00     0.049 A 
ATOM     35  N   UNL A   1      42.579  29.080  30.047  1.00  0.00    -0.248 NA
ATOM     36  C   UNL A   1      42.972  27.014  29.033  1.00  0.00     0.031 C 
ATOM     37  C   UNL A   1      38.352  28.950  28.604  1.00  0.00     0.029 A 
ATOM     38  N   UNL A   1      39.882  30.170  29.685  1.00  0.00    -0.354 N 
ATOM     39  C   UNL A   1      43.888  28.688  30.297  1.00  0.00     0.074 A 
ATOM     40  C   UNL A   1      44.059  27.383  29.694  1.00  0.00     0.031 C 
ATOM     41  C   UNL A   1      37.756  30.085  29.000  1.00  0.00     0.029 A 
ATOM     42  C   UNL A   1      38.716  30.895  29.742  1.00  0.00     0.049 A 
ATOM     43  H   UNL A   1      40.730  30.481  30.077  1.00  0.00     0.167 HD
ATOM     44  C   UNL A   1      44.862  29.365  30.952  1.00  0.00     0.037 A 
ATOM     45  C   UNL A   1      38.445  32.071  30.341  1.00  0.00     0.037 A 
ATOM     46  C   UNL A   1      44.695  30.672  31.531  1.00  0.00     0.049 A 
ATOM     47  C   UNL A   1      39.538  32.788  31.086  1.00  0.00     0.074 A 
ATOM     48  C   UNL A   1      45.641  31.465  32.157  1.00  0.00     0.029 A 
ATOM     49  N   UNL A   1      43.501  31.377  31.562  1.00  0.00    -0.354 N 
ATOM     50  N   UNL A   1      40.790  32.438  31.257  1.00  0.00    -0.248 NA
ATOM     51  C   UNL A   1      39.180  34.065  31.720  1.00  0.00     0.031 C 
ATOM     52  C   UNL A   1      45.009  32.627  32.611  1.00  0.00     0.029 A 
ATOM     53  C   UNL A   1      43.680  32.583  32.223  1.00  0.00     0.049 A 
ATOM     54  H   UNL A   1      42.651  31.067  31.173  1.00  0.00     0.167 HD
ATOM     55  C   UNL A   1      41.372  33.458  31.996  1.00  0.00     0.074 A 
ATOM     56  C   UNL A   1      40.343  34.449  32.227  1.00  0.00     0.031 C 
ATOM     57  C   UNL A   1      42.648  33.563  32.444  1.00  0.00     0.037 A 
BRANCH  44  58
ATOM     58  C   UNL A   1      46.203  28.702  31.079  1.00  0.00     0.064 A 
ATOM     59  C   UNL A   1      46.515  27.874  32.167  1.00  0.00     0.173 A 
ATOM     60  C   UNL A   1      47.172  28.861  30.076  1.00  0.00     0.173 A 
ATOM     61  F   UNL A   1      45.626  27.696  33.156  1.00  0.00    -0.203 F 
ATOM     62  C   UNL A   1      47.756  27.252  32.261  1.00  0.00     0.198 A 
ATOM     63  C   UNL A   1      48.402  28.214  30.160  1.00  0.00     0.198 A 
ATOM     64  F   UNL A   1      46.924  29.638  29.011  1.00  0.00    -0.203 F 
ATOM     65  F   UNL A   1      48.048  26.502  33.333  1.00  0.00    -0.200 F 
ATOM     66  C   UNL A   1      48.696  27.417  31.254  1.00  0.00     0.200 A 
ATOM     67  F   UNL A   1      49.304  28.363  29.179  1.00  0.00    -0.200 F 
ATOM     68  F   UNL A   1      49.889  26.810  31.343  1.00  0.00    -0.200 F 
ENDBRANCH  44  58
BRANCH  45  69
ATOM     69  C   UNL A   1      37.079  32.649  30.257  1.00  0.00     0.064 A 
ATOM     70  C   UNL A   1      36.706  33.456  29.173  1.00  0.00     0.173 A 
ATOM     71  C   UNL A   1      36.123  32.417  31.257  1.00  0.00     0.173 A 
ATOM     72  F   UNL A   1      37.592  33.726  28.204  1.00  0.00    -0.203 F 
ATOM     73  C   UNL A   1      35.435  34.023  29.101  1.00  0.00     0.198 A 
ATOM     74  C   UNL A   1      34.844  32.961  31.170  1.00  0.00     0.198 A 
ATOM     75  F   UNL A   1      36.430  31.650  32.313  1.00  0.00    -0.203 F 
ATOM     76  F   UNL A   1      35.120  34.827  28.077  1.00  0.00    -0.200 F 
ATOM     77  C   UNL A   1      34.503  33.771  30.097  1.00  0.00     0.200 A 
ATOM     78  F   UNL A   1      33.942  32.704  32.127  1.00  0.00    -0.200 F 
ATOM     79  F   UNL A   1      33.280  34.313  30.025  1.00  0.00    -0.200 F 
ENDBRANCH  45  69
BRANCH  57  80
ATOM     80  C   UNL A   1      43.012  34.804  33.207  1.00  0.00     0.064 A 
ATOM     81  C   UNL A   1      43.406  35.980  32.552  1.00  0.00     0.173 A 
ATOM     82  C   UNL A   1      42.923  34.830  34.607  1.00  0.00     0.173 A 
ATOM     83  F   UNL A   1      43.523  36.001  31.215  1.00  0.00    -0.203 F 
ATOM     84  C   UNL A   1      43.716  37.130  33.272  1.00  0.00     0.198 A 
ATOM     85  C   UNL A   1      43.205  35.990  35.321  1.00  0.00     0.198 A 
ATOM     86  F   UNL A   1      42.545  33.732  35.281  1.00  0.00    -0.203 F 
ATOM     87  F   UNL A   1      44.132  38.230  32.628  1.00  0.00    -0.200 F 
ATOM     88  C   UNL A   1      43.608  37.137  34.655  1.00  0.00     0.200 A 
ATOM     89  F   UNL A   1      43.087  35.999  36.656  1.00  0.00    -0.200 F 
ATOM     90  F   UNL A   1      43.897  38.248  35.345  1.00  0.00    -0.200 F 
ENDBRANCH  57  80
ENDBRANCH  31  32
ENDBRANCH  23  26
ENDBRANCH  21  22
ENDBRANCH  20  21
ENDBRANCH   1  20
TORSDOF 14
ENDMDL
MODEL 2
REMARK VINA RESULT:     -10.4      3.417     11.061
REMARK SMILES O=C(CCCCc1c[nH]c2ccccc12)NCCCNC(=O)c1ccc(-c2c3nc(c(-c4c(F)c(F)c(F)c(F)c4F)c4ccc([nH]4)c(-c4c(F)c(F)c(F)c(F)c4F)c4nc(c(-c5c(F)c(F)c(F)c(F)c5F)c5ccc2[nH]5)C=C4)C=C3)cc1
REMARK SMILES IDX 17 1 16 2 1 3 2 4 3 6 4 7 5 8 6 9 7 10 8 11 15 12 9 13 10 14
REMARK SMILES IDX 14 15 11 17 13 18 12 19 18 20 19 21 20 22 21 23 22 25 23 26
REMARK SMILES IDX 24 27 85 28 25 29 84 30 26 31 27 32 28 33 78 34 29 35 83 36
REMARK SMILES IDX 77 37 79 38 30 39 82 40 76 41 75 42 31 44 63 45 43 46 62 47
REMARK SMILES IDX 44 48 47 49 61 50 80 51 45 52 46 53 60 55 81 56 48 57 32 58
REMARK SMILES IDX 33 59 41 60 34 61 35 62 39 63 42 64 36 65 37 66 40 67 38 68
REMARK SMILES IDX 64 69 65 70 73 71 66 72 67 73 71 74 74 75 68 76 69 77 72 78
REMARK SMILES IDX 70 79 49 80 50 81 58 82 51 83 52 84 56 85 59 86 53 87 54 88
REMARK SMILES IDX 57 89 55 90
REMARK H PARENT 16 5 9 16 20 24 79 43 47 54
REMARK Flexibility Score: inf
ROOT
ATOM      1  C   UNL A   1      33.279  34.643  28.543  1.00  0.00     0.117 C 
ENDROOT
BRANCH   1   2
ATOM      2  N   UNL A   1      33.324  34.685  29.989  1.00  0.00    -0.356 N 
ATOM      3  O   UNL A   1      32.556  36.835  30.215  1.00  0.00    -0.275 OA
ATOM      4  C   UNL A   1      32.895  35.769  30.716  1.00  0.00     0.219 C 
ATOM      5  H   UNL A   1      33.677  33.903  30.473  1.00  0.00     0.163 HD
BRANCH   4   6
ATOM      6  C   UNL A   1      32.867  35.534  32.214  1.00  0.00     0.100 C 
BRANCH   6   7
ATOM      7  C   UNL A   1      34.192  34.986  32.751  1.00  0.00     0.010 C 
BRANCH   7   8
ATOM      8  C   UNL A   1      34.184  33.545  33.289  1.00  0.00     0.005 C 
BRANCH   8   9
ATOM      9  C   UNL A   1      35.408  32.677  32.964  1.00  0.00     0.038 C 
BRANCH   9  10
ATOM     10  C   UNL A   1      36.664  33.448  32.707  1.00  0.00    -0.023 A 
ATOM     11  C   UNL A   1      37.406  34.160  33.630  1.00  0.00     0.087 A 
ATOM     12  C   UNL A   1      37.311  33.626  31.439  1.00  0.00     0.003 A 
ATOM     13  N   UNL A   1      38.497  34.688  32.995  1.00  0.00    -0.361 N 
ATOM     14  C   UNL A   1      38.458  34.390  31.655  1.00  0.00     0.046 A 
ATOM     15  C   UNL A   1      37.027  33.209  30.120  1.00  0.00     0.010 A 
ATOM     16  H   UNL A   1      39.209  35.207  33.436  1.00  0.00     0.166 HD
ATOM     17  C   UNL A   1      39.344  34.740  30.630  1.00  0.00     0.026 A 
ATOM     18  C   UNL A   1      37.893  33.564  29.080  1.00  0.00     0.001 A 
ATOM     19  C   UNL A   1      39.039  34.314  29.335  1.00  0.00     0.002 A 
ENDBRANCH   9  10
ENDBRANCH   8   9
ENDBRANCH   7   8
ENDBRANCH   6   7
ENDBRANCH   4   6
ENDBRANCH   1   2
BRANCH   1  20
ATOM     20  C   UNL A   1      34.137  33.524  27.968  1.00  0.00     0.042 C 
BRANCH  20  21
ATOM     21  C   UNL A   1      34.146  32.235  28.787  1.00  0.00     0.118 C 
BRANCH  21  22
ATOM     22  N   UNL A   1      33.784  31.052  28.020  1.00  0.00    -0.352 N 
ATOM     23  C   UNL A   1      34.550  29.966  27.668  1.00  0.00     0.251 C 
ATOM     24  H   UNL A   1      32.851  31.027  27.705  1.00  0.00     0.163 HD
ATOM     25  O   UNL A   1      34.097  29.113  26.910  1.00  0.00    -0.269 OA
BRANCH  23  26
ATOM     26  C   UNL A   1      35.936  29.837  28.167  1.00  0.00     0.039 A 
ATOM     27  C   UNL A   1      36.138  29.415  29.486  1.00  0.00     0.014 A 
ATOM     28  C   UNL A   1      37.031  30.109  27.345  1.00  0.00     0.014 A 
ATOM     29  C   UNL A   1      37.435  29.174  29.946  1.00  0.00     0.010 A 
ATOM     30  C   UNL A   1      38.318  29.803  27.782  1.00  0.00     0.010 A 
ATOM     31  C   UNL A   1      38.532  29.315  29.081  1.00  0.00    -0.014 A 
BRANCH  31  32
ATOM     32  C   UNL A   1      39.903  28.918  29.498  1.00  0.00     0.031 A 
ATOM     33  C   UNL A   1      40.730  29.827  30.360  1.00  0.00     0.074 A 
ATOM     34  C   UNL A   1      40.433  27.774  29.024  1.00  0.00     0.049 A 
ATOM     35  N   UNL A   1      41.980  29.704  30.733  1.00  0.00    -0.248 NA
ATOM     36  C   UNL A   1      40.075  31.049  30.849  1.00  0.00     0.031 C 
ATOM     37  C   UNL A   1      39.749  26.823  28.146  1.00  0.00     0.029 A 
ATOM     38  N   UNL A   1      41.680  27.224  29.198  1.00  0.00    -0.354 N 
ATOM     39  C   UNL A   1      42.264  30.836  31.485  1.00  0.00     0.074 A 
ATOM     40  C   UNL A   1      41.070  31.655  31.480  1.00  0.00     0.031 C 
ATOM     41  C   UNL A   1      40.578  25.804  27.870  1.00  0.00     0.029 A 
ATOM     42  C   UNL A   1      41.865  26.048  28.512  1.00  0.00     0.049 A 
ATOM     43  H   UNL A   1      42.376  27.634  29.762  1.00  0.00     0.167 HD
ATOM     44  C   UNL A   1      43.409  31.151  32.138  1.00  0.00     0.037 A 
ATOM     45  C   UNL A   1      42.954  25.264  28.397  1.00  0.00     0.037 A 
ATOM     46  C   UNL A   1      44.586  30.325  32.159  1.00  0.00     0.049 A 
ATOM     47  C   UNL A   1      44.221  25.652  29.109  1.00  0.00     0.074 A 
ATOM     48  C   UNL A   1      45.771  30.529  32.845  1.00  0.00     0.029 A 
ATOM     49  N   UNL A   1      44.732  29.137  31.458  1.00  0.00    -0.354 N 
ATOM     50  N   UNL A   1      44.455  26.691  29.873  1.00  0.00    -0.248 NA
ATOM     51  C   UNL A   1      45.375  24.757  28.943  1.00  0.00     0.031 C 
ATOM     52  C   UNL A   1      46.652  29.492  32.520  1.00  0.00     0.029 A 
ATOM     53  C   UNL A   1      45.998  28.613  31.672  1.00  0.00     0.049 A 
ATOM     54  H   UNL A   1      44.039  28.726  30.891  1.00  0.00     0.167 HD
ATOM     55  C   UNL A   1      45.771  26.564  30.296  1.00  0.00     0.074 A 
ATOM     56  C   UNL A   1      46.280  25.338  29.718  1.00  0.00     0.031 C 
ATOM     57  C   UNL A   1      46.493  27.390  31.093  1.00  0.00     0.037 A 
BRANCH  44  58
ATOM     58  C   UNL A   1      43.445  32.453  32.886  1.00  0.00     0.064 A 
ATOM     59  C   UNL A   1      43.894  33.636  32.283  1.00  0.00     0.173 A 
ATOM     60  C   UNL A   1      42.983  32.524  34.209  1.00  0.00     0.173 A 
ATOM     61  F   UNL A   1      44.354  33.620  31.023  1.00  0.00    -0.203 F 
ATOM     62  C   UNL A   1      43.905  34.839  32.984  1.00  0.00     0.198 A 
ATOM     63  C   UNL A   1      42.968  33.735  34.898  1.00  0.00     0.198 A 
ATOM     64  F   UNL A   1      42.537  31.423  34.832  1.00  0.00    -0.203 F 
ATOM     65  F   UNL A   1      44.382  35.948  32.402  1.00  0.00    -0.200 F 
ATOM     66  C   UNL A   1      43.436  34.888  34.289  1.00  0.00     0.200 A 
ATOM     67  F   UNL A   1      42.502  33.783  36.154  1.00  0.00    -0.200 F 
ATOM     68  F   UNL A   1      43.440  36.049  34.960  1.00  0.00    -0.200 F 
ENDBRANCH  44  58
BRANCH  45  69
ATOM     69  C   UNL A   1      42.894  24.026  27.578  1.00  0.00     0.064 A 
ATOM     70  C   UNL A   1      42.508  22.805  28.148  1.00  0.00     0.173 A 
ATOM     71  C   UNL A   1      43.226  24.033  26.215  1.00  0.00     0.173 A 
ATOM     72  F   UNL A   1      42.203  22.742  29.452  1.00  0.00    -0.203 F 
ATOM     73  C   UNL A   1      42.475  21.635  27.391  1.00  0.00     0.198 A 
ATOM     74  C   UNL A   1      43.165  22.869  25.453  1.00  0.00     0.198 A 
ATOM     75  F   UNL A   1      43.599  25.176  25.621  1.00  0.00    -0.203 F 
ATOM     76  F   UNL A   1      42.147  20.473  27.972  1.00  0.00    -0.200 F 
ATOM     77  C   UNL A   1      42.798  21.669  26.043  1.00  0.00     0.200 A 
ATOM     78  F   UNL A   1      43.466  22.908  24.147  1.00  0.00    -0.200 F 
ATOM     79  F   UNL A   1      42.762  20.544  25.315  1.00  0.00    -0.200 F 
ENDBRANCH  45  69
BRANCH  57  80
ATOM     80  C   UNL A   1      47.903  26.986  31.409  1.00  0.00     0.064 A 
ATOM     81  C   UNL A   1      48.198  26.115  32.469  1.00  0.00     0.173 A 
ATOM     82  C   UNL A   1      48.968  27.439  30.616  1.00  0.00     0.173 A 
ATOM     83  F   UNL A   1      47.217  25.667  33.267  1.00  0.00    -0.203 F 
ATOM     84  C   UNL A   1      49.508  25.729  32.734  1.00  0.00     0.198 A 
ATOM     85  C   UNL A   1      50.274  27.028  30.867  1.00  0.00     0.198 A 
ATOM     86  F   UNL A   1      48.739  28.269  29.587  1.00  0.00    -0.203 F 
ATOM     87  F   UNL A   1      49.772  24.930  33.779  1.00  0.00    -0.200 F 
ATOM     88  C   UNL A   1      50.544  26.179  31.929  1.00  0.00     0.200 A 
ATOM     89  F   UNL A   1      51.272  27.453  30.079  1.00  0.00    -0.200 F 
ATOM     90  F   UNL A   1      51.804  25.798  32.181  1.00  0.00    -0.200 F 
ENDBRANCH  57  80
ENDBRANCH  31  32
ENDBRANCH  23  26
ENDBRANCH  21  22
ENDBRANCH  20  21
ENDBRANCH   1  20
TORSDOF 14
ENDMDL
MODEL 3
REMARK VINA RESULT:     -10.3      4.214     10.274
REMARK SMILES O=C(CCCCc1c[nH]c2ccccc12)NCCCNC(=O)c1ccc(-c2c3nc(c(-c4c(F)c(F)c(F)c(F)c4F)c4ccc([nH]4)c(-c4c(F)c(F)c(F)c(F)c4F)c4nc(c(-c5c(F)c(F)c(F)c(F)c5F)c5ccc2[nH]5)C=C4)C=C3)cc1
REMARK SMILES IDX 17 1 16 2 1 3 2 4 3 6 4 7 5 8 6 9 7 10 8 11 15 12 9 13 10 14
REMARK SMILES IDX 14 15 11 17 13 18 12 19 18 20 19 21 20 22 21 23 22 25 23 26
REMARK SMILES IDX 24 27 85 28 25 29 84 30 26 31 27 32 28 33 78 34 29 35 83 36
REMARK SMILES IDX 77 37 79 38 30 39 82 40 76 41 75 42 31 44 63 45 43 46 62 47
REMARK SMILES IDX 44 48 47 49 61 50 80 51 45 52 46 53 60 55 81 56 48 57 32 58
REMARK SMILES IDX 33 59 41 60 34 61 35 62 39 63 42 64 36 65 37 66 40 67 38 68
REMARK SMILES IDX 64 69 65 70 73 71 66 72 67 73 71 74 74 75 68 76 69 77 72 78
REMARK SMILES IDX 70 79 49 80 50 81 58 82 51 83 52 84 56 85 59 86 53 87 54 88
REMARK SMILES IDX 57 89 55 90
REMARK H PARENT 16 5 9 16 20 24 79 43 47 54
REMARK Flexibility Score: inf
ROOT
ATOM      1  C   UNL A   1      36.470  20.970  25.419  1.00  0.00     0.117 C 
ENDROOT
BRANCH   1   2
ATOM      2  N   UNL A   1      35.873  21.813  24.406  1.00  0.00    -0.356 N 
ATOM      3  O   UNL A   1      34.804  23.242  25.848  1.00  0.00    -0.275 OA
ATOM      4  C   UNL A   1      35.131  22.930  24.709  1.00  0.00     0.219 C 
ATOM      5  H   UNL A   1      36.003  21.577  23.459  1.00  0.00     0.163 HD
BRANCH   4   6
ATOM      6  C   UNL A   1      34.748  23.761  23.500  1.00  0.00     0.100 C 
BRANCH   6   7
ATOM      7  C   UNL A   1      33.788  23.029  22.559  1.00  0.00     0.010 C 
BRANCH   7   8
ATOM      8  C   UNL A   1      32.479  22.500  23.170  1.00  0.00     0.005 C 
BRANCH   8   9
ATOM      9  C   UNL A   1      32.153  21.019  22.932  1.00  0.00     0.038 C 
BRANCH   9  10
ATOM     10  C   UNL A   1      32.523  20.114  24.063  1.00  0.00    -0.023 A 
ATOM     11  C   UNL A   1      32.539  20.427  25.408  1.00  0.00     0.087 A 
ATOM     12  C   UNL A   1      32.973  18.755  23.956  1.00  0.00     0.003 A 
ATOM     13  N   UNL A   1      32.901  19.310  26.111  1.00  0.00    -0.361 N 
ATOM     14  C   UNL A   1      33.184  18.279  25.250  1.00  0.00     0.046 A 
ATOM     15  C   UNL A   1      33.222  17.881  22.875  1.00  0.00     0.010 A 
ATOM     16  H   UNL A   1      32.951  19.254  27.093  1.00  0.00     0.166 HD
ATOM     17  C   UNL A   1      33.611  16.973  25.520  1.00  0.00     0.026 A 
ATOM     18  C   UNL A   1      33.665  16.578  23.126  1.00  0.00     0.001 A 
ATOM     19  C   UNL A   1      33.850  16.131  24.432  1.00  0.00     0.002 A 
ENDBRANCH   9  10
ENDBRANCH   8   9
ENDBRANCH   7   8
ENDBRANCH   6   7
ENDBRANCH   4   6
ENDBRANCH   1   2
BRANCH   1  20
ATOM     20  C   UNL A   1      37.744  20.292  24.933  1.00  0.00     0.042 C 
BRANCH  20  21
ATOM     21  C   UNL A   1      38.989  20.589  25.764  1.00  0.00     0.118 C 
BRANCH  21  22
ATOM     22  N   UNL A   1      39.904  19.462  25.873  1.00  0.00    -0.352 N 
ATOM     23  C   UNL A   1      41.256  19.448  26.123  1.00  0.00     0.251 C 
ATOM     24  H   UNL A   1      39.492  18.576  25.747  1.00  0.00     0.163 HD
ATOM     25  O   UNL A   1      41.883  18.395  26.059  1.00  0.00    -0.269 OA
BRANCH  23  26
ATOM     26  C   UNL A   1      41.969  20.706  26.433  1.00  0.00     0.039 A 
ATOM     27  C   UNL A   1      42.377  21.525  25.375  1.00  0.00     0.014 A 
ATOM     28  C   UNL A   1      42.220  21.091  27.752  1.00  0.00     0.014 A 
ATOM     29  C   UNL A   1      42.948  22.772  25.642  1.00  0.00     0.010 A 
ATOM     30  C   UNL A   1      42.726  22.361  28.017  1.00  0.00     0.010 A 
ATOM     31  C   UNL A   1      43.079  23.223  26.966  1.00  0.00    -0.014 A 
BRANCH  31  32
ATOM     32  C   UNL A   1      43.538  24.603  27.272  1.00  0.00     0.031 A 
ATOM     33  C   UNL A   1      42.575  25.627  27.798  1.00  0.00     0.074 A 
ATOM     34  C   UNL A   1      44.808  24.955  26.992  1.00  0.00     0.049 A 
ATOM     35  N   UNL A   1      42.763  26.904  28.018  1.00  0.00    -0.248 NA
ATOM     36  C   UNL A   1      41.211  25.162  28.092  1.00  0.00     0.031 C 
ATOM     37  C   UNL A   1      45.832  24.066  26.441  1.00  0.00     0.029 A 
ATOM     38  N   UNL A   1      45.451  26.163  27.114  1.00  0.00    -0.354 N 
ATOM     39  C   UNL A   1      41.542  27.396  28.462  1.00  0.00     0.074 A 
ATOM     40  C   UNL A   1      40.609  26.290  28.438  1.00  0.00     0.031 C 
ATOM     41  C   UNL A   1      46.975  24.753  26.286  1.00  0.00     0.029 A 
ATOM     42  C   UNL A   1      46.755  26.140  26.682  1.00  0.00     0.049 A 
ATOM     43  H   UNL A   1      45.018  26.970  27.478  1.00  0.00     0.167 HD
ATOM     44  C   UNL A   1      41.235  28.651  28.872  1.00  0.00     0.037 A 
ATOM     45  C   UNL A   1      47.667  27.128  26.597  1.00  0.00     0.037 A 
ATOM     46  C   UNL A   1      42.170  29.743  28.916  1.00  0.00     0.049 A 
ATOM     47  C   UNL A   1      47.290  28.518  27.032  1.00  0.00     0.074 A 
ATOM     48  C   UNL A   1      41.969  31.033  29.377  1.00  0.00     0.029 A 
ATOM     49  N   UNL A   1      43.484  29.678  28.477  1.00  0.00    -0.354 N 
ATOM     50  N   UNL A   1      46.152  28.954  27.514  1.00  0.00    -0.248 NA
ATOM     51  C   UNL A   1      48.327  29.553  26.912  1.00  0.00     0.031 C 
ATOM     52  C   UNL A   1      43.145  31.762  29.171  1.00  0.00     0.029 A 
ATOM     53  C   UNL A   1      44.096  30.913  28.629  1.00  0.00     0.049 A 
ATOM     54  H   UNL A   1      43.919  28.874  28.110  1.00  0.00     0.167 HD
ATOM     55  C   UNL A   1      46.342  30.304  27.775  1.00  0.00     0.074 A 
ATOM     56  C   UNL A   1      47.709  30.613  27.414  1.00  0.00     0.031 C 
ATOM     57  C   UNL A   1      45.460  31.208  28.269  1.00  0.00     0.037 A 
BRANCH  44  58
ATOM     58  C   UNL A   1      39.822  28.912  29.308  1.00  0.00     0.064 A 
ATOM     59  C   UNL A   1      38.844  29.356  28.406  1.00  0.00     0.173 A 
ATOM     60  C   UNL A   1      39.431  28.672  30.634  1.00  0.00     0.173 A 
ATOM     61  F   UNL A   1      39.168  29.610  27.129  1.00  0.00    -0.203 F 
ATOM     62  C   UNL A   1      37.534  29.577  28.821  1.00  0.00     0.198 A 
ATOM     63  C   UNL A   1      38.113  28.865  31.039  1.00  0.00     0.198 A 
ATOM     64  F   UNL A   1      40.325  28.240  31.536  1.00  0.00    -0.203 F 
ATOM     65  F   UNL A   1      36.627  30.047  27.953  1.00  0.00    -0.200 F 
ATOM     66  C   UNL A   1      37.168  29.325  30.136  1.00  0.00     0.200 A 
ATOM     67  F   UNL A   1      37.758  28.608  32.306  1.00  0.00    -0.200 F 
ATOM     68  F   UNL A   1      35.903  29.530  30.532  1.00  0.00    -0.200 F 
ENDBRANCH  44  58
BRANCH  45  69
ATOM     69  C   UNL A   1      49.030  26.838  26.082  1.00  0.00     0.064 A 
ATOM     70  C   UNL A   1      50.048  26.409  26.945  1.00  0.00     0.173 A 
ATOM     71  C   UNL A   1      49.346  26.988  24.723  1.00  0.00     0.173 A 
ATOM     72  F   UNL A   1      49.800  26.273  28.256  1.00  0.00    -0.203 F 
ATOM     73  C   UNL A   1      51.335  26.161  26.473  1.00  0.00     0.198 A 
ATOM     74  C   UNL A   1      50.626  26.711  24.248  1.00  0.00     0.198 A 
ATOM     75  F   UNL A   1      48.407  27.392  23.856  1.00  0.00    -0.203 F 
ATOM     76  F   UNL A   1      52.301  25.797  27.327  1.00  0.00    -0.200 F 
ATOM     77  C   UNL A   1      51.622  26.306  25.124  1.00  0.00     0.200 A 
ATOM     78  F   UNL A   1      50.896  26.841  22.941  1.00  0.00    -0.200 F 
ATOM     79  F   UNL A   1      52.859  26.063  24.670  1.00  0.00    -0.200 F 
ENDBRANCH  45  69
BRANCH  57  80
ATOM     80  C   UNL A   1      45.951  32.611  28.475  1.00  0.00     0.064 A 
ATOM     81  C   UNL A   1      46.586  33.000  29.664  1.00  0.00     0.173 A 
ATOM     82  C   UNL A   1      45.826  33.566  27.455  1.00  0.00     0.173 A 
ATOM     83  F   UNL A   1      46.715  32.129  30.677  1.00  0.00    -0.203 F 
ATOM     84  C   UNL A   1      47.058  34.298  29.831  1.00  0.00     0.198 A 
ATOM     85  C   UNL A   1      46.326  34.854  27.614  1.00  0.00     0.198 A 
ATOM     86  F   UNL A   1      45.231  33.242  26.296  1.00  0.00    -0.203 F 
ATOM     87  F   UNL A   1      47.623  34.660  30.992  1.00  0.00    -0.200 F 
ATOM     88  C   UNL A   1      46.936  35.222  28.803  1.00  0.00     0.200 A 
ATOM     89  F   UNL A   1      46.219  35.742  26.615  1.00  0.00    -0.200 F 
ATOM     90  F   UNL A   1      47.401  36.469  28.963  1.00  0.00    -0.200 F 
ENDBRANCH  57  80
ENDBRANCH  31  32
ENDBRANCH  23  26
ENDBRANCH  21  22
ENDBRANCH  20  21
ENDBRANCH   1  20
TORSDOF 14
ENDMDL
