MODEL 1
REMARK VINA RESULT:     -11.0      0.000      0.000
REMARK SMILES Cc1cc(C)cc(-c2ccc([C@@H](C)C(=O)NCCCNC(=O)c3ccc(-c4c5nc(c(-c6c(F)c(F)c(F)c(F)c6F)c6ccc([nH]6)c(-c6c(F)c(F)c(F)c(F)c6F)c6nc(c(-c7c(F)c(F)c(F)c(F)c7F)c7ccc4[nH]7)C=C6)C=C5)cc3)cc2F)c1
REMARK SMILES IDX 18 1 17 2 16 3 14 4 15 5 12 7 13 8 11 9 8 10 9 11 87 12
REMARK SMILES IDX 10 13 86 14 88 15 7 16 1 17 2 18 3 19 89 20 4 21 5 22 6 23
REMARK SMILES IDX 19 24 20 25 21 26 22 28 23 29 24 30 85 31 25 32 84 33 26 34
REMARK SMILES IDX 27 35 28 36 78 37 29 38 83 39 77 40 79 41 30 42 82 43 76 44
REMARK SMILES IDX 75 45 31 47 63 48 43 49 62 50 44 51 47 52 61 53 80 54 45 55
REMARK SMILES IDX 46 56 60 58 81 59 48 60 32 61 33 62 41 63 34 64 35 65 39 66
REMARK SMILES IDX 42 67 36 68 37 69 40 70 38 71 64 72 65 73 73 74 66 75 67 76
REMARK SMILES IDX 71 77 74 78 68 79 69 80 72 81 70 82 49 83 50 84 58 85 51 86
REMARK SMILES IDX 52 87 56 88 59 89 53 90 54 91 57 92 55 93
REMARK H PARENT 16 6 20 27 79 46 47 57
REMARK Flexibility Score: inf
ROOT
ATOM      1  C   UNL A   1      33.346  34.046  28.455  1.00  0.00     0.042 C 
ENDROOT
BRANCH   1   2
ATOM      2  C   UNL A   1      33.991  35.356  28.899  1.00  0.00     0.117 C 
BRANCH   2   3
ATOM      3  N   UNL A   1      33.916  35.538  30.335  1.00  0.00    -0.356 N 
ATOM      4  C   UNL A   1      34.351  34.778  31.377  1.00  0.00     0.227 C 
ATOM      5  O   UNL A   1      34.036  35.178  32.505  1.00  0.00    -0.274 OA
ATOM      6  H   UNL A   1      33.465  36.369  30.608  1.00  0.00     0.163 HD
BRANCH   4   7
ATOM      7  C   UNL A   1      35.185  33.497  31.225  1.00  0.00     0.105 C 
ATOM      8  C   UNL A   1      34.977  32.473  32.340  1.00  0.00     0.023 C 
BRANCH   7   9
ATOM      9  C   UNL A   1      36.631  33.754  30.835  1.00  0.00    -0.033 A 
ATOM     10  C   UNL A   1      39.407  34.079  30.219  1.00  0.00     0.017 A 
ATOM     11  C   UNL A   1      38.489  33.597  29.272  1.00  0.00     0.012 A 
ATOM     12  C   UNL A   1      38.887  34.429  31.472  1.00  0.00     0.131 A 
ATOM     13  C   UNL A   1      37.127  33.476  29.559  1.00  0.00     0.005 A 
ATOM     14  C   UNL A   1      37.534  34.256  31.785  1.00  0.00     0.044 A 
ATOM     15  F   UNL A   1      39.685  34.947  32.419  1.00  0.00    -0.206 F 
BRANCH  10  16
ATOM     16  C   UNL A   1      40.841  34.182  29.873  1.00  0.00    -0.015 A 
ATOM     17  C   UNL A   1      44.094  32.200  30.241  1.00  0.00     0.044 C 
ATOM     18  C   UNL A   1      43.112  33.261  29.839  1.00  0.00    -0.050 A 
ATOM     19  C   UNL A   1      43.541  34.343  29.061  1.00  0.00     0.006 A 
ATOM     20  C   UNL A   1      41.768  33.190  30.237  1.00  0.00     0.012 A 
ATOM     21  C   UNL A   1      42.647  35.349  28.686  1.00  0.00    -0.050 A 
ATOM     22  C   UNL A   1      43.110  36.500  27.845  1.00  0.00     0.044 C 
ATOM     23  C   UNL A   1      41.315  35.266  29.110  1.00  0.00     0.012 A 
ENDBRANCH  10  16
ENDBRANCH   7   9
ENDBRANCH   4   7
ENDBRANCH   2   3
ENDBRANCH   1   2
BRANCH   1  24
ATOM     24  C   UNL A   1      34.351  32.995  28.010  1.00  0.00     0.118 C 
BRANCH  24  25
ATOM     25  N   UNL A   1      33.699  31.778  27.541  1.00  0.00    -0.352 N 
ATOM     26  C   UNL A   1      34.186  30.498  27.439  1.00  0.00     0.251 C 
ATOM     27  H   UNL A   1      32.764  31.892  27.252  1.00  0.00     0.163 HD
ATOM     28  O   UNL A   1      33.552  29.655  26.813  1.00  0.00    -0.269 OA
BRANCH  26  29
ATOM     29  C   UNL A   1      35.474  30.132  28.070  1.00  0.00     0.039 A 
ATOM     30  C   UNL A   1      35.487  29.729  29.409  1.00  0.00     0.014 A 
ATOM     31  C   UNL A   1      36.671  30.219  27.357  1.00  0.00     0.014 A 
ATOM     32  C   UNL A   1      36.691  29.357  30.011  1.00  0.00     0.010 A 
ATOM     33  C   UNL A   1      37.853  29.762  27.928  1.00  0.00     0.010 A 
ATOM     34  C   UNL A   1      37.880  29.340  29.266  1.00  0.00    -0.014 A 
BRANCH  34  35
ATOM     35  C   UNL A   1      39.178  28.933  29.859  1.00  0.00     0.031 A 
ATOM     36  C   UNL A   1      39.730  29.700  31.030  1.00  0.00     0.074 A 
ATOM     37  C   UNL A   1      39.889  27.929  29.308  1.00  0.00     0.049 A 
ATOM     38  N   UNL A   1      40.904  29.613  31.599  1.00  0.00    -0.248 NA
ATOM     39  C   UNL A   1      38.852  30.725  31.624  1.00  0.00     0.031 C 
ATOM     40  C   UNL A   1      39.468  27.121  28.164  1.00  0.00     0.029 A 
ATOM     41  N   UNL A   1      41.126  27.427  29.631  1.00  0.00    -0.354 N 
ATOM     42  C   UNL A   1      40.911  30.576  32.599  1.00  0.00     0.074 A 
ATOM     43  C   UNL A   1      39.648  31.277  32.527  1.00  0.00     0.031 C 
ATOM     44  C   UNL A   1      40.416  26.209  27.895  1.00  0.00     0.029 A 
ATOM     45  C   UNL A   1      41.535  26.399  28.813  1.00  0.00     0.049 A 
ATOM     46  H   UNL A   1      41.668  27.769  30.378  1.00  0.00     0.167 HD
ATOM     47  C   UNL A   1      41.872  30.832  33.516  1.00  0.00     0.037 A 
ATOM     48  C   UNL A   1      42.688  25.703  28.799  1.00  0.00     0.037 A 
ATOM     49  C   UNL A   1      43.110  30.106  33.607  1.00  0.00     0.049 A 
ATOM     50  C   UNL A   1      43.758  26.036  29.808  1.00  0.00     0.074 A 
ATOM     51  C   UNL A   1      44.139  30.273  34.518  1.00  0.00     0.029 A 
ATOM     52  N   UNL A   1      43.480  29.068  32.767  1.00  0.00    -0.354 N 
ATOM     53  N   UNL A   1      43.742  26.933  30.764  1.00  0.00    -0.248 NA
ATOM     54  C   UNL A   1      45.006  25.261  29.737  1.00  0.00     0.031 C 
ATOM     55  C   UNL A   1      45.149  29.363  34.203  1.00  0.00     0.029 A 
ATOM     56  C   UNL A   1      44.726  28.590  33.134  1.00  0.00     0.049 A 
ATOM     57  H   UNL A   1      42.938  28.722  32.020  1.00  0.00     0.167 HD
ATOM     58  C   UNL A   1      44.952  26.801  31.432  1.00  0.00     0.074 A 
ATOM     59  C   UNL A   1      45.680  25.736  30.776  1.00  0.00     0.031 C 
ATOM     60  C   UNL A   1      45.416  27.499  32.496  1.00  0.00     0.037 A 
BRANCH  47  61
ATOM     61  C   UNL A   1      41.623  31.915  34.522  1.00  0.00     0.064 A 
ATOM     62  C   UNL A   1      40.877  31.656  35.683  1.00  0.00     0.173 A 
ATOM     63  C   UNL A   1      42.033  33.236  34.286  1.00  0.00     0.173 A 
ATOM     64  F   UNL A   1      40.457  30.411  35.952  1.00  0.00    -0.203 F 
ATOM     65  C   UNL A   1      40.530  32.684  36.555  1.00  0.00     0.198 A 
ATOM     66  C   UNL A   1      41.709  34.257  35.176  1.00  0.00     0.198 A 
ATOM     67  F   UNL A   1      42.758  33.534  33.198  1.00  0.00    -0.203 F 
ATOM     68  F   UNL A   1      39.778  32.421  37.633  1.00  0.00    -0.200 F 
ATOM     69  C   UNL A   1      40.946  33.982  36.301  1.00  0.00     0.200 A 
ATOM     70  F   UNL A   1      42.131  35.506  34.941  1.00  0.00    -0.200 F 
ATOM     71  F   UNL A   1      40.609  34.972  37.140  1.00  0.00    -0.200 F 
ENDBRANCH  47  61
BRANCH  48  72
ATOM     72  C   UNL A   1      42.884  24.601  27.819  1.00  0.00     0.064 A 
ATOM     73  C   UNL A   1      43.405  24.835  26.537  1.00  0.00     0.173 A 
ATOM     74  C   UNL A   1      42.555  23.280  28.155  1.00  0.00     0.173 A 
ATOM     75  F   UNL A   1      43.734  26.080  26.162  1.00  0.00    -0.203 F 
ATOM     76  C   UNL A   1      43.577  23.793  25.628  1.00  0.00     0.198 A 
ATOM     77  C   UNL A   1      42.759  22.234  27.257  1.00  0.00     0.198 A 
ATOM     78  F   UNL A   1      42.073  23.000  29.375  1.00  0.00    -0.203 F 
ATOM     79  F   UNL A   1      44.049  24.049  24.400  1.00  0.00    -0.200 F 
ATOM     80  C   UNL A   1      43.263  22.492  25.992  1.00  0.00     0.200 A 
ATOM     81  F   UNL A   1      42.481  20.976  27.623  1.00  0.00    -0.200 F 
ATOM     82  F   UNL A   1      43.454  21.487  25.126  1.00  0.00    -0.200 F 
ENDBRANCH  48  72
BRANCH  60  83
ATOM     83  C   UNL A   1      46.744  27.108  33.075  1.00  0.00     0.064 A 
ATOM     84  C   UNL A   1      47.925  27.656  32.550  1.00  0.00     0.173 A 
ATOM     85  C   UNL A   1      46.857  26.111  34.052  1.00  0.00     0.173 A 
ATOM     86  F   UNL A   1      47.868  28.606  31.604  1.00  0.00    -0.203 F 
ATOM     87  C   UNL A   1      49.172  27.199  32.964  1.00  0.00     0.198 A 
ATOM     88  C   UNL A   1      48.106  25.678  34.486  1.00  0.00     0.198 A 
ATOM     89  F   UNL A   1      45.756  25.565  34.590  1.00  0.00    -0.203 F 
ATOM     90  F   UNL A   1      50.286  27.700  32.413  1.00  0.00    -0.200 F 
ATOM     91  C   UNL A   1      49.261  26.210  33.932  1.00  0.00     0.200 A 
ATOM     92  F   UNL A   1      48.193  24.736  35.436  1.00  0.00    -0.200 F 
ATOM     93  F   UNL A   1      50.462  25.768  34.329  1.00  0.00    -0.200 F 
ENDBRANCH  60  83
ENDBRANCH  34  35
ENDBRANCH  26  29
ENDBRANCH  24  25
ENDBRANCH   1  24
TORSDOF 12
ENDMDL
MODEL 2
REMARK VINA RESULT:     -10.9      3.645     10.762
REMARK SMILES Cc1cc(C)cc(-c2ccc([C@@H](C)C(=O)NCCCNC(=O)c3ccc(-c4c5nc(c(-c6c(F)c(F)c(F)c(F)c6F)c6ccc([nH]6)c(-c6c(F)c(F)c(F)c(F)c6F)c6nc(c(-c7c(F)c(F)c(F)c(F)c7F)c7ccc4[nH]7)C=C6)C=C5)cc3)cc2F)c1
REMARK SMILES IDX 18 1 17 2 16 3 14 4 15 5 12 7 13 8 11 9 8 10 9 11 87 12
REMARK SMILES IDX 10 13 86 14 88 15 7 16 1 17 2 18 3 19 89 20 4 21 5 22 6 23
REMARK SMILES IDX 19 24 20 25 21 26 22 28 23 29 24 30 85 31 25 32 84 33 26 34
REMARK SMILES IDX 27 35 28 36 78 37 29 38 83 39 77 40 79 41 30 42 82 43 76 44
REMARK SMILES IDX 75 45 31 47 63 48 43 49 62 50 44 51 47 52 61 53 80 54 45 55
REMARK SMILES IDX 46 56 60 58 81 59 48 60 32 61 33 62 41 63 34 64 35 65 39 66
REMARK SMILES IDX 42 67 36 68 37 69 40 70 38 71 64 72 65 73 73 74 66 75 67 76
REMARK SMILES IDX 71 77 74 78 68 79 69 80 72 81 70 82 49 83 50 84 58 85 51 86
REMARK SMILES IDX 52 87 56 88 59 89 53 90 54 91 57 92 55 93
REMARK H PARENT 16 6 20 27 79 46 47 57
REMARK Flexibility Score: inf
ROOT
ATOM      1  C   UNL A   1      41.040  19.959  26.138  1.00  0.00     0.042 C 
ENDROOT
BRANCH   1   2
ATOM      2  C   UNL A   1      42.335  19.546  26.831  1.00  0.00     0.117 C 
BRANCH   2   3
ATOM      3  N   UNL A   1      43.499  19.810  26.009  1.00  0.00    -0.356 N 
ATOM      4  C   UNL A   1      43.985  20.954  25.454  1.00  0.00     0.227 C 
ATOM      5  O   UNL A   1      44.966  20.818  24.711  1.00  0.00    -0.274 OA
ATOM      6  H   UNL A   1      44.039  19.011  25.815  1.00  0.00     0.163 HD
BRANCH   4   7
ATOM      7  C   UNL A   1      43.399  22.352  25.698  1.00  0.00     0.105 C 
ATOM      8  C   UNL A   1      43.641  23.345  24.561  1.00  0.00     0.023 C 
BRANCH   7   9
ATOM      9  C   UNL A   1      43.656  22.886  27.098  1.00  0.00    -0.033 A 
ATOM     10  C   UNL A   1      44.156  24.076  29.651  1.00  0.00     0.017 A 
ATOM     11  C   UNL A   1      42.890  23.582  29.299  1.00  0.00     0.012 A 
ATOM     12  C   UNL A   1      45.174  23.922  28.701  1.00  0.00     0.131 A 
ATOM     13  C   UNL A   1      42.654  22.965  28.067  1.00  0.00     0.005 A 
ATOM     14  C   UNL A   1      44.932  23.356  27.444  1.00  0.00     0.044 A 
ATOM     15  F   UNL A   1      46.427  24.318  28.976  1.00  0.00    -0.206 F 
BRANCH  10  16
ATOM     16  C   UNL A   1      44.356  24.730  30.963  1.00  0.00    -0.015 A 
ATOM     17  C   UNL A   1      44.518  28.233  32.496  1.00  0.00     0.044 C 
ATOM     18  C   UNL A   1      44.491  26.738  32.360  1.00  0.00    -0.050 A 
ATOM     19  C   UNL A   1      44.588  25.938  33.505  1.00  0.00     0.006 A 
ATOM     20  C   UNL A   1      44.375  26.129  31.102  1.00  0.00     0.012 A 
ATOM     21  C   UNL A   1      44.578  24.544  33.401  1.00  0.00    -0.050 A 
ATOM     22  C   UNL A   1      44.673  23.692  34.630  1.00  0.00     0.044 C 
ATOM     23  C   UNL A   1      44.480  23.959  32.133  1.00  0.00     0.012 A 
ENDBRANCH  10  16
ENDBRANCH   7   9
ENDBRANCH   4   7
ENDBRANCH   2   3
ENDBRANCH   1   2
BRANCH   1  24
ATOM     24  C   UNL A   1      40.344  21.137  26.802  1.00  0.00     0.118 C 
BRANCH  24  25
ATOM     25  N   UNL A   1      39.121  21.516  26.104  1.00  0.00    -0.352 N 
ATOM     26  C   UNL A   1      38.474  22.726  26.049  1.00  0.00     0.251 C 
ATOM     27  H   UNL A   1      38.693  20.791  25.593  1.00  0.00     0.163 HD
ATOM     28  O   UNL A   1      37.339  22.788  25.589  1.00  0.00    -0.269 OA
BRANCH  26  29
ATOM     29  C   UNL A   1      39.132  23.953  26.551  1.00  0.00     0.039 A 
ATOM     30  C   UNL A   1      39.917  24.711  25.677  1.00  0.00     0.014 A 
ATOM     31  C   UNL A   1      39.007  24.338  27.887  1.00  0.00     0.014 A 
ATOM     32  C   UNL A   1      40.526  25.885  26.130  1.00  0.00     0.010 A 
ATOM     33  C   UNL A   1      39.535  25.552  28.312  1.00  0.00     0.010 A 
ATOM     34  C   UNL A   1      40.313  26.332  27.443  1.00  0.00    -0.014 A 
BRANCH  34  35
ATOM     35  C   UNL A   1      40.922  27.583  27.959  1.00  0.00     0.031 A 
ATOM     36  C   UNL A   1      42.419  27.730  27.964  1.00  0.00     0.074 A 
ATOM     37  C   UNL A   1      40.143  28.549  28.485  1.00  0.00     0.049 A 
ATOM     38  N   UNL A   1      43.159  28.664  28.504  1.00  0.00    -0.248 NA
ATOM     39  C   UNL A   1      43.192  26.668  27.295  1.00  0.00     0.031 C 
ATOM     40  C   UNL A   1      38.681  28.516  28.551  1.00  0.00     0.029 A 
ATOM     41  N   UNL A   1      40.474  29.743  29.077  1.00  0.00    -0.354 N 
ATOM     42  C   UNL A   1      44.474  28.293  28.256  1.00  0.00     0.074 A 
ATOM     43  C   UNL A   1      44.439  27.023  27.567  1.00  0.00     0.031 C 
ATOM     44  C   UNL A   1      38.240  29.646  29.126  1.00  0.00     0.029 A 
ATOM     45  C   UNL A   1      39.387  30.461  29.517  1.00  0.00     0.049 A 
ATOM     46  H   UNL A   1      41.402  30.055  29.177  1.00  0.00     0.167 HD
ATOM     47  C   UNL A   1      45.608  28.969  28.550  1.00  0.00     0.037 A 
ATOM     48  C   UNL A   1      39.326  31.636  30.174  1.00  0.00     0.037 A 
ATOM     49  C   UNL A   1      45.636  30.250  29.202  1.00  0.00     0.049 A 
ATOM     50  C   UNL A   1      40.609  32.348  30.522  1.00  0.00     0.074 A 
ATOM     51  C   UNL A   1      46.736  31.028  29.521  1.00  0.00     0.029 A 
ATOM     52  N   UNL A   1      44.514  30.946  29.621  1.00  0.00    -0.354 N 
ATOM     53  N   UNL A   1      41.845  31.999  30.261  1.00  0.00    -0.248 NA
ATOM     54  C   UNL A   1      40.489  33.616  31.257  1.00  0.00     0.031 C 
ATOM     55  C   UNL A   1      46.281  32.177  30.170  1.00  0.00     0.029 A 
ATOM     56  C   UNL A   1      44.896  32.143  30.203  1.00  0.00     0.049 A 
ATOM     57  H   UNL A   1      43.584  30.637  29.520  1.00  0.00     0.167 HD
ATOM     58  C   UNL A   1      42.644  33.020  30.757  1.00  0.00     0.074 A 
ATOM     59  C   UNL A   1      41.755  34.005  31.335  1.00  0.00     0.031 C 
ATOM     60  C   UNL A   1      43.993  33.132  30.733  1.00  0.00     0.037 A 
BRANCH  47  61
ATOM     61  C   UNL A   1      46.919  28.365  28.143  1.00  0.00     0.064 A 
ATOM     62  C   UNL A   1      47.439  28.581  26.857  1.00  0.00     0.173 A 
ATOM     63  C   UNL A   1      47.610  27.486  28.990  1.00  0.00     0.173 A 
ATOM     64  F   UNL A   1      46.813  29.408  26.006  1.00  0.00    -0.203 F 
ATOM     65  C   UNL A   1      48.586  27.919  26.427  1.00  0.00     0.198 A 
ATOM     66  C   UNL A   1      48.773  26.848  28.567  1.00  0.00     0.198 A 
ATOM     67  F   UNL A   1      47.162  27.255  30.234  1.00  0.00    -0.203 F 
ATOM     68  F   UNL A   1      49.037  28.105  25.179  1.00  0.00    -0.200 F 
ATOM     69  C   UNL A   1      49.251  27.055  27.283  1.00  0.00     0.200 A 
ATOM     70  F   UNL A   1      49.428  26.031  29.403  1.00  0.00    -0.200 F 
ATOM     71  F   UNL A   1      50.354  26.416  26.866  1.00  0.00    -0.200 F 
ENDBRANCH  47  61
BRANCH  48  72
ATOM     72  C   UNL A   1      38.008  32.232  30.519  1.00  0.00     0.064 A 
ATOM     73  C   UNL A   1      37.360  31.943  31.730  1.00  0.00     0.173 A 
ATOM     74  C   UNL A   1      37.371  33.116  29.636  1.00  0.00     0.173 A 
ATOM     75  F   UNL A   1      37.923  31.102  32.610  1.00  0.00    -0.203 F 
ATOM     76  C   UNL A   1      36.122  32.505  32.037  1.00  0.00     0.198 A 
ATOM     77  C   UNL A   1      36.149  33.703  29.960  1.00  0.00     0.198 A 
ATOM     78  F   UNL A   1      37.958  33.441  28.475  1.00  0.00    -0.203 F 
ATOM     79  F   UNL A   1      35.512  32.188  33.188  1.00  0.00    -0.200 F 
ATOM     80  C   UNL A   1      35.522  33.392  31.156  1.00  0.00     0.200 A 
ATOM     81  F   UNL A   1      35.587  34.581  29.118  1.00  0.00    -0.200 F 
ATOM     82  F   UNL A   1      34.345  33.953  31.464  1.00  0.00    -0.200 F 
ENDBRANCH  48  72
BRANCH  60  83
ATOM     83  C   UNL A   1      44.610  34.383  31.286  1.00  0.00     0.064 A 
ATOM     84  C   UNL A   1      44.915  34.468  32.654  1.00  0.00     0.173 A 
ATOM     85  C   UNL A   1      44.784  35.528  30.500  1.00  0.00     0.173 A 
ATOM     86  F   UNL A   1      44.755  33.400  33.451  1.00  0.00    -0.203 F 
ATOM     87  C   UNL A   1      45.345  35.664  33.219  1.00  0.00     0.198 A 
ATOM     88  C   UNL A   1      45.244  36.715  31.063  1.00  0.00     0.198 A 
ATOM     89  F   UNL A   1      44.516  35.492  29.186  1.00  0.00    -0.203 F 
ATOM     90  F   UNL A   1      45.581  35.736  34.536  1.00  0.00    -0.200 F 
ATOM     91  C   UNL A   1      45.509  36.787  32.422  1.00  0.00     0.200 A 
ATOM     92  F   UNL A   1      45.422  37.795  30.288  1.00  0.00    -0.200 F 
ATOM     93  F   UNL A   1      45.921  37.940  32.966  1.00  0.00    -0.200 F 
ENDBRANCH  60  83
ENDBRANCH  34  35
ENDBRANCH  26  29
ENDBRANCH  24  25
ENDBRANCH   1  24
TORSDOF 12
ENDMDL
MODEL 3
REMARK VINA RESULT:     -10.9      3.529      9.784
REMARK SMILES Cc1cc(C)cc(-c2ccc([C@@H](C)C(=O)NCCCNC(=O)c3ccc(-c4c5nc(c(-c6c(F)c(F)c(F)c(F)c6F)c6ccc([nH]6)c(-c6c(F)c(F)c(F)c(F)c6F)c6nc(c(-c7c(F)c(F)c(F)c(F)c7F)c7ccc4[nH]7)C=C6)C=C5)cc3)cc2F)c1
REMARK SMILES IDX 18 1 17 2 16 3 14 4 15 5 12 7 13 8 11 9 8 10 9 11 87 12
REMARK SMILES IDX 10 13 86 14 88 15 7 16 1 17 2 18 3 19 89 20 4 21 5 22 6 23
REMARK SMILES IDX 19 24 20 25 21 26 22 28 23 29 24 30 85 31 25 32 84 33 26 34
REMARK SMILES IDX 27 35 28 36 78 37 29 38 83 39 77 40 79 41 30 42 82 43 76 44
REMARK SMILES IDX 75 45 31 47 63 48 43 49 62 50 44 51 47 52 61 53 80 54 45 55
REMARK SMILES IDX 46 56 60 58 81 59 48 60 32 61 33 62 41 63 34 64 35 65 39 66
REMARK SMILES IDX 42 67 36 68 37 69 40 70 38 71 64 72 65 73 73 74 66 75 67 76
REMARK SMILES IDX 71 77 74 78 68 79 69 80 72 81 70 82 49 83 50 84 58 85 51 86
REMARK SMILES IDX 52 87 56 88 59 89 53 90 54 91 57 92 55 93
REMARK H PARENT 16 6 20 27 79 46 47 57
REMARK Flexibility Score: inf
ROOT
ATOM      1  C   UNL A   1      33.409  28.611  23.866  1.00  0.00     0.042 C 
ENDROOT
BRANCH   1   2
ATOM      2  C   UNL A   1      31.929  28.697  23.501  1.00  0.00     0.117 C 
BRANCH   2   3
ATOM      3  N   UNL A   1      31.623  27.954  22.295  1.00  0.00    -0.356 N 
ATOM      4  C   UNL A   1      31.351  26.638  22.077  1.00  0.00     0.227 C 
ATOM      5  O   UNL A   1      31.227  26.303  20.892  1.00  0.00    -0.274 OA
ATOM      6  H   UNL A   1      31.609  28.505  21.480  1.00  0.00     0.163 HD
BRANCH   4   7
ATOM      7  C   UNL A   1      31.197  25.590  23.189  1.00  0.00     0.105 C 
ATOM      8  C   UNL A   1      30.180  25.961  24.269  1.00  0.00     0.023 C 
BRANCH   7   9
ATOM      9  C   UNL A   1      32.520  25.042  23.698  1.00  0.00    -0.033 A 
ATOM     10  C   UNL A   1      34.917  23.831  24.686  1.00  0.00     0.017 A 
ATOM     11  C   UNL A   1      34.752  24.149  23.328  1.00  0.00     0.012 A 
ATOM     12  C   UNL A   1      33.861  24.172  25.541  1.00  0.00     0.131 A 
ATOM     13  C   UNL A   1      33.598  24.777  22.851  1.00  0.00     0.005 A 
ATOM     14  C   UNL A   1      32.678  24.748  25.061  1.00  0.00     0.044 A 
ATOM     15  F   UNL A   1      33.955  23.951  26.862  1.00  0.00    -0.206 F 
BRANCH  10  16
ATOM     16  C   UNL A   1      36.152  23.159  25.143  1.00  0.00    -0.015 A 
ATOM     17  C   UNL A   1      37.925  19.778  24.861  1.00  0.00     0.044 C 
ATOM     18  C   UNL A   1      37.641  21.213  25.201  1.00  0.00    -0.050 A 
ATOM     19  C   UNL A   1      38.591  21.958  25.908  1.00  0.00     0.006 A 
ATOM     20  C   UNL A   1      36.432  21.818  24.824  1.00  0.00     0.012 A 
ATOM     21  C   UNL A   1      38.343  23.291  26.246  1.00  0.00    -0.050 A 
ATOM     22  C   UNL A   1      39.368  24.087  26.995  1.00  0.00     0.044 C 
ATOM     23  C   UNL A   1      37.122  23.868  25.876  1.00  0.00     0.012 A 
ENDBRANCH  10  16
ENDBRANCH   7   9
ENDBRANCH   4   7
ENDBRANCH   2   3
ENDBRANCH   1   2
BRANCH   1  24
ATOM     24  C   UNL A   1      33.688  28.884  25.335  1.00  0.00     0.118 C 
BRANCH  24  25
ATOM     25  N   UNL A   1      33.058  30.116  25.793  1.00  0.00    -0.352 N 
ATOM     26  C   UNL A   1      33.368  30.922  26.861  1.00  0.00     0.251 C 
ATOM     27  H   UNL A   1      32.293  30.417  25.253  1.00  0.00     0.163 HD
ATOM     28  O   UNL A   1      32.582  31.797  27.211  1.00  0.00    -0.269 OA
BRANCH  26  29
ATOM     29  C   UNL A   1      34.637  30.736  27.600  1.00  0.00     0.039 A 
ATOM     30  C   UNL A   1      35.527  31.809  27.706  1.00  0.00     0.014 A 
ATOM     31  C   UNL A   1      34.967  29.499  28.157  1.00  0.00     0.014 A 
ATOM     32  C   UNL A   1      36.718  31.656  28.420  1.00  0.00     0.010 A 
ATOM     33  C   UNL A   1      36.106  29.375  28.944  1.00  0.00     0.010 A 
ATOM     34  C   UNL A   1      37.002  30.447  29.073  1.00  0.00    -0.014 A 
BRANCH  34  35
ATOM     35  C   UNL A   1      38.245  30.247  29.859  1.00  0.00     0.031 A 
ATOM     36  C   UNL A   1      39.361  29.419  29.282  1.00  0.00     0.074 A 
ATOM     37  C   UNL A   1      38.343  30.743  31.108  1.00  0.00     0.049 A 
ATOM     38  N   UNL A   1      40.459  28.994  29.853  1.00  0.00    -0.248 NA
ATOM     39  C   UNL A   1      39.209  28.985  27.882  1.00  0.00     0.031 C 
ATOM     40  C   UNL A   1      37.324  31.548  31.782  1.00  0.00     0.029 A 
ATOM     41  N   UNL A   1      39.346  30.632  32.040  1.00  0.00    -0.354 N 
ATOM     42  C   UNL A   1      41.114  28.236  28.892  1.00  0.00     0.074 A 
ATOM     43  C   UNL A   1      40.269  28.208  27.719  1.00  0.00     0.031 C 
ATOM     44  C   UNL A   1      37.762  31.879  33.007  1.00  0.00     0.029 A 
ATOM     45  C   UNL A   1      39.070  31.268  33.228  1.00  0.00     0.049 A 
ATOM     46  H   UNL A   1      40.184  30.144  31.873  1.00  0.00     0.167 HD
ATOM     47  C   UNL A   1      42.326  27.641  28.972  1.00  0.00     0.037 A 
ATOM     48  C   UNL A   1      39.785  31.335  34.368  1.00  0.00     0.037 A 
ATOM     49  C   UNL A   1      43.179  27.704  30.128  1.00  0.00     0.049 A 
ATOM     50  C   UNL A   1      41.115  30.630  34.440  1.00  0.00     0.074 A 
ATOM     51  C   UNL A   1      44.438  27.155  30.297  1.00  0.00     0.029 A 
ATOM     52  N   UNL A   1      42.866  28.366  31.304  1.00  0.00    -0.354 N 
ATOM     53  N   UNL A   1      41.735  29.936  33.516  1.00  0.00    -0.248 NA
ATOM     54  C   UNL A   1      41.848  30.718  35.713  1.00  0.00     0.031 C 
ATOM     55  C   UNL A   1      44.870  27.451  31.591  1.00  0.00     0.029 A 
ATOM     56  C   UNL A   1      43.906  28.232  32.207  1.00  0.00     0.049 A 
ATOM     57  H   UNL A   1      42.029  28.857  31.473  1.00  0.00     0.167 HD
ATOM     58  C   UNL A   1      42.942  29.543  34.078  1.00  0.00     0.074 A 
ATOM     59  C   UNL A   1      42.972  30.076  35.424  1.00  0.00     0.031 C 
ATOM     60  C   UNL A   1      43.937  28.808  33.527  1.00  0.00     0.037 A 
BRANCH  47  61
ATOM     61  C   UNL A   1      42.832  26.897  27.772  1.00  0.00     0.064 A 
ATOM     62  C   UNL A   1      42.686  25.504  27.680  1.00  0.00     0.173 A 
ATOM     63  C   UNL A   1      43.553  27.550  26.761  1.00  0.00     0.173 A 
ATOM     64  F   UNL A   1      42.009  24.832  28.623  1.00  0.00    -0.203 F 
ATOM     65  C   UNL A   1      43.267  24.791  26.635  1.00  0.00     0.198 A 
ATOM     66  C   UNL A   1      44.108  26.837  25.702  1.00  0.00     0.198 A 
ATOM     67  F   UNL A   1      43.710  28.882  26.797  1.00  0.00    -0.203 F 
ATOM     68  F   UNL A   1      43.154  23.456  26.593  1.00  0.00    -0.200 F 
ATOM     69  C   UNL A   1      43.976  25.458  25.647  1.00  0.00     0.200 A 
ATOM     70  F   UNL A   1      44.773  27.485  24.736  1.00  0.00    -0.200 F 
ATOM     71  F   UNL A   1      44.537  24.769  24.643  1.00  0.00    -0.200 F 
ENDBRANCH  47  61
BRANCH  48  72
ATOM     72  C   UNL A   1      39.277  32.122  35.523  1.00  0.00     0.064 A 
ATOM     73  C   UNL A   1      38.462  31.546  36.509  1.00  0.00     0.173 A 
ATOM     74  C   UNL A   1      39.609  33.478  35.665  1.00  0.00     0.173 A 
ATOM     75  F   UNL A   1      38.112  30.255  36.422  1.00  0.00    -0.203 F 
ATOM     76  C   UNL A   1      37.989  32.298  37.583  1.00  0.00     0.198 A 
ATOM     77  C   UNL A   1      39.163  34.220  36.757  1.00  0.00     0.198 A 
ATOM     78  F   UNL A   1      40.402  34.070  34.760  1.00  0.00    -0.203 F 
ATOM     79  F   UNL A   1      37.188  31.730  38.495  1.00  0.00    -0.200 F 
ATOM     80  C   UNL A   1      38.348  33.632  37.711  1.00  0.00     0.200 A 
ATOM     81  F   UNL A   1      39.536  35.499  36.891  1.00  0.00    -0.200 F 
ATOM     82  F   UNL A   1      37.915  34.347  38.758  1.00  0.00    -0.200 F 
ENDBRANCH  48  72
BRANCH  60  83
ATOM     83  C   UNL A   1      45.179  28.578  34.336  1.00  0.00     0.064 A 
ATOM     84  C   UNL A   1      45.258  27.476  35.201  1.00  0.00     0.173 A 
ATOM     85  C   UNL A   1      46.231  29.503  34.350  1.00  0.00     0.173 A 
ATOM     86  F   UNL A   1      44.270  26.568  35.232  1.00  0.00    -0.203 F 
ATOM     87  C   UNL A   1      46.333  27.324  36.072  1.00  0.00     0.198 A 
ATOM     88  C   UNL A   1      47.319  29.332  35.200  1.00  0.00     0.198 A 
ATOM     89  F   UNL A   1      46.205  30.567  33.533  1.00  0.00    -0.203 F 
ATOM     90  F   UNL A   1      46.362  26.291  36.925  1.00  0.00    -0.200 F 
ATOM     91  C   UNL A   1      47.362  28.252  36.070  1.00  0.00     0.200 A 
ATOM     92  F   UNL A   1      48.325  30.219  35.184  1.00  0.00    -0.200 F 
ATOM     93  F   UNL A   1      48.396  28.107  36.910  1.00  0.00    -0.200 F 
ENDBRANCH  60  83
ENDBRANCH  34  35
ENDBRANCH  26  29
ENDBRANCH  24  25
ENDBRANCH   1  24
TORSDOF 12
ENDMDL
