MODEL 1
REMARK VINA RESULT:     -12.3      0.000      0.000
REMARK SMILES NC(=O)N[C@@H](C(=O)N[C@@H](CO)C(=O)NCCCNC(=O)c1ccc(-c2c3nc(c(-c4c(F)c(F)c(F)c(F)c4F)c4ccc([nH]4)c(-c4c(F)c(F)c(F)c(F)c4F)c4nc(c(-c5c(F)c(F)c(F)c(F)c5F)c5ccc2[nH]5)C=C4)C=C3)cc1)c1ccccc1
REMARK SMILES IDX 15 1 14 2 12 3 13 4 9 6 8 7 6 8 7 9 5 11 4 12 1 13 2 14 3 17
REMARK SMILES IDX 84 19 85 20 89 21 86 22 88 23 87 24 10 25 11 26 16 28 17 29
REMARK SMILES IDX 18 30 19 31 20 33 21 34 22 35 83 36 23 37 82 38 24 39 25 40
REMARK SMILES IDX 26 41 76 42 27 43 81 44 75 45 77 46 28 47 80 48 74 49 73 50
REMARK SMILES IDX 29 52 61 53 41 54 60 55 42 56 45 57 59 58 78 59 43 60 44 61
REMARK SMILES IDX 58 63 79 64 46 65 30 66 31 67 39 68 32 69 33 70 37 71 40 72
REMARK SMILES IDX 34 73 35 74 38 75 36 76 62 77 63 78 71 79 64 80 65 81 69 82
REMARK SMILES IDX 72 83 66 84 67 85 70 86 68 87 47 88 48 89 56 90 49 91 50 92
REMARK SMILES IDX 54 93 57 94 51 95 52 96 55 97 53 98
REMARK H PARENT 14 5 8 10 1 15 1 16 4 18 11 27 18 32 77 51 45 62
REMARK Flexibility Score: inf
ROOT
ATOM      1  C   UNL A   1      32.140  27.310  26.413  1.00  0.00     0.117 C 
ENDROOT
BRANCH   1   2
ATOM      2  N   UNL A   1      30.988  26.502  26.760  1.00  0.00    -0.354 N 
ATOM      3  C   UNL A   1      30.097  25.830  25.986  1.00  0.00     0.244 C 
ATOM      4  O   UNL A   1      29.240  25.160  26.575  1.00  0.00    -0.273 OA
ATOM      5  H   UNL A   1      30.822  26.426  27.727  1.00  0.00     0.163 HD
BRANCH   3   6
ATOM      6  C   UNL A   1      30.147  25.830  24.449  1.00  0.00     0.197 C 
BRANCH   6   7
ATOM      7  N   UNL A   1      30.329  24.491  23.886  1.00  0.00    -0.340 N 
ATOM      8  C   UNL A   1      31.492  23.878  23.500  1.00  0.00     0.248 C 
ATOM      9  O   UNL A   1      31.467  22.644  23.533  1.00  0.00    -0.272 OA
ATOM     10  H   UNL A   1      29.508  23.961  23.769  1.00  0.00     0.164 HD
BRANCH   8  11
ATOM     11  C   UNL A   1      32.780  24.713  23.198  1.00  0.00     0.203 C 
BRANCH  11  12
ATOM     12  N   UNL A   1      33.020  24.803  21.756  1.00  0.00    -0.322 N 
ATOM     13  N   UNL A   1      31.805  26.703  21.251  1.00  0.00    -0.352 N 
ATOM     14  C   UNL A   1      32.595  25.696  20.846  1.00  0.00     0.313 C 
ATOM     15  H   UNL A   1      31.483  27.368  20.602  1.00  0.00     0.161 HD
ATOM     16  H   UNL A   1      31.549  26.777  22.199  1.00  0.00     0.161 HD
ATOM     17  O   UNL A   1      32.876  25.558  19.660  1.00  0.00    -0.249 OA
ATOM     18  H   UNL A   1      33.589  24.086  21.391  1.00  0.00     0.166 HD
ENDBRANCH  11  12
BRANCH  11  19
ATOM     19  C   UNL A   1      34.064  24.220  23.859  1.00  0.00    -0.016 A 
ATOM     20  C   UNL A   1      34.404  24.509  25.189  1.00  0.00     0.006 A 
ATOM     21  C   UNL A   1      34.917  23.368  23.131  1.00  0.00     0.006 A 
ATOM     22  C   UNL A   1      35.582  24.013  25.755  1.00  0.00     0.000 A 
ATOM     23  C   UNL A   1      36.088  22.861  23.702  1.00  0.00     0.000 A 
ATOM     24  C   UNL A   1      36.425  23.193  25.010  1.00  0.00     0.000 A 
ENDBRANCH  11  19
ENDBRANCH   8  11
ENDBRANCH   6   7
BRANCH   6  25
ATOM     25  C   UNL A   1      28.999  26.626  23.814  1.00  0.00     0.191 C 
BRANCH  25  26
ATOM     26  O   UNL A   1      27.743  25.953  23.879  1.00  0.00    -0.394 OA
ATOM     27  H   UNL A   1      27.088  26.531  24.300  1.00  0.00     0.210 HD
ENDBRANCH  25  26
ENDBRANCH   6  25
ENDBRANCH   3   6
ENDBRANCH   1   2
BRANCH   1  28
ATOM     28  C   UNL A   1      31.863  28.796  26.587  1.00  0.00     0.042 C 
BRANCH  28  29
ATOM     29  C   UNL A   1      32.943  29.694  26.000  1.00  0.00     0.118 C 
BRANCH  29  30
ATOM     30  N   UNL A   1      32.783  31.091  26.384  1.00  0.00    -0.352 N 
ATOM     31  C   UNL A   1      33.464  31.843  27.309  1.00  0.00     0.251 C 
ATOM     32  H   UNL A   1      32.073  31.573  25.903  1.00  0.00     0.163 HD
ATOM     33  O   UNL A   1      33.042  32.952  27.625  1.00  0.00    -0.269 OA
BRANCH  31  34
ATOM     34  C   UNL A   1      34.690  31.316  27.943  1.00  0.00     0.039 A 
ATOM     35  C   UNL A   1      35.788  32.166  28.103  1.00  0.00     0.014 A 
ATOM     36  C   UNL A   1      34.765  29.988  28.367  1.00  0.00     0.014 A 
ATOM     37  C   UNL A   1      36.934  31.701  28.753  1.00  0.00     0.010 A 
ATOM     38  C   UNL A   1      35.865  29.556  29.098  1.00  0.00     0.010 A 
ATOM     39  C   UNL A   1      36.965  30.405  29.291  1.00  0.00    -0.014 A 
BRANCH  39  40
ATOM     40  C   UNL A   1      38.137  29.911  30.056  1.00  0.00     0.031 A 
ATOM     41  C   UNL A   1      38.389  30.406  31.452  1.00  0.00     0.074 A 
ATOM     42  C   UNL A   1      39.022  29.090  29.459  1.00  0.00     0.049 A 
ATOM     43  N   UNL A   1      39.402  30.170  32.246  1.00  0.00    -0.248 NA
ATOM     44  C   UNL A   1      37.387  31.323  32.017  1.00  0.00     0.031 C 
ATOM     45  C   UNL A   1      38.925  28.599  28.085  1.00  0.00     0.029 A 
ATOM     46  N   UNL A   1      40.190  28.542  29.927  1.00  0.00    -0.354 N 
ATOM     47  C   UNL A   1      39.175  30.930  33.384  1.00  0.00     0.074 A 
ATOM     48  C   UNL A   1      37.956  31.676  33.158  1.00  0.00     0.031 C 
ATOM     49  C   UNL A   1      39.978  27.808  27.826  1.00  0.00     0.029 A 
ATOM     50  C   UNL A   1      40.841  27.767  29.002  1.00  0.00     0.049 A 
ATOM     51  H   UNL A   1      40.527  28.692  30.840  1.00  0.00     0.167 HD
ATOM     52  C   UNL A   1      39.902  30.981  34.526  1.00  0.00     0.037 A 
ATOM     53  C   UNL A   1      42.009  27.103  29.088  1.00  0.00     0.037 A 
ATOM     54  C   UNL A   1      41.092  30.206  34.758  1.00  0.00     0.049 A 
ATOM     55  C   UNL A   1      42.783  27.144  30.377  1.00  0.00     0.074 A 
ATOM     56  C   UNL A   1      41.847  30.109  35.913  1.00  0.00     0.029 A 
ATOM     57  N   UNL A   1      41.699  29.392  33.813  1.00  0.00    -0.354 N 
ATOM     58  N   UNL A   1      42.512  27.795  31.482  1.00  0.00    -0.248 NA
ATOM     59  C   UNL A   1      44.018  26.351  30.433  1.00  0.00     0.031 C 
ATOM     60  C   UNL A   1      42.941  29.276  35.651  1.00  0.00     0.029 A 
ATOM     61  C   UNL A   1      42.839  28.812  34.348  1.00  0.00     0.049 A 
ATOM     62  H   UNL A   1      41.370  29.250  32.895  1.00  0.00     0.167 HD
ATOM     63  C   UNL A   1      43.530  27.479  32.371  1.00  0.00     0.074 A 
ATOM     64  C   UNL A   1      44.415  26.563  31.681  1.00  0.00     0.031 C 
ATOM     65  C   UNL A   1      43.713  27.909  33.644  1.00  0.00     0.037 A 
BRANCH  52  66
ATOM     66  C   UNL A   1      39.429  31.914  35.605  1.00  0.00     0.064 A 
ATOM     67  C   UNL A   1      39.877  33.241  35.685  1.00  0.00     0.173 A 
ATOM     68  C   UNL A   1      38.512  31.474  36.571  1.00  0.00     0.173 A 
ATOM     69  F   UNL A   1      40.763  33.709  34.793  1.00  0.00    -0.203 F 
ATOM     70  C   UNL A   1      39.459  34.079  36.716  1.00  0.00     0.198 A 
ATOM     71  C   UNL A   1      38.069  32.324  37.582  1.00  0.00     0.198 A 
ATOM     72  F   UNL A   1      38.045  30.216  36.540  1.00  0.00    -0.203 F 
ATOM     73  F   UNL A   1      39.954  35.322  36.809  1.00  0.00    -0.200 F 
ATOM     74  C   UNL A   1      38.553  33.622  37.660  1.00  0.00     0.200 A 
ATOM     75  F   UNL A   1      37.183  31.885  38.486  1.00  0.00    -0.200 F 
ATOM     76  F   UNL A   1      38.154  34.428  38.654  1.00  0.00    -0.200 F 
ENDBRANCH  52  66
BRANCH  53  77
ATOM     77  C   UNL A   1      42.491  26.318  27.923  1.00  0.00     0.064 A 
ATOM     78  C   UNL A   1      42.015  25.023  27.682  1.00  0.00     0.173 A 
ATOM     79  C   UNL A   1      43.402  26.862  27.006  1.00  0.00     0.173 A 
ATOM     80  F   UNL A   1      41.156  24.455  28.542  1.00  0.00    -0.203 F 
ATOM     81  C   UNL A   1      42.438  24.296  26.572  1.00  0.00     0.198 A 
ATOM     82  C   UNL A   1      43.804  26.144  25.882  1.00  0.00     0.198 A 
ATOM     83  F   UNL A   1      43.879  28.102  27.188  1.00  0.00    -0.203 F 
ATOM     84  F   UNL A   1      41.987  23.049  26.379  1.00  0.00    -0.200 F 
ATOM     85  C   UNL A   1      43.324  24.861  25.667  1.00  0.00     0.200 A 
ATOM     86  F   UNL A   1      44.649  26.699  25.001  1.00  0.00    -0.200 F 
ATOM     87  F   UNL A   1      43.718  24.167  24.590  1.00  0.00    -0.200 F 
ENDBRANCH  53  77
BRANCH  65  88
ATOM     88  C   UNL A   1      44.909  27.381  34.380  1.00  0.00     0.064 A 
ATOM     89  C   UNL A   1      44.857  26.177  35.099  1.00  0.00     0.173 A 
ATOM     90  C   UNL A   1      46.134  28.064  34.328  1.00  0.00     0.173 A 
ATOM     91  F   UNL A   1      43.706  25.496  35.192  1.00  0.00    -0.203 F 
ATOM     92  C   UNL A   1      45.982  25.689  35.758  1.00  0.00     0.198 A 
ATOM     93  C   UNL A   1      47.264  27.558  34.965  1.00  0.00     0.198 A 
ATOM     94  F   UNL A   1      46.238  29.215  33.649  1.00  0.00    -0.203 F 
ATOM     95  F   UNL A   1      45.899  24.560  36.476  1.00  0.00    -0.200 F 
ATOM     96  C   UNL A   1      47.186  26.375  35.684  1.00  0.00     0.200 A 
ATOM     97  F   UNL A   1      48.429  28.214  34.880  1.00  0.00    -0.200 F 
ATOM     98  F   UNL A   1      48.269  25.899  36.311  1.00  0.00    -0.200 F 
ENDBRANCH  65  88
ENDBRANCH  39  40
ENDBRANCH  31  34
ENDBRANCH  29  30
ENDBRANCH  28  29
ENDBRANCH   1  28
TORSDOF 16
ENDMDL
MODEL 2
REMARK VINA RESULT:     -12.3      0.443      7.337
REMARK SMILES NC(=O)N[C@@H](C(=O)N[C@@H](CO)C(=O)NCCCNC(=O)c1ccc(-c2c3nc(c(-c4c(F)c(F)c(F)c(F)c4F)c4ccc([nH]4)c(-c4c(F)c(F)c(F)c(F)c4F)c4nc(c(-c5c(F)c(F)c(F)c(F)c5F)c5ccc2[nH]5)C=C4)C=C3)cc1)c1ccccc1
REMARK SMILES IDX 15 1 14 2 12 3 13 4 9 6 8 7 6 8 7 9 5 11 4 12 1 13 2 14 3 17
REMARK SMILES IDX 84 19 85 20 89 21 86 22 88 23 87 24 10 25 11 26 16 28 17 29
REMARK SMILES IDX 18 30 19 31 20 33 21 34 22 35 83 36 23 37 82 38 24 39 25 40
REMARK SMILES IDX 26 41 76 42 27 43 81 44 75 45 77 46 28 47 80 48 74 49 73 50
REMARK SMILES IDX 29 52 61 53 41 54 60 55 42 56 45 57 59 58 78 59 43 60 44 61
REMARK SMILES IDX 58 63 79 64 46 65 30 66 31 67 39 68 32 69 33 70 37 71 40 72
REMARK SMILES IDX 34 73 35 74 38 75 36 76 62 77 63 78 71 79 64 80 65 81 69 82
REMARK SMILES IDX 72 83 66 84 67 85 70 86 68 87 47 88 48 89 56 90 49 91 50 92
REMARK SMILES IDX 54 93 57 94 51 95 52 96 55 97 53 98
REMARK H PARENT 14 5 8 10 1 15 1 16 4 18 11 27 18 32 77 51 45 62
REMARK Flexibility Score: inf
ROOT
ATOM      1  C   UNL A   1      32.191  27.213  26.478  1.00  0.00     0.117 C 
ENDROOT
BRANCH   1   2
ATOM      2  N   UNL A   1      31.059  26.368  26.801  1.00  0.00    -0.354 N 
ATOM      3  C   UNL A   1      30.182  25.702  26.008  1.00  0.00     0.244 C 
ATOM      4  O   UNL A   1      29.342  24.993  26.577  1.00  0.00    -0.273 OA
ATOM      5  H   UNL A   1      30.899  26.256  27.766  1.00  0.00     0.163 HD
BRANCH   3   6
ATOM      6  C   UNL A   1      30.226  25.754  24.471  1.00  0.00     0.197 C 
BRANCH   6   7
ATOM      7  N   UNL A   1      30.378  24.432  23.861  1.00  0.00    -0.340 N 
ATOM      8  C   UNL A   1      31.527  23.809  23.450  1.00  0.00     0.248 C 
ATOM      9  O   UNL A   1      31.476  22.575  23.441  1.00  0.00    -0.272 OA
ATOM     10  H   UNL A   1      29.546  23.923  23.729  1.00  0.00     0.164 HD
BRANCH   8  11
ATOM     11  C   UNL A   1      32.831  24.626  23.173  1.00  0.00     0.203 C 
BRANCH  11  12
ATOM     12  N   UNL A   1      33.079  24.745  21.735  1.00  0.00    -0.322 N 
ATOM     13  N   UNL A   1      31.823  26.625  21.253  1.00  0.00    -0.352 N 
ATOM     14  C   UNL A   1      32.639  25.643  20.836  1.00  0.00     0.313 C 
ATOM     15  H   UNL A   1      31.489  27.292  20.612  1.00  0.00     0.161 HD
ATOM     16  H   UNL A   1      31.559  26.677  22.199  1.00  0.00     0.161 HD
ATOM     17  O   UNL A   1      32.931  25.533  19.651  1.00  0.00    -0.249 OA
ATOM     18  H   UNL A   1      33.667  24.049  21.362  1.00  0.00     0.166 HD
ENDBRANCH  11  12
BRANCH  11  19
ATOM     19  C   UNL A   1      34.103  24.094  23.827  1.00  0.00    -0.016 A 
ATOM     20  C   UNL A   1      35.037  23.292  23.153  1.00  0.00     0.006 A 
ATOM     21  C   UNL A   1      34.403  24.488  25.146  1.00  0.00     0.006 A 
ATOM     22  C   UNL A   1      36.199  22.850  23.792  1.00  0.00     0.000 A 
ATOM     23  C   UNL A   1      35.573  24.057  25.778  1.00  0.00     0.000 A 
ATOM     24  C   UNL A   1      36.465  23.230  25.104  1.00  0.00     0.000 A 
ENDBRANCH  11  19
ENDBRANCH   8  11
ENDBRANCH   6   7
BRANCH   6  25
ATOM     25  C   UNL A   1      29.092  26.595  23.870  1.00  0.00     0.191 C 
BRANCH  25  26
ATOM     26  O   UNL A   1      27.821  25.951  23.927  1.00  0.00    -0.394 OA
ATOM     27  H   UNL A   1      27.599  25.754  24.850  1.00  0.00     0.210 HD
ENDBRANCH  25  26
ENDBRANCH   6  25
ENDBRANCH   3   6
ENDBRANCH   1   2
BRANCH   1  28
ATOM     28  C   UNL A   1      31.766  28.646  26.195  1.00  0.00     0.042 C 
BRANCH  28  29
ATOM     29  C   UNL A   1      32.926  29.578  25.871  1.00  0.00     0.118 C 
BRANCH  29  30
ATOM     30  N   UNL A   1      32.644  30.967  26.210  1.00  0.00    -0.352 N 
ATOM     31  C   UNL A   1      33.257  31.806  27.107  1.00  0.00     0.251 C 
ATOM     32  H   UNL A   1      31.893  31.368  25.717  1.00  0.00     0.163 HD
ATOM     33  O   UNL A   1      32.740  32.883  27.389  1.00  0.00    -0.269 OA
BRANCH  31  34
ATOM     34  C   UNL A   1      34.526  31.411  27.752  1.00  0.00     0.039 A 
ATOM     35  C   UNL A   1      35.527  32.372  27.923  1.00  0.00     0.014 A 
ATOM     36  C   UNL A   1      34.738  30.098  28.175  1.00  0.00     0.014 A 
ATOM     37  C   UNL A   1      36.709  32.030  28.583  1.00  0.00     0.010 A 
ATOM     38  C   UNL A   1      35.870  29.783  28.916  1.00  0.00     0.010 A 
ATOM     39  C   UNL A   1      36.872  30.744  29.121  1.00  0.00    -0.014 A 
BRANCH  39  40
ATOM     40  C   UNL A   1      38.083  30.375  29.896  1.00  0.00     0.031 A 
ATOM     41  C   UNL A   1      39.077  29.404  29.324  1.00  0.00     0.074 A 
ATOM     42  C   UNL A   1      38.237  30.841  31.150  1.00  0.00     0.049 A 
ATOM     43  N   UNL A   1      40.142  28.884  29.879  1.00  0.00    -0.248 NA
ATOM     44  C   UNL A   1      38.817  28.922  27.959  1.00  0.00     0.031 C 
ATOM     45  C   UNL A   1      37.303  31.731  31.841  1.00  0.00     0.029 A 
ATOM     46  N   UNL A   1      39.226  30.612  32.073  1.00  0.00    -0.354 N 
ATOM     47  C   UNL A   1      40.657  27.995  28.946  1.00  0.00     0.074 A 
ATOM     48  C   UNL A   1      39.760  28.005  27.811  1.00  0.00     0.031 C 
ATOM     49  C   UNL A   1      37.772  31.987  33.072  1.00  0.00     0.029 A 
ATOM     50  C   UNL A   1      39.018  31.252  33.269  1.00  0.00     0.049 A 
ATOM     51  H   UNL A   1      40.009  30.044  31.894  1.00  0.00     0.167 HD
ATOM     52  C   UNL A   1      41.791  27.256  29.018  1.00  0.00     0.037 A 
ATOM     53  C   UNL A   1      39.746  31.242  34.402  1.00  0.00     0.037 A 
ATOM     54  C   UNL A   1      42.699  27.282  30.133  1.00  0.00     0.049 A 
ATOM     55  C   UNL A   1      41.019  30.444  34.448  1.00  0.00     0.074 A 
ATOM     56  C   UNL A   1      43.922  26.649  30.266  1.00  0.00     0.029 A 
ATOM     57  N   UNL A   1      42.479  27.980  31.312  1.00  0.00    -0.354 N 
ATOM     58  N   UNL A   1      41.546  29.676  33.525  1.00  0.00    -0.248 NA
ATOM     59  C   UNL A   1      41.803  30.519  35.687  1.00  0.00     0.031 C 
ATOM     60  C   UNL A   1      44.420  26.924  31.544  1.00  0.00     0.029 A 
ATOM     61  C   UNL A   1      43.531  27.770  32.191  1.00  0.00     0.049 A 
ATOM     62  H   UNL A   1      41.692  28.541  31.498  1.00  0.00     0.167 HD
ATOM     63  C   UNL A   1      42.729  29.190  34.063  1.00  0.00     0.074 A 
ATOM     64  C   UNL A   1      42.851  29.764  35.387  1.00  0.00     0.031 C 
ATOM     65  C   UNL A   1      43.633  28.344  33.508  1.00  0.00     0.037 A 
BRANCH  52  66
ATOM     66  C   UNL A   1      42.103  26.356  27.856  1.00  0.00     0.064 A 
ATOM     67  C   UNL A   1      41.513  25.089  27.723  1.00  0.00     0.173 A 
ATOM     68  C   UNL A   1      43.002  26.767  26.861  1.00  0.00     0.173 A 
ATOM     69  F   UNL A   1      40.655  24.642  28.653  1.00  0.00    -0.203 F 
ATOM     70  C   UNL A   1      41.846  24.251  26.662  1.00  0.00     0.198 A 
ATOM     71  C   UNL A   1      43.307  25.940  25.782  1.00  0.00     0.198 A 
ATOM     72  F   UNL A   1      43.590  27.970  26.934  1.00  0.00    -0.203 F 
ATOM     73  F   UNL A   1      41.320  23.019  26.593  1.00  0.00    -0.200 F 
ATOM     74  C   UNL A   1      42.738  24.678  25.690  1.00  0.00     0.200 A 
ATOM     75  F   UNL A   1      44.159  26.359  24.837  1.00  0.00    -0.200 F 
ATOM     76  F   UNL A   1      43.059  23.870  24.671  1.00  0.00    -0.200 F 
ENDBRANCH  52  66
BRANCH  53  77
ATOM     77  C   UNL A   1      39.294  32.043  35.567  1.00  0.00     0.064 A 
ATOM     78  C   UNL A   1      38.427  31.497  36.523  1.00  0.00     0.173 A 
ATOM     79  C   UNL A   1      39.754  33.353  35.773  1.00  0.00     0.173 A 
ATOM     80  F   UNL A   1      37.949  30.255  36.360  1.00  0.00    -0.203 F 
ATOM     81  C   UNL A   1      38.029  32.233  37.637  1.00  0.00     0.198 A 
ATOM     82  C   UNL A   1      39.375  34.078  36.900  1.00  0.00     0.198 A 
ATOM     83  F   UNL A   1      40.593  33.916  34.891  1.00  0.00    -0.203 F 
ATOM     84  F   UNL A   1      37.178  31.697  38.522  1.00  0.00    -0.200 F 
ATOM     85  C   UNL A   1      38.511  33.520  37.829  1.00  0.00     0.200 A 
ATOM     86  F   UNL A   1      39.855  35.315  37.091  1.00  0.00    -0.200 F 
ATOM     87  F   UNL A   1      38.139  34.221  38.909  1.00  0.00    -0.200 F 
ENDBRANCH  53  77
BRANCH  65  88
ATOM     88  C   UNL A   1      44.843  28.001  34.327  1.00  0.00     0.064 A 
ATOM     89  C   UNL A   1      44.861  26.885  35.177  1.00  0.00     0.173 A 
ATOM     90  C   UNL A   1      46.011  28.771  34.226  1.00  0.00     0.173 A 
ATOM     91  F   UNL A   1      43.765  26.127  35.320  1.00  0.00    -0.203 F 
ATOM     92  C   UNL A   1      46.000  26.566  35.912  1.00  0.00     0.198 A 
ATOM     93  C   UNL A   1      47.157  28.432  34.941  1.00  0.00     0.198 A 
ATOM     94  F   UNL A   1      46.047  29.843  33.422  1.00  0.00    -0.203 F 
ATOM     95  F   UNL A   1      45.982  25.521  36.752  1.00  0.00    -0.200 F 
ATOM     96  C   UNL A   1      47.148  27.334  35.788  1.00  0.00     0.200 A 
ATOM     97  F   UNL A   1      48.269  29.166  34.809  1.00  0.00    -0.200 F 
ATOM     98  F   UNL A   1      48.245  27.020  36.490  1.00  0.00    -0.200 F 
ENDBRANCH  65  88
ENDBRANCH  39  40
ENDBRANCH  31  34
ENDBRANCH  29  30
ENDBRANCH  28  29
ENDBRANCH   1  28
TORSDOF 16
ENDMDL
MODEL 3
REMARK VINA RESULT:     -12.3      2.302      7.960
REMARK SMILES NC(=O)N[C@@H](C(=O)N[C@@H](CO)C(=O)NCCCNC(=O)c1ccc(-c2c3nc(c(-c4c(F)c(F)c(F)c(F)c4F)c4ccc([nH]4)c(-c4c(F)c(F)c(F)c(F)c4F)c4nc(c(-c5c(F)c(F)c(F)c(F)c5F)c5ccc2[nH]5)C=C4)C=C3)cc1)c1ccccc1
REMARK SMILES IDX 15 1 14 2 12 3 13 4 9 6 8 7 6 8 7 9 5 11 4 12 1 13 2 14 3 17
REMARK SMILES IDX 84 19 85 20 89 21 86 22 88 23 87 24 10 25 11 26 16 28 17 29
REMARK SMILES IDX 18 30 19 31 20 33 21 34 22 35 83 36 23 37 82 38 24 39 25 40
REMARK SMILES IDX 26 41 76 42 27 43 81 44 75 45 77 46 28 47 80 48 74 49 73 50
REMARK SMILES IDX 29 52 61 53 41 54 60 55 42 56 45 57 59 58 78 59 43 60 44 61
REMARK SMILES IDX 58 63 79 64 46 65 30 66 31 67 39 68 32 69 33 70 37 71 40 72
REMARK SMILES IDX 34 73 35 74 38 75 36 76 62 77 63 78 71 79 64 80 65 81 69 82
REMARK SMILES IDX 72 83 66 84 67 85 70 86 68 87 47 88 48 89 56 90 49 91 50 92
REMARK SMILES IDX 54 93 57 94 51 95 52 96 55 97 53 98
REMARK H PARENT 14 5 8 10 1 15 1 16 4 18 11 27 18 32 77 51 45 62
REMARK Flexibility Score: inf
ROOT
ATOM      1  C   UNL A   1      31.662  30.732  26.075  1.00  0.00     0.117 C 
ENDROOT
BRANCH   1   2
ATOM      2  N   UNL A   1      31.655  29.759  27.150  1.00  0.00    -0.354 N 
ATOM      3  C   UNL A   1      31.563  28.405  27.133  1.00  0.00     0.244 C 
ATOM      4  O   UNL A   1      31.651  27.826  28.224  1.00  0.00    -0.273 OA
ATOM      5  H   UNL A   1      31.730  30.149  28.050  1.00  0.00     0.163 HD
BRANCH   3   6
ATOM      6  C   UNL A   1      31.412  27.585  25.841  1.00  0.00     0.197 C 
BRANCH   6   7
ATOM      7  N   UNL A   1      32.646  27.528  25.056  1.00  0.00    -0.340 N 
ATOM      8  C   UNL A   1      32.789  27.474  23.694  1.00  0.00     0.248 C 
ATOM      9  O   UNL A   1      33.856  27.922  23.264  1.00  0.00    -0.272 OA
ATOM     10  H   UNL A   1      33.483  27.529  25.573  1.00  0.00     0.164 HD
BRANCH   8  11
ATOM     11  C   UNL A   1      31.607  27.018  22.777  1.00  0.00     0.203 C 
BRANCH  11  12
ATOM     12  N   UNL A   1      32.080  26.706  21.427  1.00  0.00    -0.322 N 
ATOM     13  N   UNL A   1      32.644  24.480  21.690  1.00  0.00    -0.352 N 
ATOM     14  C   UNL A   1      32.554  25.563  20.901  1.00  0.00     0.313 C 
ATOM     15  H   UNL A   1      32.988  23.633  21.325  1.00  0.00     0.161 HD
ATOM     16  H   UNL A   1      32.366  24.532  22.632  1.00  0.00     0.161 HD
ATOM     17  O   UNL A   1      32.949  25.528  19.741  1.00  0.00    -0.249 OA
ATOM     18  H   UNL A   1      32.048  27.462  20.798  1.00  0.00     0.166 HD
ENDBRANCH  11  12
BRANCH  11  19
ATOM     19  C   UNL A   1      30.443  27.997  22.653  1.00  0.00    -0.016 A 
ATOM     20  C   UNL A   1      29.142  27.706  23.093  1.00  0.00     0.006 A 
ATOM     21  C   UNL A   1      30.694  29.287  22.147  1.00  0.00     0.006 A 
ATOM     22  C   UNL A   1      28.116  28.648  22.977  1.00  0.00     0.000 A 
ATOM     23  C   UNL A   1      29.670  30.233  22.045  1.00  0.00     0.000 A 
ATOM     24  C   UNL A   1      28.380  29.909  22.450  1.00  0.00     0.000 A 
ENDBRANCH  11  19
ENDBRANCH   8  11
ENDBRANCH   6   7
BRANCH   6  25
ATOM     25  C   UNL A   1      30.754  26.218  26.074  1.00  0.00     0.191 C 
BRANCH  25  26
ATOM     26  O   UNL A   1      31.579  25.313  26.805  1.00  0.00    -0.394 OA
ATOM     27  H   UNL A   1      32.377  25.774  27.107  1.00  0.00     0.210 HD
ENDBRANCH  25  26
ENDBRANCH   6  25
ENDBRANCH   3   6
ENDBRANCH   1   2
BRANCH   1  28
ATOM     28  C   UNL A   1      31.418  32.143  26.586  1.00  0.00     0.042 C 
BRANCH  28  29
ATOM     29  C   UNL A   1      32.638  32.780  27.237  1.00  0.00     0.118 C 
BRANCH  29  30
ATOM     30  N   UNL A   1      32.417  34.174  27.603  1.00  0.00    -0.352 N 
ATOM     31  C   UNL A   1      32.997  34.938  28.586  1.00  0.00     0.251 C 
ATOM     32  H   UNL A   1      31.746  34.643  27.058  1.00  0.00     0.163 HD
ATOM     33  O   UNL A   1      32.527  36.038  28.861  1.00  0.00    -0.269 OA
BRANCH  31  34
ATOM     34  C   UNL A   1      34.169  34.434  29.330  1.00  0.00     0.039 A 
ATOM     35  C   UNL A   1      33.977  33.867  30.593  1.00  0.00     0.014 A 
ATOM     36  C   UNL A   1      35.455  34.532  28.795  1.00  0.00     0.014 A 
ATOM     37  C   UNL A   1      35.067  33.333  31.285  1.00  0.00     0.010 A 
ATOM     38  C   UNL A   1      36.521  33.914  29.438  1.00  0.00     0.010 A 
ATOM     39  C   UNL A   1      36.340  33.317  30.694  1.00  0.00    -0.014 A 
BRANCH  39  40
ATOM     40  C   UNL A   1      37.501  32.686  31.370  1.00  0.00     0.031 A 
ATOM     41  C   UNL A   1      38.216  31.534  30.721  1.00  0.00     0.074 A 
ATOM     42  C   UNL A   1      37.849  33.087  32.607  1.00  0.00     0.049 A 
ATOM     43  N   UNL A   1      39.186  30.791  31.189  1.00  0.00    -0.248 NA
ATOM     44  C   UNL A   1      37.753  31.141  29.382  1.00  0.00     0.031 C 
ATOM     45  C   UNL A   1      37.185  34.145  33.370  1.00  0.00     0.029 A 
ATOM     46  N   UNL A   1      38.835  32.638  33.449  1.00  0.00    -0.354 N 
ATOM     47  C   UNL A   1      39.424  29.827  30.219  1.00  0.00     0.074 A 
ATOM     48  C   UNL A   1      38.463  30.047  29.160  1.00  0.00     0.031 C 
ATOM     49  C   UNL A   1      37.793  34.275  34.560  1.00  0.00     0.029 A 
ATOM     50  C   UNL A   1      38.864  33.288  34.657  1.00  0.00     0.049 A 
ATOM     51  H   UNL A   1      39.462  31.919  33.208  1.00  0.00     0.167 HD
ATOM     52  C   UNL A   1      40.375  28.862  30.200  1.00  0.00     0.037 A 
ATOM     53  C   UNL A   1      39.659  33.104  35.727  1.00  0.00     0.037 A 
ATOM     54  C   UNL A   1      41.353  28.676  31.239  1.00  0.00     0.049 A 
ATOM     55  C   UNL A   1      40.732  32.053  35.672  1.00  0.00     0.074 A 
ATOM     56  C   UNL A   1      42.419  27.795  31.274  1.00  0.00     0.029 A 
ATOM     57  N   UNL A   1      41.381  29.385  32.432  1.00  0.00    -0.354 N 
ATOM     58  N   UNL A   1      41.009  31.205  34.711  1.00  0.00    -0.248 NA
ATOM     59  C   UNL A   1      41.609  31.939  36.844  1.00  0.00     0.031 C 
ATOM     60  C   UNL A   1      43.062  27.936  32.508  1.00  0.00     0.029 A 
ATOM     61  C   UNL A   1      42.429  28.941  33.223  1.00  0.00     0.049 A 
ATOM     62  H   UNL A   1      40.748  30.098  32.680  1.00  0.00     0.167 HD
ATOM     63  C   UNL A   1      42.099  30.469  35.152  1.00  0.00     0.074 A 
ATOM     64  C   UNL A   1      42.445  30.983  36.462  1.00  0.00     0.031 C 
ATOM     65  C   UNL A   1      42.754  29.460  34.527  1.00  0.00     0.037 A 
BRANCH  52  66
ATOM     66  C   UNL A   1      40.395  27.935  29.019  1.00  0.00     0.064 A 
ATOM     67  C   UNL A   1      41.152  28.215  27.870  1.00  0.00     0.173 A 
ATOM     68  C   UNL A   1      39.648  26.748  29.036  1.00  0.00     0.173 A 
ATOM     69  F   UNL A   1      41.875  29.343  27.797  1.00  0.00    -0.203 F 
ATOM     70  C   UNL A   1      41.125  27.365  26.768  1.00  0.00     0.198 A 
ATOM     71  C   UNL A   1      39.650  25.882  27.944  1.00  0.00     0.198 A 
ATOM     72  F   UNL A   1      38.911  26.426  30.110  1.00  0.00    -0.203 F 
ATOM     73  F   UNL A   1      41.803  27.690  25.657  1.00  0.00    -0.200 F 
ATOM     74  C   UNL A   1      40.378  26.198  26.807  1.00  0.00     0.200 A 
ATOM     75  F   UNL A   1      38.938  24.748  27.989  1.00  0.00    -0.200 F 
ATOM     76  F   UNL A   1      40.351  25.382  25.744  1.00  0.00    -0.200 F 
ENDBRANCH  52  66
BRANCH  53  77
ATOM     77  C   UNL A   1      39.483  33.965  36.925  1.00  0.00     0.064 A 
ATOM     78  C   UNL A   1      38.743  33.519  38.028  1.00  0.00     0.173 A 
ATOM     79  C   UNL A   1      40.086  35.228  37.009  1.00  0.00     0.173 A 
ATOM     80  F   UNL A   1      38.134  32.325  37.986  1.00  0.00    -0.203 F 
ATOM     81  C   UNL A   1      38.603  34.308  39.167  1.00  0.00     0.198 A 
ATOM     82  C   UNL A   1      39.967  36.005  38.159  1.00  0.00     0.198 A 
ATOM     83  F   UNL A   1      40.813  35.695  35.983  1.00  0.00    -0.203 F 
ATOM     84  F   UNL A   1      37.867  33.869  40.197  1.00  0.00    -0.200 F 
ATOM     85  C   UNL A   1      39.224  35.546  39.236  1.00  0.00     0.200 A 
ATOM     86  F   UNL A   1      40.581  37.195  38.228  1.00  0.00    -0.200 F 
ATOM     87  F   UNL A   1      39.103  36.298  40.339  1.00  0.00    -0.200 F 
ENDBRANCH  53  77
BRANCH  65  88
ATOM     88  C   UNL A   1      43.923  28.853  35.247  1.00  0.00     0.064 A 
ATOM     89  C   UNL A   1      43.767  27.753  36.104  1.00  0.00     0.173 A 
ATOM     90  C   UNL A   1      45.220  29.349  35.041  1.00  0.00     0.173 A 
ATOM     91  F   UNL A   1      42.547  27.253  36.345  1.00  0.00    -0.203 F 
ATOM     92  C   UNL A   1      44.866  27.186  36.746  1.00  0.00     0.198 A 
ATOM     93  C   UNL A   1      46.318  28.761  35.663  1.00  0.00     0.198 A 
ATOM     94  F   UNL A   1      45.422  30.394  34.226  1.00  0.00    -0.203 F 
ATOM     95  F   UNL A   1      44.689  26.164  37.595  1.00  0.00    -0.200 F 
ATOM     96  C   UNL A   1      46.140  27.685  36.519  1.00  0.00     0.200 A 
ATOM     97  F   UNL A   1      47.550  29.235  35.432  1.00  0.00    -0.200 F 
ATOM     98  F   UNL A   1      47.195  27.133  37.131  1.00  0.00    -0.200 F 
ENDBRANCH  65  88
ENDBRANCH  39  40
ENDBRANCH  31  34
ENDBRANCH  29  30
ENDBRANCH  28  29
ENDBRANCH   1  28
TORSDOF 16
ENDMDL
