MODEL 1
REMARK VINA RESULT:     -12.5      0.000      0.000
REMARK SMILES Cc1c(C(=O)NCCCNC(=O)c2ccc(-c3c4nc(c(-c5c(F)c(F)c(F)c(F)c5F)c5ccc([nH]5)c(-c5c(F)c(F)c(F)c(F)c5F)c5nc(c(-c6c(F)c(F)c(F)c(F)c6F)c6ccc3[nH]6)C=C5)C=C4)cc2)nnn1-c1ccc(Cl)cc1[N+](=O)[O-]
REMARK SMILES IDX 8 1 7 2 6 3 4 4 5 5 3 7 1 8 2 9 78 10 76 11 77 12 79 13
REMARK SMILES IDX 80 14 85 15 81 16 84 17 82 18 83 19 86 20 87 21 88 22 9 23
REMARK SMILES IDX 10 24 11 25 12 27 13 28 14 29 75 30 15 31 74 32 16 33 17 34
REMARK SMILES IDX 18 35 68 36 19 37 73 38 67 39 69 40 20 41 72 42 66 43 65 44
REMARK SMILES IDX 21 46 53 47 33 48 52 49 34 50 37 51 51 52 70 53 35 54 36 55
REMARK SMILES IDX 50 57 71 58 38 59 22 60 23 61 31 62 24 63 25 64 29 65 32 66
REMARK SMILES IDX 26 67 27 68 30 69 28 70 54 71 55 72 63 73 56 74 57 75 61 76
REMARK SMILES IDX 64 77 58 78 59 79 62 80 60 81 39 82 40 83 48 84 41 85 42 86
REMARK SMILES IDX 46 87 49 88 43 89 44 90 47 91 45 92
REMARK H PARENT 6 6 10 26 69 45 37 56
REMARK Flexibility Score: inf
ROOT
ATOM      1  C   UNL A   1      44.181  33.050  25.170  1.00  0.00     0.042 C 
ENDROOT
BRANCH   1   2
ATOM      2  C   UNL A   1      44.087  32.204  26.446  1.00  0.00     0.118 C 
BRANCH   2   3
ATOM      3  N   UNL A   1      45.395  32.005  27.032  1.00  0.00    -0.351 N 
ATOM      4  C   UNL A   1      46.264  30.942  27.035  1.00  0.00     0.273 C 
ATOM      5  O   UNL A   1      47.318  31.140  27.646  1.00  0.00    -0.267 OA
ATOM      6  H   UNL A   1      45.727  32.787  27.530  1.00  0.00     0.163 HD
BRANCH   4   7
ATOM      7  C   UNL A   1      46.027  29.678  26.328  1.00  0.00     0.173 A 
ATOM      8  C   UNL A   1      45.340  27.630  27.911  1.00  0.00     0.069 C 
ATOM      9  C   UNL A   1      45.581  28.405  26.675  1.00  0.00     0.075 A 
ATOM     10  N   UNL A   1      45.440  27.773  25.450  1.00  0.00    -0.210 N 
ATOM     11  N   UNL A   1      46.404  29.621  24.991  1.00  0.00    -0.124 NA
ATOM     12  N   UNL A   1      46.145  28.415  24.513  1.00  0.00    -0.061 NA
BRANCH  10  13
ATOM     13  C   UNL A   1      44.914  26.484  25.244  1.00  0.00     0.144 A 
ATOM     14  C   UNL A   1      45.829  25.429  25.120  1.00  0.00     0.037 A 
ATOM     15  C   UNL A   1      43.539  26.219  25.375  1.00  0.00     0.296 A 
ATOM     16  C   UNL A   1      45.367  24.113  25.179  1.00  0.00     0.023 A 
ATOM     17  C   UNL A   1      43.081  24.895  25.409  1.00  0.00     0.108 A 
ATOM     18  C   UNL A   1      44.004  23.854  25.328  1.00  0.00     0.048 A 
ATOM     19  Cl  UNL A   1      43.454  22.228  25.433  1.00  0.00    -0.084 Cl
BRANCH  15  20
ATOM     20  N   UNL A   1      42.538  27.290  25.460  1.00  0.00     0.065 N 
ATOM     21  O   UNL A   1      41.716  27.224  26.384  1.00  0.00    -0.258 OA
ATOM     22  O   UNL A   1      42.582  28.198  24.623  1.00  0.00    -0.258 OA
ENDBRANCH  15  20
ENDBRANCH  10  13
ENDBRANCH   4   7
ENDBRANCH   2   3
ENDBRANCH   1   2
BRANCH   1  23
ATOM     23  C   UNL A   1      43.755  34.479  25.367  1.00  0.00     0.118 C 
BRANCH  23  24
ATOM     24  N   UNL A   1      44.873  35.338  25.755  1.00  0.00    -0.352 N 
ATOM     25  C   UNL A   1      44.965  36.158  26.868  1.00  0.00     0.251 C 
ATOM     26  H   UNL A   1      45.652  35.334  25.153  1.00  0.00     0.163 HD
ATOM     27  O   UNL A   1      45.755  37.080  26.912  1.00  0.00    -0.269 OA
BRANCH  25  28
ATOM     28  C   UNL A   1      44.058  35.876  27.995  1.00  0.00     0.039 A 
ATOM     29  C   UNL A   1      42.854  36.558  28.166  1.00  0.00     0.014 A 
ATOM     30  C   UNL A   1      44.412  34.830  28.837  1.00  0.00     0.014 A 
ATOM     31  C   UNL A   1      41.983  36.111  29.153  1.00  0.00     0.010 A 
ATOM     32  C   UNL A   1      43.452  34.229  29.593  1.00  0.00     0.010 A 
ATOM     33  C   UNL A   1      42.284  34.924  29.845  1.00  0.00    -0.014 A 
BRANCH  33  34
ATOM     34  C   UNL A   1      41.347  34.314  30.773  1.00  0.00     0.031 A 
ATOM     35  C   UNL A   1      41.916  34.138  32.127  1.00  0.00     0.074 A 
ATOM     36  C   UNL A   1      40.038  34.132  30.480  1.00  0.00     0.049 A 
ATOM     37  N   UNL A   1      42.324  33.036  32.657  1.00  0.00    -0.248 NA
ATOM     38  C   UNL A   1      42.264  35.335  32.911  1.00  0.00     0.031 C 
ATOM     39  C   UNL A   1      39.309  34.594  29.288  1.00  0.00     0.029 A 
ATOM     40  N   UNL A   1      39.045  33.576  31.232  1.00  0.00    -0.354 N 
ATOM     41  C   UNL A   1      42.709  33.368  33.952  1.00  0.00     0.074 A 
ATOM     42  C   UNL A   1      42.889  34.793  33.960  1.00  0.00     0.031 C 
ATOM     43  C   UNL A   1      37.979  34.522  29.504  1.00  0.00     0.029 A 
ATOM     44  C   UNL A   1      37.760  33.825  30.754  1.00  0.00     0.049 A 
ATOM     45  H   UNL A   1      39.221  33.047  32.043  1.00  0.00     0.167 HD
ATOM     46  C   UNL A   1      42.479  32.484  34.962  1.00  0.00     0.037 A 
ATOM     47  C   UNL A   1      36.591  33.468  31.339  1.00  0.00     0.037 A 
ATOM     48  C   UNL A   1      42.117  31.197  34.417  1.00  0.00     0.049 A 
ATOM     49  C   UNL A   1      36.889  32.355  32.266  1.00  0.00     0.074 A 
ATOM     50  C   UNL A   1      42.763  30.147  33.805  1.00  0.00     0.029 A 
ATOM     51  N   UNL A   1      40.787  31.101  34.097  1.00  0.00    -0.354 N 
ATOM     52  N   UNL A   1      37.283  31.178  31.862  1.00  0.00    -0.248 NA
ATOM     53  C   UNL A   1      37.131  32.647  33.674  1.00  0.00     0.031 C 
ATOM     54  C   UNL A   1      41.785  29.488  33.000  1.00  0.00     0.029 A 
ATOM     55  C   UNL A   1      40.554  30.113  33.181  1.00  0.00     0.049 A 
ATOM     56  H   UNL A   1      40.085  31.675  34.481  1.00  0.00     0.167 HD
ATOM     57  C   UNL A   1      38.192  30.779  32.821  1.00  0.00     0.074 A 
ATOM     58  C   UNL A   1      37.926  31.619  33.982  1.00  0.00     0.031 C 
ATOM     59  C   UNL A   1      39.296  30.058  32.471  1.00  0.00     0.037 A 
BRANCH  46  60
ATOM     60  C   UNL A   1      42.049  32.852  36.369  1.00  0.00     0.064 A 
ATOM     61  C   UNL A   1      42.805  32.356  37.454  1.00  0.00     0.173 A 
ATOM     62  C   UNL A   1      40.783  33.376  36.711  1.00  0.00     0.173 A 
ATOM     63  F   UNL A   1      44.020  31.823  37.251  1.00  0.00    -0.203 F 
ATOM     64  C   UNL A   1      42.299  32.312  38.755  1.00  0.00     0.198 A 
ATOM     65  C   UNL A   1      40.300  33.375  38.019  1.00  0.00     0.198 A 
ATOM     66  F   UNL A   1      39.912  33.806  35.794  1.00  0.00    -0.203 F 
ATOM     67  F   UNL A   1      43.006  31.719  39.727  1.00  0.00    -0.200 F 
ATOM     68  C   UNL A   1      41.042  32.814  39.036  1.00  0.00     0.200 A 
ATOM     69  F   UNL A   1      39.069  33.847  38.265  1.00  0.00    -0.200 F 
ATOM     70  F   UNL A   1      40.527  32.721  40.269  1.00  0.00    -0.200 F 
ENDBRANCH  46  60
BRANCH  47  71
ATOM     71  C   UNL A   1      35.286  34.163  31.322  1.00  0.00     0.064 A 
ATOM     72  C   UNL A   1      34.965  35.148  32.268  1.00  0.00     0.173 A 
ATOM     73  C   UNL A   1      34.448  34.077  30.193  1.00  0.00     0.173 A 
ATOM     74  F   UNL A   1      35.738  35.320  33.350  1.00  0.00    -0.203 F 
ATOM     75  C   UNL A   1      33.887  36.021  32.081  1.00  0.00     0.198 A 
ATOM     76  C   UNL A   1      33.373  34.949  30.006  1.00  0.00     0.198 A 
ATOM     77  F   UNL A   1      34.721  33.212  29.206  1.00  0.00    -0.203 F 
ATOM     78  F   UNL A   1      33.648  36.992  32.974  1.00  0.00    -0.200 F 
ATOM     79  C   UNL A   1      33.101  35.931  30.943  1.00  0.00     0.200 A 
ATOM     80  F   UNL A   1      32.648  34.879  28.881  1.00  0.00    -0.200 F 
ATOM     81  F   UNL A   1      32.115  36.811  30.728  1.00  0.00    -0.200 F 
ENDBRANCH  47  71
BRANCH  59  82
ATOM     82  C   UNL A   1      39.233  29.275  31.198  1.00  0.00     0.064 A 
ATOM     83  C   UNL A   1      39.584  29.769  29.932  1.00  0.00     0.173 A 
ATOM     84  C   UNL A   1      38.860  27.928  31.286  1.00  0.00     0.173 A 
ATOM     85  F   UNL A   1      40.019  31.027  29.779  1.00  0.00    -0.203 F 
ATOM     86  C   UNL A   1      39.528  28.955  28.801  1.00  0.00     0.198 A 
ATOM     87  C   UNL A   1      38.840  27.108  30.165  1.00  0.00     0.198 A 
ATOM     88  F   UNL A   1      38.551  27.394  32.480  1.00  0.00    -0.203 F 
ATOM     89  F   UNL A   1      39.850  29.451  27.598  1.00  0.00    -0.200 F 
ATOM     90  C   UNL A   1      39.161  27.624  28.920  1.00  0.00     0.200 A 
ATOM     91  F   UNL A   1      38.524  25.812  30.295  1.00  0.00    -0.200 F 
ATOM     92  F   UNL A   1      39.137  26.831  27.840  1.00  0.00    -0.200 F 
ENDBRANCH  59  82
ENDBRANCH  33  34
ENDBRANCH  25  28
ENDBRANCH  23  24
ENDBRANCH   1  23
TORSDOF 12
ENDMDL
MODEL 2
REMARK VINA RESULT:     -12.4      5.976     11.965
REMARK SMILES Cc1c(C(=O)NCCCNC(=O)c2ccc(-c3c4nc(c(-c5c(F)c(F)c(F)c(F)c5F)c5ccc([nH]5)c(-c5c(F)c(F)c(F)c(F)c5F)c5nc(c(-c6c(F)c(F)c(F)c(F)c6F)c6ccc3[nH]6)C=C5)C=C4)cc2)nnn1-c1ccc(Cl)cc1[N+](=O)[O-]
REMARK SMILES IDX 8 1 7 2 6 3 4 4 5 5 3 7 1 8 2 9 78 10 76 11 77 12 79 13
REMARK SMILES IDX 80 14 85 15 81 16 84 17 82 18 83 19 86 20 87 21 88 22 9 23
REMARK SMILES IDX 10 24 11 25 12 27 13 28 14 29 75 30 15 31 74 32 16 33 17 34
REMARK SMILES IDX 18 35 68 36 19 37 73 38 67 39 69 40 20 41 72 42 66 43 65 44
REMARK SMILES IDX 21 46 53 47 33 48 52 49 34 50 37 51 51 52 70 53 35 54 36 55
REMARK SMILES IDX 50 57 71 58 38 59 22 60 23 61 31 62 24 63 25 64 29 65 32 66
REMARK SMILES IDX 26 67 27 68 30 69 28 70 54 71 55 72 63 73 56 74 57 75 61 76
REMARK SMILES IDX 64 77 58 78 59 79 62 80 60 81 39 82 40 83 48 84 41 85 42 86
REMARK SMILES IDX 46 87 49 88 43 89 44 90 47 91 45 92
REMARK H PARENT 6 6 10 26 69 45 37 56
REMARK Flexibility Score: inf
ROOT
ATOM      1  C   UNL A   1      38.554  19.293  25.320  1.00  0.00     0.042 C 
ENDROOT
BRANCH   1   2
ATOM      2  C   UNL A   1      37.477  20.357  25.070  1.00  0.00     0.118 C 
BRANCH   2   3
ATOM      3  N   UNL A   1      36.190  19.744  24.827  1.00  0.00    -0.351 N 
ATOM      4  C   UNL A   1      34.900  20.182  25.001  1.00  0.00     0.273 C 
ATOM      5  O   UNL A   1      34.031  19.371  24.669  1.00  0.00    -0.267 OA
ATOM      6  H   UNL A   1      36.249  18.830  24.467  1.00  0.00     0.163 HD
BRANCH   4   7
ATOM      7  C   UNL A   1      34.540  21.522  25.478  1.00  0.00     0.173 A 
ATOM      8  C   UNL A   1      33.918  23.263  23.540  1.00  0.00     0.069 C 
ATOM      9  C   UNL A   1      34.073  22.700  24.898  1.00  0.00     0.075 A 
ATOM     10  N   UNL A   1      33.786  23.501  25.992  1.00  0.00    -0.210 N 
ATOM     11  N   UNL A   1      34.783  21.804  26.818  1.00  0.00    -0.124 NA
ATOM     12  N   UNL A   1      34.426  23.051  27.077  1.00  0.00    -0.061 NA
BRANCH  10  13
ATOM     13  C   UNL A   1      33.186  24.772  25.947  1.00  0.00     0.144 A 
ATOM     14  C   UNL A   1      34.030  25.875  25.751  1.00  0.00     0.037 A 
ATOM     15  C   UNL A   1      31.789  24.926  25.879  1.00  0.00     0.296 A 
ATOM     16  C   UNL A   1      33.471  27.115  25.436  1.00  0.00     0.023 A 
ATOM     17  C   UNL A   1      31.237  26.180  25.587  1.00  0.00     0.108 A 
ATOM     18  C   UNL A   1      32.085  27.260  25.351  1.00  0.00     0.048 A 
ATOM     19  Cl  UNL A   1      31.415  28.786  24.931  1.00  0.00    -0.084 Cl
BRANCH  15  20
ATOM     20  N   UNL A   1      30.864  23.813  26.125  1.00  0.00     0.065 N 
ATOM     21  O   UNL A   1      30.650  23.037  25.183  1.00  0.00    -0.258 OA
ATOM     22  O   UNL A   1      30.368  23.703  27.251  1.00  0.00    -0.258 OA
ENDBRANCH  15  20
ENDBRANCH  10  13
ENDBRANCH   4   7
ENDBRANCH   2   3
ENDBRANCH   1   2
BRANCH   1  23
ATOM     23  C   UNL A   1      39.748  19.816  26.071  1.00  0.00     0.118 C 
BRANCH  23  24
ATOM     24  N   UNL A   1      40.968  19.076  25.751  1.00  0.00    -0.352 N 
ATOM     25  C   UNL A   1      42.259  19.571  25.658  1.00  0.00     0.251 C 
ATOM     26  H   UNL A   1      40.859  18.114  25.581  1.00  0.00     0.163 HD
ATOM     27  O   UNL A   1      43.123  18.974  25.049  1.00  0.00    -0.269 OA
BRANCH  25  28
ATOM     28  C   UNL A   1      42.541  20.859  26.316  1.00  0.00     0.039 A 
ATOM     29  C   UNL A   1      42.689  22.044  25.595  1.00  0.00     0.014 A 
ATOM     30  C   UNL A   1      42.562  20.862  27.705  1.00  0.00     0.014 A 
ATOM     31  C   UNL A   1      42.781  23.236  26.305  1.00  0.00     0.010 A 
ATOM     32  C   UNL A   1      42.366  22.032  28.372  1.00  0.00     0.010 A 
ATOM     33  C   UNL A   1      42.591  23.218  27.699  1.00  0.00    -0.014 A 
BRANCH  33  34
ATOM     34  C   UNL A   1      42.514  24.440  28.482  1.00  0.00     0.031 A 
ATOM     35  C   UNL A   1      41.312  25.243  28.172  1.00  0.00     0.074 A 
ATOM     36  C   UNL A   1      43.339  24.696  29.523  1.00  0.00     0.049 A 
ATOM     37  N   UNL A   1      41.264  26.326  27.475  1.00  0.00    -0.248 NA
ATOM     38  C   UNL A   1      39.986  24.687  28.492  1.00  0.00     0.031 C 
ATOM     39  C   UNL A   1      44.340  23.798  30.123  1.00  0.00     0.029 A 
ATOM     40  N   UNL A   1      43.398  25.785  30.343  1.00  0.00    -0.354 N 
ATOM     41  C   UNL A   1      39.936  26.737  27.520  1.00  0.00     0.074 A 
ATOM     42  C   UNL A   1      39.177  25.587  27.925  1.00  0.00     0.031 C 
ATOM     43  C   UNL A   1      44.720  24.268  31.329  1.00  0.00     0.029 A 
ATOM     44  C   UNL A   1      44.154  25.591  31.498  1.00  0.00     0.049 A 
ATOM     45  H   UNL A   1      42.944  26.634  30.137  1.00  0.00     0.167 HD
ATOM     46  C   UNL A   1      39.652  28.068  27.577  1.00  0.00     0.037 A 
ATOM     47  C   UNL A   1      44.316  26.465  32.520  1.00  0.00     0.037 A 
ATOM     48  C   UNL A   1      40.838  28.836  27.282  1.00  0.00     0.049 A 
ATOM     49  C   UNL A   1      44.004  27.812  31.996  1.00  0.00     0.074 A 
ATOM     50  C   UNL A   1      41.573  29.162  26.163  1.00  0.00     0.029 A 
ATOM     51  N   UNL A   1      41.651  29.014  28.371  1.00  0.00    -0.354 N 
ATOM     52  N   UNL A   1      44.733  28.412  31.096  1.00  0.00    -0.248 NA
ATOM     53  C   UNL A   1      42.661  28.351  32.176  1.00  0.00     0.031 C 
ATOM     54  C   UNL A   1      42.901  29.422  26.618  1.00  0.00     0.029 A 
ATOM     55  C   UNL A   1      42.936  29.305  28.005  1.00  0.00     0.049 A 
ATOM     56  H   UNL A   1      41.346  28.941  29.304  1.00  0.00     0.167 HD
ATOM     57  C   UNL A   1      43.816  29.086  30.314  1.00  0.00     0.074 A 
ATOM     58  C   UNL A   1      42.602  29.163  31.117  1.00  0.00     0.031 C 
ATOM     59  C   UNL A   1      44.009  29.207  28.968  1.00  0.00     0.037 A 
BRANCH  46  60
ATOM     60  C   UNL A   1      38.534  28.693  28.388  1.00  0.00     0.064 A 
ATOM     61  C   UNL A   1      37.803  29.758  27.816  1.00  0.00     0.173 A 
ATOM     62  C   UNL A   1      38.364  28.529  29.780  1.00  0.00     0.173 A 
ATOM     63  F   UNL A   1      37.893  30.019  26.503  1.00  0.00    -0.203 F 
ATOM     64  C   UNL A   1      37.035  30.632  28.589  1.00  0.00     0.198 A 
ATOM     65  C   UNL A   1      37.558  29.375  30.541  1.00  0.00     0.198 A 
ATOM     66  F   UNL A   1      39.048  27.625  30.486  1.00  0.00    -0.203 F 
ATOM     67  F   UNL A   1      36.460  31.699  28.017  1.00  0.00    -0.200 F 
ATOM     68  C   UNL A   1      36.920  30.445  29.953  1.00  0.00     0.200 A 
ATOM     69  F   UNL A   1      37.478  29.189  31.867  1.00  0.00    -0.200 F 
ATOM     70  F   UNL A   1      36.235  31.315  30.708  1.00  0.00    -0.200 F 
ENDBRANCH  46  60
BRANCH  47  71
ATOM     71  C   UNL A   1      44.502  26.194  33.962  1.00  0.00     0.064 A 
ATOM     72  C   UNL A   1      43.428  25.826  34.786  1.00  0.00     0.173 A 
ATOM     73  C   UNL A   1      45.794  26.006  34.490  1.00  0.00     0.173 A 
ATOM     74  F   UNL A   1      42.169  25.935  34.340  1.00  0.00    -0.203 F 
ATOM     75  C   UNL A   1      43.634  25.269  36.054  1.00  0.00     0.198 A 
ATOM     76  C   UNL A   1      45.999  25.450  35.755  1.00  0.00     0.198 A 
ATOM     77  F   UNL A   1      46.880  26.266  33.746  1.00  0.00    -0.203 F 
ATOM     78  F   UNL A   1      42.585  24.869  36.787  1.00  0.00    -0.200 F 
ATOM     79  C   UNL A   1      44.919  25.068  36.531  1.00  0.00     0.200 A 
ATOM     80  F   UNL A   1      47.247  25.221  36.186  1.00  0.00    -0.200 F 
ATOM     81  F   UNL A   1      45.118  24.469  37.712  1.00  0.00    -0.200 F 
ENDBRANCH  47  71
BRANCH  59  82
ATOM     82  C   UNL A   1      45.412  29.092  28.460  1.00  0.00     0.064 A 
ATOM     83  C   UNL A   1      46.390  30.093  28.566  1.00  0.00     0.173 A 
ATOM     84  C   UNL A   1      45.796  27.868  27.897  1.00  0.00     0.173 A 
ATOM     85  F   UNL A   1      46.117  31.264  29.157  1.00  0.00    -0.203 F 
ATOM     86  C   UNL A   1      47.685  29.885  28.095  1.00  0.00     0.198 A 
ATOM     87  C   UNL A   1      47.097  27.649  27.462  1.00  0.00     0.198 A 
ATOM     88  F   UNL A   1      44.908  26.863  27.806  1.00  0.00    -0.203 F 
ATOM     89  F   UNL A   1      48.601  30.860  28.189  1.00  0.00    -0.200 F 
ATOM     90  C   UNL A   1      48.038  28.661  27.548  1.00  0.00     0.200 A 
ATOM     91  F   UNL A   1      47.441  26.449  26.973  1.00  0.00    -0.200 F 
ATOM     92  F   UNL A   1      49.292  28.447  27.124  1.00  0.00    -0.200 F 
ENDBRANCH  59  82
ENDBRANCH  33  34
ENDBRANCH  25  28
ENDBRANCH  23  24
ENDBRANCH   1  23
TORSDOF 12
ENDMDL
MODEL 3
REMARK VINA RESULT:     -12.3      5.382      9.517
REMARK SMILES Cc1c(C(=O)NCCCNC(=O)c2ccc(-c3c4nc(c(-c5c(F)c(F)c(F)c(F)c5F)c5ccc([nH]5)c(-c5c(F)c(F)c(F)c(F)c5F)c5nc(c(-c6c(F)c(F)c(F)c(F)c6F)c6ccc3[nH]6)C=C5)C=C4)cc2)nnn1-c1ccc(Cl)cc1[N+](=O)[O-]
REMARK SMILES IDX 8 1 7 2 6 3 4 4 5 5 3 7 1 8 2 9 78 10 76 11 77 12 79 13
REMARK SMILES IDX 80 14 85 15 81 16 84 17 82 18 83 19 86 20 87 21 88 22 9 23
REMARK SMILES IDX 10 24 11 25 12 27 13 28 14 29 75 30 15 31 74 32 16 33 17 34
REMARK SMILES IDX 18 35 68 36 19 37 73 38 67 39 69 40 20 41 72 42 66 43 65 44
REMARK SMILES IDX 21 46 53 47 33 48 52 49 34 50 37 51 51 52 70 53 35 54 36 55
REMARK SMILES IDX 50 57 71 58 38 59 22 60 23 61 31 62 24 63 25 64 29 65 32 66
REMARK SMILES IDX 26 67 27 68 30 69 28 70 54 71 55 72 63 73 56 74 57 75 61 76
REMARK SMILES IDX 64 77 58 78 59 79 62 80 60 81 39 82 40 83 48 84 41 85 42 86
REMARK SMILES IDX 46 87 49 88 43 89 44 90 47 91 45 92
REMARK H PARENT 6 6 10 26 69 45 37 56
REMARK Flexibility Score: inf
ROOT
ATOM      1  C   UNL A   1      38.364  21.488  25.420  1.00  0.00     0.042 C 
ENDROOT
BRANCH   1   2
ATOM      2  C   UNL A   1      37.043  22.231  25.183  1.00  0.00     0.118 C 
BRANCH   2   3
ATOM      3  N   UNL A   1      36.044  21.834  26.150  1.00  0.00    -0.351 N 
ATOM      4  C   UNL A   1      34.800  22.325  26.461  1.00  0.00     0.273 C 
ATOM      5  O   UNL A   1      34.214  21.712  27.359  1.00  0.00    -0.267 OA
ATOM      6  H   UNL A   1      36.309  21.058  26.696  1.00  0.00     0.163 HD
BRANCH   4   7
ATOM      7  C   UNL A   1      34.154  23.443  25.764  1.00  0.00     0.173 A 
ATOM      8  C   UNL A   1      32.026  22.756  24.290  1.00  0.00     0.069 C 
ATOM      9  C   UNL A   1      33.014  23.611  24.983  1.00  0.00     0.075 A 
ATOM     10  N   UNL A   1      32.942  24.985  24.816  1.00  0.00    -0.210 N 
ATOM     11  N   UNL A   1      34.833  24.657  25.750  1.00  0.00    -0.124 NA
ATOM     12  N   UNL A   1      34.130  25.545  25.067  1.00  0.00    -0.061 NA
BRANCH  10  13
ATOM     13  C   UNL A   1      31.902  25.684  24.178  1.00  0.00     0.144 A 
ATOM     14  C   UNL A   1      30.808  26.068  24.966  1.00  0.00     0.037 A 
ATOM     15  C   UNL A   1      32.039  26.175  22.867  1.00  0.00     0.296 A 
ATOM     16  C   UNL A   1      29.884  26.982  24.455  1.00  0.00     0.023 A 
ATOM     17  C   UNL A   1      31.094  27.074  22.353  1.00  0.00     0.108 A 
ATOM     18  C   UNL A   1      30.033  27.482  23.160  1.00  0.00     0.048 A 
ATOM     19  Cl  UNL A   1      28.906  28.631  22.557  1.00  0.00    -0.084 Cl
BRANCH  15  20
ATOM     20  N   UNL A   1      33.140  25.765  21.986  1.00  0.00     0.065 N 
ATOM     21  O   UNL A   1      34.027  26.601  21.763  1.00  0.00    -0.258 OA
ATOM     22  O   UNL A   1      33.130  24.615  21.535  1.00  0.00    -0.258 OA
ENDBRANCH  15  20
ENDBRANCH  10  13
ENDBRANCH   4   7
ENDBRANCH   2   3
ENDBRANCH   1   2
BRANCH   1  23
ATOM     23  C   UNL A   1      39.275  22.185  26.393  1.00  0.00     0.118 C 
BRANCH  23  24
ATOM     24  N   UNL A   1      40.681  22.080  26.004  1.00  0.00    -0.352 N 
ATOM     25  C   UNL A   1      41.632  23.088  25.987  1.00  0.00     0.251 C 
ATOM     26  H   UNL A   1      40.987  21.189  25.721  1.00  0.00     0.163 HD
ATOM     27  O   UNL A   1      42.645  22.991  25.324  1.00  0.00    -0.269 OA
BRANCH  25  28
ATOM     28  C   UNL A   1      41.363  24.290  26.796  1.00  0.00     0.039 A 
ATOM     29  C   UNL A   1      41.840  24.430  28.098  1.00  0.00     0.014 A 
ATOM     30  C   UNL A   1      40.687  25.328  26.168  1.00  0.00     0.014 A 
ATOM     31  C   UNL A   1      41.688  25.663  28.723  1.00  0.00     0.010 A 
ATOM     32  C   UNL A   1      40.795  26.591  26.665  1.00  0.00     0.010 A 
ATOM     33  C   UNL A   1      41.185  26.747  27.982  1.00  0.00    -0.014 A 
BRANCH  33  34
ATOM     34  C   UNL A   1      41.148  28.097  28.520  1.00  0.00     0.031 A 
ATOM     35  C   UNL A   1      42.242  28.948  28.003  1.00  0.00     0.074 A 
ATOM     36  C   UNL A   1      40.105  28.571  29.239  1.00  0.00     0.049 A 
ATOM     37  N   UNL A   1      43.307  29.305  28.635  1.00  0.00    -0.248 NA
ATOM     38  C   UNL A   1      42.267  29.278  26.568  1.00  0.00     0.031 C 
ATOM     39  C   UNL A   1      38.819  27.907  29.507  1.00  0.00     0.029 A 
ATOM     40  N   UNL A   1      39.924  29.796  29.811  1.00  0.00    -0.354 N 
ATOM     41  C   UNL A   1      43.991  30.145  27.762  1.00  0.00     0.074 A 
ATOM     42  C   UNL A   1      43.451  29.887  26.456  1.00  0.00     0.031 C 
ATOM     43  C   UNL A   1      37.921  28.805  29.963  1.00  0.00     0.029 A 
ATOM     44  C   UNL A   1      38.614  30.052  30.213  1.00  0.00     0.049 A 
ATOM     45  H   UNL A   1      40.656  30.444  29.929  1.00  0.00     0.167 HD
ATOM     46  C   UNL A   1      44.665  31.219  28.262  1.00  0.00     0.037 A 
ATOM     47  C   UNL A   1      38.133  31.207  30.731  1.00  0.00     0.037 A 
ATOM     48  C   UNL A   1      44.772  31.107  29.697  1.00  0.00     0.049 A 
ATOM     49  C   UNL A   1      39.287  31.957  31.273  1.00  0.00     0.074 A 
ATOM     50  C   UNL A   1      45.515  30.374  30.595  1.00  0.00     0.029 A 
ATOM     51  N   UNL A   1      43.661  31.560  30.359  1.00  0.00    -0.354 N 
ATOM     52  N   UNL A   1      39.983  31.547  32.298  1.00  0.00    -0.248 NA
ATOM     53  C   UNL A   1      39.927  32.972  30.446  1.00  0.00     0.031 C 
ATOM     54  C   UNL A   1      44.738  30.299  31.791  1.00  0.00     0.029 A 
ATOM     55  C   UNL A   1      43.568  31.034  31.617  1.00  0.00     0.049 A 
ATOM     56  H   UNL A   1      43.007  32.187  29.973  1.00  0.00     0.167 HD
ATOM     57  C   UNL A   1      41.279  31.913  31.993  1.00  0.00     0.074 A 
ATOM     58  C   UNL A   1      41.162  32.928  30.954  1.00  0.00     0.031 C 
ATOM     59  C   UNL A   1      42.327  31.116  32.353  1.00  0.00     0.037 A 
BRANCH  46  60
ATOM     60  C   UNL A   1      44.752  32.583  27.605  1.00  0.00     0.064 A 
ATOM     61  C   UNL A   1      45.945  32.930  26.933  1.00  0.00     0.173 A 
ATOM     62  C   UNL A   1      43.880  33.661  27.873  1.00  0.00     0.173 A 
ATOM     63  F   UNL A   1      46.857  31.992  26.634  1.00  0.00    -0.203 F 
ATOM     64  C   UNL A   1      46.271  34.255  26.635  1.00  0.00     0.198 A 
ATOM     65  C   UNL A   1      44.187  34.976  27.530  1.00  0.00     0.198 A 
ATOM     66  F   UNL A   1      42.752  33.515  28.574  1.00  0.00    -0.203 F 
ATOM     67  F   UNL A   1      47.469  34.545  26.108  1.00  0.00    -0.200 F 
ATOM     68  C   UNL A   1      45.395  35.279  26.940  1.00  0.00     0.200 A 
ATOM     69  F   UNL A   1      43.333  35.957  27.857  1.00  0.00    -0.200 F 
ATOM     70  F   UNL A   1      45.728  36.556  26.711  1.00  0.00    -0.200 F 
ENDBRANCH  46  60
BRANCH  47  71
ATOM     71  C   UNL A   1      36.788  31.807  30.591  1.00  0.00     0.064 A 
ATOM     72  C   UNL A   1      35.917  31.922  31.685  1.00  0.00     0.173 A 
ATOM     73  C   UNL A   1      36.454  32.546  29.439  1.00  0.00     0.173 A 
ATOM     74  F   UNL A   1      36.187  31.282  32.831  1.00  0.00    -0.203 F 
ATOM     75  C   UNL A   1      34.793  32.756  31.642  1.00  0.00     0.198 A 
ATOM     76  C   UNL A   1      35.334  33.378  29.398  1.00  0.00     0.198 A 
ATOM     77  F   UNL A   1      37.267  32.549  28.372  1.00  0.00    -0.203 F 
ATOM     78  F   UNL A   1      34.018  32.891  32.728  1.00  0.00    -0.200 F 
ATOM     79  C   UNL A   1      34.511  33.494  30.504  1.00  0.00     0.200 A 
ATOM     80  F   UNL A   1      35.096  34.119  28.306  1.00  0.00    -0.200 F 
ATOM     81  F   UNL A   1      33.477  34.345  30.487  1.00  0.00    -0.200 F 
ENDBRANCH  47  71
BRANCH  59  82
ATOM     82  C   UNL A   1      42.116  30.176  33.498  1.00  0.00     0.064 A 
ATOM     83  C   UNL A   1      41.712  28.837  33.374  1.00  0.00     0.173 A 
ATOM     84  C   UNL A   1      42.409  30.648  34.783  1.00  0.00     0.173 A 
ATOM     85  F   UNL A   1      41.483  28.294  32.171  1.00  0.00    -0.203 F 
ATOM     86  C   UNL A   1      41.574  28.022  34.497  1.00  0.00     0.198 A 
ATOM     87  C   UNL A   1      42.307  29.824  35.897  1.00  0.00     0.198 A 
ATOM     88  F   UNL A   1      42.836  31.910  34.954  1.00  0.00    -0.203 F 
ATOM     89  F   UNL A   1      41.169  26.751  34.360  1.00  0.00    -0.200 F 
ATOM     90  C   UNL A   1      41.877  28.514  35.756  1.00  0.00     0.200 A 
ATOM     91  F   UNL A   1      42.642  30.295  37.106  1.00  0.00    -0.200 F 
ATOM     92  F   UNL A   1      41.777  27.722  36.833  1.00  0.00    -0.200 F 
ENDBRANCH  59  82
ENDBRANCH  33  34
ENDBRANCH  25  28
ENDBRANCH  23  24
ENDBRANCH   1  23
TORSDOF 12
ENDMDL
