MODEL 1
REMARK VINA RESULT:     -11.9      0.000      0.000
REMARK SMILES CC(=O)c1cc(C(=O)N(CC(=O)NCCCNC(=O)c2ccc(-c3c4nc(c(-c5c(F)c(F)c(F)c(F)c5F)c5ccc([nH]5)c(-c5c(F)c(F)c(F)c(F)c5F)c5nc(c(-c6c(F)c(F)c(F)c(F)c6F)c6ccc3[nH]6)C=C5)C=C4)cc2)C(C)(C)C)n(C)c1
REMARK SMILES IDX 14 1 13 2 11 3 12 4 10 6 9 7 7 8 8 9 6 10 4 11 5 12 89 13
REMARK SMILES IDX 87 14 88 15 2 16 1 17 3 18 83 19 84 20 85 21 86 22 15 23
REMARK SMILES IDX 16 24 17 25 18 26 19 28 20 29 21 30 82 31 22 32 81 33 23 34
REMARK SMILES IDX 24 35 25 36 75 37 26 38 80 39 74 40 76 41 27 42 79 43 73 44
REMARK SMILES IDX 72 45 28 47 60 48 40 49 59 50 41 51 44 52 58 53 77 54 42 55
REMARK SMILES IDX 43 56 57 58 78 59 45 60 29 61 30 62 38 63 31 64 32 65 36 66
REMARK SMILES IDX 39 67 33 68 34 69 37 70 35 71 61 72 62 73 70 74 63 75 64 76
REMARK SMILES IDX 68 77 71 78 65 79 66 80 69 81 67 82 46 83 47 84 55 85 48 86
REMARK SMILES IDX 49 87 53 88 56 89 50 90 51 91 54 92 52 93
REMARK H PARENT 13 5 17 27 76 46 44 57
REMARK Flexibility Score: inf
ROOT
ATOM      1  C   UNL A   1      31.637  30.898  26.007  1.00  0.00     0.117 C 
ENDROOT
BRANCH   1   2
ATOM      2  N   UNL A   1      32.859  30.280  26.477  1.00  0.00    -0.354 N 
ATOM      3  C   UNL A   1      33.480  29.155  26.031  1.00  0.00     0.239 C 
ATOM      4  O   UNL A   1      34.552  28.840  26.548  1.00  0.00    -0.273 OA
ATOM      5  H   UNL A   1      33.303  30.738  27.228  1.00  0.00     0.163 HD
BRANCH   3   6
ATOM      6  C   UNL A   1      32.918  28.407  24.818  1.00  0.00     0.220 C 
BRANCH   6   7
ATOM      7  N   UNL A   1      32.084  27.211  24.977  1.00  0.00    -0.323 N 
BRANCH   7   8
ATOM      8  C   UNL A   1      32.270  26.266  26.022  1.00  0.00     0.271 C 
ATOM      9  O   UNL A   1      31.543  26.341  27.016  1.00  0.00    -0.267 OA
BRANCH   8  10
ATOM     10  C   UNL A   1      33.219  25.129  25.988  1.00  0.00     0.107 A 
ATOM     11  C   UNL A   1      35.155  24.005  25.367  1.00  0.00     0.036 A 
ATOM     12  C   UNL A   1      34.426  25.216  25.272  1.00  0.00     0.045 A 
ATOM     13  C   UNL A   1      34.384  23.192  26.164  1.00  0.00     0.097 A 
ATOM     14  N   UNL A   1      33.189  23.817  26.442  1.00  0.00    -0.346 N 
ATOM     15  C   UNL A   1      32.111  23.050  27.033  1.00  0.00     0.150 C 
BRANCH  11  16
ATOM     16  C   UNL A   1      36.431  23.605  24.771  1.00  0.00     0.161 C 
ATOM     17  C   UNL A   1      36.426  22.972  23.404  1.00  0.00     0.093 C 
ATOM     18  O   UNL A   1      37.497  23.817  25.350  1.00  0.00    -0.294 OA
ENDBRANCH  11  16
ENDBRANCH   8  10
ENDBRANCH   7   8
BRANCH   7  19
ATOM     19  C   UNL A   1      31.026  26.923  23.912  1.00  0.00     0.035 C 
ATOM     20  C   UNL A   1      30.295  28.217  23.495  1.00  0.00     0.034 C 
ATOM     21  C   UNL A   1      31.643  26.259  22.653  1.00  0.00     0.034 C 
ATOM     22  C   UNL A   1      29.926  25.932  24.376  1.00  0.00     0.034 C 
ENDBRANCH   7  19
ENDBRANCH   6   7
ENDBRANCH   3   6
ENDBRANCH   1   2
BRANCH   1  23
ATOM     23  C   UNL A   1      31.364  32.214  26.712  1.00  0.00     0.042 C 
BRANCH  23  24
ATOM     24  C   UNL A   1      32.623  32.828  27.304  1.00  0.00     0.118 C 
BRANCH  24  25
ATOM     25  N   UNL A   1      32.439  34.239  27.613  1.00  0.00    -0.352 N 
ATOM     26  C   UNL A   1      33.005  34.982  28.617  1.00  0.00     0.251 C 
ATOM     27  H   UNL A   1      31.824  34.727  27.019  1.00  0.00     0.163 HD
ATOM     28  O   UNL A   1      32.556  36.084  28.900  1.00  0.00    -0.269 OA
BRANCH  26  29
ATOM     29  C   UNL A   1      34.152  34.427  29.360  1.00  0.00     0.039 A 
ATOM     30  C   UNL A   1      33.920  33.753  30.559  1.00  0.00     0.014 A 
ATOM     31  C   UNL A   1      35.451  34.571  28.864  1.00  0.00     0.014 A 
ATOM     32  C   UNL A   1      34.993  33.182  31.241  1.00  0.00     0.010 A 
ATOM     33  C   UNL A   1      36.504  33.924  29.494  1.00  0.00     0.010 A 
ATOM     34  C   UNL A   1      36.288  33.237  30.698  1.00  0.00    -0.014 A 
BRANCH  34  35
ATOM     35  C   UNL A   1      37.433  32.591  31.381  1.00  0.00     0.031 A 
ATOM     36  C   UNL A   1      38.139  31.434  30.737  1.00  0.00     0.074 A 
ATOM     37  C   UNL A   1      37.790  33.007  32.611  1.00  0.00     0.049 A 
ATOM     38  N   UNL A   1      39.127  30.707  31.195  1.00  0.00    -0.248 NA
ATOM     39  C   UNL A   1      37.646  31.012  29.417  1.00  0.00     0.031 C 
ATOM     40  C   UNL A   1      37.135  34.078  33.363  1.00  0.00     0.029 A 
ATOM     41  N   UNL A   1      38.783  32.569  33.449  1.00  0.00    -0.354 N 
ATOM     42  C   UNL A   1      39.360  29.737  30.229  1.00  0.00     0.074 A 
ATOM     43  C   UNL A   1      38.370  29.926  29.192  1.00  0.00     0.031 C 
ATOM     44  C   UNL A   1      37.759  34.231  34.540  1.00  0.00     0.029 A 
ATOM     45  C   UNL A   1      38.829  33.244  34.643  1.00  0.00     0.049 A 
ATOM     46  H   UNL A   1      39.403  31.841  33.217  1.00  0.00     0.167 HD
ATOM     47  C   UNL A   1      40.327  28.789  30.200  1.00  0.00     0.037 A 
ATOM     48  C   UNL A   1      39.640  33.079  35.706  1.00  0.00     0.037 A 
ATOM     49  C   UNL A   1      41.319  28.623  31.230  1.00  0.00     0.049 A 
ATOM     50  C   UNL A   1      40.712  32.027  35.650  1.00  0.00     0.074 A 
ATOM     51  C   UNL A   1      42.391  27.750  31.263  1.00  0.00     0.029 A 
ATOM     52  N   UNL A   1      41.350  29.340  32.419  1.00  0.00    -0.354 N 
ATOM     53  N   UNL A   1      40.983  31.173  34.693  1.00  0.00    -0.248 NA
ATOM     54  C   UNL A   1      41.597  31.923  36.818  1.00  0.00     0.031 C 
ATOM     55  C   UNL A   1      43.033  27.893  32.498  1.00  0.00     0.029 A 
ATOM     56  C   UNL A   1      42.403  28.904  33.208  1.00  0.00     0.049 A 
ATOM     57  H   UNL A   1      40.718  30.054  32.664  1.00  0.00     0.167 HD
ATOM     58  C   UNL A   1      42.081  30.444  35.131  1.00  0.00     0.074 A 
ATOM     59  C   UNL A   1      42.435  30.970  36.433  1.00  0.00     0.031 C 
ATOM     60  C   UNL A   1      42.736  29.432  34.509  1.00  0.00     0.037 A 
BRANCH  47  61
ATOM     61  C   UNL A   1      40.344  27.855  29.022  1.00  0.00     0.064 A 
ATOM     62  C   UNL A   1      41.092  28.131  27.866  1.00  0.00     0.173 A 
ATOM     63  C   UNL A   1      39.601  26.666  29.049  1.00  0.00     0.173 A 
ATOM     64  F   UNL A   1      41.814  29.259  27.781  1.00  0.00    -0.203 F 
ATOM     65  C   UNL A   1      41.057  27.278  26.766  1.00  0.00     0.198 A 
ATOM     66  C   UNL A   1      39.598  25.796  27.962  1.00  0.00     0.198 A 
ATOM     67  F   UNL A   1      38.872  26.347  30.129  1.00  0.00    -0.203 F 
ATOM     68  F   UNL A   1      41.721  27.600  25.648  1.00  0.00    -0.200 F 
ATOM     69  C   UNL A   1      40.314  26.109  26.817  1.00  0.00     0.200 A 
ATOM     70  F   UNL A   1      38.891  24.658  28.018  1.00  0.00    -0.200 F 
ATOM     71  F   UNL A   1      40.278  25.288  25.757  1.00  0.00    -0.200 F 
ENDBRANCH  47  61
BRANCH  48  72
ATOM     72  C   UNL A   1      39.473  33.956  36.893  1.00  0.00     0.064 A 
ATOM     73  C   UNL A   1      38.749  33.525  38.012  1.00  0.00     0.173 A 
ATOM     74  C   UNL A   1      40.070  35.225  36.949  1.00  0.00     0.173 A 
ATOM     75  F   UNL A   1      38.147  32.327  38.000  1.00  0.00    -0.203 F 
ATOM     76  C   UNL A   1      38.619  34.335  39.139  1.00  0.00     0.198 A 
ATOM     77  C   UNL A   1      39.962  36.021  38.086  1.00  0.00     0.198 A 
ATOM     78  F   UNL A   1      40.781  35.679  35.907  1.00  0.00    -0.203 F 
ATOM     79  F   UNL A   1      37.894  33.912  40.185  1.00  0.00    -0.200 F 
ATOM     80  C   UNL A   1      39.233  35.577  39.179  1.00  0.00     0.200 A 
ATOM     81  F   UNL A   1      40.574  37.212  38.128  1.00  0.00    -0.200 F 
ATOM     82  F   UNL A   1      39.121  36.347  40.270  1.00  0.00    -0.200 F 
ENDBRANCH  48  72
BRANCH  60  83
ATOM     83  C   UNL A   1      43.918  28.839  35.221  1.00  0.00     0.064 A 
ATOM     84  C   UNL A   1      45.220  29.322  35.019  1.00  0.00     0.173 A 
ATOM     85  C   UNL A   1      43.740  27.800  36.148  1.00  0.00     0.173 A 
ATOM     86  F   UNL A   1      45.446  30.304  34.135  1.00  0.00    -0.203 F 
ATOM     87  C   UNL A   1      46.302  28.768  35.700  1.00  0.00     0.198 A 
ATOM     88  C   UNL A   1      44.819  27.273  36.851  1.00  0.00     0.198 A 
ATOM     89  F   UNL A   1      42.515  27.306  36.383  1.00  0.00    -0.203 F 
ATOM     90  F   UNL A   1      47.542  29.211  35.453  1.00  0.00    -0.200 F 
ATOM     91  C   UNL A   1      46.100  27.751  36.620  1.00  0.00     0.200 A 
ATOM     92  F   UNL A   1      44.619  26.301  37.752  1.00  0.00    -0.200 F 
ATOM     93  F   UNL A   1      47.141  27.226  37.281  1.00  0.00    -0.200 F 
ENDBRANCH  60  83
ENDBRANCH  34  35
ENDBRANCH  26  29
ENDBRANCH  24  25
ENDBRANCH  23  24
ENDBRANCH   1  23
TORSDOF 15
ENDMDL
MODEL 2
REMARK VINA RESULT:     -11.8      5.626     11.267
REMARK SMILES CC(=O)c1cc(C(=O)N(CC(=O)NCCCNC(=O)c2ccc(-c3c4nc(c(-c5c(F)c(F)c(F)c(F)c5F)c5ccc([nH]5)c(-c5c(F)c(F)c(F)c(F)c5F)c5nc(c(-c6c(F)c(F)c(F)c(F)c6F)c6ccc3[nH]6)C=C5)C=C4)cc2)C(C)(C)C)n(C)c1
REMARK SMILES IDX 14 1 13 2 11 3 12 4 10 6 9 7 7 8 8 9 6 10 4 11 5 12 89 13
REMARK SMILES IDX 87 14 88 15 2 16 1 17 3 18 83 19 84 20 85 21 86 22 15 23
REMARK SMILES IDX 16 24 17 25 18 26 19 28 20 29 21 30 82 31 22 32 81 33 23 34
REMARK SMILES IDX 24 35 25 36 75 37 26 38 80 39 74 40 76 41 27 42 79 43 73 44
REMARK SMILES IDX 72 45 28 47 60 48 40 49 59 50 41 51 44 52 58 53 77 54 42 55
REMARK SMILES IDX 43 56 57 58 78 59 45 60 29 61 30 62 38 63 31 64 32 65 36 66
REMARK SMILES IDX 39 67 33 68 34 69 37 70 35 71 61 72 62 73 70 74 63 75 64 76
REMARK SMILES IDX 68 77 71 78 65 79 66 80 69 81 67 82 46 83 47 84 55 85 48 86
REMARK SMILES IDX 49 87 53 88 56 89 50 90 51 91 54 92 52 93
REMARK H PARENT 13 5 17 27 76 46 44 57
REMARK Flexibility Score: inf
ROOT
ATOM      1  C   UNL A   1      37.405  20.691  24.526  1.00  0.00     0.117 C 
ENDROOT
BRANCH   1   2
ATOM      2  N   UNL A   1      37.792  21.956  25.115  1.00  0.00    -0.354 N 
ATOM      3  C   UNL A   1      37.021  22.879  25.751  1.00  0.00     0.239 C 
ATOM      4  O   UNL A   1      37.577  23.870  26.228  1.00  0.00    -0.273 OA
ATOM      5  H   UNL A   1      38.749  22.181  25.045  1.00  0.00     0.163 HD
BRANCH   3   6
ATOM      6  C   UNL A   1      35.535  22.597  25.985  1.00  0.00     0.220 C 
BRANCH   6   7
ATOM      7  N   UNL A   1      34.539  22.821  24.931  1.00  0.00    -0.323 N 
BRANCH   7   8
ATOM      8  C   UNL A   1      34.608  23.903  24.013  1.00  0.00     0.271 C 
ATOM      9  O   UNL A   1      35.084  23.692  22.894  1.00  0.00    -0.267 OA
BRANCH   8  10
ATOM     10  C   UNL A   1      34.075  25.264  24.253  1.00  0.00     0.107 A 
ATOM     11  C   UNL A   1      33.463  27.102  25.535  1.00  0.00     0.036 A 
ATOM     12  C   UNL A   1      34.028  25.803  25.551  1.00  0.00     0.045 A 
ATOM     13  C   UNL A   1      33.186  27.350  24.211  1.00  0.00     0.097 A 
ATOM     14  N   UNL A   1      33.447  26.221  23.466  1.00  0.00    -0.346 N 
ATOM     15  C   UNL A   1      32.977  26.153  22.098  1.00  0.00     0.150 C 
BRANCH  11  16
ATOM     16  C   UNL A   1      33.175  28.035  26.626  1.00  0.00     0.161 C 
ATOM     17  C   UNL A   1      31.739  28.274  27.016  1.00  0.00     0.093 C 
ATOM     18  O   UNL A   1      34.084  28.588  27.247  1.00  0.00    -0.294 OA
ENDBRANCH  11  16
ENDBRANCH   8  10
ENDBRANCH   7   8
BRANCH   7  19
ATOM     19  C   UNL A   1      33.321  21.898  24.882  1.00  0.00     0.035 C 
ATOM     20  C   UNL A   1      32.352  22.200  26.045  1.00  0.00     0.034 C 
ATOM     21  C   UNL A   1      32.558  22.023  23.538  1.00  0.00     0.034 C 
ATOM     22  C   UNL A   1      33.675  20.391  24.991  1.00  0.00     0.034 C 
ENDBRANCH   7  19
ENDBRANCH   6   7
ENDBRANCH   3   6
ENDBRANCH   1   2
BRANCH   1  23
ATOM     23  C   UNL A   1      38.291  19.554  25.003  1.00  0.00     0.042 C 
BRANCH  23  24
ATOM     24  C   UNL A   1      39.429  20.036  25.889  1.00  0.00     0.118 C 
BRANCH  24  25
ATOM     25  N   UNL A   1      40.463  19.021  26.035  1.00  0.00    -0.352 N 
ATOM     26  C   UNL A   1      41.821  19.183  26.126  1.00  0.00     0.251 C 
ATOM     27  H   UNL A   1      40.143  18.091  26.075  1.00  0.00     0.163 HD
ATOM     28  O   UNL A   1      42.570  18.225  25.989  1.00  0.00    -0.269 OA
BRANCH  26  29
ATOM     29  C   UNL A   1      42.368  20.530  26.379  1.00  0.00     0.039 A 
ATOM     30  C   UNL A   1      42.814  21.293  25.300  1.00  0.00     0.014 A 
ATOM     31  C   UNL A   1      42.432  21.034  27.681  1.00  0.00     0.014 A 
ATOM     32  C   UNL A   1      43.284  22.585  25.524  1.00  0.00     0.010 A 
ATOM     33  C   UNL A   1      42.813  22.351  27.892  1.00  0.00     0.010 A 
ATOM     34  C   UNL A   1      43.258  23.134  26.817  1.00  0.00    -0.014 A 
BRANCH  34  35
ATOM     35  C   UNL A   1      43.705  24.525  27.068  1.00  0.00     0.031 A 
ATOM     36  C   UNL A   1      42.725  25.556  27.548  1.00  0.00     0.074 A 
ATOM     37  C   UNL A   1      44.978  24.869  26.798  1.00  0.00     0.049 A 
ATOM     38  N   UNL A   1      42.911  26.831  27.777  1.00  0.00    -0.248 NA
ATOM     39  C   UNL A   1      41.343  25.102  27.763  1.00  0.00     0.031 C 
ATOM     40  C   UNL A   1      46.002  23.969  26.267  1.00  0.00     0.029 A 
ATOM     41  N   UNL A   1      45.624  26.072  26.922  1.00  0.00    -0.354 N 
ATOM     42  C   UNL A   1      41.669  27.331  28.146  1.00  0.00     0.074 A 
ATOM     43  C   UNL A   1      40.726  26.239  28.047  1.00  0.00     0.031 C 
ATOM     44  C   UNL A   1      47.153  24.644  26.134  1.00  0.00     0.029 A 
ATOM     45  C   UNL A   1      46.938  26.032  26.531  1.00  0.00     0.049 A 
ATOM     46  H   UNL A   1      45.186  26.888  27.260  1.00  0.00     0.167 HD
ATOM     47  C   UNL A   1      41.350  28.583  28.553  1.00  0.00     0.037 A 
ATOM     48  C   UNL A   1      47.865  27.008  26.489  1.00  0.00     0.037 A 
ATOM     49  C   UNL A   1      42.302  29.657  28.666  1.00  0.00     0.049 A 
ATOM     50  C   UNL A   1      47.493  28.389  26.953  1.00  0.00     0.074 A 
ATOM     51  C   UNL A   1      42.103  30.940  29.143  1.00  0.00     0.029 A 
ATOM     52  N   UNL A   1      43.633  29.575  28.281  1.00  0.00    -0.354 N 
ATOM     53  N   UNL A   1      46.338  28.831  27.388  1.00  0.00    -0.248 NA
ATOM     54  C   UNL A   1      48.555  29.402  26.930  1.00  0.00     0.031 C 
ATOM     55  C   UNL A   1      43.297  31.653  28.988  1.00  0.00     0.029 A 
ATOM     56  C   UNL A   1      44.260  30.797  28.477  1.00  0.00     0.049 A 
ATOM     57  H   UNL A   1      44.069  28.769  27.922  1.00  0.00     0.167 HD
ATOM     58  C   UNL A   1      46.537  30.167  27.710  1.00  0.00     0.074 A 
ATOM     59  C   UNL A   1      47.930  30.455  27.437  1.00  0.00     0.031 C 
ATOM     60  C   UNL A   1      45.646  31.071  28.190  1.00  0.00     0.037 A 
BRANCH  47  61
ATOM     61  C   UNL A   1      39.910  28.854  28.891  1.00  0.00     0.064 A 
ATOM     62  C   UNL A   1      39.401  28.653  30.184  1.00  0.00     0.173 A 
ATOM     63  C   UNL A   1      39.026  29.320  27.907  1.00  0.00     0.173 A 
ATOM     64  F   UNL A   1      40.198  28.199  31.163  1.00  0.00    -0.203 F 
ATOM     65  C   UNL A   1      38.053  28.863  30.467  1.00  0.00     0.198 A 
ATOM     66  C   UNL A   1      37.687  29.566  28.202  1.00  0.00     0.198 A 
ATOM     67  F   UNL A   1      39.458  29.536  26.655  1.00  0.00    -0.203 F 
ATOM     68  F   UNL A   1      37.576  28.595  31.690  1.00  0.00    -0.200 F 
ATOM     69  C   UNL A   1      37.199  29.324  29.477  1.00  0.00     0.200 A 
ATOM     70  F   UNL A   1      36.866  30.026  27.247  1.00  0.00    -0.200 F 
ATOM     71  F   UNL A   1      35.901  29.524  29.748  1.00  0.00    -0.200 F 
ENDBRANCH  47  61
BRANCH  48  72
ATOM     72  C   UNL A   1      49.237  26.692  26.014  1.00  0.00     0.064 A 
ATOM     73  C   UNL A   1      50.173  26.088  26.864  1.00  0.00     0.173 A 
ATOM     74  C   UNL A   1      49.625  26.949  24.691  1.00  0.00     0.173 A 
ATOM     75  F   UNL A   1      49.854  25.838  28.142  1.00  0.00    -0.203 F 
ATOM     76  C   UNL A   1      51.450  25.763  26.410  1.00  0.00     0.198 A 
ATOM     77  C   UNL A   1      50.891  26.597  24.231  1.00  0.00     0.198 A 
ATOM     78  F   UNL A   1      48.761  27.517  23.836  1.00  0.00    -0.203 F 
ATOM     79  F   UNL A   1      52.338  25.214  27.251  1.00  0.00    -0.200 F 
ATOM     80  C   UNL A   1      51.804  26.008  25.092  1.00  0.00     0.200 A 
ATOM     81  F   UNL A   1      51.223  26.819  22.952  1.00  0.00    -0.200 F 
ATOM     82  F   UNL A   1      53.027  25.679  24.653  1.00  0.00    -0.200 F 
ENDBRANCH  48  72
BRANCH  60  83
ATOM     83  C   UNL A   1      46.157  32.456  28.472  1.00  0.00     0.064 A 
ATOM     84  C   UNL A   1      46.714  32.799  29.713  1.00  0.00     0.173 A 
ATOM     85  C   UNL A   1      46.125  33.440  27.472  1.00  0.00     0.173 A 
ATOM     86  F   UNL A   1      46.755  31.899  30.707  1.00  0.00    -0.203 F 
ATOM     87  C   UNL A   1      47.195  34.084  29.950  1.00  0.00     0.198 A 
ATOM     88  C   UNL A   1      46.638  34.713  27.702  1.00  0.00     0.198 A 
ATOM     89  F   UNL A   1      45.610  33.162  26.265  1.00  0.00    -0.203 F 
ATOM     90  F   UNL A   1      47.674  34.405  31.160  1.00  0.00    -0.200 F 
ATOM     91  C   UNL A   1      47.164  35.037  28.943  1.00  0.00     0.200 A 
ATOM     92  F   UNL A   1      46.623  35.626  26.721  1.00  0.00    -0.200 F 
ATOM     93  F   UNL A   1      47.636  36.270  29.170  1.00  0.00    -0.200 F 
ENDBRANCH  60  83
ENDBRANCH  34  35
ENDBRANCH  26  29
ENDBRANCH  24  25
ENDBRANCH  23  24
ENDBRANCH   1  23
TORSDOF 15
ENDMDL
MODEL 3
REMARK VINA RESULT:     -11.8      5.861     11.152
REMARK SMILES CC(=O)c1cc(C(=O)N(CC(=O)NCCCNC(=O)c2ccc(-c3c4nc(c(-c5c(F)c(F)c(F)c(F)c5F)c5ccc([nH]5)c(-c5c(F)c(F)c(F)c(F)c5F)c5nc(c(-c6c(F)c(F)c(F)c(F)c6F)c6ccc3[nH]6)C=C5)C=C4)cc2)C(C)(C)C)n(C)c1
REMARK SMILES IDX 14 1 13 2 11 3 12 4 10 6 9 7 7 8 8 9 6 10 4 11 5 12 89 13
REMARK SMILES IDX 87 14 88 15 2 16 1 17 3 18 83 19 84 20 85 21 86 22 15 23
REMARK SMILES IDX 16 24 17 25 18 26 19 28 20 29 21 30 82 31 22 32 81 33 23 34
REMARK SMILES IDX 24 35 25 36 75 37 26 38 80 39 74 40 76 41 27 42 79 43 73 44
REMARK SMILES IDX 72 45 28 47 60 48 40 49 59 50 41 51 44 52 58 53 77 54 42 55
REMARK SMILES IDX 43 56 57 58 78 59 45 60 29 61 30 62 38 63 31 64 32 65 36 66
REMARK SMILES IDX 39 67 33 68 34 69 37 70 35 71 61 72 62 73 70 74 63 75 64 76
REMARK SMILES IDX 68 77 71 78 65 79 66 80 69 81 67 82 46 83 47 84 55 85 48 86
REMARK SMILES IDX 49 87 53 88 56 89 50 90 51 91 54 92 52 93
REMARK H PARENT 13 5 17 27 76 46 44 57
REMARK Flexibility Score: inf
ROOT
ATOM      1  C   UNL A   1      37.226  20.744  24.626  1.00  0.00     0.117 C 
ENDROOT
BRANCH   1   2
ATOM      2  N   UNL A   1      37.490  21.950  25.381  1.00  0.00    -0.354 N 
ATOM      3  C   UNL A   1      36.899  23.171  25.285  1.00  0.00     0.239 C 
ATOM      4  O   UNL A   1      37.248  24.049  26.076  1.00  0.00    -0.273 OA
ATOM      5  H   UNL A   1      38.201  21.877  26.060  1.00  0.00     0.163 HD
BRANCH   3   6
ATOM      6  C   UNL A   1      35.730  23.376  24.317  1.00  0.00     0.220 C 
BRANCH   6   7
ATOM      7  N   UNL A   1      34.344  23.436  24.795  1.00  0.00    -0.323 N 
BRANCH   7   8
ATOM      8  C   UNL A   1      33.701  22.355  25.456  1.00  0.00     0.271 C 
ATOM      9  O   UNL A   1      33.379  22.501  26.639  1.00  0.00    -0.267 OA
BRANCH   8  10
ATOM     10  C   UNL A   1      33.301  21.079  24.819  1.00  0.00     0.107 A 
ATOM     11  C   UNL A   1      33.242  18.771  24.557  1.00  0.00     0.036 A 
ATOM     12  C   UNL A   1      33.730  19.846  25.341  1.00  0.00     0.045 A 
ATOM     13  C   UNL A   1      32.498  19.368  23.567  1.00  0.00     0.097 A 
ATOM     14  N   UNL A   1      32.622  20.737  23.658  1.00  0.00    -0.346 N 
ATOM     15  C   UNL A   1      32.153  21.563  22.564  1.00  0.00     0.150 C 
BRANCH  11  16
ATOM     16  C   UNL A   1      33.447  17.327  24.677  1.00  0.00     0.161 C 
ATOM     17  C   UNL A   1      34.028  16.577  23.506  1.00  0.00     0.093 C 
ATOM     18  O   UNL A   1      33.192  16.733  25.725  1.00  0.00    -0.294 OA
ENDBRANCH  11  16
ENDBRANCH   8  10
ENDBRANCH   7   8
BRANCH   7  19
ATOM     19  C   UNL A   1      33.527  24.690  24.480  1.00  0.00     0.035 C 
ATOM     20  C   UNL A   1      33.961  25.871  25.373  1.00  0.00     0.034 C 
ATOM     21  C   UNL A   1      33.657  25.103  22.991  1.00  0.00     0.034 C 
ATOM     22  C   UNL A   1      32.002  24.514  24.703  1.00  0.00     0.034 C 
ENDBRANCH   7  19
ENDBRANCH   6   7
ENDBRANCH   3   6
ENDBRANCH   1   2
BRANCH   1  23
ATOM     23  C   UNL A   1      38.172  19.620  25.009  1.00  0.00     0.042 C 
BRANCH  23  24
ATOM     24  C   UNL A   1      39.326  20.103  25.875  1.00  0.00     0.118 C 
BRANCH  24  25
ATOM     25  N   UNL A   1      40.351  19.080  26.022  1.00  0.00    -0.352 N 
ATOM     26  C   UNL A   1      41.710  19.231  26.124  1.00  0.00     0.251 C 
ATOM     27  H   UNL A   1      40.024  18.151  26.053  1.00  0.00     0.163 HD
ATOM     28  O   UNL A   1      42.453  18.269  25.985  1.00  0.00    -0.269 OA
BRANCH  26  29
ATOM     29  C   UNL A   1      42.264  20.572  26.389  1.00  0.00     0.039 A 
ATOM     30  C   UNL A   1      42.708  21.346  25.316  1.00  0.00     0.014 A 
ATOM     31  C   UNL A   1      42.337  21.061  27.697  1.00  0.00     0.014 A 
ATOM     32  C   UNL A   1      43.185  22.634  25.553  1.00  0.00     0.010 A 
ATOM     33  C   UNL A   1      42.726  22.374  27.921  1.00  0.00     0.010 A 
ATOM     34  C   UNL A   1      43.169  23.167  26.853  1.00  0.00    -0.014 A 
BRANCH  34  35
ATOM     35  C   UNL A   1      43.624  24.553  27.117  1.00  0.00     0.031 A 
ATOM     36  C   UNL A   1      42.655  25.578  27.629  1.00  0.00     0.074 A 
ATOM     37  C   UNL A   1      44.893  24.898  26.831  1.00  0.00     0.049 A 
ATOM     38  N   UNL A   1      42.847  26.850  27.875  1.00  0.00    -0.248 NA
ATOM     39  C   UNL A   1      41.274  25.125  27.861  1.00  0.00     0.031 C 
ATOM     40  C   UNL A   1      45.905  24.004  26.270  1.00  0.00     0.029 A 
ATOM     41  N   UNL A   1      45.544  26.098  26.963  1.00  0.00    -0.354 N 
ATOM     42  C   UNL A   1      41.613  27.347  28.272  1.00  0.00     0.074 A 
ATOM     43  C   UNL A   1      40.666  26.259  28.173  1.00  0.00     0.031 C 
ATOM     44  C   UNL A   1      47.056  24.678  26.127  1.00  0.00     0.029 A 
ATOM     45  C   UNL A   1      46.851  26.061  26.549  1.00  0.00     0.049 A 
ATOM     46  H   UNL A   1      45.114  26.909  27.320  1.00  0.00     0.167 HD
ATOM     47  C   UNL A   1      41.304  28.594  28.704  1.00  0.00     0.037 A 
ATOM     48  C   UNL A   1      47.780  27.035  26.507  1.00  0.00     0.037 A 
ATOM     49  C   UNL A   1      42.261  29.664  28.817  1.00  0.00     0.049 A 
ATOM     50  C   UNL A   1      47.419  28.409  26.998  1.00  0.00     0.074 A 
ATOM     51  C   UNL A   1      42.073  30.939  29.318  1.00  0.00     0.029 A 
ATOM     52  N   UNL A   1      43.585  29.584  28.409  1.00  0.00    -0.354 N 
ATOM     53  N   UNL A   1      46.272  28.848  27.459  1.00  0.00    -0.248 NA
ATOM     54  C   UNL A   1      48.483  29.421  26.973  1.00  0.00     0.031 C 
ATOM     55  C   UNL A   1      43.266  31.652  29.153  1.00  0.00     0.029 A 
ATOM     56  C   UNL A   1      44.218  30.801  28.613  1.00  0.00     0.049 A 
ATOM     57  H   UNL A   1      44.012  28.782  28.030  1.00  0.00     0.167 HD
ATOM     58  C   UNL A   1      46.481  30.178  27.799  1.00  0.00     0.074 A 
ATOM     59  C   UNL A   1      47.869  30.467  27.506  1.00  0.00     0.031 C 
ATOM     60  C   UNL A   1      45.600  31.077  28.307  1.00  0.00     0.037 A 
BRANCH  47  61
ATOM     61  C   UNL A   1      39.871  28.862  29.071  1.00  0.00     0.064 A 
ATOM     62  C   UNL A   1      39.391  28.678  30.377  1.00  0.00     0.173 A 
ATOM     63  C   UNL A   1      38.963  29.310  28.100  1.00  0.00     0.173 A 
ATOM     64  F   UNL A   1      40.213  28.242  31.344  1.00  0.00    -0.203 F 
ATOM     65  C   UNL A   1      38.050  28.886  30.687  1.00  0.00     0.198 A 
ATOM     66  C   UNL A   1      37.630  29.554  28.421  1.00  0.00     0.198 A 
ATOM     67  F   UNL A   1      39.365  29.510  26.836  1.00  0.00    -0.203 F 
ATOM     68  F   UNL A   1      37.602  28.633  31.924  1.00  0.00    -0.200 F 
ATOM     69  C   UNL A   1      37.171  29.328  29.710  1.00  0.00     0.200 A 
ATOM     70  F   UNL A   1      36.785  29.996  27.478  1.00  0.00    -0.200 F 
ATOM     71  F   UNL A   1      35.879  29.526  30.007  1.00  0.00    -0.200 F 
ENDBRANCH  47  61
BRANCH  48  72
ATOM     72  C   UNL A   1      49.142  26.723  26.004  1.00  0.00     0.064 A 
ATOM     73  C   UNL A   1      50.088  26.095  26.826  1.00  0.00     0.173 A 
ATOM     74  C   UNL A   1      49.512  27.008  24.681  1.00  0.00     0.173 A 
ATOM     75  F   UNL A   1      49.787  25.817  28.102  1.00  0.00    -0.203 F 
ATOM     76  C   UNL A   1      51.356  25.774  26.345  1.00  0.00     0.198 A 
ATOM     77  C   UNL A   1      50.769  26.661  24.195  1.00  0.00     0.198 A 
ATOM     78  F   UNL A   1      48.638  27.600  23.853  1.00  0.00    -0.203 F 
ATOM     79  F   UNL A   1      52.253  25.202  27.160  1.00  0.00    -0.200 F 
ATOM     80  C   UNL A   1      51.692  26.048  25.028  1.00  0.00     0.200 A 
ATOM     81  F   UNL A   1      51.083  26.910  22.916  1.00  0.00    -0.200 F 
ATOM     82  F   UNL A   1      52.906  25.723  24.563  1.00  0.00    -0.200 F 
ENDBRANCH  48  72
BRANCH  60  83
ATOM     83  C   UNL A   1      46.119  32.455  28.601  1.00  0.00     0.064 A 
ATOM     84  C   UNL A   1      46.048  33.489  27.654  1.00  0.00     0.173 A 
ATOM     85  C   UNL A   1      46.656  32.757  29.863  1.00  0.00     0.173 A 
ATOM     86  F   UNL A   1      45.556  33.249  26.430  1.00  0.00    -0.203 F 
ATOM     87  C   UNL A   1      46.521  34.764  27.951  1.00  0.00     0.198 A 
ATOM     88  C   UNL A   1      47.096  34.042  30.166  1.00  0.00     0.198 A 
ATOM     89  F   UNL A   1      46.740  31.808  30.807  1.00  0.00    -0.203 F 
ATOM     90  F   UNL A   1      46.491  35.721  27.013  1.00  0.00    -0.200 F 
ATOM     91  C   UNL A   1      47.036  35.042  29.208  1.00  0.00     0.200 A 
ATOM     92  F   UNL A   1      47.578  34.312  31.387  1.00  0.00    -0.200 F 
ATOM     93  F   UNL A   1      47.482  36.273  29.494  1.00  0.00    -0.200 F 
ENDBRANCH  60  83
ENDBRANCH  34  35
ENDBRANCH  26  29
ENDBRANCH  24  25
ENDBRANCH  23  24
ENDBRANCH   1  23
TORSDOF 15
ENDMDL
