MODEL 1
REMARK VINA RESULT:     -13.2      0.000      0.000
REMARK SMILES Cc1cc(Cl)cc2c1O[C@H](C(F)(F)F)C(C(=O)NCCCNC(=O)c1ccc(-c3c4nc(c(-c5c(F)c(F)c(F)c(F)c5F)c5ccc([nH]5)c(-c5c(F)c(F)c(F)c(F)c5F)c5nc(c(-c6c(F)c(F)c(F)c(F)c6F)c6ccc3[nH]6)C=C5)C=C4)cc1)=C2
REMARK SMILES IDX 20 1 19 2 18 3 16 4 17 5 15 7 1 8 2 9 3 10 8 11 4 12 7 13
REMARK SMILES IDX 9 14 5 15 6 16 88 17 10 18 11 19 12 20 13 21 14 22 21 23
REMARK SMILES IDX 22 24 23 25 24 27 25 28 26 29 87 30 27 31 86 32 28 33 29 34
REMARK SMILES IDX 30 35 80 36 31 37 85 38 79 39 81 40 32 41 84 42 78 43 77 44
REMARK SMILES IDX 33 46 65 47 45 48 64 49 46 50 49 51 63 52 82 53 47 54 48 55
REMARK SMILES IDX 62 57 83 58 50 59 34 60 35 61 43 62 36 63 37 64 41 65 44 66
REMARK SMILES IDX 38 67 39 68 42 69 40 70 66 71 67 72 75 73 68 74 69 75 73 76
REMARK SMILES IDX 76 77 70 78 71 79 74 80 72 81 51 82 52 83 60 84 53 85 54 86
REMARK SMILES IDX 58 87 61 88 55 89 56 90 59 91 57 92
REMARK H PARENT 18 6 22 26 81 45 49 56
REMARK Flexibility Score: inf
ROOT
ATOM      1  C   UNL A   1      31.382  32.387  26.499  1.00  0.00     0.042 C 
ENDROOT
BRANCH   1   2
ATOM      2  C   UNL A   1      31.367  30.872  26.371  1.00  0.00     0.118 C 
BRANCH   2   3
ATOM      3  N   UNL A   1      31.199  30.448  24.990  1.00  0.00    -0.352 N 
ATOM      4  C   UNL A   1      31.331  29.303  24.278  1.00  0.00     0.251 C 
ATOM      5  O   UNL A   1      31.072  29.398  23.076  1.00  0.00    -0.270 OA
ATOM      6  H   UNL A   1      30.908  31.195  24.417  1.00  0.00     0.163 HD
BRANCH   4   7
ATOM      7  C   UNL A   1      31.761  27.993  24.844  1.00  0.00     0.067 C 
ATOM      8  C   UNL A   1      34.316  23.757  26.187  1.00  0.00     0.048 C 
ATOM      9  C   UNL A   1      32.869  24.163  26.169  1.00  0.00    -0.007 A 
ATOM     10  C   UNL A   1      31.887  23.315  26.694  1.00  0.00     0.027 A 
ATOM     11  C   UNL A   1      32.481  25.420  25.686  1.00  0.00     0.131 A 
ATOM     12  C   UNL A   1      30.548  23.711  26.702  1.00  0.00     0.042 A 
ATOM     13  C   UNL A   1      31.140  25.820  25.689  1.00  0.00     0.019 A 
ATOM     14  O   UNL A   1      33.468  26.213  25.171  1.00  0.00    -0.475 OA
ATOM     15  Cl  UNL A   1      29.353  22.650  27.338  1.00  0.00    -0.084 Cl
ATOM     16  C   UNL A   1      30.169  24.956  26.199  1.00  0.00     0.032 A 
ATOM     17  C   UNL A   1      30.779  27.116  25.127  1.00  0.00     0.025 C 
ATOM     18  C   UNL A   1      33.189  27.634  25.123  1.00  0.00     0.314 C 
BRANCH  18  19
ATOM     19  C   UNL A   1      33.735  28.308  26.398  1.00  0.00     0.429 C 
ATOM     20  F   UNL A   1      34.843  27.657  26.835  1.00  0.00    -0.167 F 
ATOM     21  F   UNL A   1      34.106  29.594  26.189  1.00  0.00    -0.167 F 
ATOM     22  F   UNL A   1      32.842  28.316  27.411  1.00  0.00    -0.167 F 
ENDBRANCH  18  19
ENDBRANCH   4   7
ENDBRANCH   2   3
ENDBRANCH   1   2
BRANCH   1  23
ATOM     23  C   UNL A   1      32.612  32.881  27.246  1.00  0.00     0.118 C 
BRANCH  23  24
ATOM     24  N   UNL A   1      32.484  34.288  27.624  1.00  0.00    -0.352 N 
ATOM     25  C   UNL A   1      33.032  34.976  28.674  1.00  0.00     0.251 C 
ATOM     26  H   UNL A   1      31.914  34.826  27.029  1.00  0.00     0.163 HD
ATOM     27  O   UNL A   1      32.579  36.075  28.992  1.00  0.00    -0.269 OA
BRANCH  25  28
ATOM     28  C   UNL A   1      34.165  34.401  29.421  1.00  0.00     0.039 A 
ATOM     29  C   UNL A   1      33.927  33.744  30.630  1.00  0.00     0.014 A 
ATOM     30  C   UNL A   1      35.467  34.538  28.936  1.00  0.00     0.014 A 
ATOM     31  C   UNL A   1      34.996  33.171  31.319  1.00  0.00     0.010 A 
ATOM     32  C   UNL A   1      36.510  33.877  29.564  1.00  0.00     0.010 A 
ATOM     33  C   UNL A   1      36.289  33.206  30.774  1.00  0.00    -0.014 A 
BRANCH  33  34
ATOM     34  C   UNL A   1      37.438  32.580  31.467  1.00  0.00     0.031 A 
ATOM     35  C   UNL A   1      38.163  31.434  30.819  1.00  0.00     0.074 A 
ATOM     36  C   UNL A   1      37.779  32.999  32.699  1.00  0.00     0.049 A 
ATOM     37  N   UNL A   1      39.147  30.710  31.285  1.00  0.00    -0.248 NA
ATOM     38  C   UNL A   1      37.698  31.023  29.483  1.00  0.00     0.031 C 
ATOM     39  C   UNL A   1      37.108  34.065  33.443  1.00  0.00     0.029 A 
ATOM     40  N   UNL A   1      38.771  32.575  33.545  1.00  0.00    -0.354 N 
ATOM     41  C   UNL A   1      39.406  29.757  30.310  1.00  0.00     0.074 A 
ATOM     42  C   UNL A   1      38.434  29.946  29.258  1.00  0.00     0.031 C 
ATOM     43  C   UNL A   1      37.728  34.235  34.621  1.00  0.00     0.029 A 
ATOM     44  C   UNL A   1      38.813  33.264  34.732  1.00  0.00     0.049 A 
ATOM     45  H   UNL A   1      39.395  31.846  33.323  1.00  0.00     0.167 HD
ATOM     46  C   UNL A   1      40.389  28.828  30.283  1.00  0.00     0.037 A 
ATOM     47  C   UNL A   1      39.635  33.125  35.790  1.00  0.00     0.037 A 
ATOM     48  C   UNL A   1      41.373  28.674  31.320  1.00  0.00     0.049 A 
ATOM     49  C   UNL A   1      40.720  32.086  35.737  1.00  0.00     0.074 A 
ATOM     50  C   UNL A   1      42.457  27.816  31.357  1.00  0.00     0.029 A 
ATOM     51  N   UNL A   1      41.389  29.396  32.505  1.00  0.00    -0.354 N 
ATOM     52  N   UNL A   1      41.006  31.239  34.777  1.00  0.00    -0.248 NA
ATOM     53  C   UNL A   1      41.600  31.983  36.909  1.00  0.00     0.031 C 
ATOM     54  C   UNL A   1      43.096  27.977  32.590  1.00  0.00     0.029 A 
ATOM     55  C   UNL A   1      42.447  28.978  33.297  1.00  0.00     0.049 A 
ATOM     56  H   UNL A   1      40.745  30.101  32.747  1.00  0.00     0.167 HD
ATOM     57  C   UNL A   1      42.104  30.515  35.219  1.00  0.00     0.074 A 
ATOM     58  C   UNL A   1      42.447  31.037  36.527  1.00  0.00     0.031 C 
ATOM     59  C   UNL A   1      42.766  29.508  34.599  1.00  0.00     0.037 A 
BRANCH  46  60
ATOM     60  C   UNL A   1      40.457  27.916  29.093  1.00  0.00     0.064 A 
ATOM     61  C   UNL A   1      39.699  26.736  29.023  1.00  0.00     0.173 A 
ATOM     62  C   UNL A   1      41.255  28.247  27.987  1.00  0.00     0.173 A 
ATOM     63  F   UNL A   1      38.930  26.365  30.058  1.00  0.00    -0.203 F 
ATOM     64  C   UNL A   1      39.757  25.911  27.903  1.00  0.00     0.198 A 
ATOM     65  C   UNL A   1      41.285  27.437  26.856  1.00  0.00     0.198 A 
ATOM     66  F   UNL A   1      41.999  29.364  27.999  1.00  0.00    -0.203 F 
ATOM     67  F   UNL A   1      39.061  24.766  27.881  1.00  0.00    -0.200 F 
ATOM     68  C   UNL A   1      40.542  26.267  26.816  1.00  0.00     0.200 A 
ATOM     69  F   UNL A   1      42.033  27.788  25.801  1.00  0.00    -0.200 F 
ATOM     70  F   UNL A   1      40.586  25.479  25.733  1.00  0.00    -0.200 F 
ENDBRANCH  46  60
BRANCH  47  71
ATOM     71  C   UNL A   1      39.475  34.027  36.960  1.00  0.00     0.064 A 
ATOM     72  C   UNL A   1      38.747  33.620  38.087  1.00  0.00     0.173 A 
ATOM     73  C   UNL A   1      40.091  35.287  37.001  1.00  0.00     0.173 A 
ATOM     74  F   UNL A   1      38.128  32.431  38.089  1.00  0.00    -0.203 F 
ATOM     75  C   UNL A   1      38.639  34.440  39.208  1.00  0.00     0.198 A 
ATOM     76  C   UNL A   1      40.005  36.094  38.133  1.00  0.00     0.198 A 
ATOM     77  F   UNL A   1      40.806  35.720  35.952  1.00  0.00    -0.203 F 
ATOM     78  F   UNL A   1      37.918  34.036  40.263  1.00  0.00    -0.200 F 
ATOM     79  C   UNL A   1      39.277  35.671  39.235  1.00  0.00     0.200 A 
ATOM     80  F   UNL A   1      40.639  37.274  38.162  1.00  0.00    -0.200 F 
ATOM     81  F   UNL A   1      39.190  36.449  40.323  1.00  0.00    -0.200 F 
ENDBRANCH  47  71
BRANCH  59  82
ATOM     82  C   UNL A   1      43.933  28.896  35.318  1.00  0.00     0.064 A 
ATOM     83  C   UNL A   1      45.236  29.382  35.140  1.00  0.00     0.173 A 
ATOM     84  C   UNL A   1      43.733  27.879  36.263  1.00  0.00     0.173 A 
ATOM     85  F   UNL A   1      45.480  30.347  34.240  1.00  0.00    -0.203 F 
ATOM     86  C   UNL A   1      46.299  28.864  35.876  1.00  0.00     0.198 A 
ATOM     87  C   UNL A   1      44.792  27.385  37.020  1.00  0.00     0.198 A 
ATOM     88  F   UNL A   1      42.503  27.385  36.477  1.00  0.00    -0.203 F 
ATOM     89  F   UNL A   1      47.541  29.322  35.668  1.00  0.00    -0.200 F 
ATOM     90  C   UNL A   1      46.074  27.876  36.823  1.00  0.00     0.200 A 
ATOM     91  F   UNL A   1      44.570  26.445  37.947  1.00  0.00    -0.200 F 
ATOM     92  F   UNL A   1      47.094  27.395  37.547  1.00  0.00    -0.200 F 
ENDBRANCH  59  82
ENDBRANCH  33  34
ENDBRANCH  25  28
ENDBRANCH  23  24
ENDBRANCH   1  23
TORSDOF 11
ENDMDL
MODEL 2
REMARK VINA RESULT:     -13.0      1.448      2.415
REMARK SMILES Cc1cc(Cl)cc2c1O[C@H](C(F)(F)F)C(C(=O)NCCCNC(=O)c1ccc(-c3c4nc(c(-c5c(F)c(F)c(F)c(F)c5F)c5ccc([nH]5)c(-c5c(F)c(F)c(F)c(F)c5F)c5nc(c(-c6c(F)c(F)c(F)c(F)c6F)c6ccc3[nH]6)C=C5)C=C4)cc1)=C2
REMARK SMILES IDX 20 1 19 2 18 3 16 4 17 5 15 7 1 8 2 9 3 10 8 11 4 12 7 13
REMARK SMILES IDX 9 14 5 15 6 16 88 17 10 18 11 19 12 20 13 21 14 22 21 23
REMARK SMILES IDX 22 24 23 25 24 27 25 28 26 29 87 30 27 31 86 32 28 33 29 34
REMARK SMILES IDX 30 35 80 36 31 37 85 38 79 39 81 40 32 41 84 42 78 43 77 44
REMARK SMILES IDX 33 46 65 47 45 48 64 49 46 50 49 51 63 52 82 53 47 54 48 55
REMARK SMILES IDX 62 57 83 58 50 59 34 60 35 61 43 62 36 63 37 64 41 65 44 66
REMARK SMILES IDX 38 67 39 68 42 69 40 70 66 71 67 72 75 73 68 74 69 75 73 76
REMARK SMILES IDX 76 77 70 78 71 79 74 80 72 81 51 82 52 83 60 84 53 85 54 86
REMARK SMILES IDX 58 87 61 88 55 89 56 90 59 91 57 92
REMARK H PARENT 18 6 22 26 81 45 49 56
REMARK Flexibility Score: inf
ROOT
ATOM      1  C   UNL A   1      31.377  32.262  26.638  1.00  0.00     0.042 C 
ENDROOT
BRANCH   1   2
ATOM      2  C   UNL A   1      31.472  30.766  26.379  1.00  0.00     0.118 C 
BRANCH   2   3
ATOM      3  N   UNL A   1      31.147  30.434  25.000  1.00  0.00    -0.352 N 
ATOM      4  C   UNL A   1      31.076  29.318  24.238  1.00  0.00     0.251 C 
ATOM      5  O   UNL A   1      30.742  29.504  23.064  1.00  0.00    -0.270 OA
ATOM      6  H   UNL A   1      30.915  31.239  24.482  1.00  0.00     0.163 HD
BRANCH   4   7
ATOM      7  C   UNL A   1      31.371  27.938  24.717  1.00  0.00     0.067 C 
ATOM      8  C   UNL A   1      31.232  23.290  26.873  1.00  0.00     0.048 C 
ATOM      9  C   UNL A   1      32.318  24.178  26.336  1.00  0.00    -0.007 A 
ATOM     10  C   UNL A   1      33.640  23.722  26.267  1.00  0.00     0.027 A 
ATOM     11  C   UNL A   1      32.022  25.453  25.836  1.00  0.00     0.131 A 
ATOM     12  C   UNL A   1      34.639  24.542  25.738  1.00  0.00     0.042 A 
ATOM     13  C   UNL A   1      33.021  26.280  25.308  1.00  0.00     0.019 A 
ATOM     14  O   UNL A   1      30.723  25.867  25.932  1.00  0.00    -0.475 OA
ATOM     15  Cl  UNL A   1      36.260  23.970  25.675  1.00  0.00    -0.084 Cl
ATOM     16  C   UNL A   1      34.338  25.819  25.263  1.00  0.00     0.032 A 
ATOM     17  C   UNL A   1      32.673  27.620  24.849  1.00  0.00     0.025 C 
ATOM     18  C   UNL A   1      30.315  26.919  25.025  1.00  0.00     0.314 C 
BRANCH  18  19
ATOM     19  C   UNL A   1      29.702  26.294  23.755  1.00  0.00     0.429 C 
ATOM     20  F   UNL A   1      28.488  26.846  23.501  1.00  0.00    -0.167 F 
ATOM     21  F   UNL A   1      30.457  26.510  22.652  1.00  0.00    -0.167 F 
ATOM     22  F   UNL A   1      29.529  24.959  23.858  1.00  0.00    -0.167 F 
ENDBRANCH  18  19
ENDBRANCH   4   7
ENDBRANCH   2   3
ENDBRANCH   1   2
BRANCH   1  23
ATOM     23  C   UNL A   1      32.689  32.833  27.154  1.00  0.00     0.118 C 
BRANCH  23  24
ATOM     24  N   UNL A   1      32.530  34.207  27.627  1.00  0.00    -0.352 N 
ATOM     25  C   UNL A   1      33.053  34.831  28.728  1.00  0.00     0.251 C 
ATOM     26  H   UNL A   1      31.956  34.775  27.063  1.00  0.00     0.163 HD
ATOM     27  O   UNL A   1      32.575  35.896  29.117  1.00  0.00    -0.269 OA
BRANCH  25  28
ATOM     28  C   UNL A   1      34.188  34.226  29.448  1.00  0.00     0.039 A 
ATOM     29  C   UNL A   1      33.944  33.407  30.552  1.00  0.00     0.014 A 
ATOM     30  C   UNL A   1      35.497  34.494  29.044  1.00  0.00     0.014 A 
ATOM     31  C   UNL A   1      35.017  32.809  31.212  1.00  0.00     0.010 A 
ATOM     32  C   UNL A   1      36.553  33.815  29.630  1.00  0.00     0.010 A 
ATOM     33  C   UNL A   1      36.326  32.983  30.735  1.00  0.00    -0.014 A 
BRANCH  33  34
ATOM     34  C   UNL A   1      37.482  32.336  31.395  1.00  0.00     0.031 A 
ATOM     35  C   UNL A   1      38.187  31.197  30.713  1.00  0.00     0.074 A 
ATOM     36  C   UNL A   1      37.848  32.728  32.629  1.00  0.00     0.049 A 
ATOM     37  N   UNL A   1      39.174  30.458  31.147  1.00  0.00    -0.248 NA
ATOM     38  C   UNL A   1      37.695  30.815  29.378  1.00  0.00     0.031 C 
ATOM     39  C   UNL A   1      37.198  33.785  33.405  1.00  0.00     0.029 A 
ATOM     40  N   UNL A   1      38.852  32.281  33.448  1.00  0.00    -0.354 N 
ATOM     41  C   UNL A   1      39.408  29.522  30.150  1.00  0.00     0.074 A 
ATOM     42  C   UNL A   1      38.419  29.737  29.119  1.00  0.00     0.031 C 
ATOM     43  C   UNL A   1      37.841  33.928  34.575  1.00  0.00     0.029 A 
ATOM     44  C   UNL A   1      38.920  32.947  34.648  1.00  0.00     0.049 A 
ATOM     45  H   UNL A   1      39.466  31.552  33.201  1.00  0.00     0.167 HD
ATOM     46  C   UNL A   1      40.383  28.586  30.087  1.00  0.00     0.037 A 
ATOM     47  C   UNL A   1      39.760  32.782  35.688  1.00  0.00     0.037 A 
ATOM     48  C   UNL A   1      41.385  28.405  31.103  1.00  0.00     0.049 A 
ATOM     49  C   UNL A   1      40.836  31.736  35.595  1.00  0.00     0.074 A 
ATOM     50  C   UNL A   1      42.462  27.539  31.104  1.00  0.00     0.029 A 
ATOM     51  N   UNL A   1      41.427  29.104  32.301  1.00  0.00    -0.354 N 
ATOM     52  N   UNL A   1      41.098  30.906  34.615  1.00  0.00    -0.248 NA
ATOM     53  C   UNL A   1      41.736  31.605  36.749  1.00  0.00     0.031 C 
ATOM     54  C   UNL A   1      43.124  27.672  32.328  1.00  0.00     0.029 A 
ATOM     55  C   UNL A   1      42.495  28.664  33.065  1.00  0.00     0.049 A 
ATOM     56  H   UNL A   1      40.793  29.809  32.568  1.00  0.00     0.167 HD
ATOM     57  C   UNL A   1      42.199  30.166  35.023  1.00  0.00     0.074 A 
ATOM     58  C   UNL A   1      42.569  30.660  36.334  1.00  0.00     0.031 C 
ATOM     59  C   UNL A   1      42.842  29.166  34.371  1.00  0.00     0.037 A 
BRANCH  46  60
ATOM     60  C   UNL A   1      40.424  27.697  28.879  1.00  0.00     0.064 A 
ATOM     61  C   UNL A   1      41.227  27.998  27.767  1.00  0.00     0.173 A 
ATOM     62  C   UNL A   1      39.686  26.504  28.848  1.00  0.00     0.173 A 
ATOM     63  F   UNL A   1      41.942  29.133  27.738  1.00  0.00    -0.203 F 
ATOM     64  C   UNL A   1      41.270  27.153  26.662  1.00  0.00     0.198 A 
ATOM     65  C   UNL A   1      39.757  25.644  27.756  1.00  0.00     0.198 A 
ATOM     66  F   UNL A   1      38.903  26.165  29.884  1.00  0.00    -0.203 F 
ATOM     67  F   UNL A   1      42.007  27.487  25.594  1.00  0.00    -0.200 F 
ATOM     68  C   UNL A   1      40.543  25.971  26.661  1.00  0.00     0.200 A 
ATOM     69  F   UNL A   1      39.065  24.496  27.761  1.00  0.00    -0.200 F 
ATOM     70  F   UNL A   1      40.596  25.151  25.602  1.00  0.00    -0.200 F 
ENDBRANCH  46  60
BRANCH  47  71
ATOM     71  C   UNL A   1      39.628  33.662  36.878  1.00  0.00     0.064 A 
ATOM     72  C   UNL A   1      40.275  34.904  36.928  1.00  0.00     0.173 A 
ATOM     73  C   UNL A   1      38.811  33.308  37.962  1.00  0.00     0.173 A 
ATOM     74  F   UNL A   1      41.080  35.280  35.922  1.00  0.00    -0.203 F 
ATOM     75  C   UNL A   1      40.113  35.758  38.017  1.00  0.00     0.198 A 
ATOM     76  C   UNL A   1      38.627  34.174  39.037  1.00  0.00     0.198 A 
ATOM     77  F   UNL A   1      38.162  32.135  37.959  1.00  0.00    -0.203 F 
ATOM     78  F   UNL A   1      40.762  36.929  38.050  1.00  0.00    -0.200 F 
ATOM     79  C   UNL A   1      39.281  35.397  39.066  1.00  0.00     0.200 A 
ATOM     80  F   UNL A   1      37.807  33.830  40.039  1.00  0.00    -0.200 F 
ATOM     81  F   UNL A   1      39.108  36.228  40.103  1.00  0.00    -0.200 F 
ENDBRANCH  47  71
BRANCH  59  82
ATOM     82  C   UNL A   1      44.017  28.533  35.057  1.00  0.00     0.064 A 
ATOM     83  C   UNL A   1      45.306  29.076  34.950  1.00  0.00     0.173 A 
ATOM     84  C   UNL A   1      43.836  27.429  35.905  1.00  0.00     0.173 A 
ATOM     85  F   UNL A   1      45.531  30.123  34.143  1.00  0.00    -0.203 F 
ATOM     86  C   UNL A   1      46.373  28.530  35.659  1.00  0.00     0.198 A 
ATOM     87  C   UNL A   1      44.899  26.906  36.637  1.00  0.00     0.198 A 
ATOM     88  F   UNL A   1      42.621  26.878  36.050  1.00  0.00    -0.203 F 
ATOM     89  F   UNL A   1      47.602  29.045  35.517  1.00  0.00    -0.200 F 
ATOM     90  C   UNL A   1      46.166  27.455  36.511  1.00  0.00     0.200 A 
ATOM     91  F   UNL A   1      44.694  25.880  37.474  1.00  0.00    -0.200 F 
ATOM     92  F   UNL A   1      47.190  26.946  37.210  1.00  0.00    -0.200 F 
ENDBRANCH  59  82
ENDBRANCH  33  34
ENDBRANCH  25  28
ENDBRANCH  23  24
ENDBRANCH   1  23
TORSDOF 11
ENDMDL
MODEL 3
REMARK VINA RESULT:     -13.0      2.627      3.782
REMARK SMILES Cc1cc(Cl)cc2c1O[C@H](C(F)(F)F)C(C(=O)NCCCNC(=O)c1ccc(-c3c4nc(c(-c5c(F)c(F)c(F)c(F)c5F)c5ccc([nH]5)c(-c5c(F)c(F)c(F)c(F)c5F)c5nc(c(-c6c(F)c(F)c(F)c(F)c6F)c6ccc3[nH]6)C=C5)C=C4)cc1)=C2
REMARK SMILES IDX 20 1 19 2 18 3 16 4 17 5 15 7 1 8 2 9 3 10 8 11 4 12 7 13
REMARK SMILES IDX 9 14 5 15 6 16 88 17 10 18 11 19 12 20 13 21 14 22 21 23
REMARK SMILES IDX 22 24 23 25 24 27 25 28 26 29 87 30 27 31 86 32 28 33 29 34
REMARK SMILES IDX 30 35 80 36 31 37 85 38 79 39 81 40 32 41 84 42 78 43 77 44
REMARK SMILES IDX 33 46 65 47 45 48 64 49 46 50 49 51 63 52 82 53 47 54 48 55
REMARK SMILES IDX 62 57 83 58 50 59 34 60 35 61 43 62 36 63 37 64 41 65 44 66
REMARK SMILES IDX 38 67 39 68 42 69 40 70 66 71 67 72 75 73 68 74 69 75 73 76
REMARK SMILES IDX 76 77 70 78 71 79 74 80 72 81 51 82 52 83 60 84 53 85 54 86
REMARK SMILES IDX 58 87 61 88 55 89 56 90 59 91 57 92
REMARK H PARENT 18 6 22 26 81 45 49 56
REMARK Flexibility Score: inf
ROOT
ATOM      1  C   UNL A   1      33.518  28.843  23.533  1.00  0.00     0.042 C 
ENDROOT
BRANCH   1   2
ATOM      2  C   UNL A   1      32.266  28.101  23.094  1.00  0.00     0.118 C 
BRANCH   2   3
ATOM      3  N   UNL A   1      32.538  27.181  22.000  1.00  0.00    -0.352 N 
ATOM      4  C   UNL A   1      32.927  25.892  21.859  1.00  0.00     0.251 C 
ATOM      5  O   UNL A   1      33.036  25.500  20.695  1.00  0.00    -0.270 OA
ATOM      6  H   UNL A   1      32.400  27.613  21.125  1.00  0.00     0.163 HD
BRANCH   4   7
ATOM      7  C   UNL A   1      33.223  24.963  22.987  1.00  0.00     0.067 C 
ATOM      8  C   UNL A   1      33.438  22.520  27.488  1.00  0.00     0.048 C 
ATOM      9  C   UNL A   1      34.292  22.545  26.252  1.00  0.00    -0.007 A 
ATOM     10  C   UNL A   1      35.389  21.684  26.130  1.00  0.00     0.027 A 
ATOM     11  C   UNL A   1      33.974  23.382  25.174  1.00  0.00     0.131 A 
ATOM     12  C   UNL A   1      36.161  21.691  24.966  1.00  0.00     0.042 A 
ATOM     13  C   UNL A   1      34.746  23.395  24.007  1.00  0.00     0.019 A 
ATOM     14  O   UNL A   1      32.902  24.215  25.337  1.00  0.00    -0.475 OA
ATOM     15  Cl  UNL A   1      37.515  20.637  24.839  1.00  0.00    -0.084 Cl
ATOM     16  C   UNL A   1      35.849  22.544  23.907  1.00  0.00     0.032 A 
ATOM     17  C   UNL A   1      34.406  24.321  22.934  1.00  0.00     0.025 C 
ATOM     18  C   UNL A   1      32.282  24.707  24.125  1.00  0.00     0.314 C 
BRANCH  18  19
ATOM     19  C   UNL A   1      31.112  23.781  23.734  1.00  0.00     0.429 C 
ATOM     20  F   UNL A   1      31.536  22.836  22.857  1.00  0.00    -0.167 F 
ATOM     21  F   UNL A   1      30.598  23.115  24.795  1.00  0.00    -0.167 F 
ATOM     22  F   UNL A   1      30.089  24.445  23.154  1.00  0.00    -0.167 F 
ENDBRANCH  18  19
ENDBRANCH   4   7
ENDBRANCH   2   3
ENDBRANCH   1   2
BRANCH   1  23
ATOM     23  C   UNL A   1      33.629  28.921  25.048  1.00  0.00     0.118 C 
BRANCH  23  24
ATOM     24  N   UNL A   1      33.017  30.140  25.572  1.00  0.00    -0.352 N 
ATOM     25  C   UNL A   1      33.278  30.841  26.720  1.00  0.00     0.251 C 
ATOM     26  H   UNL A   1      32.303  30.519  25.010  1.00  0.00     0.163 HD
ATOM     27  O   UNL A   1      32.469  31.669  27.133  1.00  0.00    -0.269 OA
BRANCH  25  28
ATOM     28  C   UNL A   1      34.532  30.602  27.459  1.00  0.00     0.039 A 
ATOM     29  C   UNL A   1      35.450  31.644  27.606  1.00  0.00     0.014 A 
ATOM     30  C   UNL A   1      34.809  29.338  27.981  1.00  0.00     0.014 A 
ATOM     31  C   UNL A   1      36.620  31.427  28.333  1.00  0.00     0.010 A 
ATOM     32  C   UNL A   1      35.916  29.154  28.793  1.00  0.00     0.010 A 
ATOM     33  C   UNL A   1      36.845  30.190  28.958  1.00  0.00    -0.014 A 
BRANCH  33  34
ATOM     34  C   UNL A   1      38.062  29.941  29.763  1.00  0.00     0.031 A 
ATOM     35  C   UNL A   1      39.141  29.046  29.221  1.00  0.00     0.074 A 
ATOM     36  C   UNL A   1      38.161  30.464  30.998  1.00  0.00     0.049 A 
ATOM     37  N   UNL A   1      40.250  28.651  29.791  1.00  0.00    -0.248 NA
ATOM     38  C   UNL A   1      38.931  28.492  27.873  1.00  0.00     0.031 C 
ATOM     39  C   UNL A   1      37.149  31.300  31.644  1.00  0.00     0.029 A 
ATOM     40  N   UNL A   1      39.158  30.365  31.934  1.00  0.00    -0.354 N 
ATOM     41  C   UNL A   1      40.857  27.798  28.880  1.00  0.00     0.074 A 
ATOM     42  C   UNL A   1      39.965  27.674  27.750  1.00  0.00     0.031 C 
ATOM     43  C   UNL A   1      37.591  31.666  32.857  1.00  0.00     0.029 A 
ATOM     44  C   UNL A   1      38.897  31.058  33.091  1.00  0.00     0.049 A 
ATOM     45  H   UNL A   1      39.983  29.846  31.791  1.00  0.00     0.167 HD
ATOM     46  C   UNL A   1      42.066  27.197  28.967  1.00  0.00     0.037 A 
ATOM     47  C   UNL A   1      39.631  31.185  34.213  1.00  0.00     0.037 A 
ATOM     48  C   UNL A   1      42.960  27.357  30.081  1.00  0.00     0.049 A 
ATOM     49  C   UNL A   1      40.972  30.509  34.286  1.00  0.00     0.074 A 
ATOM     50  C   UNL A   1      44.239  26.855  30.236  1.00  0.00     0.029 A 
ATOM     51  N   UNL A   1      42.665  28.074  31.232  1.00  0.00    -0.354 N 
ATOM     52  N   UNL A   1      41.571  29.766  33.388  1.00  0.00    -0.248 NA
ATOM     53  C   UNL A   1      41.741  30.690  35.525  1.00  0.00     0.031 C 
ATOM     54  C   UNL A   1      44.696  27.219  31.506  1.00  0.00     0.029 A 
ATOM     55  C   UNL A   1      43.727  27.999  32.118  1.00  0.00     0.049 A 
ATOM     56  H   UNL A   1      41.826  28.563  31.394  1.00  0.00     0.167 HD
ATOM     57  C   UNL A   1      42.791  29.403  33.942  1.00  0.00     0.074 A 
ATOM     58  C   UNL A   1      42.855  30.026  35.249  1.00  0.00     0.031 C 
ATOM     59  C   UNL A   1      43.767  28.623  33.417  1.00  0.00     0.037 A 
BRANCH  46  60
ATOM     60  C   UNL A   1      42.497  26.323  27.825  1.00  0.00     0.064 A 
ATOM     61  C   UNL A   1      43.385  26.782  26.839  1.00  0.00     0.173 A 
ATOM     62  C   UNL A   1      42.054  24.994  27.738  1.00  0.00     0.173 A 
ATOM     63  F   UNL A   1      43.829  28.048  26.866  1.00  0.00    -0.203 F 
ATOM     64  C   UNL A   1      43.792  25.953  25.798  1.00  0.00     0.198 A 
ATOM     65  C   UNL A   1      42.490  24.158  26.714  1.00  0.00     0.198 A 
ATOM     66  F   UNL A   1      41.206  24.502  28.655  1.00  0.00    -0.203 F 
ATOM     67  F   UNL A   1      44.602  26.430  24.842  1.00  0.00    -0.200 F 
ATOM     68  C   UNL A   1      43.353  24.639  25.741  1.00  0.00     0.200 A 
ATOM     69  F   UNL A   1      42.075  22.885  26.669  1.00  0.00    -0.200 F 
ATOM     70  F   UNL A   1      43.756  23.838  24.746  1.00  0.00    -0.200 F 
ENDBRANCH  46  60
BRANCH  47  71
ATOM     71  C   UNL A   1      39.117  32.022  35.328  1.00  0.00     0.064 A 
ATOM     72  C   UNL A   1      38.369  31.454  36.368  1.00  0.00     0.173 A 
ATOM     73  C   UNL A   1      39.410  33.392  35.408  1.00  0.00     0.173 A 
ATOM     74  F   UNL A   1      38.051  30.151  36.328  1.00  0.00    -0.203 F 
ATOM     75  C   UNL A   1      37.931  32.223  37.444  1.00  0.00     0.198 A 
ATOM     76  C   UNL A   1      38.995  34.154  36.498  1.00  0.00     0.198 A 
ATOM     77  F   UNL A   1      40.130  33.983  34.443  1.00  0.00    -0.203 F 
ATOM     78  F   UNL A   1      37.197  31.659  38.412  1.00  0.00    -0.200 F 
ATOM     79  C   UNL A   1      38.253  33.570  37.513  1.00  0.00     0.200 A 
ATOM     80  F   UNL A   1      39.324  35.451  36.571  1.00  0.00    -0.200 F 
ATOM     81  F   UNL A   1      37.849  34.304  38.559  1.00  0.00    -0.200 F 
ENDBRANCH  47  71
BRANCH  59  82
ATOM     82  C   UNL A   1      44.996  28.393  34.248  1.00  0.00     0.064 A 
ATOM     83  C   UNL A   1      46.075  29.289  34.219  1.00  0.00     0.173 A 
ATOM     84  C   UNL A   1      45.055  27.320  35.150  1.00  0.00     0.173 A 
ATOM     85  F   UNL A   1      46.071  30.323  33.365  1.00  0.00    -0.203 F 
ATOM     86  C   UNL A   1      47.173  29.112  35.056  1.00  0.00     0.198 A 
ATOM     87  C   UNL A   1      46.139  27.165  36.009  1.00  0.00     0.198 A 
ATOM     88  F   UNL A   1      44.044  26.441  35.224  1.00  0.00    -0.203 F 
ATOM     89  F   UNL A   1      48.207  29.962  34.990  1.00  0.00    -0.200 F 
ATOM     90  C   UNL A   1      47.199  28.059  35.959  1.00  0.00     0.200 A 
ATOM     91  F   UNL A   1      46.154  26.159  36.893  1.00  0.00    -0.200 F 
ATOM     92  F   UNL A   1      48.246  27.904  36.780  1.00  0.00    -0.200 F 
ENDBRANCH  59  82
ENDBRANCH  33  34
ENDBRANCH  25  28
ENDBRANCH  23  24
ENDBRANCH   1  23
TORSDOF 11
ENDMDL
