MODEL 1
REMARK VINA RESULT:     -11.1      0.000      0.000
REMARK SMILES CCn1cc(Br)c(C(=O)NCCCNC(=O)c2ccc(-c3c4nc(c(-c5c(F)c(F)c(F)c(F)c5F)c5ccc([nH]5)c(-c5c(F)c(F)c(F)c(F)c5F)c5nc(c(-c6c(F)c(F)c(F)c(F)c6F)c6ccc3[nH]6)C=C5)C=C4)cc2)n1
REMARK SMILES IDX 12 1 11 2 10 3 8 4 9 5 7 7 3 8 4 9 80 10 5 11 6 12 2 13 1 14
REMARK SMILES IDX 13 15 14 16 15 17 16 19 17 20 18 21 79 22 19 23 78 24 20 25
REMARK SMILES IDX 21 26 22 27 72 28 23 29 77 30 71 31 73 32 24 33 76 34 70 35
REMARK SMILES IDX 69 36 25 38 57 39 37 40 56 41 38 42 41 43 55 44 74 45 39 46
REMARK SMILES IDX 40 47 54 49 75 50 42 51 26 52 27 53 35 54 28 55 29 56 33 57
REMARK SMILES IDX 36 58 30 59 31 60 34 61 32 62 58 63 59 64 67 65 60 66 61 67
REMARK SMILES IDX 65 68 68 69 62 70 63 71 66 72 64 73 43 74 44 75 52 76 45 77
REMARK SMILES IDX 46 78 50 79 53 80 47 81 48 82 51 83 49 84
REMARK H PARENT 10 6 14 18 73 37 41 48
REMARK Flexibility Score: inf
ROOT
ATOM      1  C   UNL A   1      44.087  21.518  25.164  1.00  0.00     0.042 C 
ENDROOT
BRANCH   1   2
ATOM      2  C   UNL A   1      45.372  22.054  25.800  1.00  0.00     0.118 C 
BRANCH   2   3
ATOM      3  N   UNL A   1      45.156  22.571  27.143  1.00  0.00    -0.351 N 
ATOM      4  C   UNL A   1      45.642  23.694  27.780  1.00  0.00     0.272 C 
ATOM      5  O   UNL A   1      45.245  23.874  28.934  1.00  0.00    -0.267 OA
ATOM      6  H   UNL A   1      44.555  22.021  27.697  1.00  0.00     0.163 HD
BRANCH   4   7
ATOM      7  C   UNL A   1      46.569  24.626  27.109  1.00  0.00     0.164 A 
ATOM      8  N   UNL A   1      48.395  25.511  26.436  1.00  0.00    -0.271 N 
ATOM      9  C   UNL A   1      47.433  26.267  25.845  1.00  0.00     0.125 A 
ATOM     10  N   UNL A   1      47.911  24.544  27.231  1.00  0.00    -0.166 NA
ATOM     11  C   UNL A   1      46.246  25.723  26.264  1.00  0.00     0.069 A 
ATOM     12  Br  UNL A   1      44.547  26.325  25.754  1.00  0.00    -0.047 Br
BRANCH   8  13
ATOM     13  C   UNL A   1      49.830  25.630  26.263  1.00  0.00     0.141 C 
ATOM     14  C   UNL A   1      50.591  25.290  27.532  1.00  0.00     0.029 C 
ENDBRANCH   8  13
ENDBRANCH   4   7
ENDBRANCH   2   3
ENDBRANCH   1   2
BRANCH   1  15
ATOM     15  C   UNL A   1      42.991  22.577  25.099  1.00  0.00     0.118 C 
BRANCH  15  16
ATOM     16  N   UNL A   1      41.704  22.091  25.598  1.00  0.00    -0.352 N 
ATOM     17  C   UNL A   1      40.875  22.646  26.544  1.00  0.00     0.251 C 
ATOM     18  H   UNL A   1      41.388  21.247  25.200  1.00  0.00     0.163 HD
ATOM     19  O   UNL A   1      40.000  21.962  27.076  1.00  0.00    -0.269 OA
BRANCH  17  20
ATOM     20  C   UNL A   1      41.047  24.054  26.944  1.00  0.00     0.039 A 
ATOM     21  C   UNL A   1      40.355  25.059  26.267  1.00  0.00     0.014 A 
ATOM     22  C   UNL A   1      41.898  24.376  28.002  1.00  0.00     0.014 A 
ATOM     23  C   UNL A   1      40.451  26.371  26.723  1.00  0.00     0.010 A 
ATOM     24  C   UNL A   1      41.901  25.653  28.526  1.00  0.00     0.010 A 
ATOM     25  C   UNL A   1      41.195  26.661  27.882  1.00  0.00    -0.014 A 
BRANCH  25  26
ATOM     26  C   UNL A   1      41.085  27.989  28.486  1.00  0.00     0.031 A 
ATOM     27  C   UNL A   1      42.152  28.936  28.058  1.00  0.00     0.074 A 
ATOM     28  C   UNL A   1      40.050  28.432  29.232  1.00  0.00     0.049 A 
ATOM     29  N   UNL A   1      43.090  29.440  28.787  1.00  0.00    -0.248 NA
ATOM     30  C   UNL A   1      42.273  29.258  26.626  1.00  0.00     0.031 C 
ATOM     31  C   UNL A   1      38.770  27.775  29.502  1.00  0.00     0.029 A 
ATOM     32  N   UNL A   1      39.903  29.640  29.852  1.00  0.00    -0.354 N 
ATOM     33  C   UNL A   1      43.821  30.285  27.955  1.00  0.00     0.074 A 
ATOM     34  C   UNL A   1      43.373  30.013  26.615  1.00  0.00     0.031 C 
ATOM     35  C   UNL A   1      37.906  28.668  30.033  1.00  0.00     0.029 A 
ATOM     36  C   UNL A   1      38.614  29.907  30.299  1.00  0.00     0.049 A 
ATOM     37  H   UNL A   1      40.649  30.271  29.973  1.00  0.00     0.167 HD
ATOM     38  C   UNL A   1      44.567  31.297  28.481  1.00  0.00     0.037 A 
ATOM     39  C   UNL A   1      38.158  31.069  30.831  1.00  0.00     0.037 A 
ATOM     40  C   UNL A   1      44.835  31.061  29.880  1.00  0.00     0.049 A 
ATOM     41  C   UNL A   1      39.337  31.821  31.322  1.00  0.00     0.074 A 
ATOM     42  C   UNL A   1      45.446  30.046  30.593  1.00  0.00     0.029 A 
ATOM     43  N   UNL A   1      44.116  31.774  30.806  1.00  0.00    -0.354 N 
ATOM     44  N   UNL A   1      40.060  31.462  32.344  1.00  0.00    -0.248 NA
ATOM     45  C   UNL A   1      39.964  32.765  30.411  1.00  0.00     0.031 C 
ATOM     46  C   UNL A   1      44.664  29.906  31.779  1.00  0.00     0.029 A 
ATOM     47  C   UNL A   1      43.675  30.890  31.755  1.00  0.00     0.049 A 
ATOM     48  H   UNL A   1      43.946  32.744  30.790  1.00  0.00     0.167 HD
ATOM     49  C   UNL A   1      41.360  31.754  31.965  1.00  0.00     0.074 A 
ATOM     50  C   UNL A   1      41.229  32.650  30.819  1.00  0.00     0.031 C 
ATOM     51  C   UNL A   1      42.409  31.018  32.435  1.00  0.00     0.037 A 
BRANCH  38  52
ATOM     52  C   UNL A   1      44.704  32.669  27.856  1.00  0.00     0.064 A 
ATOM     53  C   UNL A   1      45.889  32.980  27.153  1.00  0.00     0.173 A 
ATOM     54  C   UNL A   1      43.891  33.777  28.180  1.00  0.00     0.173 A 
ATOM     55  F   UNL A   1      46.744  32.012  26.790  1.00  0.00    -0.203 F 
ATOM     56  C   UNL A   1      46.281  34.299  26.906  1.00  0.00     0.198 A 
ATOM     57  C   UNL A   1      44.262  35.089  27.885  1.00  0.00     0.198 A 
ATOM     58  F   UNL A   1      42.766  33.660  28.891  1.00  0.00    -0.203 F 
ATOM     59  F   UNL A   1      47.485  34.544  26.373  1.00  0.00    -0.200 F 
ATOM     60  C   UNL A   1      45.473  35.352  27.285  1.00  0.00     0.200 A 
ATOM     61  F   UNL A   1      43.468  36.098  28.272  1.00  0.00    -0.200 F 
ATOM     62  F   UNL A   1      45.878  36.617  27.116  1.00  0.00    -0.200 F 
ENDBRANCH  38  52
BRANCH  39  63
ATOM     63  C   UNL A   1      36.819  31.700  30.729  1.00  0.00     0.064 A 
ATOM     64  C   UNL A   1      35.998  31.833  31.864  1.00  0.00     0.173 A 
ATOM     65  C   UNL A   1      36.450  32.454  29.600  1.00  0.00     0.173 A 
ATOM     66  F   UNL A   1      36.297  31.179  32.995  1.00  0.00    -0.203 F 
ATOM     67  C   UNL A   1      34.904  32.705  31.882  1.00  0.00     0.198 A 
ATOM     68  C   UNL A   1      35.352  33.317  29.617  1.00  0.00     0.198 A 
ATOM     69  F   UNL A   1      37.203  32.446  28.491  1.00  0.00    -0.203 F 
ATOM     70  F   UNL A   1      34.195  32.864  33.009  1.00  0.00    -0.200 F 
ATOM     71  C   UNL A   1      34.591  33.457  30.764  1.00  0.00     0.200 A 
ATOM     72  F   UNL A   1      35.080  34.066  28.539  1.00  0.00    -0.200 F 
ATOM     73  F   UNL A   1      33.590  34.346  30.802  1.00  0.00    -0.200 F 
ENDBRANCH  39  63
BRANCH  51  74
ATOM     74  C   UNL A   1      42.170  30.107  33.607  1.00  0.00     0.064 A 
ATOM     75  C   UNL A   1      41.742  28.771  33.510  1.00  0.00     0.173 A 
ATOM     76  C   UNL A   1      42.521  30.578  34.880  1.00  0.00     0.173 A 
ATOM     77  F   UNL A   1      41.479  28.210  32.323  1.00  0.00    -0.203 F 
ATOM     78  C   UNL A   1      41.630  27.965  34.643  1.00  0.00     0.198 A 
ATOM     79  C   UNL A   1      42.449  29.759  36.002  1.00  0.00     0.198 A 
ATOM     80  F   UNL A   1      42.981  31.831  35.031  1.00  0.00    -0.203 F 
ATOM     81  F   UNL A   1      41.201  26.699  34.529  1.00  0.00    -0.200 F 
ATOM     82  C   UNL A   1      41.993  28.458  35.887  1.00  0.00     0.200 A 
ATOM     83  F   UNL A   1      42.847  30.226  37.194  1.00  0.00    -0.200 F 
ATOM     84  F   UNL A   1      41.926  27.670  36.970  1.00  0.00    -0.200 F 
ENDBRANCH  51  74
ENDBRANCH  25  26
ENDBRANCH  17  20
ENDBRANCH  15  16
ENDBRANCH   1  15
TORSDOF 11
ENDMDL
MODEL 2
REMARK VINA RESULT:     -11.0      5.040     11.171
REMARK SMILES CCn1cc(Br)c(C(=O)NCCCNC(=O)c2ccc(-c3c4nc(c(-c5c(F)c(F)c(F)c(F)c5F)c5ccc([nH]5)c(-c5c(F)c(F)c(F)c(F)c5F)c5nc(c(-c6c(F)c(F)c(F)c(F)c6F)c6ccc3[nH]6)C=C5)C=C4)cc2)n1
REMARK SMILES IDX 12 1 11 2 10 3 8 4 9 5 7 7 3 8 4 9 80 10 5 11 6 12 2 13 1 14
REMARK SMILES IDX 13 15 14 16 15 17 16 19 17 20 18 21 79 22 19 23 78 24 20 25
REMARK SMILES IDX 21 26 22 27 72 28 23 29 77 30 71 31 73 32 24 33 76 34 70 35
REMARK SMILES IDX 69 36 25 38 57 39 37 40 56 41 38 42 41 43 55 44 74 45 39 46
REMARK SMILES IDX 40 47 54 49 75 50 42 51 26 52 27 53 35 54 28 55 29 56 33 57
REMARK SMILES IDX 36 58 30 59 31 60 34 61 32 62 58 63 59 64 67 65 60 66 61 67
REMARK SMILES IDX 65 68 68 69 62 70 63 71 66 72 64 73 43 74 44 75 52 76 45 77
REMARK SMILES IDX 46 78 50 79 53 80 47 81 48 82 51 83 49 84
REMARK H PARENT 10 6 14 18 73 37 41 48
REMARK Flexibility Score: inf
ROOT
ATOM      1  C   UNL A   1      33.263  30.298  27.403  1.00  0.00     0.042 C 
ENDROOT
BRANCH   1   2
ATOM      2  C   UNL A   1      32.419  30.303  26.125  1.00  0.00     0.118 C 
BRANCH   2   3
ATOM      3  N   UNL A   1      33.138  29.765  24.981  1.00  0.00    -0.351 N 
ATOM      4  C   UNL A   1      32.695  29.112  23.848  1.00  0.00     0.272 C 
ATOM      5  O   UNL A   1      33.566  28.797  23.033  1.00  0.00    -0.267 OA
ATOM      6  H   UNL A   1      34.114  29.888  25.021  1.00  0.00     0.163 HD
BRANCH   4   7
ATOM      7  C   UNL A   1      31.265  28.825  23.627  1.00  0.00     0.164 A 
ATOM      8  N   UNL A   1      29.215  29.110  23.090  1.00  0.00    -0.271 N 
ATOM      9  C   UNL A   1      29.282  27.793  23.421  1.00  0.00     0.125 A 
ATOM     10  N   UNL A   1      30.377  29.765  23.240  1.00  0.00    -0.166 NA
ATOM     11  C   UNL A   1      30.590  27.582  23.775  1.00  0.00     0.069 A 
ATOM     12  Br  UNL A   1      31.309  25.935  24.306  1.00  0.00    -0.047 Br
BRANCH   8  13
ATOM     13  C   UNL A   1      28.061  29.826  22.580  1.00  0.00     0.141 C 
ATOM     14  C   UNL A   1      27.661  30.982  23.479  1.00  0.00     0.029 C 
ENDBRANCH   8  13
ENDBRANCH   4   7
ENDBRANCH   2   3
ENDBRANCH   1   2
BRANCH   1  15
ATOM     15  C   UNL A   1      34.157  31.530  27.507  1.00  0.00     0.118 C 
BRANCH  15  16
ATOM     16  N   UNL A   1      34.198  32.085  28.860  1.00  0.00    -0.352 N 
ATOM     17  C   UNL A   1      35.089  31.828  29.877  1.00  0.00     0.251 C 
ATOM     18  H   UNL A   1      33.489  32.734  29.072  1.00  0.00     0.163 HD
ATOM     19  O   UNL A   1      34.804  32.126  31.037  1.00  0.00    -0.269 OA
BRANCH  17  20
ATOM     20  C   UNL A   1      36.375  31.171  29.585  1.00  0.00     0.039 A 
ATOM     21  C   UNL A   1      37.557  31.912  29.613  1.00  0.00     0.014 A 
ATOM     22  C   UNL A   1      36.406  29.808  29.285  1.00  0.00     0.014 A 
ATOM     23  C   UNL A   1      38.771  31.254  29.435  1.00  0.00     0.010 A 
ATOM     24  C   UNL A   1      37.611  29.138  29.227  1.00  0.00     0.010 A 
ATOM     25  C   UNL A   1      38.799  29.855  29.282  1.00  0.00    -0.014 A 
BRANCH  25  26
ATOM     26  C   UNL A   1      40.083  29.157  29.345  1.00  0.00     0.031 A 
ATOM     27  C   UNL A   1      40.582  28.934  30.731  1.00  0.00     0.074 A 
ATOM     28  C   UNL A   1      40.723  28.591  28.299  1.00  0.00     0.049 A 
ATOM     29  N   UNL A   1      41.625  29.459  31.280  1.00  0.00    -0.248 NA
ATOM     30  C   UNL A   1      39.755  28.143  31.657  1.00  0.00     0.031 C 
ATOM     31  C   UNL A   1      40.254  28.421  26.923  1.00  0.00     0.029 A 
ATOM     32  N   UNL A   1      41.935  27.960  28.283  1.00  0.00    -0.354 N 
ATOM     33  C   UNL A   1      41.696  28.932  32.567  1.00  0.00     0.074 A 
ATOM     34  C   UNL A   1      40.445  28.258  32.793  1.00  0.00     0.031 C 
ATOM     35  C   UNL A   1      41.060  27.551  26.274  1.00  0.00     0.029 A 
ATOM     36  C   UNL A   1      42.192  27.234  27.125  1.00  0.00     0.049 A 
ATOM     37  H   UNL A   1      42.574  28.014  29.029  1.00  0.00     0.167 HD
ATOM     38  C   UNL A   1      42.880  28.907  33.241  1.00  0.00     0.037 A 
ATOM     39  C   UNL A   1      43.249  26.417  26.891  1.00  0.00     0.037 A 
ATOM     40  C   UNL A   1      43.813  29.851  32.669  1.00  0.00     0.049 A 
ATOM     41  C   UNL A   1      44.323  26.804  27.837  1.00  0.00     0.074 A 
ATOM     42  C   UNL A   1      43.800  31.216  32.449  1.00  0.00     0.029 A 
ATOM     43  N   UNL A   1      44.820  29.364  31.875  1.00  0.00    -0.354 N 
ATOM     44  N   UNL A   1      44.983  27.925  27.775  1.00  0.00    -0.248 NA
ATOM     45  C   UNL A   1      44.379  26.114  29.115  1.00  0.00     0.031 C 
ATOM     46  C   UNL A   1      44.436  31.391  31.184  1.00  0.00     0.029 A 
ATOM     47  C   UNL A   1      44.866  30.138  30.746  1.00  0.00     0.049 A 
ATOM     48  H   UNL A   1      45.403  28.597  32.079  1.00  0.00     0.167 HD
ATOM     49  C   UNL A   1      45.140  28.306  29.097  1.00  0.00     0.074 A 
ATOM     50  C   UNL A   1      44.848  27.105  29.875  1.00  0.00     0.031 C 
ATOM     51  C   UNL A   1      45.211  29.624  29.442  1.00  0.00     0.037 A 
BRANCH  38  52
ATOM     52  C   UNL A   1      43.332  27.770  34.132  1.00  0.00     0.064 A 
ATOM     53  C   UNL A   1      43.519  26.492  33.560  1.00  0.00     0.173 A 
ATOM     54  C   UNL A   1      43.277  27.793  35.542  1.00  0.00     0.173 A 
ATOM     55  F   UNL A   1      43.586  26.341  32.229  1.00  0.00    -0.203 F 
ATOM     56  C   UNL A   1      43.528  25.327  34.332  1.00  0.00     0.198 A 
ATOM     57  C   UNL A   1      43.339  26.632  36.313  1.00  0.00     0.198 A 
ATOM     58  F   UNL A   1      43.049  28.913  36.235  1.00  0.00    -0.203 F 
ATOM     59  F   UNL A   1      43.555  24.131  33.730  1.00  0.00    -0.200 F 
ATOM     60  C   UNL A   1      43.424  25.398  35.708  1.00  0.00     0.200 A 
ATOM     61  F   UNL A   1      43.225  26.722  37.646  1.00  0.00    -0.200 F 
ATOM     62  F   UNL A   1      43.359  24.282  36.445  1.00  0.00    -0.200 F 
ENDBRANCH  38  52
BRANCH  39  63
ATOM     63  C   UNL A   1      43.327  25.167  26.095  1.00  0.00     0.064 A 
ATOM     64  C   UNL A   1      44.384  24.956  25.191  1.00  0.00     0.173 A 
ATOM     65  C   UNL A   1      42.553  24.040  26.425  1.00  0.00     0.173 A 
ATOM     66  F   UNL A   1      45.195  25.967  24.849  1.00  0.00    -0.203 F 
ATOM     67  C   UNL A   1      44.676  23.684  24.687  1.00  0.00     0.198 A 
ATOM     68  C   UNL A   1      42.841  22.772  25.914  1.00  0.00     0.198 A 
ATOM     69  F   UNL A   1      41.565  24.124  27.328  1.00  0.00    -0.203 F 
ATOM     70  F   UNL A   1      45.741  23.509  23.891  1.00  0.00    -0.200 F 
ATOM     71  C   UNL A   1      43.915  22.591  25.061  1.00  0.00     0.200 A 
ATOM     72  F   UNL A   1      42.118  21.716  26.312  1.00  0.00    -0.200 F 
ATOM     73  F   UNL A   1      44.238  21.361  24.638  1.00  0.00    -0.200 F 
ENDBRANCH  39  63
BRANCH  51  74
ATOM     74  C   UNL A   1      45.442  30.634  28.352  1.00  0.00     0.064 A 
ATOM     75  C   UNL A   1      44.432  31.191  27.547  1.00  0.00     0.173 A 
ATOM     76  C   UNL A   1      46.736  31.155  28.211  1.00  0.00     0.173 A 
ATOM     77  F   UNL A   1      43.152  30.822  27.684  1.00  0.00    -0.203 F 
ATOM     78  C   UNL A   1      44.720  32.190  26.617  1.00  0.00     0.198 A 
ATOM     79  C   UNL A   1      47.012  32.180  27.312  1.00  0.00     0.198 A 
ATOM     80  F   UNL A   1      47.734  30.696  28.984  1.00  0.00    -0.203 F 
ATOM     81  F   UNL A   1      43.743  32.692  25.846  1.00  0.00    -0.200 F 
ATOM     82  C   UNL A   1      46.007  32.689  26.507  1.00  0.00     0.200 A 
ATOM     83  F   UNL A   1      48.248  32.692  27.245  1.00  0.00    -0.200 F 
ATOM     84  F   UNL A   1      46.275  33.679  25.642  1.00  0.00    -0.200 F 
ENDBRANCH  51  74
ENDBRANCH  25  26
ENDBRANCH  17  20
ENDBRANCH  15  16
ENDBRANCH   1  15
TORSDOF 11
ENDMDL
MODEL 3
REMARK VINA RESULT:     -11.0      3.987     10.748
REMARK SMILES CCn1cc(Br)c(C(=O)NCCCNC(=O)c2ccc(-c3c4nc(c(-c5c(F)c(F)c(F)c(F)c5F)c5ccc([nH]5)c(-c5c(F)c(F)c(F)c(F)c5F)c5nc(c(-c6c(F)c(F)c(F)c(F)c6F)c6ccc3[nH]6)C=C5)C=C4)cc2)n1
REMARK SMILES IDX 12 1 11 2 10 3 8 4 9 5 7 7 3 8 4 9 80 10 5 11 6 12 2 13 1 14
REMARK SMILES IDX 13 15 14 16 15 17 16 19 17 20 18 21 79 22 19 23 78 24 20 25
REMARK SMILES IDX 21 26 22 27 72 28 23 29 77 30 71 31 73 32 24 33 76 34 70 35
REMARK SMILES IDX 69 36 25 38 57 39 37 40 56 41 38 42 41 43 55 44 74 45 39 46
REMARK SMILES IDX 40 47 54 49 75 50 42 51 26 52 27 53 35 54 28 55 29 56 33 57
REMARK SMILES IDX 36 58 30 59 31 60 34 61 32 62 58 63 59 64 67 65 60 66 61 67
REMARK SMILES IDX 65 68 68 69 62 70 63 71 66 72 64 73 43 74 44 75 52 76 45 77
REMARK SMILES IDX 46 78 50 79 53 80 47 81 48 82 51 83 49 84
REMARK H PARENT 10 6 14 18 73 37 41 48
REMARK Flexibility Score: inf
ROOT
ATOM      1  C   UNL A   1      34.476  33.369  32.769  1.00  0.00     0.042 C 
ENDROOT
BRANCH   1   2
ATOM      2  C   UNL A   1      35.357  34.590  33.045  1.00  0.00     0.118 C 
BRANCH   2   3
ATOM      3  N   UNL A   1      36.524  34.643  32.178  1.00  0.00    -0.351 N 
ATOM      4  C   UNL A   1      37.872  34.524  32.451  1.00  0.00     0.272 C 
ATOM      5  O   UNL A   1      38.627  34.590  31.477  1.00  0.00    -0.267 OA
ATOM      6  H   UNL A   1      36.316  34.790  31.227  1.00  0.00     0.163 HD
BRANCH   4   7
ATOM      7  C   UNL A   1      38.370  34.317  33.824  1.00  0.00     0.164 A 
ATOM      8  N   UNL A   1      39.148  34.748  35.769  1.00  0.00    -0.271 N 
ATOM      9  C   UNL A   1      38.926  33.408  35.800  1.00  0.00     0.125 A 
ATOM     10  N   UNL A   1      38.862  35.317  34.587  1.00  0.00    -0.166 NA
ATOM     11  C   UNL A   1      38.429  33.101  34.559  1.00  0.00     0.069 A 
ATOM     12  Br  UNL A   1      37.903  31.391  34.003  1.00  0.00    -0.047 Br
BRANCH   8  13
ATOM     13  C   UNL A   1      39.611  35.584  36.860  1.00  0.00     0.141 C 
ATOM     14  C   UNL A   1      39.227  35.021  38.216  1.00  0.00     0.029 C 
ENDBRANCH   8  13
ENDBRANCH   4   7
ENDBRANCH   2   3
ENDBRANCH   1   2
BRANCH   1  15
ATOM     15  C   UNL A   1      35.113  32.416  31.762  1.00  0.00     0.118 C 
BRANCH  15  16
ATOM     16  N   UNL A   1      34.405  32.391  30.481  1.00  0.00    -0.352 N 
ATOM     17  C   UNL A   1      34.886  32.082  29.230  1.00  0.00     0.251 C 
ATOM     18  H   UNL A   1      33.451  32.630  30.521  1.00  0.00     0.163 HD
ATOM     19  O   UNL A   1      34.256  32.415  28.227  1.00  0.00    -0.269 OA
BRANCH  17  20
ATOM     20  C   UNL A   1      36.172  31.376  29.086  1.00  0.00     0.039 A 
ATOM     21  C   UNL A   1      37.369  32.057  29.313  1.00  0.00     0.014 A 
ATOM     22  C   UNL A   1      36.186  30.028  28.725  1.00  0.00     0.014 A 
ATOM     23  C   UNL A   1      38.567  31.349  29.270  1.00  0.00     0.010 A 
ATOM     24  C   UNL A   1      37.358  29.303  28.799  1.00  0.00     0.010 A 
ATOM     25  C   UNL A   1      38.556  29.958  29.053  1.00  0.00    -0.014 A 
BRANCH  25  26
ATOM     26  C   UNL A   1      39.788  29.195  29.257  1.00  0.00     0.031 A 
ATOM     27  C   UNL A   1      40.137  28.983  30.689  1.00  0.00     0.074 A 
ATOM     28  C   UNL A   1      40.496  28.571  28.291  1.00  0.00     0.049 A 
ATOM     29  N   UNL A   1      41.149  29.467  31.329  1.00  0.00    -0.248 NA
ATOM     30  C   UNL A   1      39.182  28.260  31.545  1.00  0.00     0.031 C 
ATOM     31  C   UNL A   1      40.155  28.390  26.879  1.00  0.00     0.029 A 
ATOM     32  N   UNL A   1      41.667  27.878  28.407  1.00  0.00    -0.354 N 
ATOM     33  C   UNL A   1      41.064  28.970  32.626  1.00  0.00     0.074 A 
ATOM     34  C   UNL A   1      39.763  28.368  32.742  1.00  0.00     0.031 C 
ATOM     35  C   UNL A   1      40.972  27.463  26.330  1.00  0.00     0.029 A 
ATOM     36  C   UNL A   1      41.996  27.109  27.296  1.00  0.00     0.049 A 
ATOM     37  H   UNL A   1      42.232  27.918  29.212  1.00  0.00     0.167 HD
ATOM     38  C   UNL A   1      42.175  28.901  33.414  1.00  0.00     0.037 A 
ATOM     39  C   UNL A   1      43.026  26.233  27.185  1.00  0.00     0.037 A 
ATOM     40  C   UNL A   1      43.208  29.780  32.918  1.00  0.00     0.049 A 
ATOM     41  C   UNL A   1      44.022  26.588  28.224  1.00  0.00     0.074 A 
ATOM     42  C   UNL A   1      43.290  31.138  32.671  1.00  0.00     0.029 A 
ATOM     43  N   UNL A   1      44.261  29.221  32.238  1.00  0.00    -0.354 N 
ATOM     44  N   UNL A   1      44.745  27.671  28.204  1.00  0.00    -0.248 NA
ATOM     45  C   UNL A   1      43.915  25.929  29.515  1.00  0.00     0.031 C 
ATOM     46  C   UNL A   1      44.056  31.247  31.471  1.00  0.00     0.029 A 
ATOM     47  C   UNL A   1      44.458  29.963  31.104  1.00  0.00     0.049 A 
ATOM     48  H   UNL A   1      44.778  28.431  32.514  1.00  0.00     0.167 HD
ATOM     49  C   UNL A   1      44.792  28.078  29.527  1.00  0.00     0.074 A 
ATOM     50  C   UNL A   1      44.360  26.914  30.297  1.00  0.00     0.031 C 
ATOM     51  C   UNL A   1      44.900  29.399  29.851  1.00  0.00     0.037 A 
BRANCH  38  52
ATOM     52  C   UNL A   1      42.475  27.765  34.369  1.00  0.00     0.064 A 
ATOM     53  C   UNL A   1      43.025  26.571  33.852  1.00  0.00     0.173 A 
ATOM     54  C   UNL A   1      41.961  27.669  35.680  1.00  0.00     0.173 A 
ATOM     55  F   UNL A   1      43.544  26.535  32.615  1.00  0.00    -0.203 F 
ATOM     56  C   UNL A   1      42.954  25.360  34.546  1.00  0.00     0.198 A 
ATOM     57  C   UNL A   1      41.940  26.469  36.390  1.00  0.00     0.198 A 
ATOM     58  F   UNL A   1      41.357  28.693  36.292  1.00  0.00    -0.203 F 
ATOM     59  F   UNL A   1      43.353  24.229  33.949  1.00  0.00    -0.200 F 
ATOM     60  C   UNL A   1      42.400  25.308  35.809  1.00  0.00     0.200 A 
ATOM     61  F   UNL A   1      41.386  26.439  37.611  1.00  0.00    -0.200 F 
ATOM     62  F   UNL A   1      42.264  24.139  36.447  1.00  0.00    -0.200 F 
ENDBRANCH  38  52
BRANCH  39  63
ATOM     63  C   UNL A   1      43.113  24.961  26.425  1.00  0.00     0.064 A 
ATOM     64  C   UNL A   1      44.033  24.815  25.371  1.00  0.00     0.173 A 
ATOM     65  C   UNL A   1      42.526  23.778  26.910  1.00  0.00     0.173 A 
ATOM     66  F   UNL A   1      44.667  25.886  24.872  1.00  0.00    -0.203 F 
ATOM     67  C   UNL A   1      44.379  23.557  24.867  1.00  0.00     0.198 A 
ATOM     68  C   UNL A   1      42.866  22.524  26.399  1.00  0.00     0.198 A 
ATOM     69  F   UNL A   1      41.688  23.804  27.956  1.00  0.00    -0.203 F 
ATOM     70  F   UNL A   1      45.319  23.454  23.916  1.00  0.00    -0.200 F 
ATOM     71  C   UNL A   1      43.807  22.411  25.391  1.00  0.00     0.200 A 
ATOM     72  F   UNL A   1      42.332  21.420  26.940  1.00  0.00    -0.200 F 
ATOM     73  F   UNL A   1      44.192  21.202  24.961  1.00  0.00    -0.200 F 
ENDBRANCH  39  63
BRANCH  51  74
ATOM     74  C   UNL A   1      45.291  30.367  28.768  1.00  0.00     0.064 A 
ATOM     75  C   UNL A   1      44.393  30.969  27.868  1.00  0.00     0.173 A 
ATOM     76  C   UNL A   1      46.623  30.801  28.733  1.00  0.00     0.173 A 
ATOM     77  F   UNL A   1      43.085  30.685  27.897  1.00  0.00    -0.203 F 
ATOM     78  C   UNL A   1      44.826  31.926  26.950  1.00  0.00     0.198 A 
ATOM     79  C   UNL A   1      47.043  31.786  27.845  1.00  0.00     0.198 A 
ATOM     80  F   UNL A   1      47.518  30.298  29.599  1.00  0.00    -0.203 F 
ATOM     81  F   UNL A   1      43.955  32.472  26.088  1.00  0.00    -0.200 F 
ATOM     82  C   UNL A   1      46.148  32.340  26.946  1.00  0.00     0.200 A 
ATOM     83  F   UNL A   1      48.311  32.217  27.880  1.00  0.00    -0.200 F 
ATOM     84  F   UNL A   1      46.554  33.290  26.092  1.00  0.00    -0.200 F 
ENDBRANCH  51  74
ENDBRANCH  25  26
ENDBRANCH  17  20
ENDBRANCH  15  16
ENDBRANCH   1  15
TORSDOF 11
ENDMDL
