MODEL 1
REMARK VINA RESULT:     -12.3      0.000      0.000
REMARK SMILES CSc1ccc(C[NH+]2CCC(CC(=O)NCCCNC(=O)c3ccc(-c4c5nc(c(-c6c(F)c(F)c(F)c(F)c6F)c6ccc([nH]6)c(-c6c(F)c(F)c(F)c(F)c6F)c6nc(c(-c7c(F)c(F)c(F)c(F)c7F)c7ccc4[nH]7)C=C6)C=C5)cc3)CC2)cc1
REMARK SMILES IDX 16 1 15 2 13 3 14 4 12 6 11 7 8 8 9 9 86 10 10 12 85 13 7 14
REMARK SMILES IDX 6 15 3 16 4 17 88 18 5 19 87 20 2 21 1 22 17 23 18 24 19 25
REMARK SMILES IDX 20 26 21 28 22 29 23 30 84 31 24 32 83 33 25 34 26 35 27 36
REMARK SMILES IDX 77 37 28 38 82 39 76 40 78 41 29 42 81 43 75 44 74 45 30 47
REMARK SMILES IDX 62 48 42 49 61 50 43 51 46 52 60 53 79 54 44 55 45 56 59 58
REMARK SMILES IDX 80 59 47 60 31 61 32 62 40 63 33 64 34 65 38 66 41 67 35 68
REMARK SMILES IDX 36 69 39 70 37 71 63 72 64 73 72 74 65 75 66 76 70 77 73 78
REMARK SMILES IDX 67 79 68 80 71 81 69 82 48 83 49 84 57 85 50 86 51 87 55 88
REMARK SMILES IDX 58 89 52 90 53 91 56 92 54 93
REMARK H PARENT 15 5 8 11 19 27 78 46 46 57
REMARK Flexibility Score: inf
ROOT
ATOM      1  C   UNL A   1      31.412  30.874  26.145  1.00  0.00     0.117 C 
ENDROOT
BRANCH   1   2
ATOM      2  N   UNL A   1      30.951  30.597  24.790  1.00  0.00    -0.356 N 
ATOM      3  C   UNL A   1      30.737  29.421  24.130  1.00  0.00     0.220 C 
ATOM      4  O   UNL A   1      30.300  29.478  22.978  1.00  0.00    -0.275 OA
ATOM      5  H   UNL A   1      30.760  31.401  24.254  1.00  0.00     0.163 HD
BRANCH   3   6
ATOM      6  C   UNL A   1      31.063  28.080  24.770  1.00  0.00     0.104 C 
BRANCH   6   7
ATOM      7  C   UNL A   1      31.982  27.214  23.887  1.00  0.00     0.009 C 
ATOM      8  N   UNL A   1      33.144  24.537  23.517  1.00  0.00    -0.331 N 
ATOM      9  C   UNL A   1      33.984  25.633  23.999  1.00  0.00     0.262 C 
ATOM     10  C   UNL A   1      32.149  25.036  22.563  1.00  0.00     0.262 C 
ATOM     11  H   UNL A   1      32.624  24.157  24.309  1.00  0.00     0.348 HD
ATOM     12  C   UNL A   1      33.144  26.672  24.711  1.00  0.00     0.066 C 
ATOM     13  C   UNL A   1      31.212  26.048  23.246  1.00  0.00     0.066 C 
BRANCH   8  14
ATOM     14  C   UNL A   1      33.935  23.396  23.018  1.00  0.00     0.299 C 
BRANCH  14  15
ATOM     15  C   UNL A   1      33.612  22.051  23.638  1.00  0.00     0.006 A 
ATOM     16  C   UNL A   1      33.205  19.417  24.555  1.00  0.00     0.007 A 
ATOM     17  C   UNL A   1      32.298  20.014  23.673  1.00  0.00     0.015 A 
ATOM     18  C   UNL A   1      34.305  20.153  24.998  1.00  0.00     0.015 A 
ATOM     19  C   UNL A   1      32.492  21.323  23.226  1.00  0.00     0.011 A 
ATOM     20  C   UNL A   1      34.502  21.462  24.553  1.00  0.00     0.011 A 
BRANCH  16  21
ATOM     21  S   UNL A   1      32.949  17.707  24.996  1.00  0.00    -0.130 SA
ATOM     22  C   UNL A   1      33.572  16.869  23.516  1.00  0.00     0.091 C 
ENDBRANCH  16  21
ENDBRANCH  14  15
ENDBRANCH   8  14
ENDBRANCH   6   7
ENDBRANCH   3   6
ENDBRANCH   1   2
BRANCH   1  23
ATOM     23  C   UNL A   1      31.382  32.362  26.511  1.00  0.00     0.042 C 
BRANCH  23  24
ATOM     24  C   UNL A   1      32.631  32.871  27.219  1.00  0.00     0.118 C 
BRANCH  24  25
ATOM     25  N   UNL A   1      32.484  34.259  27.622  1.00  0.00    -0.352 N 
ATOM     26  C   UNL A   1      33.040  34.938  28.679  1.00  0.00     0.251 C 
ATOM     27  H   UNL A   1      31.894  34.798  27.047  1.00  0.00     0.163 HD
ATOM     28  O   UNL A   1      32.571  36.026  29.001  1.00  0.00    -0.269 OA
BRANCH  26  29
ATOM     29  C   UNL A   1      34.192  34.392  29.443  1.00  0.00     0.039 A 
ATOM     30  C   UNL A   1      35.483  34.573  28.928  1.00  0.00     0.014 A 
ATOM     31  C   UNL A   1      34.020  33.623  30.596  1.00  0.00     0.014 A 
ATOM     32  C   UNL A   1      36.589  34.013  29.577  1.00  0.00     0.010 A 
ATOM     33  C   UNL A   1      35.129  33.124  31.283  1.00  0.00     0.010 A 
ATOM     34  C   UNL A   1      36.424  33.294  30.770  1.00  0.00    -0.014 A 
BRANCH  34  35
ATOM     35  C   UNL A   1      37.581  32.667  31.467  1.00  0.00     0.031 A 
ATOM     36  C   UNL A   1      38.310  31.514  30.830  1.00  0.00     0.074 A 
ATOM     37  C   UNL A   1      37.944  33.089  32.694  1.00  0.00     0.049 A 
ATOM     38  N   UNL A   1      39.268  30.765  31.317  1.00  0.00    -0.248 NA
ATOM     39  C   UNL A   1      37.888  31.138  29.472  1.00  0.00     0.031 C 
ATOM     40  C   UNL A   1      37.307  34.176  33.438  1.00  0.00     0.029 A 
ATOM     41  N   UNL A   1      38.931  32.642  33.538  1.00  0.00    -0.354 N 
ATOM     42  C   UNL A   1      39.539  29.813  30.341  1.00  0.00     0.074 A 
ATOM     43  C   UNL A   1      38.620  30.056  29.250  1.00  0.00     0.031 C 
ATOM     44  C   UNL A   1      37.926  34.318  34.621  1.00  0.00     0.029 A 
ATOM     45  C   UNL A   1      38.979  33.312  34.735  1.00  0.00     0.049 A 
ATOM     46  H   UNL A   1      39.546  31.909  33.306  1.00  0.00     0.167 HD
ATOM     47  C   UNL A   1      40.478  28.837  30.346  1.00  0.00     0.037 A 
ATOM     48  C   UNL A   1      39.772  33.131  35.807  1.00  0.00     0.037 A 
ATOM     49  C   UNL A   1      41.423  28.620  31.410  1.00  0.00     0.049 A 
ATOM     50  C   UNL A   1      40.820  32.051  35.781  1.00  0.00     0.074 A 
ATOM     51  C   UNL A   1      42.451  27.696  31.477  1.00  0.00     0.029 A 
ATOM     52  N   UNL A   1      41.457  29.344  32.592  1.00  0.00    -0.354 N 
ATOM     53  N   UNL A   1      41.094  31.187  34.835  1.00  0.00    -0.248 NA
ATOM     54  C   UNL A   1      41.674  31.927  36.972  1.00  0.00     0.031 C 
ATOM     55  C   UNL A   1      43.088  27.838  32.714  1.00  0.00     0.029 A 
ATOM     56  C   UNL A   1      42.481  28.878  33.401  1.00  0.00     0.049 A 
ATOM     57  H   UNL A   1      40.845  30.079  32.822  1.00  0.00     0.167 HD
ATOM     58  C   UNL A   1      42.163  30.434  35.302  1.00  0.00     0.074 A 
ATOM     59  C   UNL A   1      42.497  30.951  36.613  1.00  0.00     0.031 C 
ATOM     60  C   UNL A   1      42.810  29.408  34.699  1.00  0.00     0.037 A 
BRANCH  47  61
ATOM     61  C   UNL A   1      40.531  27.922  29.157  1.00  0.00     0.064 A 
ATOM     62  C   UNL A   1      41.408  28.155  28.087  1.00  0.00     0.173 A 
ATOM     63  C   UNL A   1      39.720  26.778  29.103  1.00  0.00     0.173 A 
ATOM     64  F   UNL A   1      42.196  29.240  28.086  1.00  0.00    -0.203 F 
ATOM     65  C   UNL A   1      41.448  27.296  26.993  1.00  0.00     0.198 A 
ATOM     66  C   UNL A   1      39.783  25.906  28.020  1.00  0.00     0.198 A 
ATOM     67  F   UNL A   1      38.869  26.503  30.104  1.00  0.00    -0.203 F 
ATOM     68  F   UNL A   1      42.258  27.566  25.960  1.00  0.00    -0.200 F 
ATOM     69  C   UNL A   1      40.640  26.168  26.963  1.00  0.00     0.200 A 
ATOM     70  F   UNL A   1      39.011  24.809  27.998  1.00  0.00    -0.200 F 
ATOM     71  F   UNL A   1      40.684  25.339  25.910  1.00  0.00    -0.200 F 
ENDBRANCH  47  61
BRANCH  48  72
ATOM     72  C   UNL A   1      39.621  34.011  36.994  1.00  0.00     0.064 A 
ATOM     73  C   UNL A   1      38.820  33.622  38.077  1.00  0.00     0.173 A 
ATOM     74  C   UNL A   1      40.273  35.249  37.074  1.00  0.00     0.173 A 
ATOM     75  F   UNL A   1      38.160  32.456  38.036  1.00  0.00    -0.203 F 
ATOM     76  C   UNL A   1      38.666  34.446  39.189  1.00  0.00     0.198 A 
ATOM     77  C   UNL A   1      40.136  36.063  38.196  1.00  0.00     0.198 A 
ATOM     78  F   UNL A   1      41.053  35.665  36.065  1.00  0.00    -0.203 F 
ATOM     79  F   UNL A   1      37.864  34.068  40.195  1.00  0.00    -0.200 F 
ATOM     80  C   UNL A   1      39.329  35.663  39.251  1.00  0.00     0.200 A 
ATOM     81  F   UNL A   1      40.787  37.232  38.255  1.00  0.00    -0.200 F 
ATOM     82  F   UNL A   1      39.184  36.454  40.323  1.00  0.00    -0.200 F 
ENDBRANCH  48  72
BRANCH  60  83
ATOM     83  C   UNL A   1      43.967  28.796  35.430  1.00  0.00     0.064 A 
ATOM     84  C   UNL A   1      45.278  29.261  35.250  1.00  0.00     0.173 A 
ATOM     85  C   UNL A   1      43.755  27.764  36.356  1.00  0.00     0.173 A 
ATOM     86  F   UNL A   1      45.533  30.235  34.364  1.00  0.00    -0.203 F 
ATOM     87  C   UNL A   1      46.338  28.700  35.957  1.00  0.00     0.198 A 
ATOM     88  C   UNL A   1      44.814  27.222  37.079  1.00  0.00     0.198 A 
ATOM     89  F   UNL A   1      42.519  27.289  36.568  1.00  0.00    -0.203 F 
ATOM     90  F   UNL A   1      47.589  29.132  35.741  1.00  0.00    -0.200 F 
ATOM     91  C   UNL A   1      46.105  27.687  36.875  1.00  0.00     0.200 A 
ATOM     92  F   UNL A   1      44.585  26.251  37.973  1.00  0.00    -0.200 F 
ATOM     93  F   UNL A   1      47.126  27.152  37.560  1.00  0.00    -0.200 F 
ENDBRANCH  60  83
ENDBRANCH  34  35
ENDBRANCH  26  29
ENDBRANCH  24  25
ENDBRANCH  23  24
ENDBRANCH   1  23
TORSDOF 14
ENDMDL
MODEL 2
REMARK VINA RESULT:     -12.2      6.023     11.453
REMARK SMILES CSc1ccc(C[NH+]2CCC(CC(=O)NCCCNC(=O)c3ccc(-c4c5nc(c(-c6c(F)c(F)c(F)c(F)c6F)c6ccc([nH]6)c(-c6c(F)c(F)c(F)c(F)c6F)c6nc(c(-c7c(F)c(F)c(F)c(F)c7F)c7ccc4[nH]7)C=C6)C=C5)cc3)CC2)cc1
REMARK SMILES IDX 16 1 15 2 13 3 14 4 12 6 11 7 8 8 9 9 86 10 10 12 85 13 7 14
REMARK SMILES IDX 6 15 3 16 4 17 88 18 5 19 87 20 2 21 1 22 17 23 18 24 19 25
REMARK SMILES IDX 20 26 21 28 22 29 23 30 84 31 24 32 83 33 25 34 26 35 27 36
REMARK SMILES IDX 77 37 28 38 82 39 76 40 78 41 29 42 81 43 75 44 74 45 30 47
REMARK SMILES IDX 62 48 42 49 61 50 43 51 46 52 60 53 79 54 44 55 45 56 59 58
REMARK SMILES IDX 80 59 47 60 31 61 32 62 40 63 33 64 34 65 38 66 41 67 35 68
REMARK SMILES IDX 36 69 39 70 37 71 63 72 64 73 72 74 65 75 66 76 70 77 73 78
REMARK SMILES IDX 67 79 68 80 71 81 69 82 48 83 49 84 57 85 50 86 51 87 55 88
REMARK SMILES IDX 58 89 52 90 53 91 56 92 54 93
REMARK H PARENT 15 5 8 11 19 27 78 46 46 57
REMARK Flexibility Score: inf
ROOT
ATOM      1  C   UNL A   1      36.584  20.280  24.947  1.00  0.00     0.117 C 
ENDROOT
BRANCH   1   2
ATOM      2  N   UNL A   1      35.347  19.516  25.058  1.00  0.00    -0.356 N 
ATOM      3  C   UNL A   1      34.068  19.806  24.676  1.00  0.00     0.220 C 
ATOM      4  O   UNL A   1      33.204  18.945  24.860  1.00  0.00    -0.275 OA
ATOM      5  H   UNL A   1      35.452  18.635  25.485  1.00  0.00     0.163 HD
BRANCH   3   6
ATOM      6  C   UNL A   1      33.703  21.157  24.082  1.00  0.00     0.104 C 
BRANCH   6   7
ATOM      7  C   UNL A   1      33.285  22.180  25.156  1.00  0.00     0.009 C 
ATOM      8  N   UNL A   1      31.973  24.768  25.638  1.00  0.00    -0.331 N 
ATOM      9  C   UNL A   1      33.429  24.661  25.744  1.00  0.00     0.262 C 
ATOM     10  C   UNL A   1      31.334  23.532  26.097  1.00  0.00     0.262 C 
ATOM     11  H   UNL A   1      31.729  24.875  24.653  1.00  0.00     0.348 HD
ATOM     12  C   UNL A   1      33.941  23.528  24.881  1.00  0.00     0.066 C 
ATOM     13  C   UNL A   1      31.759  22.347  25.212  1.00  0.00     0.066 C 
BRANCH   8  14
ATOM     14  C   UNL A   1      31.449  25.990  26.279  1.00  0.00     0.299 C 
BRANCH  14  15
ATOM     15  C   UNL A   1      30.888  27.036  25.336  1.00  0.00     0.006 A 
ATOM     16  C   UNL A   1      30.051  28.856  23.353  1.00  0.00     0.007 A 
ATOM     17  C   UNL A   1      31.049  29.207  24.269  1.00  0.00     0.015 A 
ATOM     18  C   UNL A   1      29.453  27.598  23.450  1.00  0.00     0.015 A 
ATOM     19  C   UNL A   1      31.458  28.310  25.258  1.00  0.00     0.011 A 
ATOM     20  C   UNL A   1      29.860  26.699  24.439  1.00  0.00     0.011 A 
BRANCH  16  21
ATOM     21  S   UNL A   1      29.659  30.012  22.051  1.00  0.00    -0.130 SA
ATOM     22  C   UNL A   1      27.851  29.905  22.025  1.00  0.00     0.091 C 
ENDBRANCH  16  21
ENDBRANCH  14  15
ENDBRANCH   8  14
ENDBRANCH   6   7
ENDBRANCH   3   6
ENDBRANCH   1   2
BRANCH   1  23
ATOM     23  C   UNL A   1      37.846  19.411  24.971  1.00  0.00     0.042 C 
BRANCH  23  24
ATOM     24  C   UNL A   1      39.058  20.063  25.624  1.00  0.00     0.118 C 
BRANCH  24  25
ATOM     25  N   UNL A   1      40.110  19.093  25.875  1.00  0.00    -0.352 N 
ATOM     26  C   UNL A   1      41.460  19.279  26.061  1.00  0.00     0.251 C 
ATOM     27  H   UNL A   1      39.810  18.157  25.921  1.00  0.00     0.163 HD
ATOM     28  O   UNL A   1      42.210  18.310  25.983  1.00  0.00    -0.269 OA
BRANCH  26  29
ATOM     29  C   UNL A   1      42.034  20.618  26.353  1.00  0.00     0.039 A 
ATOM     30  C   UNL A   1      42.283  20.963  27.689  1.00  0.00     0.014 A 
ATOM     31  C   UNL A   1      42.237  21.572  25.354  1.00  0.00     0.014 A 
ATOM     32  C   UNL A   1      42.755  22.239  28.014  1.00  0.00     0.010 A 
ATOM     33  C   UNL A   1      42.776  22.821  25.670  1.00  0.00     0.010 A 
ATOM     34  C   UNL A   1      43.020  23.177  27.006  1.00  0.00    -0.014 A 
BRANCH  34  35
ATOM     35  C   UNL A   1      43.500  24.550  27.326  1.00  0.00     0.031 A 
ATOM     36  C   UNL A   1      42.545  25.570  27.887  1.00  0.00     0.074 A 
ATOM     37  C   UNL A   1      44.773  24.903  27.063  1.00  0.00     0.049 A 
ATOM     38  N   UNL A   1      42.737  26.843  28.131  1.00  0.00    -0.248 NA
ATOM     39  C   UNL A   1      41.184  25.101  28.191  1.00  0.00     0.031 C 
ATOM     40  C   UNL A   1      45.795  24.023  26.495  1.00  0.00     0.029 A 
ATOM     41  N   UNL A   1      45.420  26.103  27.226  1.00  0.00    -0.354 N 
ATOM     42  C   UNL A   1      41.517  27.330  28.585  1.00  0.00     0.074 A 
ATOM     43  C   UNL A   1      40.582  26.226  28.548  1.00  0.00     0.031 C 
ATOM     44  C   UNL A   1      46.942  24.710  26.367  1.00  0.00     0.029 A 
ATOM     45  C   UNL A   1      46.729  26.085  26.811  1.00  0.00     0.049 A 
ATOM     46  H   UNL A   1      44.986  26.902  27.605  1.00  0.00     0.167 HD
ATOM     47  C   UNL A   1      41.207  28.579  29.009  1.00  0.00     0.037 A 
ATOM     48  C   UNL A   1      47.650  27.067  26.780  1.00  0.00     0.037 A 
ATOM     49  C   UNL A   1      42.144  29.668  29.090  1.00  0.00     0.049 A 
ATOM     50  C   UNL A   1      47.287  28.440  27.275  1.00  0.00     0.074 A 
ATOM     51  C   UNL A   1      41.939  30.951  29.567  1.00  0.00     0.029 A 
ATOM     52  N   UNL A   1      43.470  29.597  28.690  1.00  0.00    -0.354 N 
ATOM     53  N   UNL A   1      46.143  28.876  27.742  1.00  0.00    -0.248 NA
ATOM     54  C   UNL A   1      48.348  29.458  27.244  1.00  0.00     0.031 C 
ATOM     55  C   UNL A   1      43.132  31.668  29.424  1.00  0.00     0.029 A 
ATOM     56  C   UNL A   1      44.091  30.818  28.896  1.00  0.00     0.049 A 
ATOM     57  H   UNL A   1      43.906  28.798  28.315  1.00  0.00     0.167 HD
ATOM     58  C   UNL A   1      46.350  30.206  28.082  1.00  0.00     0.074 A 
ATOM     59  C   UNL A   1      47.734  30.505  27.779  1.00  0.00     0.031 C 
ATOM     60  C   UNL A   1      45.472  31.099  28.600  1.00  0.00     0.037 A 
BRANCH  47  61
ATOM     61  C   UNL A   1      39.788  28.837  29.423  1.00  0.00     0.064 A 
ATOM     62  C   UNL A   1      39.355  28.629  30.742  1.00  0.00     0.173 A 
ATOM     63  C   UNL A   1      38.856  29.331  28.497  1.00  0.00     0.173 A 
ATOM     64  F   UNL A   1      40.205  28.148  31.661  1.00  0.00    -0.203 F 
ATOM     65  C   UNL A   1      38.036  28.877  31.111  1.00  0.00     0.198 A 
ATOM     66  C   UNL A   1      37.545  29.604  28.877  1.00  0.00     0.198 A 
ATOM     67  F   UNL A   1      39.219  29.555  27.225  1.00  0.00    -0.203 F 
ATOM     68  F   UNL A   1      37.634  28.625  32.364  1.00  0.00    -0.200 F 
ATOM     69  C   UNL A   1      37.133  29.370  30.180  1.00  0.00     0.200 A 
ATOM     70  F   UNL A   1      36.676  30.093  27.979  1.00  0.00    -0.200 F 
ATOM     71  F   UNL A   1      35.864  29.612  30.538  1.00  0.00    -0.200 F 
ENDBRANCH  47  61
BRANCH  48  72
ATOM     72  C   UNL A   1      49.018  26.778  26.281  1.00  0.00     0.064 A 
ATOM     73  C   UNL A   1      50.001  26.267  27.141  1.00  0.00     0.173 A 
ATOM     74  C   UNL A   1      49.370  27.000  24.943  1.00  0.00     0.173 A 
ATOM     75  F   UNL A   1      49.717  26.059  28.434  1.00  0.00    -0.203 F 
ATOM     76  C   UNL A   1      51.290  26.003  26.682  1.00  0.00     0.198 A 
ATOM     77  C   UNL A   1      50.653  26.715  24.480  1.00  0.00     0.198 A 
ATOM     78  F   UNL A   1      48.465  27.486  24.080  1.00  0.00    -0.203 F 
ATOM     79  F   UNL A   1      52.222  25.551  27.532  1.00  0.00    -0.200 F 
ATOM     80  C   UNL A   1      51.613  26.221  25.350  1.00  0.00     0.200 A 
ATOM     81  F   UNL A   1      50.957  26.916  23.191  1.00  0.00    -0.200 F 
ATOM     82  F   UNL A   1      52.851  25.963  24.908  1.00  0.00    -0.200 F 
ENDBRANCH  48  72
BRANCH  60  83
ATOM     83  C   UNL A   1      45.986  32.474  28.906  1.00  0.00     0.064 A 
ATOM     84  C   UNL A   1      45.888  33.518  27.975  1.00  0.00     0.173 A 
ATOM     85  C   UNL A   1      46.542  32.761  30.161  1.00  0.00     0.173 A 
ATOM     86  F   UNL A   1      45.378  33.289  26.755  1.00  0.00    -0.203 F 
ATOM     87  C   UNL A   1      46.345  34.797  28.284  1.00  0.00     0.198 A 
ATOM     88  C   UNL A   1      46.976  34.046  30.475  1.00  0.00     0.198 A 
ATOM     89  F   UNL A   1      46.653  31.797  31.088  1.00  0.00    -0.203 F 
ATOM     90  F   UNL A   1      46.277  35.771  27.365  1.00  0.00    -0.200 F 
ATOM     91  C   UNL A   1      46.882  35.061  29.535  1.00  0.00     0.200 A 
ATOM     92  F   UNL A   1      47.485  34.301  31.688  1.00  0.00    -0.200 F 
ATOM     93  F   UNL A   1      47.316  36.293  29.833  1.00  0.00    -0.200 F 
ENDBRANCH  60  83
ENDBRANCH  34  35
ENDBRANCH  26  29
ENDBRANCH  24  25
ENDBRANCH  23  24
ENDBRANCH   1  23
TORSDOF 14
ENDMDL
MODEL 3
REMARK VINA RESULT:     -12.1      5.812     11.002
REMARK SMILES CSc1ccc(C[NH+]2CCC(CC(=O)NCCCNC(=O)c3ccc(-c4c5nc(c(-c6c(F)c(F)c(F)c(F)c6F)c6ccc([nH]6)c(-c6c(F)c(F)c(F)c(F)c6F)c6nc(c(-c7c(F)c(F)c(F)c(F)c7F)c7ccc4[nH]7)C=C6)C=C5)cc3)CC2)cc1
REMARK SMILES IDX 16 1 15 2 13 3 14 4 12 6 11 7 8 8 9 9 86 10 10 12 85 13 7 14
REMARK SMILES IDX 6 15 3 16 4 17 88 18 5 19 87 20 2 21 1 22 17 23 18 24 19 25
REMARK SMILES IDX 20 26 21 28 22 29 23 30 84 31 24 32 83 33 25 34 26 35 27 36
REMARK SMILES IDX 77 37 28 38 82 39 76 40 78 41 29 42 81 43 75 44 74 45 30 47
REMARK SMILES IDX 62 48 42 49 61 50 43 51 46 52 60 53 79 54 44 55 45 56 59 58
REMARK SMILES IDX 80 59 47 60 31 61 32 62 40 63 33 64 34 65 38 66 41 67 35 68
REMARK SMILES IDX 36 69 39 70 37 71 63 72 64 73 72 74 65 75 66 76 70 77 73 78
REMARK SMILES IDX 67 79 68 80 71 81 69 82 48 83 49 84 57 85 50 86 51 87 55 88
REMARK SMILES IDX 58 89 52 90 53 91 56 92 54 93
REMARK H PARENT 15 5 8 11 19 27 78 46 46 57
REMARK Flexibility Score: inf
ROOT
ATOM      1  C   UNL A   1      36.494  20.563  25.024  1.00  0.00     0.117 C 
ENDROOT
BRANCH   1   2
ATOM      2  N   UNL A   1      35.287  19.791  25.293  1.00  0.00    -0.356 N 
ATOM      3  C   UNL A   1      33.994  19.967  24.891  1.00  0.00     0.220 C 
ATOM      4  O   UNL A   1      33.163  19.125  25.241  1.00  0.00    -0.275 OA
ATOM      5  H   UNL A   1      35.428  19.004  25.867  1.00  0.00     0.163 HD
BRANCH   3   6
ATOM      6  C   UNL A   1      33.573  21.179  24.074  1.00  0.00     0.104 C 
BRANCH   6   7
ATOM      7  C   UNL A   1      33.415  22.445  24.937  1.00  0.00     0.009 C 
ATOM      8  N   UNL A   1      31.727  24.790  25.489  1.00  0.00    -0.331 N 
ATOM      9  C   UNL A   1      32.992  24.958  24.774  1.00  0.00     0.262 C 
ATOM     10  C   UNL A   1      31.842  23.725  26.490  1.00  0.00     0.262 C 
ATOM     11  H   UNL A   1      31.017  24.488  24.821  1.00  0.00     0.348 HD
ATOM     12  C   UNL A   1      33.365  23.683  24.049  1.00  0.00     0.066 C 
ATOM     13  C   UNL A   1      32.150  22.380  25.808  1.00  0.00     0.066 C 
BRANCH   8  14
ATOM     14  C   UNL A   1      31.207  26.064  26.024  1.00  0.00     0.299 C 
BRANCH  14  15
ATOM     15  C   UNL A   1      30.820  27.101  24.989  1.00  0.00     0.006 A 
ATOM     16  C   UNL A   1      29.884  29.146  23.290  1.00  0.00     0.007 A 
ATOM     17  C   UNL A   1      29.347  27.855  23.217  1.00  0.00     0.015 A 
ATOM     18  C   UNL A   1      30.911  29.404  24.199  1.00  0.00     0.015 A 
ATOM     19  C   UNL A   1      29.817  26.839  24.051  1.00  0.00     0.011 A 
ATOM     20  C   UNL A   1      31.383  28.388  25.034  1.00  0.00     0.011 A 
BRANCH  16  21
ATOM     21  S   UNL A   1      29.158  30.418  22.269  1.00  0.00    -0.130 SA
ATOM     22  C   UNL A   1      28.326  31.431  23.518  1.00  0.00     0.091 C 
ENDBRANCH  16  21
ENDBRANCH  14  15
ENDBRANCH   8  14
ENDBRANCH   6   7
ENDBRANCH   3   6
ENDBRANCH   1   2
BRANCH   1  23
ATOM     23  C   UNL A   1      37.767  19.712  24.977  1.00  0.00     0.042 C 
BRANCH  23  24
ATOM     24  C   UNL A   1      38.945  20.279  25.760  1.00  0.00     0.118 C 
BRANCH  24  25
ATOM     25  N   UNL A   1      40.024  19.313  25.869  1.00  0.00    -0.352 N 
ATOM     26  C   UNL A   1      41.374  19.509  26.038  1.00  0.00     0.251 C 
ATOM     27  H   UNL A   1      39.745  18.371  25.813  1.00  0.00     0.163 HD
ATOM     28  O   UNL A   1      42.142  18.574  25.828  1.00  0.00    -0.269 OA
BRANCH  26  29
ATOM     29  C   UNL A   1      41.929  20.819  26.468  1.00  0.00     0.039 A 
ATOM     30  C   UNL A   1      42.028  21.086  27.840  1.00  0.00     0.014 A 
ATOM     31  C   UNL A   1      42.256  21.822  25.553  1.00  0.00     0.014 A 
ATOM     32  C   UNL A   1      42.477  22.334  28.288  1.00  0.00     0.010 A 
ATOM     33  C   UNL A   1      42.771  23.041  25.998  1.00  0.00     0.010 A 
ATOM     34  C   UNL A   1      42.867  23.320  27.370  1.00  0.00    -0.014 A 
BRANCH  34  35
ATOM     35  C   UNL A   1      43.324  24.664  27.819  1.00  0.00     0.031 A 
ATOM     36  C   UNL A   1      42.315  25.723  28.177  1.00  0.00     0.074 A 
ATOM     37  C   UNL A   1      44.638  24.957  27.853  1.00  0.00     0.049 A 
ATOM     38  N   UNL A   1      42.504  26.982  28.486  1.00  0.00    -0.248 NA
ATOM     39  C   UNL A   1      40.901  25.317  28.160  1.00  0.00     0.031 C 
ATOM     40  C   UNL A   1      45.720  24.036  27.506  1.00  0.00     0.029 A 
ATOM     41  N   UNL A   1      45.286  26.123  28.183  1.00  0.00    -0.354 N 
ATOM     42  C   UNL A   1      41.237  27.523  28.668  1.00  0.00     0.074 A 
ATOM     43  C   UNL A   1      40.286  26.466  28.400  1.00  0.00     0.031 C 
ATOM     44  C   UNL A   1      46.897  24.667  27.652  1.00  0.00     0.029 A 
ATOM     45  C   UNL A   1      46.652  26.046  28.068  1.00  0.00     0.049 A 
ATOM     46  H   UNL A   1      44.815  26.937  28.473  1.00  0.00     0.167 HD
ATOM     47  C   UNL A   1      40.897  28.780  29.040  1.00  0.00     0.037 A 
ATOM     48  C   UNL A   1      47.600  26.982  28.264  1.00  0.00     0.037 A 
ATOM     49  C   UNL A   1      41.841  29.821  29.351  1.00  0.00     0.049 A 
ATOM     50  C   UNL A   1      47.198  28.366  28.696  1.00  0.00     0.074 A 
ATOM     51  C   UNL A   1      41.592  31.107  29.798  1.00  0.00     0.029 A 
ATOM     52  N   UNL A   1      43.217  29.690  29.254  1.00  0.00    -0.354 N 
ATOM     53  N   UNL A   1      46.000  28.851  28.907  1.00  0.00    -0.248 NA
ATOM     54  C   UNL A   1      48.284  29.331  28.924  1.00  0.00     0.031 C 
ATOM     55  C   UNL A   1      42.818  31.767  29.940  1.00  0.00     0.029 A 
ATOM     56  C   UNL A   1      43.832  30.878  29.619  1.00  0.00     0.049 A 
ATOM     57  H   UNL A   1      43.689  28.876  28.967  1.00  0.00     0.167 HD
ATOM     58  C   UNL A   1      46.185  30.166  29.314  1.00  0.00     0.074 A 
ATOM     59  C   UNL A   1      47.614  30.400  29.332  1.00  0.00     0.031 C 
ATOM     60  C   UNL A   1      45.255  31.094  29.643  1.00  0.00     0.037 A 
BRANCH  47  61
ATOM     61  C   UNL A   1      39.434  29.102  29.135  1.00  0.00     0.064 A 
ATOM     62  C   UNL A   1      38.752  29.076  30.360  1.00  0.00     0.173 A 
ATOM     63  C   UNL A   1      38.713  29.475  27.990  1.00  0.00     0.173 A 
ATOM     64  F   UNL A   1      39.393  28.716  31.481  1.00  0.00    -0.203 F 
ATOM     65  C   UNL A   1      37.395  29.381  30.431  1.00  0.00     0.198 A 
ATOM     66  C   UNL A   1      37.364  29.807  28.069  1.00  0.00     0.198 A 
ATOM     67  F   UNL A   1      39.320  29.524  26.794  1.00  0.00    -0.203 F 
ATOM     68  F   UNL A   1      36.753  29.302  31.605  1.00  0.00    -0.200 F 
ATOM     69  C   UNL A   1      36.703  29.752  29.287  1.00  0.00     0.200 A 
ATOM     70  F   UNL A   1      36.699  30.178  26.965  1.00  0.00    -0.200 F 
ATOM     71  F   UNL A   1      35.398  30.050  29.359  1.00  0.00    -0.200 F 
ENDBRANCH  47  61
BRANCH  48  72
ATOM     72  C   UNL A   1      49.031  26.633  28.075  1.00  0.00     0.064 A 
ATOM     73  C   UNL A   1      49.597  26.601  26.793  1.00  0.00     0.173 A 
ATOM     74  C   UNL A   1      49.860  26.331  29.164  1.00  0.00     0.173 A 
ATOM     75  F   UNL A   1      48.837  26.861  25.719  1.00  0.00    -0.203 F 
ATOM     76  C   UNL A   1      50.936  26.265  26.607  1.00  0.00     0.198 A 
ATOM     77  C   UNL A   1      51.204  26.017  28.979  1.00  0.00     0.198 A 
ATOM     78  F   UNL A   1      49.366  26.350  30.412  1.00  0.00    -0.203 F 
ATOM     79  F   UNL A   1      51.444  26.205  25.368  1.00  0.00    -0.200 F 
ATOM     80  C   UNL A   1      51.741  25.980  27.700  1.00  0.00     0.200 A 
ATOM     81  F   UNL A   1      51.980  25.753  30.039  1.00  0.00    -0.200 F 
ATOM     82  F   UNL A   1      53.030  25.661  27.521  1.00  0.00    -0.200 F 
ENDBRANCH  48  72
BRANCH  60  83
ATOM     83  C   UNL A   1      45.749  32.439  30.086  1.00  0.00     0.064 A 
ATOM     84  C   UNL A   1      46.058  32.701  31.429  1.00  0.00     0.173 A 
ATOM     85  C   UNL A   1      45.959  33.461  29.150  1.00  0.00     0.173 A 
ATOM     86  F   UNL A   1      45.860  31.760  32.364  1.00  0.00    -0.203 F 
ATOM     87  C   UNL A   1      46.542  33.947  31.821  1.00  0.00     0.198 A 
ATOM     88  C   UNL A   1      46.466  34.698  29.541  1.00  0.00     0.198 A 
ATOM     89  F   UNL A   1      45.684  33.258  27.853  1.00  0.00    -0.203 F 
ATOM     90  F   UNL A   1      46.794  34.189  33.115  1.00  0.00    -0.200 F 
ATOM     91  C   UNL A   1      46.752  34.941  30.877  1.00  0.00     0.200 A 
ATOM     92  F   UNL A   1      46.678  35.653  28.626  1.00  0.00    -0.200 F 
ATOM     93  F   UNL A   1      47.224  36.137  31.254  1.00  0.00    -0.200 F 
ENDBRANCH  60  83
ENDBRANCH  34  35
ENDBRANCH  26  29
ENDBRANCH  24  25
ENDBRANCH  23  24
ENDBRANCH   1  23
TORSDOF 14
ENDMDL
