MODEL 1
REMARK VINA RESULT:     -14.2      0.000      0.000
REMARK SMILES Cc1nccn1CCC[NH+]1CCC2(CC1)[C@@H](C(=O)NCCCNC(=O)c1ccc(-c3c4nc(c(-c5c(F)c(F)c(F)c(F)c5F)c5ccc([nH]5)c(-c5c(F)c(F)c(F)c(F)c5F)c5nc(c(-c6c(F)c(F)c(F)c(F)c6F)c6ccc3[nH]6)C=C5)C=C4)cc1)CC(=O)N2C
REMARK SMILES IDX 20 1 19 2 17 3 18 4 16 6 10 7 11 8 15 9 12 11 14 12 13 13
REMARK SMILES IDX 92 14 89 15 90 16 93 17 91 18 9 19 8 20 7 21 6 22 1 23 2 24
REMARK SMILES IDX 3 25 4 26 5 27 21 28 22 29 23 30 24 31 25 33 26 34 27 35
REMARK SMILES IDX 88 36 28 37 87 38 29 39 30 40 31 41 81 42 32 43 86 44 80 45
REMARK SMILES IDX 82 46 33 47 85 48 79 49 78 50 34 52 66 53 46 54 65 55 47 56
REMARK SMILES IDX 50 57 64 58 83 59 48 60 49 61 63 63 84 64 51 65 35 66 36 67
REMARK SMILES IDX 44 68 37 69 38 70 42 71 45 72 39 73 40 74 43 75 41 76 67 77
REMARK SMILES IDX 68 78 76 79 69 80 70 81 74 82 77 83 71 84 72 85 75 86 73 87
REMARK SMILES IDX 52 88 53 89 61 90 54 91 55 92 59 93 62 94 56 95 57 96 60 97
REMARK SMILES IDX 58 98
REMARK H PARENT 19 5 10 10 23 32 82 51 50 62
REMARK Flexibility Score: inf
ROOT
ATOM      1  C   UNL A   1      31.830  28.148  26.272  1.00  0.00     0.117 C 
ENDROOT
BRANCH   1   2
ATOM      2  N   UNL A   1      31.424  26.867  26.832  1.00  0.00    -0.356 N 
ATOM      3  C   UNL A   1      31.738  25.585  26.500  1.00  0.00     0.226 C 
ATOM      4  O   UNL A   1      30.940  24.739  26.909  1.00  0.00    -0.275 OA
ATOM      5  H   UNL A   1      30.806  26.942  27.594  1.00  0.00     0.163 HD
BRANCH   3   6
ATOM      6  C   UNL A   1      32.907  25.230  25.568  1.00  0.00     0.114 C 
ATOM      7  N   UNL A   1      32.086  27.720  22.003  1.00  0.00    -0.335 N 
ATOM      8  C   UNL A   1      33.479  27.431  22.351  1.00  0.00     0.264 C 
ATOM      9  C   UNL A   1      31.236  26.538  22.179  1.00  0.00     0.264 C 
ATOM     10  H   UNL A   1      32.058  27.944  21.008  1.00  0.00     0.348 HD
ATOM     11  C   UNL A   1      33.664  26.799  23.733  1.00  0.00     0.091 C 
ATOM     12  C   UNL A   1      31.309  25.917  23.573  1.00  0.00     0.091 C 
ATOM     13  C   UNL A   1      32.744  25.583  24.025  1.00  0.00     0.065 C 
ATOM     14  N   UNL A   1      33.254  24.351  23.358  1.00  0.00    -0.339 N 
ATOM     15  C   UNL A   1      33.313  23.761  25.602  1.00  0.00     0.116 C 
ATOM     16  C   UNL A   1      33.632  23.349  24.221  1.00  0.00     0.223 C 
ATOM     17  C   UNL A   1      33.117  24.001  21.957  1.00  0.00     0.147 C 
ATOM     18  O   UNL A   1      34.083  22.252  23.931  1.00  0.00    -0.275 OA
BRANCH   7  19
ATOM     19  C   UNL A   1      31.571  28.930  22.661  1.00  0.00     0.264 C 
BRANCH  19  20
ATOM     20  C   UNL A   1      30.092  29.144  22.307  1.00  0.00     0.083 C 
BRANCH  20  21
ATOM     21  C   UNL A   1      29.439  30.388  22.923  1.00  0.00     0.129 C 
BRANCH  21  22
ATOM     22  N   UNL A   1      28.673  31.237  22.026  1.00  0.00    -0.335 N 
ATOM     23  C   UNL A   1      29.092  33.459  23.173  1.00  0.00     0.087 C 
ATOM     24  C   UNL A   1      28.588  32.615  22.063  1.00  0.00     0.105 A 
ATOM     25  N   UNL A   1      27.995  33.080  20.979  1.00  0.00    -0.242 NA
ATOM     26  C   UNL A   1      27.652  31.988  20.241  1.00  0.00     0.131 A 
ATOM     27  C   UNL A   1      28.028  30.840  20.888  1.00  0.00     0.107 A 
ENDBRANCH  21  22
ENDBRANCH  20  21
ENDBRANCH  19  20
ENDBRANCH   7  19
ENDBRANCH   3   6
ENDBRANCH   1   2
BRANCH   1  28
ATOM     28  C   UNL A   1      32.208  29.167  27.339  1.00  0.00     0.042 C 
BRANCH  28  29
ATOM     29  C   UNL A   1      33.690  29.455  27.353  1.00  0.00     0.118 C 
BRANCH  29  30
ATOM     30  N   UNL A   1      34.012  30.873  27.153  1.00  0.00    -0.352 N 
ATOM     31  C   UNL A   1      35.118  31.557  27.625  1.00  0.00     0.251 C 
ATOM     32  H   UNL A   1      33.369  31.397  26.622  1.00  0.00     0.163 HD
ATOM     33  O   UNL A   1      35.161  32.784  27.650  1.00  0.00    -0.269 OA
BRANCH  31  34
ATOM     34  C   UNL A   1      36.256  30.756  28.090  1.00  0.00     0.039 A 
ATOM     35  C   UNL A   1      36.474  29.441  27.672  1.00  0.00     0.014 A 
ATOM     36  C   UNL A   1      37.183  31.430  28.875  1.00  0.00     0.014 A 
ATOM     37  C   UNL A   1      37.685  28.839  27.998  1.00  0.00     0.010 A 
ATOM     38  C   UNL A   1      38.449  30.942  28.955  1.00  0.00     0.010 A 
ATOM     39  C   UNL A   1      38.671  29.611  28.627  1.00  0.00    -0.014 A 
BRANCH  39  40
ATOM     40  C   UNL A   1      39.992  29.100  28.936  1.00  0.00     0.031 A 
ATOM     41  C   UNL A   1      40.247  28.831  30.372  1.00  0.00     0.074 A 
ATOM     42  C   UNL A   1      40.797  28.650  27.948  1.00  0.00     0.049 A 
ATOM     43  N   UNL A   1      41.104  29.422  31.135  1.00  0.00    -0.248 NA
ATOM     44  C   UNL A   1      39.360  27.900  31.088  1.00  0.00     0.031 C 
ATOM     45  C   UNL A   1      40.525  28.566  26.506  1.00  0.00     0.029 A 
ATOM     46  N   UNL A   1      41.997  28.029  28.057  1.00  0.00    -0.354 N 
ATOM     47  C   UNL A   1      41.012  28.803  32.377  1.00  0.00     0.074 A 
ATOM     48  C   UNL A   1      39.802  28.023  32.343  1.00  0.00     0.031 C 
ATOM     49  C   UNL A   1      41.402  27.718  25.927  1.00  0.00     0.029 A 
ATOM     50  C   UNL A   1      42.390  27.338  26.915  1.00  0.00     0.049 A 
ATOM     51  H   UNL A   1      42.545  28.065  28.874  1.00  0.00     0.167 HD
ATOM     52  C   UNL A   1      42.072  28.802  33.233  1.00  0.00     0.037 A 
ATOM     53  C   UNL A   1      43.424  26.465  26.842  1.00  0.00     0.037 A 
ATOM     54  C   UNL A   1      43.062  29.769  32.817  1.00  0.00     0.049 A 
ATOM     55  C   UNL A   1      44.331  26.789  27.982  1.00  0.00     0.074 A 
ATOM     56  C   UNL A   1      43.044  31.135  32.606  1.00  0.00     0.029 A 
ATOM     57  N   UNL A   1      44.174  29.308  32.148  1.00  0.00    -0.354 N 
ATOM     58  N   UNL A   1      44.986  27.918  28.077  1.00  0.00    -0.248 NA
ATOM     59  C   UNL A   1      44.094  26.101  29.245  1.00  0.00     0.031 C 
ATOM     60  C   UNL A   1      43.810  31.331  31.418  1.00  0.00     0.029 A 
ATOM     61  C   UNL A   1      44.329  30.094  31.034  1.00  0.00     0.049 A 
ATOM     62  H   UNL A   1      44.749  28.557  32.419  1.00  0.00     0.167 HD
ATOM     63  C   UNL A   1      44.862  28.291  29.408  1.00  0.00     0.074 A 
ATOM     64  C   UNL A   1      44.357  27.100  30.093  1.00  0.00     0.031 C 
ATOM     65  C   UNL A   1      44.870  29.606  29.786  1.00  0.00     0.037 A 
BRANCH  52  66
ATOM     66  C   UNL A   1      42.409  27.698  34.208  1.00  0.00     0.064 A 
ATOM     67  C   UNL A   1      43.030  26.529  33.715  1.00  0.00     0.173 A 
ATOM     68  C   UNL A   1      41.885  27.597  35.514  1.00  0.00     0.173 A 
ATOM     69  F   UNL A   1      43.574  26.508  32.490  1.00  0.00    -0.203 F 
ATOM     70  C   UNL A   1      43.018  25.327  34.427  1.00  0.00     0.198 A 
ATOM     71  C   UNL A   1      41.924  26.409  36.243  1.00  0.00     0.198 A 
ATOM     72  F   UNL A   1      41.218  28.596  36.101  1.00  0.00    -0.203 F 
ATOM     73  F   UNL A   1      43.491  24.212  33.857  1.00  0.00    -0.200 F 
ATOM     74  C   UNL A   1      42.452  25.266  35.686  1.00  0.00     0.200 A 
ATOM     75  F   UNL A   1      41.361  26.368  37.461  1.00  0.00    -0.200 F 
ATOM     76  F   UNL A   1      42.374  24.100  36.342  1.00  0.00    -0.200 F 
ENDBRANCH  52  66
BRANCH  53  77
ATOM     77  C   UNL A   1      43.453  25.180  26.096  1.00  0.00     0.064 A 
ATOM     78  C   UNL A   1      44.498  24.881  25.208  1.00  0.00     0.173 A 
ATOM     79  C   UNL A   1      42.595  24.108  26.426  1.00  0.00     0.173 A 
ATOM     80  F   UNL A   1      45.389  25.825  24.875  1.00  0.00    -0.203 F 
ATOM     81  C   UNL A   1      44.685  23.589  24.699  1.00  0.00     0.198 A 
ATOM     82  C   UNL A   1      42.776  22.824  25.912  1.00  0.00     0.198 A 
ATOM     83  F   UNL A   1      41.615  24.257  27.328  1.00  0.00    -0.203 F 
ATOM     84  F   UNL A   1      45.732  23.329  23.903  1.00  0.00    -0.200 F 
ATOM     85  C   UNL A   1      43.830  22.560  25.059  1.00  0.00     0.200 A 
ATOM     86  F   UNL A   1      41.962  21.832  26.300  1.00  0.00    -0.200 F 
ATOM     87  F   UNL A   1      44.045  21.311  24.623  1.00  0.00    -0.200 F 
ENDBRANCH  53  77
BRANCH  65  88
ATOM     88  C   UNL A   1      45.232  30.652  28.763  1.00  0.00     0.064 A 
ATOM     89  C   UNL A   1      44.309  31.249  27.886  1.00  0.00     0.173 A 
ATOM     90  C   UNL A   1      46.517  31.207  28.808  1.00  0.00     0.173 A 
ATOM     91  F   UNL A   1      43.032  30.857  27.856  1.00  0.00    -0.203 F 
ATOM     92  C   UNL A   1      44.667  32.321  27.069  1.00  0.00     0.198 A 
ATOM     93  C   UNL A   1      46.863  32.302  28.019  1.00  0.00     0.198 A 
ATOM     94  F   UNL A   1      47.427  30.724  29.669  1.00  0.00    -0.203 F 
ATOM     95  F   UNL A   1      43.762  32.868  26.243  1.00  0.00    -0.200 F 
ATOM     96  C   UNL A   1      45.942  32.853  27.144  1.00  0.00     0.200 A 
ATOM     97  F   UNL A   1      48.082  32.847  28.137  1.00  0.00    -0.200 F 
ATOM     98  F   UNL A   1      46.273  33.915  26.397  1.00  0.00    -0.200 F 
ENDBRANCH  65  88
ENDBRANCH  39  40
ENDBRANCH  31  34
ENDBRANCH  29  30
ENDBRANCH  28  29
ENDBRANCH   1  28
TORSDOF 14
ENDMDL
MODEL 2
REMARK VINA RESULT:     -14.0      2.077      4.595
REMARK SMILES Cc1nccn1CCC[NH+]1CCC2(CC1)[C@@H](C(=O)NCCCNC(=O)c1ccc(-c3c4nc(c(-c5c(F)c(F)c(F)c(F)c5F)c5ccc([nH]5)c(-c5c(F)c(F)c(F)c(F)c5F)c5nc(c(-c6c(F)c(F)c(F)c(F)c6F)c6ccc3[nH]6)C=C5)C=C4)cc1)CC(=O)N2C
REMARK SMILES IDX 20 1 19 2 17 3 18 4 16 6 10 7 11 8 15 9 12 11 14 12 13 13
REMARK SMILES IDX 92 14 89 15 90 16 93 17 91 18 9 19 8 20 7 21 6 22 1 23 2 24
REMARK SMILES IDX 3 25 4 26 5 27 21 28 22 29 23 30 24 31 25 33 26 34 27 35
REMARK SMILES IDX 88 36 28 37 87 38 29 39 30 40 31 41 81 42 32 43 86 44 80 45
REMARK SMILES IDX 82 46 33 47 85 48 79 49 78 50 34 52 66 53 46 54 65 55 47 56
REMARK SMILES IDX 50 57 64 58 83 59 48 60 49 61 63 63 84 64 51 65 35 66 36 67
REMARK SMILES IDX 44 68 37 69 38 70 42 71 45 72 39 73 40 74 43 75 41 76 67 77
REMARK SMILES IDX 68 78 76 79 69 80 70 81 74 82 77 83 71 84 72 85 75 86 73 87
REMARK SMILES IDX 52 88 53 89 61 90 54 91 55 92 59 93 62 94 56 95 57 96 60 97
REMARK SMILES IDX 58 98
REMARK H PARENT 19 5 10 10 23 32 82 51 50 62
REMARK Flexibility Score: inf
ROOT
ATOM      1  C   UNL A   1      34.135  28.867  26.545  1.00  0.00     0.117 C 
ENDROOT
BRANCH   1   2
ATOM      2  N   UNL A   1      34.037  29.286  25.154  1.00  0.00    -0.356 N 
ATOM      3  C   UNL A   1      33.044  29.163  24.233  1.00  0.00     0.226 C 
ATOM      4  O   UNL A   1      33.415  29.269  23.062  1.00  0.00    -0.275 OA
ATOM      5  H   UNL A   1      34.841  29.743  24.817  1.00  0.00     0.163 HD
BRANCH   3   6
ATOM      6  C   UNL A   1      31.605  28.776  24.607  1.00  0.00     0.114 C 
ATOM      7  N   UNL A   1      31.999  24.491  25.641  1.00  0.00    -0.335 N 
ATOM      8  C   UNL A   1      30.987  25.291  26.337  1.00  0.00     0.264 C 
ATOM      9  C   UNL A   1      32.050  24.822  24.214  1.00  0.00     0.264 C 
ATOM     10  H   UNL A   1      31.708  23.515  25.696  1.00  0.00     0.348 HD
ATOM     11  C   UNL A   1      31.111  26.799  26.107  1.00  0.00     0.091 C 
ATOM     12  C   UNL A   1      32.266  26.306  23.923  1.00  0.00     0.091 C 
ATOM     13  C   UNL A   1      31.246  27.226  24.620  1.00  0.00     0.065 C 
ATOM     14  N   UNL A   1      29.923  27.197  23.931  1.00  0.00    -0.339 N 
ATOM     15  C   UNL A   1      30.534  29.428  23.741  1.00  0.00     0.116 C 
ATOM     16  C   UNL A   1      29.484  28.423  23.488  1.00  0.00     0.223 C 
ATOM     17  C   UNL A   1      29.227  26.026  23.437  1.00  0.00     0.147 C 
ATOM     18  O   UNL A   1      28.440  28.668  22.903  1.00  0.00    -0.275 OA
BRANCH   7  19
ATOM     19  C   UNL A   1      33.307  24.518  26.308  1.00  0.00     0.264 C 
BRANCH  19  20
ATOM     20  C   UNL A   1      34.315  23.643  25.549  1.00  0.00     0.083 C 
BRANCH  20  21
ATOM     21  C   UNL A   1      35.183  22.726  26.420  1.00  0.00     0.129 C 
BRANCH  21  22
ATOM     22  N   UNL A   1      36.307  22.074  25.768  1.00  0.00    -0.335 N 
ATOM     23  C   UNL A   1      38.072  23.835  26.227  1.00  0.00     0.087 C 
ATOM     24  C   UNL A   1      37.619  22.504  25.758  1.00  0.00     0.105 A 
ATOM     25  N   UNL A   1      38.416  21.572  25.271  1.00  0.00    -0.242 NA
ATOM     26  C   UNL A   1      37.609  20.532  24.922  1.00  0.00     0.131 A 
ATOM     27  C   UNL A   1      36.299  20.837  25.186  1.00  0.00     0.107 A 
ENDBRANCH  21  22
ENDBRANCH  20  21
ENDBRANCH  19  20
ENDBRANCH   7  19
ENDBRANCH   3   6
ENDBRANCH   1   2
BRANCH   1  28
ATOM     28  C   UNL A   1      33.538  29.883  27.512  1.00  0.00     0.042 C 
BRANCH  28  29
ATOM     29  C   UNL A   1      34.391  31.123  27.635  1.00  0.00     0.118 C 
BRANCH  29  30
ATOM     30  N   UNL A   1      34.257  31.800  28.930  1.00  0.00    -0.352 N 
ATOM     31  C   UNL A   1      35.132  31.747  30.000  1.00  0.00     0.251 C 
ATOM     32  H   UNL A   1      33.452  32.355  29.051  1.00  0.00     0.163 HD
ATOM     33  O   UNL A   1      34.804  32.109  31.126  1.00  0.00    -0.269 OA
BRANCH  31  34
ATOM     34  C   UNL A   1      36.486  31.248  29.736  1.00  0.00     0.039 A 
ATOM     35  C   UNL A   1      37.589  32.094  29.595  1.00  0.00     0.014 A 
ATOM     36  C   UNL A   1      36.633  29.867  29.764  1.00  0.00     0.014 A 
ATOM     37  C   UNL A   1      38.856  31.523  29.558  1.00  0.00     0.010 A 
ATOM     38  C   UNL A   1      37.865  29.345  29.998  1.00  0.00     0.010 A 
ATOM     39  C   UNL A   1      38.978  30.144  29.778  1.00  0.00    -0.014 A 
BRANCH  39  40
ATOM     40  C   UNL A   1      40.260  29.468  29.839  1.00  0.00     0.031 A 
ATOM     41  C   UNL A   1      40.788  29.237  31.206  1.00  0.00     0.074 A 
ATOM     42  C   UNL A   1      40.763  28.861  28.742  1.00  0.00     0.049 A 
ATOM     43  N   UNL A   1      41.861  29.738  31.720  1.00  0.00    -0.248 NA
ATOM     44  C   UNL A   1      39.971  28.476  32.164  1.00  0.00     0.031 C 
ATOM     45  C   UNL A   1      40.172  28.745  27.401  1.00  0.00     0.029 A 
ATOM     46  N   UNL A   1      41.870  28.084  28.643  1.00  0.00    -0.354 N 
ATOM     47  C   UNL A   1      41.966  29.200  32.999  1.00  0.00     0.074 A 
ATOM     48  C   UNL A   1      40.690  28.598  33.283  1.00  0.00     0.031 C 
ATOM     49  C   UNL A   1      40.785  27.755  26.718  1.00  0.00     0.029 A 
ATOM     50  C   UNL A   1      41.910  27.289  27.502  1.00  0.00     0.049 A 
ATOM     51  H   UNL A   1      42.584  28.082  29.320  1.00  0.00     0.167 HD
ATOM     52  C   UNL A   1      43.181  29.092  33.608  1.00  0.00     0.037 A 
ATOM     53  C   UNL A   1      42.784  26.276  27.280  1.00  0.00     0.037 A 
ATOM     54  C   UNL A   1      44.169  29.888  32.918  1.00  0.00     0.049 A 
ATOM     55  C   UNL A   1      43.953  26.525  28.174  1.00  0.00     0.074 A 
ATOM     56  C   UNL A   1      44.278  31.232  32.609  1.00  0.00     0.029 A 
ATOM     57  N   UNL A   1      45.039  29.244  32.067  1.00  0.00    -0.354 N 
ATOM     58  N   UNL A   1      44.750  27.554  28.038  1.00  0.00    -0.248 NA
ATOM     59  C   UNL A   1      43.915  25.940  29.507  1.00  0.00     0.031 C 
ATOM     60  C   UNL A   1      44.782  31.259  31.274  1.00  0.00     0.029 A 
ATOM     61  C   UNL A   1      45.042  29.944  30.887  1.00  0.00     0.049 A 
ATOM     62  H   UNL A   1      45.560  28.433  32.268  1.00  0.00     0.167 HD
ATOM     63  C   UNL A   1      44.971  28.006  29.332  1.00  0.00     0.074 A 
ATOM     64  C   UNL A   1      44.483  26.933  30.199  1.00  0.00     0.031 C 
ATOM     65  C   UNL A   1      45.229  29.324  29.595  1.00  0.00     0.037 A 
BRANCH  52  66
ATOM     66  C   UNL A   1      43.581  28.001  34.574  1.00  0.00     0.064 A 
ATOM     67  C   UNL A   1      43.398  26.655  34.185  1.00  0.00     0.173 A 
ATOM     68  C   UNL A   1      43.837  28.202  35.946  1.00  0.00     0.173 A 
ATOM     69  F   UNL A   1      43.159  26.340  32.904  1.00  0.00    -0.203 F 
ATOM     70  C   UNL A   1      43.355  25.615  35.116  1.00  0.00     0.198 A 
ATOM     71  C   UNL A   1      43.848  27.153  36.865  1.00  0.00     0.198 A 
ATOM     72  F   UNL A   1      43.976  29.419  36.482  1.00  0.00    -0.203 F 
ATOM     73  F   UNL A   1      43.034  24.378  34.715  1.00  0.00    -0.200 F 
ATOM     74  C   UNL A   1      43.567  25.867  36.458  1.00  0.00     0.200 A 
ATOM     75  F   UNL A   1      44.047  27.420  38.164  1.00  0.00    -0.200 F 
ATOM     76  F   UNL A   1      43.455  24.885  37.361  1.00  0.00    -0.200 F 
ENDBRANCH  52  66
BRANCH  53  77
ATOM     77  C   UNL A   1      42.484  24.965  26.648  1.00  0.00     0.064 A 
ATOM     78  C   UNL A   1      43.201  24.520  25.527  1.00  0.00     0.173 A 
ATOM     79  C   UNL A   1      41.665  24.004  27.280  1.00  0.00     0.173 A 
ATOM     80  F   UNL A   1      44.041  25.351  24.892  1.00  0.00    -0.203 F 
ATOM     81  C   UNL A   1      43.121  23.195  25.079  1.00  0.00     0.198 A 
ATOM     82  C   UNL A   1      41.577  22.687  26.828  1.00  0.00     0.198 A 
ATOM     83  F   UNL A   1      41.000  24.293  28.407  1.00  0.00    -0.203 F 
ATOM     84  F   UNL A   1      43.870  22.793  24.042  1.00  0.00    -0.200 F 
ATOM     85  C   UNL A   1      42.316  22.278  25.735  1.00  0.00     0.200 A 
ATOM     86  F   UNL A   1      40.823  21.804  27.497  1.00  0.00    -0.200 F 
ATOM     87  F   UNL A   1      42.287  20.996  25.345  1.00  0.00    -0.200 F 
ENDBRANCH  53  77
BRANCH  65  88
ATOM     88  C   UNL A   1      45.486  30.257  28.440  1.00  0.00     0.064 A 
ATOM     89  C   UNL A   1      44.481  30.974  27.768  1.00  0.00     0.173 A 
ATOM     90  C   UNL A   1      46.813  30.583  28.133  1.00  0.00     0.173 A 
ATOM     91  F   UNL A   1      43.191  30.808  28.074  1.00  0.00    -0.203 F 
ATOM     92  C   UNL A   1      44.789  31.940  26.811  1.00  0.00     0.198 A 
ATOM     93  C   UNL A   1      47.121  31.574  27.204  1.00  0.00     0.198 A 
ATOM     94  F   UNL A   1      47.820  29.979  28.784  1.00  0.00    -0.203 F 
ATOM     95  F   UNL A   1      43.806  32.607  26.187  1.00  0.00    -0.200 F 
ATOM     96  C   UNL A   1      46.111  32.246  26.537  1.00  0.00     0.200 A 
ATOM     97  F   UNL A   1      48.401  31.905  26.985  1.00  0.00    -0.200 F 
ATOM     98  F   UNL A   1      46.410  33.210  25.654  1.00  0.00    -0.200 F 
ENDBRANCH  65  88
ENDBRANCH  39  40
ENDBRANCH  31  34
ENDBRANCH  29  30
ENDBRANCH  28  29
ENDBRANCH   1  28
TORSDOF 14
ENDMDL
MODEL 3
REMARK VINA RESULT:     -13.8      2.109      4.865
REMARK SMILES Cc1nccn1CCC[NH+]1CCC2(CC1)[C@@H](C(=O)NCCCNC(=O)c1ccc(-c3c4nc(c(-c5c(F)c(F)c(F)c(F)c5F)c5ccc([nH]5)c(-c5c(F)c(F)c(F)c(F)c5F)c5nc(c(-c6c(F)c(F)c(F)c(F)c6F)c6ccc3[nH]6)C=C5)C=C4)cc1)CC(=O)N2C
REMARK SMILES IDX 20 1 19 2 17 3 18 4 16 6 10 7 11 8 15 9 12 11 14 12 13 13
REMARK SMILES IDX 92 14 89 15 90 16 93 17 91 18 9 19 8 20 7 21 6 22 1 23 2 24
REMARK SMILES IDX 3 25 4 26 5 27 21 28 22 29 23 30 24 31 25 33 26 34 27 35
REMARK SMILES IDX 88 36 28 37 87 38 29 39 30 40 31 41 81 42 32 43 86 44 80 45
REMARK SMILES IDX 82 46 33 47 85 48 79 49 78 50 34 52 66 53 46 54 65 55 47 56
REMARK SMILES IDX 50 57 64 58 83 59 48 60 49 61 63 63 84 64 51 65 35 66 36 67
REMARK SMILES IDX 44 68 37 69 38 70 42 71 45 72 39 73 40 74 43 75 41 76 67 77
REMARK SMILES IDX 68 78 76 79 69 80 70 81 74 82 77 83 71 84 72 85 75 86 73 87
REMARK SMILES IDX 52 88 53 89 61 90 54 91 55 92 59 93 62 94 56 95 57 96 60 97
REMARK SMILES IDX 58 98
REMARK H PARENT 19 5 10 10 23 32 82 51 50 62
REMARK Flexibility Score: inf
ROOT
ATOM      1  C   UNL A   1      31.836  28.525  26.207  1.00  0.00     0.117 C 
ENDROOT
BRANCH   1   2
ATOM      2  N   UNL A   1      31.961  27.167  26.714  1.00  0.00    -0.356 N 
ATOM      3  C   UNL A   1      31.452  25.981  26.283  1.00  0.00     0.226 C 
ATOM      4  O   UNL A   1      31.424  25.093  27.138  1.00  0.00    -0.275 OA
ATOM      5  H   UNL A   1      32.519  27.092  27.522  1.00  0.00     0.163 HD
BRANCH   3   6
ATOM      6  C   UNL A   1      30.825  25.803  24.892  1.00  0.00     0.114 C 
ATOM      7  N   UNL A   1      33.169  22.452  23.202  1.00  0.00    -0.335 N 
ATOM      8  C   UNL A   1      31.767  22.597  22.804  1.00  0.00     0.264 C 
ATOM      9  C   UNL A   1      33.845  23.751  23.260  1.00  0.00     0.264 C 
ATOM     10  H   UNL A   1      33.641  21.919  22.471  1.00  0.00     0.348 HD
ATOM     11  C   UNL A   1      30.979  23.611  23.639  1.00  0.00     0.091 C 
ATOM     12  C   UNL A   1      33.152  24.777  24.156  1.00  0.00     0.091 C 
ATOM     13  C   UNL A   1      31.665  24.992  23.811  1.00  0.00     0.065 C 
ATOM     14  N   UNL A   1      31.504  25.828  22.586  1.00  0.00    -0.339 N 
ATOM     15  C   UNL A   1      30.441  27.108  24.204  1.00  0.00     0.116 C 
ATOM     16  C   UNL A   1      30.775  26.979  22.772  1.00  0.00     0.223 C 
ATOM     17  C   UNL A   1      32.254  25.712  21.350  1.00  0.00     0.147 C 
ATOM     18  O   UNL A   1      30.498  27.824  21.935  1.00  0.00    -0.275 OA
BRANCH   7  19
ATOM     19  C   UNL A   1      33.339  21.635  24.412  1.00  0.00     0.264 C 
BRANCH  19  20
ATOM     20  C   UNL A   1      32.913  20.184  24.144  1.00  0.00     0.083 C 
BRANCH  20  21
ATOM     21  C   UNL A   1      33.900  19.108  24.615  1.00  0.00     0.129 C 
BRANCH  21  22
ATOM     22  N   UNL A   1      33.366  17.770  24.810  1.00  0.00    -0.335 N 
ATOM     23  C   UNL A   1      34.381  16.665  22.766  1.00  0.00     0.087 C 
ATOM     24  C   UNL A   1      33.649  16.649  24.055  1.00  0.00     0.105 A 
ATOM     25  N   UNL A   1      33.177  15.560  24.633  1.00  0.00    -0.242 NA
ATOM     26  C   UNL A   1      32.542  15.980  25.762  1.00  0.00     0.131 A 
ATOM     27  C   UNL A   1      32.615  17.344  25.870  1.00  0.00     0.107 A 
ENDBRANCH  21  22
ENDBRANCH  20  21
ENDBRANCH  19  20
ENDBRANCH   7  19
ENDBRANCH   3   6
ENDBRANCH   1   2
BRANCH   1  28
ATOM     28  C   UNL A   1      32.222  29.580  27.237  1.00  0.00     0.042 C 
BRANCH  28  29
ATOM     29  C   UNL A   1      33.709  29.836  27.260  1.00  0.00     0.118 C 
BRANCH  29  30
ATOM     30  N   UNL A   1      34.060  31.258  27.160  1.00  0.00    -0.352 N 
ATOM     31  C   UNL A   1      35.165  31.890  27.701  1.00  0.00     0.251 C 
ATOM     32  H   UNL A   1      33.439  31.826  26.649  1.00  0.00     0.163 HD
ATOM     33  O   UNL A   1      35.228  33.111  27.805  1.00  0.00    -0.269 OA
BRANCH  31  34
ATOM     34  C   UNL A   1      36.278  31.040  28.139  1.00  0.00     0.039 A 
ATOM     35  C   UNL A   1      36.507  29.765  27.615  1.00  0.00     0.014 A 
ATOM     36  C   UNL A   1      37.174  31.632  29.019  1.00  0.00     0.014 A 
ATOM     37  C   UNL A   1      37.699  29.126  27.935  1.00  0.00     0.010 A 
ATOM     38  C   UNL A   1      38.433  31.128  29.108  1.00  0.00     0.010 A 
ATOM     39  C   UNL A   1      38.661  29.830  28.672  1.00  0.00    -0.014 A 
BRANCH  39  40
ATOM     40  C   UNL A   1      39.966  29.281  28.989  1.00  0.00     0.031 A 
ATOM     41  C   UNL A   1      40.212  29.026  30.429  1.00  0.00     0.074 A 
ATOM     42  C   UNL A   1      40.755  28.790  28.008  1.00  0.00     0.049 A 
ATOM     43  N   UNL A   1      41.089  29.601  31.182  1.00  0.00    -0.248 NA
ATOM     44  C   UNL A   1      39.296  28.135  31.160  1.00  0.00     0.031 C 
ATOM     45  C   UNL A   1      40.480  28.692  26.567  1.00  0.00     0.029 A 
ATOM     46  N   UNL A   1      41.935  28.132  28.127  1.00  0.00    -0.354 N 
ATOM     47  C   UNL A   1      40.976  29.004  32.434  1.00  0.00     0.074 A 
ATOM     48  C   UNL A   1      39.742  28.264  32.412  1.00  0.00     0.031 C 
ATOM     49  C   UNL A   1      41.329  27.808  26.002  1.00  0.00     0.029 A 
ATOM     50  C   UNL A   1      42.305  27.411  26.996  1.00  0.00     0.049 A 
ATOM     51  H   UNL A   1      42.483  28.163  28.943  1.00  0.00     0.167 HD
ATOM     52  C   UNL A   1      42.037  28.982  33.290  1.00  0.00     0.037 A 
ATOM     53  C   UNL A   1      43.310  26.504  26.936  1.00  0.00     0.037 A 
ATOM     54  C   UNL A   1      43.057  29.910  32.859  1.00  0.00     0.049 A 
ATOM     55  C   UNL A   1      44.227  26.816  28.071  1.00  0.00     0.074 A 
ATOM     56  C   UNL A   1      43.083  31.273  32.627  1.00  0.00     0.029 A 
ATOM     57  N   UNL A   1      44.153  29.403  32.198  1.00  0.00    -0.354 N 
ATOM     58  N   UNL A   1      44.918  27.925  28.148  1.00  0.00    -0.248 NA
ATOM     59  C   UNL A   1      43.969  26.156  29.344  1.00  0.00     0.031 C 
ATOM     60  C   UNL A   1      43.854  31.425  31.437  1.00  0.00     0.029 A 
ATOM     61  C   UNL A   1      44.333  30.166  31.071  1.00  0.00     0.049 A 
ATOM     62  H   UNL A   1      44.704  28.638  32.480  1.00  0.00     0.167 HD
ATOM     63  C   UNL A   1      44.807  28.322  29.474  1.00  0.00     0.074 A 
ATOM     64  C   UNL A   1      44.264  27.159  30.177  1.00  0.00     0.031 C 
ATOM     65  C   UNL A   1      44.858  29.642  29.831  1.00  0.00     0.037 A 
BRANCH  52  66
ATOM     66  C   UNL A   1      42.338  27.883  34.282  1.00  0.00     0.064 A 
ATOM     67  C   UNL A   1      42.983  26.715  33.820  1.00  0.00     0.173 A 
ATOM     68  C   UNL A   1      41.761  27.784  35.566  1.00  0.00     0.173 A 
ATOM     69  F   UNL A   1      43.577  26.691  32.617  1.00  0.00    -0.203 F 
ATOM     70  C   UNL A   1      42.947  25.515  34.535  1.00  0.00     0.198 A 
ATOM     71  C   UNL A   1      41.775  26.599  36.301  1.00  0.00     0.198 A 
ATOM     72  F   UNL A   1      41.067  28.782  36.121  1.00  0.00    -0.203 F 
ATOM     73  F   UNL A   1      43.447  24.401  33.988  1.00  0.00    -0.200 F 
ATOM     74  C   UNL A   1      42.331  25.456  35.770  1.00  0.00     0.200 A 
ATOM     75  F   UNL A   1      41.164  26.560  37.495  1.00  0.00    -0.200 F 
ATOM     76  F   UNL A   1      42.231  24.293  36.426  1.00  0.00    -0.200 F 
ENDBRANCH  52  66
BRANCH  53  77
ATOM     77  C   UNL A   1      43.297  25.207  26.210  1.00  0.00     0.064 A 
ATOM     78  C   UNL A   1      44.292  24.892  25.272  1.00  0.00     0.173 A 
ATOM     79  C   UNL A   1      42.457  24.143  26.602  1.00  0.00     0.173 A 
ATOM     80  F   UNL A   1      45.166  25.829  24.877  1.00  0.00    -0.203 F 
ATOM     81  C   UNL A   1      44.450  23.591  24.775  1.00  0.00     0.198 A 
ATOM     82  C   UNL A   1      42.608  22.850  26.100  1.00  0.00     0.198 A 
ATOM     83  F   UNL A   1      41.526  24.308  27.553  1.00  0.00    -0.203 F 
ATOM     84  F   UNL A   1      45.452  23.317  23.928  1.00  0.00    -0.200 F 
ATOM     85  C   UNL A   1      43.614  22.571  25.196  1.00  0.00     0.200 A 
ATOM     86  F   UNL A   1      41.814  21.867  26.547  1.00  0.00    -0.200 F 
ATOM     87  F   UNL A   1      43.804  21.314  24.769  1.00  0.00    -0.200 F 
ENDBRANCH  53  77
BRANCH  65  88
ATOM     88  C   UNL A   1      45.253  30.659  28.792  1.00  0.00     0.064 A 
ATOM     89  C   UNL A   1      44.341  31.323  27.953  1.00  0.00     0.173 A 
ATOM     90  C   UNL A   1      46.576  31.119  28.784  1.00  0.00     0.173 A 
ATOM     91  F   UNL A   1      43.038  31.025  27.975  1.00  0.00    -0.203 F 
ATOM     92  C   UNL A   1      44.742  32.367  27.119  1.00  0.00     0.198 A 
ATOM     93  C   UNL A   1      46.968  32.187  27.979  1.00  0.00     0.198 A 
ATOM     94  F   UNL A   1      47.483  30.571  29.608  1.00  0.00    -0.203 F 
ATOM     95  F   UNL A   1      43.847  32.979  26.330  1.00  0.00    -0.200 F 
ATOM     96  C   UNL A   1      46.055  32.804  27.142  1.00  0.00     0.200 A 
ATOM     97  F   UNL A   1      48.227  32.642  28.046  1.00  0.00    -0.200 F 
ATOM     98  F   UNL A   1      46.432  33.840  26.379  1.00  0.00    -0.200 F 
ENDBRANCH  65  88
ENDBRANCH  39  40
ENDBRANCH  31  34
ENDBRANCH  29  30
ENDBRANCH  28  29
ENDBRANCH   1  28
TORSDOF 14
ENDMDL
