MODEL 1
REMARK VINA RESULT:     -13.2      0.000      0.000
REMARK SMILES O=C(Cc1cc(=O)[nH]c(=O)[nH]1)Nc1cccc(C(=O)NCCCNC(=O)c2ccc(-c3c4nc(c(-c5c(F)c(F)c(F)c(F)c5F)c5ccc([nH]5)c(-c5c(F)c(F)c(F)c(F)c5F)c5nc(c(-c6c(F)c(F)c(F)c(F)c6F)c6ccc3[nH]6)C=C5)C=C4)cc2)c1
REMARK SMILES IDX 21 1 20 2 18 3 19 4 17 6 13 7 14 8 90 9 15 10 16 11 12 12
REMARK SMILES IDX 1 13 2 14 3 16 4 17 5 18 11 19 6 20 9 21 7 23 8 24 10 25
REMARK SMILES IDX 22 27 23 28 24 29 25 30 26 32 27 33 28 34 89 35 29 36 88 37
REMARK SMILES IDX 30 38 31 39 32 40 82 41 33 42 87 43 81 44 83 45 34 46 86 47
REMARK SMILES IDX 80 48 79 49 35 51 67 52 47 53 66 54 48 55 51 56 65 57 84 58
REMARK SMILES IDX 49 59 50 60 64 62 85 63 52 64 36 65 37 66 45 67 38 68 39 69
REMARK SMILES IDX 43 70 46 71 40 72 41 73 44 74 42 75 68 76 69 77 77 78 70 79
REMARK SMILES IDX 71 80 75 81 78 82 72 83 73 84 76 85 74 86 53 87 54 88 62 89
REMARK SMILES IDX 55 90 56 91 60 92 63 93 57 94 58 95 61 96 59 97
REMARK H PARENT 20 5 12 15 11 22 8 26 24 31 83 50 51 61
REMARK Flexibility Score: inf
ROOT
ATOM      1  C   UNL A   1      31.861  30.650  26.881  1.00  0.00     0.118 C 
ENDROOT
BRANCH   1   2
ATOM      2  N   UNL A   1      33.215  30.297  27.299  1.00  0.00    -0.352 N 
ATOM      3  C   UNL A   1      34.048  29.249  26.962  1.00  0.00     0.251 C 
ATOM      4  O   UNL A   1      35.149  29.178  27.506  1.00  0.00    -0.269 OA
ATOM      5  H   UNL A   1      33.609  30.925  27.947  1.00  0.00     0.163 HD
BRANCH   3   6
ATOM      6  C   UNL A   1      33.627  28.167  26.033  1.00  0.00     0.041 A 
ATOM      7  C   UNL A   1      33.269  25.812  25.636  1.00  0.00     0.041 A 
ATOM      8  C   UNL A   1      33.323  26.040  24.257  1.00  0.00     0.026 A 
ATOM      9  C   UNL A   1      33.261  26.906  26.494  1.00  0.00     0.040 A 
ATOM     10  C   UNL A   1      33.463  27.341  23.766  1.00  0.00     0.003 A 
ATOM     11  C   UNL A   1      33.664  28.399  24.654  1.00  0.00     0.014 A 
BRANCH   7  12
ATOM     12  N   UNL A   1      33.376  24.484  26.106  1.00  0.00    -0.326 N 
ATOM     13  O   UNL A   1      31.308  24.172  27.154  1.00  0.00    -0.274 OA
ATOM     14  C   UNL A   1      32.458  23.815  26.908  1.00  0.00     0.230 C 
ATOM     15  H   UNL A   1      34.180  23.983  25.839  1.00  0.00     0.169 HD
BRANCH  14  16
ATOM     16  C   UNL A   1      33.022  22.579  27.601  1.00  0.00     0.154 C 
BRANCH  16  17
ATOM     17  C   UNL A   1      33.550  21.561  26.634  1.00  0.00     0.034 A 
ATOM     18  C   UNL A   1      34.830  21.526  26.237  1.00  0.00     0.093 A 
ATOM     19  N   UNL A   1      32.664  20.624  26.162  1.00  0.00    -0.311 N 
ATOM     20  C   UNL A   1      35.272  20.458  25.320  1.00  0.00     0.253 A 
ATOM     21  C   UNL A   1      33.002  19.614  25.302  1.00  0.00     0.325 A 
ATOM     22  H   UNL A   1      31.727  20.683  26.460  1.00  0.00     0.171 HD
ATOM     23  O   UNL A   1      36.442  20.381  24.963  1.00  0.00    -0.269 OA
ATOM     24  N   UNL A   1      34.311  19.576  24.922  1.00  0.00    -0.274 N 
ATOM     25  O   UNL A   1      32.174  18.797  24.919  1.00  0.00    -0.248 OA
ATOM     26  H   UNL A   1      34.585  18.853  24.312  1.00  0.00     0.175 HD
ENDBRANCH  16  17
ENDBRANCH  14  16
ENDBRANCH   7  12
ENDBRANCH   3   6
ENDBRANCH   1   2
BRANCH   1  27
ATOM     27  C   UNL A   1      31.571  32.140  26.892  1.00  0.00     0.042 C 
BRANCH  27  28
ATOM     28  C   UNL A   1      32.794  33.021  27.051  1.00  0.00     0.118 C 
BRANCH  28  29
ATOM     29  N   UNL A   1      32.486  34.328  27.620  1.00  0.00    -0.352 N 
ATOM     30  C   UNL A   1      32.990  34.975  28.723  1.00  0.00     0.251 C 
ATOM     31  H   UNL A   1      31.799  34.833  27.131  1.00  0.00     0.163 HD
ATOM     32  O   UNL A   1      32.449  36.003  29.122  1.00  0.00    -0.269 OA
BRANCH  30  33
ATOM     33  C   UNL A   1      34.161  34.439  29.454  1.00  0.00     0.039 A 
ATOM     34  C   UNL A   1      33.963  33.810  30.687  1.00  0.00     0.014 A 
ATOM     35  C   UNL A   1      35.454  34.577  28.950  1.00  0.00     0.014 A 
ATOM     36  C   UNL A   1      35.051  33.258  31.370  1.00  0.00     0.010 A 
ATOM     37  C   UNL A   1      36.516  33.927  29.567  1.00  0.00     0.010 A 
ATOM     38  C   UNL A   1      36.331  33.274  30.794  1.00  0.00    -0.014 A 
BRANCH  38  39
ATOM     39  C   UNL A   1      37.499  32.647  31.464  1.00  0.00     0.031 A 
ATOM     40  C   UNL A   1      38.215  31.499  30.803  1.00  0.00     0.074 A 
ATOM     41  C   UNL A   1      37.868  33.058  32.693  1.00  0.00     0.049 A 
ATOM     42  N   UNL A   1      39.186  30.752  31.262  1.00  0.00    -0.248 NA
ATOM     43  C   UNL A   1      37.751  31.117  29.459  1.00  0.00     0.031 C 
ATOM     44  C   UNL A   1      37.227  34.128  33.457  1.00  0.00     0.029 A 
ATOM     45  N   UNL A   1      38.870  32.614  33.521  1.00  0.00    -0.354 N 
ATOM     46  C   UNL A   1      39.433  29.806  30.274  1.00  0.00     0.074 A 
ATOM     47  C   UNL A   1      38.466  30.028  29.223  1.00  0.00     0.031 C 
ATOM     48  C   UNL A   1      37.865  34.277  34.629  1.00  0.00     0.029 A 
ATOM     49  C   UNL A   1      38.931  33.285  34.719  1.00  0.00     0.049 A 
ATOM     50  H   UNL A   1      39.484  31.885  33.280  1.00  0.00     0.167 HD
ATOM     51  C   UNL A   1      40.399  28.857  30.234  1.00  0.00     0.037 A 
ATOM     52  C   UNL A   1      39.751  33.110  35.774  1.00  0.00     0.037 A 
ATOM     53  C   UNL A   1      41.375  28.658  31.271  1.00  0.00     0.049 A 
ATOM     54  C   UNL A   1      40.805  32.037  35.710  1.00  0.00     0.074 A 
ATOM     55  C   UNL A   1      42.428  27.761  31.306  1.00  0.00     0.029 A 
ATOM     56  N   UNL A   1      41.417  29.371  32.462  1.00  0.00    -0.354 N 
ATOM     57  N   UNL A   1      41.071  31.193  34.744  1.00  0.00    -0.248 NA
ATOM     58  C   UNL A   1      41.680  31.901  36.882  1.00  0.00     0.031 C 
ATOM     59  C   UNL A   1      43.074  27.893  32.539  1.00  0.00     0.029 A 
ATOM     60  C   UNL A   1      42.464  28.917  33.246  1.00  0.00     0.049 A 
ATOM     61  H   UNL A   1      40.794  30.091  32.710  1.00  0.00     0.167 HD
ATOM     62  C   UNL A   1      42.162  30.450  35.174  1.00  0.00     0.074 A 
ATOM     63  C   UNL A   1      42.518  30.954  36.484  1.00  0.00     0.031 C 
ATOM     64  C   UNL A   1      42.813  29.442  34.542  1.00  0.00     0.037 A 
BRANCH  51  65
ATOM     65  C   UNL A   1      40.448  27.967  29.024  1.00  0.00     0.064 A 
ATOM     66  C   UNL A   1      41.233  28.286  27.904  1.00  0.00     0.173 A 
ATOM     67  C   UNL A   1      39.727  26.763  28.994  1.00  0.00     0.173 A 
ATOM     68  F   UNL A   1      41.934  29.429  27.874  1.00  0.00    -0.203 F 
ATOM     69  C   UNL A   1      41.266  27.452  26.789  1.00  0.00     0.198 A 
ATOM     70  C   UNL A   1      39.791  25.915  27.892  1.00  0.00     0.198 A 
ATOM     71  F   UNL A   1      38.964  26.404  30.038  1.00  0.00    -0.203 F 
ATOM     72  F   UNL A   1      41.977  27.808  25.710  1.00  0.00    -0.200 F 
ATOM     73  C   UNL A   1      40.552  26.264  26.787  1.00  0.00     0.200 A 
ATOM     74  F   UNL A   1      39.112  24.759  27.898  1.00  0.00    -0.200 F 
ATOM     75  F   UNL A   1      40.592  25.459  25.717  1.00  0.00    -0.200 F 
ENDBRANCH  51  65
BRANCH  52  76
ATOM     76  C   UNL A   1      39.626  33.985  36.971  1.00  0.00     0.064 A 
ATOM     77  C   UNL A   1      40.265  35.232  37.019  1.00  0.00     0.173 A 
ATOM     78  C   UNL A   1      38.881  33.592  38.092  1.00  0.00     0.173 A 
ATOM     79  F   UNL A   1      41.003  35.647  35.979  1.00  0.00    -0.203 F 
ATOM     80  C   UNL A   1      40.189  36.039  38.153  1.00  0.00     0.198 A 
ATOM     81  C   UNL A   1      38.779  34.414  39.213  1.00  0.00     0.198 A 
ATOM     82  F   UNL A   1      38.243  32.413  38.096  1.00  0.00    -0.203 F 
ATOM     83  F   UNL A   1      40.855  37.201  38.192  1.00  0.00    -0.200 F 
ATOM     84  C   UNL A   1      39.441  35.631  39.247  1.00  0.00     0.200 A 
ATOM     85  F   UNL A   1      38.039  34.025  40.261  1.00  0.00    -0.200 F 
ATOM     86  F   UNL A   1      39.366  36.408  40.336  1.00  0.00    -0.200 F 
ENDBRANCH  52  76
BRANCH  64  87
ATOM     87  C   UNL A   1      44.009  28.851  35.234  1.00  0.00     0.064 A 
ATOM     88  C   UNL A   1      45.303  29.353  35.034  1.00  0.00     0.173 A 
ATOM     89  C   UNL A   1      43.847  27.792  36.141  1.00  0.00     0.173 A 
ATOM     90  F   UNL A   1      45.513  30.355  34.167  1.00  0.00    -0.203 F 
ATOM     91  C   UNL A   1      46.395  28.797  35.696  1.00  0.00     0.198 A 
ATOM     92  C   UNL A   1      44.936  27.264  36.828  1.00  0.00     0.198 A 
ATOM     93  F   UNL A   1      42.629  27.281  36.376  1.00  0.00    -0.203 F 
ATOM     94  F   UNL A   1      47.629  29.256  35.448  1.00  0.00    -0.200 F 
ATOM     95  C   UNL A   1      46.210  27.760  36.597  1.00  0.00     0.200 A 
ATOM     96  F   UNL A   1      44.752  26.273  37.711  1.00  0.00    -0.200 F 
ATOM     97  F   UNL A   1      47.261  27.233  37.239  1.00  0.00    -0.200 F 
ENDBRANCH  64  87
ENDBRANCH  38  39
ENDBRANCH  30  33
ENDBRANCH  28  29
ENDBRANCH  27  28
ENDBRANCH   1  27
TORSDOF 13
ENDMDL
MODEL 2
REMARK VINA RESULT:     -13.1      2.580      4.537
REMARK SMILES O=C(Cc1cc(=O)[nH]c(=O)[nH]1)Nc1cccc(C(=O)NCCCNC(=O)c2ccc(-c3c4nc(c(-c5c(F)c(F)c(F)c(F)c5F)c5ccc([nH]5)c(-c5c(F)c(F)c(F)c(F)c5F)c5nc(c(-c6c(F)c(F)c(F)c(F)c6F)c6ccc3[nH]6)C=C5)C=C4)cc2)c1
REMARK SMILES IDX 21 1 20 2 18 3 19 4 17 6 13 7 14 8 90 9 15 10 16 11 12 12
REMARK SMILES IDX 1 13 2 14 3 16 4 17 5 18 11 19 6 20 9 21 7 23 8 24 10 25
REMARK SMILES IDX 22 27 23 28 24 29 25 30 26 32 27 33 28 34 89 35 29 36 88 37
REMARK SMILES IDX 30 38 31 39 32 40 82 41 33 42 87 43 81 44 83 45 34 46 86 47
REMARK SMILES IDX 80 48 79 49 35 51 67 52 47 53 66 54 48 55 51 56 65 57 84 58
REMARK SMILES IDX 49 59 50 60 64 62 85 63 52 64 36 65 37 66 45 67 38 68 39 69
REMARK SMILES IDX 43 70 46 71 40 72 41 73 44 74 42 75 68 76 69 77 77 78 70 79
REMARK SMILES IDX 71 80 75 81 78 82 72 83 73 84 76 85 74 86 53 87 54 88 62 89
REMARK SMILES IDX 55 90 56 91 60 92 63 93 57 94 58 95 61 96 59 97
REMARK H PARENT 20 5 12 15 11 22 8 26 24 31 83 50 51 61
REMARK Flexibility Score: inf
ROOT
ATOM      1  C   UNL A   1      31.815  30.594  27.232  1.00  0.00     0.118 C 
ENDROOT
BRANCH   1   2
ATOM      2  N   UNL A   1      33.218  30.195  27.307  1.00  0.00    -0.352 N 
ATOM      3  C   UNL A   1      33.922  29.160  26.727  1.00  0.00     0.251 C 
ATOM      4  O   UNL A   1      35.116  29.039  27.000  1.00  0.00    -0.269 OA
ATOM      5  H   UNL A   1      33.766  30.775  27.884  1.00  0.00     0.163 HD
BRANCH   3   6
ATOM      6  C   UNL A   1      33.271  28.146  25.855  1.00  0.00     0.041 A 
ATOM      7  C   UNL A   1      31.361  27.481  24.536  1.00  0.00     0.041 A 
ATOM      8  C   UNL A   1      31.774  26.148  24.618  1.00  0.00     0.026 A 
ATOM      9  C   UNL A   1      32.207  28.472  25.020  1.00  0.00     0.040 A 
ATOM     10  C   UNL A   1      32.970  25.822  25.264  1.00  0.00     0.003 A 
ATOM     11  C   UNL A   1      33.694  26.815  25.924  1.00  0.00     0.014 A 
BRANCH   7  12
ATOM     12  N   UNL A   1      30.045  27.756  24.103  1.00  0.00    -0.326 N 
ATOM     13  O   UNL A   1      30.402  28.539  21.928  1.00  0.00    -0.274 OA
ATOM     14  C   UNL A   1      29.678  28.355  22.903  1.00  0.00     0.230 C 
ATOM     15  H   UNL A   1      29.315  27.496  24.711  1.00  0.00     0.169 HD
BRANCH  14  16
ATOM     16  C   UNL A   1      28.256  28.908  22.894  1.00  0.00     0.154 C 
BRANCH  16  17
ATOM     17  C   UNL A   1      28.181  30.307  22.359  1.00  0.00     0.034 A 
ATOM     18  C   UNL A   1      28.456  31.389  23.103  1.00  0.00     0.093 A 
ATOM     19  N   UNL A   1      27.827  30.458  21.041  1.00  0.00    -0.311 N 
ATOM     20  C   UNL A   1      28.403  32.725  22.479  1.00  0.00     0.253 A 
ATOM     21  C   UNL A   1      27.748  31.667  20.402  1.00  0.00     0.325 A 
ATOM     22  H   UNL A   1      27.617  29.648  20.523  1.00  0.00     0.171 HD
ATOM     23  O   UNL A   1      28.680  33.729  23.125  1.00  0.00    -0.269 OA
ATOM     24  N   UNL A   1      28.052  32.757  21.162  1.00  0.00    -0.274 N 
ATOM     25  O   UNL A   1      27.438  31.745  19.220  1.00  0.00    -0.248 OA
ATOM     26  H   UNL A   1      28.013  33.639  20.725  1.00  0.00     0.175 HD
ENDBRANCH  16  17
ENDBRANCH  14  16
ENDBRANCH   7  12
ENDBRANCH   3   6
ENDBRANCH   1   2
BRANCH   1  27
ATOM     27  C   UNL A   1      31.596  32.053  26.875  1.00  0.00     0.042 C 
BRANCH  27  28
ATOM     28  C   UNL A   1      32.825  32.929  27.016  1.00  0.00     0.118 C 
BRANCH  28  29
ATOM     29  N   UNL A   1      32.528  34.246  27.567  1.00  0.00    -0.352 N 
ATOM     30  C   UNL A   1      33.034  34.903  28.662  1.00  0.00     0.251 C 
ATOM     31  H   UNL A   1      31.846  34.751  27.069  1.00  0.00     0.163 HD
ATOM     32  O   UNL A   1      32.502  35.941  29.047  1.00  0.00    -0.269 OA
BRANCH  30  33
ATOM     33  C   UNL A   1      34.199  34.366  29.403  1.00  0.00     0.039 A 
ATOM     34  C   UNL A   1      33.981  33.629  30.571  1.00  0.00     0.014 A 
ATOM     35  C   UNL A   1      35.504  34.609  28.974  1.00  0.00     0.014 A 
ATOM     36  C   UNL A   1      35.065  33.076  31.258  1.00  0.00     0.010 A 
ATOM     37  C   UNL A   1      36.570  33.963  29.587  1.00  0.00     0.010 A 
ATOM     38  C   UNL A   1      36.367  33.203  30.747  1.00  0.00    -0.014 A 
BRANCH  38  39
ATOM     39  C   UNL A   1      37.536  32.581  31.420  1.00  0.00     0.031 A 
ATOM     40  C   UNL A   1      38.258  31.436  30.761  1.00  0.00     0.074 A 
ATOM     41  C   UNL A   1      37.901  32.993  32.649  1.00  0.00     0.049 A 
ATOM     42  N   UNL A   1      39.232  30.692  31.221  1.00  0.00    -0.248 NA
ATOM     43  C   UNL A   1      37.799  31.052  29.415  1.00  0.00     0.031 C 
ATOM     44  C   UNL A   1      37.253  34.060  33.412  1.00  0.00     0.029 A 
ATOM     45  N   UNL A   1      38.902  32.554  33.480  1.00  0.00    -0.354 N 
ATOM     46  C   UNL A   1      39.485  29.747  30.234  1.00  0.00     0.074 A 
ATOM     47  C   UNL A   1      38.519  29.966  29.181  1.00  0.00     0.031 C 
ATOM     48  C   UNL A   1      37.889  34.212  34.585  1.00  0.00     0.029 A 
ATOM     49  C   UNL A   1      38.959  33.224  34.678  1.00  0.00     0.049 A 
ATOM     50  H   UNL A   1      39.521  31.827  33.240  1.00  0.00     0.167 HD
ATOM     51  C   UNL A   1      40.454  28.802  30.196  1.00  0.00     0.037 A 
ATOM     52  C   UNL A   1      39.776  33.053  35.735  1.00  0.00     0.037 A 
ATOM     53  C   UNL A   1      41.430  28.607  31.235  1.00  0.00     0.049 A 
ATOM     54  C   UNL A   1      40.836  31.984  35.673  1.00  0.00     0.074 A 
ATOM     55  C   UNL A   1      42.486  27.715  31.272  1.00  0.00     0.029 A 
ATOM     56  N   UNL A   1      41.466  29.320  32.426  1.00  0.00    -0.354 N 
ATOM     57  N   UNL A   1      41.107  31.141  34.707  1.00  0.00    -0.248 NA
ATOM     58  C   UNL A   1      41.708  31.851  36.847  1.00  0.00     0.031 C 
ATOM     59  C   UNL A   1      43.128  27.849  32.507  1.00  0.00     0.029 A 
ATOM     60  C   UNL A   1      42.513  28.871  33.213  1.00  0.00     0.049 A 
ATOM     61  H   UNL A   1      40.839  30.039  32.673  1.00  0.00     0.167 HD
ATOM     62  C   UNL A   1      42.200  30.403  35.140  1.00  0.00     0.074 A 
ATOM     63  C   UNL A   1      42.551  30.908  36.451  1.00  0.00     0.031 C 
ATOM     64  C   UNL A   1      42.857  29.397  34.510  1.00  0.00     0.037 A 
BRANCH  51  65
ATOM     65  C   UNL A   1      40.510  27.912  28.986  1.00  0.00     0.064 A 
ATOM     66  C   UNL A   1      41.339  28.206  27.891  1.00  0.00     0.173 A 
ATOM     67  C   UNL A   1      39.750  26.734  28.932  1.00  0.00     0.173 A 
ATOM     68  F   UNL A   1      42.078  29.325  27.885  1.00  0.00    -0.203 F 
ATOM     69  C   UNL A   1      41.377  27.374  26.776  1.00  0.00     0.198 A 
ATOM     70  C   UNL A   1      39.819  25.885  27.830  1.00  0.00     0.198 A 
ATOM     71  F   UNL A   1      38.945  26.400  29.951  1.00  0.00    -0.203 F 
ATOM     72  F   UNL A   1      42.132  27.707  25.719  1.00  0.00    -0.200 F 
ATOM     73  C   UNL A   1      40.623  26.210  26.749  1.00  0.00     0.200 A 
ATOM     74  F   UNL A   1      39.101  24.753  27.813  1.00  0.00    -0.200 F 
ATOM     75  F   UNL A   1      40.669  25.405  25.679  1.00  0.00    -0.200 F 
ENDBRANCH  51  65
BRANCH  52  76
ATOM     76  C   UNL A   1      39.645  33.927  36.931  1.00  0.00     0.064 A 
ATOM     77  C   UNL A   1      38.883  33.523  38.037  1.00  0.00     0.173 A 
ATOM     78  C   UNL A   1      40.264  35.184  36.992  1.00  0.00     0.173 A 
ATOM     79  F   UNL A   1      38.258  32.337  38.021  1.00  0.00    -0.203 F 
ATOM     80  C   UNL A   1      38.720  34.354  39.143  1.00  0.00     0.198 A 
ATOM     81  C   UNL A   1      40.127  36.001  38.113  1.00  0.00     0.198 A 
ATOM     82  F   UNL A   1      41.011  35.617  35.966  1.00  0.00    -0.203 F 
ATOM     83  F   UNL A   1      37.941  33.964  40.161  1.00  0.00    -0.200 F 
ATOM     84  C   UNL A   1      39.347  35.590  39.183  1.00  0.00     0.200 A 
ATOM     85  F   UNL A   1      40.750  37.186  38.155  1.00  0.00    -0.200 F 
ATOM     86  F   UNL A   1      39.191  36.388  40.248  1.00  0.00    -0.200 F 
ENDBRANCH  52  76
BRANCH  64  87
ATOM     87  C   UNL A   1      44.053  28.812  35.204  1.00  0.00     0.064 A 
ATOM     88  C   UNL A   1      45.345  29.320  35.010  1.00  0.00     0.173 A 
ATOM     89  C   UNL A   1      43.894  27.750  36.109  1.00  0.00     0.173 A 
ATOM     90  F   UNL A   1      45.553  30.325  34.145  1.00  0.00    -0.203 F 
ATOM     91  C   UNL A   1      46.439  28.769  35.673  1.00  0.00     0.198 A 
ATOM     92  C   UNL A   1      44.984  27.226  36.797  1.00  0.00     0.198 A 
ATOM     93  F   UNL A   1      42.678  27.231  36.338  1.00  0.00    -0.203 F 
ATOM     94  F   UNL A   1      47.670  29.235  35.431  1.00  0.00    -0.200 F 
ATOM     95  C   UNL A   1      46.256  27.729  36.572  1.00  0.00     0.200 A 
ATOM     96  F   UNL A   1      44.803  26.233  37.678  1.00  0.00    -0.200 F 
ATOM     97  F   UNL A   1      47.307  27.206  37.216  1.00  0.00    -0.200 F 
ENDBRANCH  64  87
ENDBRANCH  38  39
ENDBRANCH  30  33
ENDBRANCH  28  29
ENDBRANCH  27  28
ENDBRANCH   1  27
TORSDOF 13
ENDMDL
MODEL 3
REMARK VINA RESULT:     -13.1      1.018      2.138
REMARK SMILES O=C(Cc1cc(=O)[nH]c(=O)[nH]1)Nc1cccc(C(=O)NCCCNC(=O)c2ccc(-c3c4nc(c(-c5c(F)c(F)c(F)c(F)c5F)c5ccc([nH]5)c(-c5c(F)c(F)c(F)c(F)c5F)c5nc(c(-c6c(F)c(F)c(F)c(F)c6F)c6ccc3[nH]6)C=C5)C=C4)cc2)c1
REMARK SMILES IDX 21 1 20 2 18 3 19 4 17 6 13 7 14 8 90 9 15 10 16 11 12 12
REMARK SMILES IDX 1 13 2 14 3 16 4 17 5 18 11 19 6 20 9 21 7 23 8 24 10 25
REMARK SMILES IDX 22 27 23 28 24 29 25 30 26 32 27 33 28 34 89 35 29 36 88 37
REMARK SMILES IDX 30 38 31 39 32 40 82 41 33 42 87 43 81 44 83 45 34 46 86 47
REMARK SMILES IDX 80 48 79 49 35 51 67 52 47 53 66 54 48 55 51 56 65 57 84 58
REMARK SMILES IDX 49 59 50 60 64 62 85 63 52 64 36 65 37 66 45 67 38 68 39 69
REMARK SMILES IDX 43 70 46 71 40 72 41 73 44 74 42 75 68 76 69 77 77 78 70 79
REMARK SMILES IDX 71 80 75 81 78 82 72 83 73 84 76 85 74 86 53 87 54 88 62 89
REMARK SMILES IDX 55 90 56 91 60 92 63 93 57 94 58 95 61 96 59 97
REMARK H PARENT 20 5 12 15 11 22 8 26 24 31 83 50 51 61
REMARK Flexibility Score: inf
ROOT
ATOM      1  C   UNL A   1      31.576  30.679  25.871  1.00  0.00     0.118 C 
ENDROOT
BRANCH   1   2
ATOM      2  N   UNL A   1      32.721  29.971  26.437  1.00  0.00    -0.352 N 
ATOM      3  C   UNL A   1      33.507  28.942  25.957  1.00  0.00     0.251 C 
ATOM      4  O   UNL A   1      34.404  28.506  26.678  1.00  0.00    -0.269 OA
ATOM      5  H   UNL A   1      32.982  30.286  27.332  1.00  0.00     0.163 HD
BRANCH   3   6
ATOM      6  C   UNL A   1      33.253  28.294  24.643  1.00  0.00     0.041 A 
ATOM      7  C   UNL A   1      32.764  26.286  23.394  1.00  0.00     0.041 A 
ATOM      8  C   UNL A   1      33.236  26.900  22.230  1.00  0.00     0.026 A 
ATOM      9  C   UNL A   1      32.632  27.052  24.547  1.00  0.00     0.040 A 
ATOM     10  C   UNL A   1      33.655  28.233  22.261  1.00  0.00     0.003 A 
ATOM     11  C   UNL A   1      33.709  28.915  23.477  1.00  0.00     0.014 A 
BRANCH   7  12
ATOM     12  N   UNL A   1      32.583  24.885  23.394  1.00  0.00    -0.326 N 
ATOM     13  O   UNL A   1      34.781  24.111  23.190  1.00  0.00    -0.274 OA
ATOM     14  C   UNL A   1      33.566  23.925  23.184  1.00  0.00     0.230 C 
ATOM     15  H   UNL A   1      31.670  24.556  23.560  1.00  0.00     0.169 HD
BRANCH  14  16
ATOM     16  C   UNL A   1      33.023  22.548  22.816  1.00  0.00     0.154 C 
BRANCH  16  17
ATOM     17  C   UNL A   1      33.049  21.587  23.968  1.00  0.00     0.034 A 
ATOM     18  C   UNL A   1      32.501  20.364  23.911  1.00  0.00     0.093 A 
ATOM     19  N   UNL A   1      33.683  21.998  25.114  1.00  0.00    -0.311 N 
ATOM     20  C   UNL A   1      32.617  19.468  25.077  1.00  0.00     0.253 A 
ATOM     21  C   UNL A   1      33.818  21.223  26.235  1.00  0.00     0.325 A 
ATOM     22  H   UNL A   1      34.064  22.905  25.132  1.00  0.00     0.171 HD
ATOM     23  O   UNL A   1      32.154  18.334  25.044  1.00  0.00    -0.269 OA
ATOM     24  N   UNL A   1      33.276  19.974  26.158  1.00  0.00    -0.274 N 
ATOM     25  O   UNL A   1      34.403  21.634  27.229  1.00  0.00    -0.248 OA
ATOM     26  H   UNL A   1      33.368  19.391  26.946  1.00  0.00     0.175 HD
ENDBRANCH  16  17
ENDBRANCH  14  16
ENDBRANCH   7  12
ENDBRANCH   3   6
ENDBRANCH   1   2
BRANCH   1  27
ATOM     27  C   UNL A   1      31.382  32.086  26.407  1.00  0.00     0.042 C 
BRANCH  27  28
ATOM     28  C   UNL A   1      32.528  32.604  27.252  1.00  0.00     0.118 C 
BRANCH  28  29
ATOM     29  N   UNL A   1      32.393  34.014  27.595  1.00  0.00    -0.352 N 
ATOM     30  C   UNL A   1      33.046  34.785  28.527  1.00  0.00     0.251 C 
ATOM     31  H   UNL A   1      31.718  34.499  27.068  1.00  0.00     0.163 HD
ATOM     32  O   UNL A   1      32.639  35.919  28.768  1.00  0.00    -0.269 OA
BRANCH  30  33
ATOM     33  C   UNL A   1      34.219  34.262  29.263  1.00  0.00     0.039 A 
ATOM     34  C   UNL A   1      34.017  33.579  30.467  1.00  0.00     0.014 A 
ATOM     35  C   UNL A   1      35.517  34.464  28.795  1.00  0.00     0.014 A 
ATOM     36  C   UNL A   1      35.108  33.038  31.153  1.00  0.00     0.010 A 
ATOM     37  C   UNL A   1      36.587  33.827  29.411  1.00  0.00     0.010 A 
ATOM     38  C   UNL A   1      36.399  33.121  30.608  1.00  0.00    -0.014 A 
BRANCH  38  39
ATOM     39  C   UNL A   1      37.574  32.509  31.280  1.00  0.00     0.031 A 
ATOM     40  C   UNL A   1      38.320  31.387  30.609  1.00  0.00     0.074 A 
ATOM     41  C   UNL A   1      37.922  32.907  32.519  1.00  0.00     0.049 A 
ATOM     42  N   UNL A   1      39.303  30.653  31.066  1.00  0.00    -0.248 NA
ATOM     43  C   UNL A   1      37.879  31.016  29.254  1.00  0.00     0.031 C 
ATOM     44  C   UNL A   1      37.249  33.952  33.293  1.00  0.00     0.029 A 
ATOM     45  N   UNL A   1      38.924  32.473  33.350  1.00  0.00    -0.354 N 
ATOM     46  C   UNL A   1      39.580  29.728  30.066  1.00  0.00     0.074 A 
ATOM     47  C   UNL A   1      38.619  29.946  29.009  1.00  0.00     0.031 C 
ATOM     48  C   UNL A   1      37.873  34.096  34.473  1.00  0.00     0.029 A 
ATOM     49  C   UNL A   1      38.959  33.126  34.559  1.00  0.00     0.049 A 
ATOM     50  H   UNL A   1      39.557  31.761  33.104  1.00  0.00     0.167 HD
ATOM     51  C   UNL A   1      40.567  28.801  30.021  1.00  0.00     0.037 A 
ATOM     52  C   UNL A   1      39.771  32.952  35.620  1.00  0.00     0.037 A 
ATOM     53  C   UNL A   1      41.537  28.607  31.066  1.00  0.00     0.049 A 
ATOM     54  C   UNL A   1      40.849  31.903  35.550  1.00  0.00     0.074 A 
ATOM     55  C   UNL A   1      42.608  27.732  31.098  1.00  0.00     0.029 A 
ATOM     56  N   UNL A   1      41.551  29.302  32.267  1.00  0.00    -0.354 N 
ATOM     57  N   UNL A   1      41.143  31.080  34.574  1.00  0.00    -0.248 NA
ATOM     58  C   UNL A   1      41.714  31.767  36.729  1.00  0.00     0.031 C 
ATOM     59  C   UNL A   1      43.239  27.859  32.339  1.00  0.00     0.029 A 
ATOM     60  C   UNL A   1      42.600  28.858  33.056  1.00  0.00     0.049 A 
ATOM     61  H   UNL A   1      40.910  30.005  32.521  1.00  0.00     0.167 HD
ATOM     62  C   UNL A   1      42.246  30.354  35.004  1.00  0.00     0.074 A 
ATOM     63  C   UNL A   1      42.577  30.845  36.325  1.00  0.00     0.031 C 
ATOM     64  C   UNL A   1      42.924  29.370  34.363  1.00  0.00     0.037 A 
BRANCH  51  65
ATOM     65  C   UNL A   1      40.648  27.931  28.799  1.00  0.00     0.064 A 
ATOM     66  C   UNL A   1      39.937  26.723  28.704  1.00  0.00     0.173 A 
ATOM     67  C   UNL A   1      41.421  28.322  27.695  1.00  0.00     0.173 A 
ATOM     68  F   UNL A   1      39.191  26.296  29.733  1.00  0.00    -0.203 F 
ATOM     69  C   UNL A   1      40.025  25.926  27.566  1.00  0.00     0.198 A 
ATOM     70  C   UNL A   1      41.477  27.539  26.544  1.00  0.00     0.198 A 
ATOM     71  F   UNL A   1      42.117  29.468  27.728  1.00  0.00    -0.203 F 
ATOM     72  F   UNL A   1      39.383  24.751  27.523  1.00  0.00    -0.200 F 
ATOM     73  C   UNL A   1      40.788  26.339  26.484  1.00  0.00     0.200 A 
ATOM     74  F   UNL A   1      42.204  27.948  25.494  1.00  0.00    -0.200 F 
ATOM     75  F   UNL A   1      40.864  25.574  25.386  1.00  0.00    -0.200 F 
ENDBRANCH  51  65
BRANCH  52  76
ATOM     76  C   UNL A   1      39.615  33.805  36.828  1.00  0.00     0.064 A 
ATOM     77  C   UNL A   1      38.821  33.388  37.906  1.00  0.00     0.173 A 
ATOM     78  C   UNL A   1      40.242  35.056  36.929  1.00  0.00     0.173 A 
ATOM     79  F   UNL A   1      38.186  32.207  37.851  1.00  0.00    -0.203 F 
ATOM     80  C   UNL A   1      38.635  34.199  39.023  1.00  0.00     0.198 A 
ATOM     81  C   UNL A   1      40.082  35.853  38.061  1.00  0.00     0.198 A 
ATOM     82  F   UNL A   1      41.020  35.501  35.931  1.00  0.00    -0.203 F 
ATOM     83  F   UNL A   1      37.826  33.798  40.012  1.00  0.00    -0.200 F 
ATOM     84  C   UNL A   1      39.271  35.429  39.102  1.00  0.00     0.200 A 
ATOM     85  F   UNL A   1      40.713  37.032  38.142  1.00  0.00    -0.200 F 
ATOM     86  F   UNL A   1      39.094  36.208  40.177  1.00  0.00    -0.200 F 
ENDBRANCH  52  76
BRANCH  64  87
ATOM     87  C   UNL A   1      44.125  28.795  35.058  1.00  0.00     0.064 A 
ATOM     88  C   UNL A   1      45.402  29.357  34.919  1.00  0.00     0.173 A 
ATOM     89  C   UNL A   1      43.985  27.686  35.909  1.00  0.00     0.173 A 
ATOM     90  F   UNL A   1      45.593  30.407  34.106  1.00  0.00    -0.203 F 
ATOM     91  C   UNL A   1      46.500  28.813  35.582  1.00  0.00     0.198 A 
ATOM     92  C   UNL A   1      45.077  27.169  36.598  1.00  0.00     0.198 A 
ATOM     93  F   UNL A   1      42.783  27.116  36.085  1.00  0.00    -0.203 F 
ATOM     94  F   UNL A   1      47.719  29.333  35.391  1.00  0.00    -0.200 F 
ATOM     95  C   UNL A   1      46.335  27.726  36.427  1.00  0.00     0.200 A 
ATOM     96  F   UNL A   1      44.912  26.130  37.428  1.00  0.00    -0.200 F 
ATOM     97  F   UNL A   1      47.390  27.211  37.072  1.00  0.00    -0.200 F 
ENDBRANCH  64  87
ENDBRANCH  38  39
ENDBRANCH  30  33
ENDBRANCH  28  29
ENDBRANCH  27  28
ENDBRANCH   1  27
TORSDOF 13
ENDMDL
