MODEL 1
REMARK VINA RESULT:     -13.4      0.000      0.000
REMARK SMILES O=C(NCCCNC(=O)c1ccc(-c2c3nc(c(-c4c(F)c(F)c(F)c(F)c4F)c4ccc([nH]4)c(-c4c(F)c(F)c(F)c(F)c4F)c4nc(c(-c5c(F)c(F)c(F)c(F)c5F)c5ccc2[nH]5)C=C4)C=C3)cc1)c1ccc(NS(=O)(=O)C2=Cc3ccccc3CC2)cc1
REMARK SMILES IDX 4 1 3 2 1 3 2 4 73 6 74 7 92 8 75 9 91 10 76 11 77 12 78 14
REMARK SMILES IDX 79 15 80 16 81 17 82 18 90 19 83 20 89 21 84 22 88 23 85 24
REMARK SMILES IDX 87 25 86 26 5 27 6 28 7 29 8 30 9 32 10 33 11 34 72 35 12 36
REMARK SMILES IDX 71 37 13 38 14 39 15 40 65 41 16 42 70 43 64 44 66 45 17 46
REMARK SMILES IDX 69 47 63 48 62 49 18 51 50 52 30 53 49 54 31 55 34 56 48 57
REMARK SMILES IDX 67 58 32 59 33 60 47 62 68 63 35 64 19 65 20 66 28 67 21 68
REMARK SMILES IDX 22 69 26 70 29 71 23 72 24 73 27 74 25 75 51 76 52 77 60 78
REMARK SMILES IDX 53 79 54 80 58 81 61 82 55 83 56 84 59 85 57 86 36 87 37 88
REMARK SMILES IDX 45 89 38 90 39 91 43 92 46 93 40 94 41 95 44 96 42 97
REMARK H PARENT 3 5 77 13 7 31 66 50 34 61
REMARK Flexibility Score: inf
ROOT
ATOM      1  C   UNL A   1      31.849  30.587  26.731  1.00  0.00     0.118 C 
ENDROOT
BRANCH   1   2
ATOM      2  N   UNL A   1      33.259  30.322  26.970  1.00  0.00    -0.352 N 
ATOM      3  O   UNL A   1      35.057  29.085  27.519  1.00  0.00    -0.269 OA
ATOM      4  C   UNL A   1      33.913  29.121  27.077  1.00  0.00     0.251 C 
ATOM      5  H   UNL A   1      33.826  31.120  27.069  1.00  0.00     0.163 HD
BRANCH   4   6
ATOM      6  C   UNL A   1      33.253  27.871  26.640  1.00  0.00     0.039 A 
ATOM      7  C   UNL A   1      31.998  27.525  27.146  1.00  0.00     0.016 A 
ATOM      8  C   UNL A   1      33.836  27.093  25.635  1.00  0.00     0.016 A 
ATOM      9  C   UNL A   1      31.356  26.375  26.691  1.00  0.00     0.027 A 
ATOM     10  C   UNL A   1      33.186  25.937  25.182  1.00  0.00     0.027 A 
ATOM     11  C   UNL A   1      31.951  25.568  25.723  1.00  0.00     0.049 A 
BRANCH  11  12
ATOM     12  N   UNL A   1      31.214  24.483  25.157  1.00  0.00    -0.280 N 
ATOM     13  H   UNL A   1      30.536  24.659  24.465  1.00  0.00     0.180 HD
BRANCH  12  14
ATOM     14  S   UNL A   1      31.502  22.886  25.673  1.00  0.00     0.258 S 
ATOM     15  O   UNL A   1      32.581  23.017  26.636  1.00  0.00    -0.202 OA
ATOM     16  O   UNL A   1      30.215  22.400  26.127  1.00  0.00    -0.202 OA
BRANCH  14  17
ATOM     17  C   UNL A   1      32.031  21.924  24.286  1.00  0.00     0.066 C 
ATOM     18  C   UNL A   1      32.900  22.520  23.440  1.00  0.00     0.026 C 
ATOM     19  C   UNL A   1      32.297  20.470  24.594  1.00  0.00     0.055 C 
ATOM     20  C   UNL A   1      34.336  22.283  23.767  1.00  0.00    -0.021 A 
ATOM     21  C   UNL A   1      33.680  20.312  25.239  1.00  0.00     0.041 C 
ATOM     22  C   UNL A   1      35.310  23.114  23.206  1.00  0.00     0.008 A 
ATOM     23  C   UNL A   1      34.715  21.243  24.642  1.00  0.00    -0.040 A 
ATOM     24  C   UNL A   1      36.652  22.951  23.554  1.00  0.00     0.001 A 
ATOM     25  C   UNL A   1      36.061  21.107  25.002  1.00  0.00     0.004 A 
ATOM     26  C   UNL A   1      37.023  21.962  24.463  1.00  0.00     0.000 A 
ENDBRANCH  14  17
ENDBRANCH  12  14
ENDBRANCH  11  12
ENDBRANCH   4   6
ENDBRANCH   1   2
BRANCH   1  27
ATOM     27  C   UNL A   1      31.516  32.065  26.858  1.00  0.00     0.042 C 
BRANCH  27  28
ATOM     28  C   UNL A   1      32.730  32.978  26.932  1.00  0.00     0.118 C 
BRANCH  28  29
ATOM     29  N   UNL A   1      32.460  34.230  27.625  1.00  0.00    -0.352 N 
ATOM     30  C   UNL A   1      33.028  34.769  28.751  1.00  0.00     0.251 C 
ATOM     31  H   UNL A   1      31.753  34.781  27.218  1.00  0.00     0.163 HD
ATOM     32  O   UNL A   1      32.528  35.772  29.254  1.00  0.00    -0.269 OA
BRANCH  30  33
ATOM     33  C   UNL A   1      34.216  34.149  29.381  1.00  0.00     0.039 A 
ATOM     34  C   UNL A   1      34.020  33.191  30.380  1.00  0.00     0.014 A 
ATOM     35  C   UNL A   1      35.515  34.519  29.024  1.00  0.00     0.014 A 
ATOM     36  C   UNL A   1      35.120  32.568  30.973  1.00  0.00     0.010 A 
ATOM     37  C   UNL A   1      36.606  33.825  29.539  1.00  0.00     0.010 A 
ATOM     38  C   UNL A   1      36.423  32.855  30.533  1.00  0.00    -0.014 A 
BRANCH  38  39
ATOM     39  C   UNL A   1      37.598  32.166  31.124  1.00  0.00     0.031 A 
ATOM     40  C   UNL A   1      38.068  32.517  32.509  1.00  0.00     0.074 A 
ATOM     41  C   UNL A   1      38.271  31.257  30.392  1.00  0.00     0.049 A 
ATOM     42  N   UNL A   1      39.078  32.033  33.189  1.00  0.00    -0.248 NA
ATOM     43  C   UNL A   1      37.328  33.575  33.215  1.00  0.00     0.031 C 
ATOM     44  C   UNL A   1      37.962  30.886  29.010  1.00  0.00     0.029 A 
ATOM     45  N   UNL A   1      39.355  30.478  30.710  1.00  0.00    -0.354 N 
ATOM     46  C   UNL A   1      39.104  32.740  34.383  1.00  0.00     0.074 A 
ATOM     47  C   UNL A   1      38.047  33.725  34.317  1.00  0.00     0.031 C 
ATOM     48  C   UNL A   1      38.812  29.925  28.612  1.00  0.00     0.029 A 
ATOM     49  C   UNL A   1      39.738  29.632  29.700  1.00  0.00     0.049 A 
ATOM     50  H   UNL A   1      39.814  30.523  31.581  1.00  0.00     0.167 HD
ATOM     51  C   UNL A   1      39.915  32.564  35.454  1.00  0.00     0.037 A 
ATOM     52  C   UNL A   1      40.721  28.711  29.663  1.00  0.00     0.037 A 
ATOM     53  C   UNL A   1      40.938  31.555  35.536  1.00  0.00     0.049 A 
ATOM     54  C   UNL A   1      41.567  28.494  30.887  1.00  0.00     0.074 A 
ATOM     55  C   UNL A   1      41.767  31.249  36.600  1.00  0.00     0.029 A 
ATOM     56  N   UNL A   1      41.264  30.681  34.510  1.00  0.00    -0.354 N 
ATOM     57  N   UNL A   1      41.530  29.115  32.040  1.00  0.00    -0.248 NA
ATOM     58  C   UNL A   1      42.581  27.434  30.807  1.00  0.00     0.031 C 
ATOM     59  C   UNL A   1      42.618  30.210  36.207  1.00  0.00     0.029 A 
ATOM     60  C   UNL A   1      42.290  29.842  34.913  1.00  0.00     0.049 A 
ATOM     61  H   UNL A   1      40.831  30.661  33.626  1.00  0.00     0.167 HD
ATOM     62  C   UNL A   1      42.494  28.507  32.832  1.00  0.00     0.074 A 
ATOM     63  C   UNL A   1      43.086  27.454  32.032  1.00  0.00     0.031 C 
ATOM     64  C   UNL A   1      42.862  28.797  34.104  1.00  0.00     0.037 A 
BRANCH  51  65
ATOM     65  C   UNL A   1      39.716  33.476  36.630  1.00  0.00     0.064 A 
ATOM     66  C   UNL A   1      38.859  33.135  37.688  1.00  0.00     0.173 A 
ATOM     67  C   UNL A   1      40.408  34.693  36.714  1.00  0.00     0.173 A 
ATOM     68  F   UNL A   1      38.162  31.989  37.650  1.00  0.00    -0.203 F 
ATOM     69  C   UNL A   1      38.681  33.991  38.772  1.00  0.00     0.198 A 
ATOM     70  C   UNL A   1      40.251  35.533  37.813  1.00  0.00     0.198 A 
ATOM     71  F   UNL A   1      41.243  35.067  35.731  1.00  0.00    -0.203 F 
ATOM     72  F   UNL A   1      37.818  33.666  39.745  1.00  0.00    -0.200 F 
ATOM     73  C   UNL A   1      39.382  35.185  38.837  1.00  0.00     0.200 A 
ATOM     74  F   UNL A   1      40.936  36.683  37.881  1.00  0.00    -0.200 F 
ATOM     75  F   UNL A   1      39.214  36.006  39.883  1.00  0.00    -0.200 F 
ENDBRANCH  51  65
BRANCH  52  76
ATOM     76  C   UNL A   1      40.917  27.888  28.443  1.00  0.00     0.064 A 
ATOM     77  C   UNL A   1      41.769  28.321  27.416  1.00  0.00     0.173 A 
ATOM     78  C   UNL A   1      40.264  26.660  28.276  1.00  0.00     0.173 A 
ATOM     79  F   UNL A   1      42.402  29.499  27.523  1.00  0.00    -0.203 F 
ATOM     80  C   UNL A   1      41.941  27.566  26.258  1.00  0.00     0.198 A 
ATOM     81  C   UNL A   1      40.458  25.893  27.129  1.00  0.00     0.198 A 
ATOM     82  F   UNL A   1      39.446  26.198  29.233  1.00  0.00    -0.203 F 
ATOM     83  F   UNL A   1      42.727  28.024  25.274  1.00  0.00    -0.200 F 
ATOM     84  C   UNL A   1      41.290  26.350  26.118  1.00  0.00     0.200 A 
ATOM     85  F   UNL A   1      39.839  24.711  27.003  1.00  0.00    -0.200 F 
ATOM     86  F   UNL A   1      41.460  25.622  25.006  1.00  0.00    -0.200 F 
ENDBRANCH  52  76
BRANCH  64  87
ATOM     87  C   UNL A   1      43.932  27.941  34.714  1.00  0.00     0.064 A 
ATOM     88  C   UNL A   1      43.622  26.772  35.423  1.00  0.00     0.173 A 
ATOM     89  C   UNL A   1      45.284  28.291  34.578  1.00  0.00     0.173 A 
ATOM     90  F   UNL A   1      42.343  26.404  35.593  1.00  0.00    -0.203 F 
ATOM     91  C   UNL A   1      44.626  26.002  36.006  1.00  0.00     0.198 A 
ATOM     92  C   UNL A   1      46.285  27.503  35.138  1.00  0.00     0.198 A 
ATOM     93  F   UNL A   1      45.632  29.396  33.903  1.00  0.00    -0.203 F 
ATOM     94  F   UNL A   1      44.303  24.920  36.728  1.00  0.00    -0.200 F 
ATOM     95  C   UNL A   1      45.955  26.365  35.859  1.00  0.00     0.200 A 
ATOM     96  F   UNL A   1      47.572  27.849  34.986  1.00  0.00    -0.200 F 
ATOM     97  F   UNL A   1      46.920  25.626  36.423  1.00  0.00    -0.200 F 
ENDBRANCH  64  87
ENDBRANCH  38  39
ENDBRANCH  30  33
ENDBRANCH  28  29
ENDBRANCH  27  28
ENDBRANCH   1  27
TORSDOF 13
ENDMDL
MODEL 2
REMARK VINA RESULT:     -13.3      0.113      1.569
REMARK SMILES O=C(NCCCNC(=O)c1ccc(-c2c3nc(c(-c4c(F)c(F)c(F)c(F)c4F)c4ccc([nH]4)c(-c4c(F)c(F)c(F)c(F)c4F)c4nc(c(-c5c(F)c(F)c(F)c(F)c5F)c5ccc2[nH]5)C=C4)C=C3)cc1)c1ccc(NS(=O)(=O)C2=Cc3ccccc3CC2)cc1
REMARK SMILES IDX 4 1 3 2 1 3 2 4 73 6 74 7 92 8 75 9 91 10 76 11 77 12 78 14
REMARK SMILES IDX 79 15 80 16 81 17 82 18 90 19 83 20 89 21 84 22 88 23 85 24
REMARK SMILES IDX 87 25 86 26 5 27 6 28 7 29 8 30 9 32 10 33 11 34 72 35 12 36
REMARK SMILES IDX 71 37 13 38 14 39 15 40 65 41 16 42 70 43 64 44 66 45 17 46
REMARK SMILES IDX 69 47 63 48 62 49 18 51 50 52 30 53 49 54 31 55 34 56 48 57
REMARK SMILES IDX 67 58 32 59 33 60 47 62 68 63 35 64 19 65 20 66 28 67 21 68
REMARK SMILES IDX 22 69 26 70 29 71 23 72 24 73 27 74 25 75 51 76 52 77 60 78
REMARK SMILES IDX 53 79 54 80 58 81 61 82 55 83 56 84 59 85 57 86 36 87 37 88
REMARK SMILES IDX 45 89 38 90 39 91 43 92 46 93 40 94 41 95 44 96 42 97
REMARK H PARENT 3 5 77 13 7 31 66 50 34 61
REMARK Flexibility Score: inf
ROOT
ATOM      1  C   UNL A   1      31.825  30.597  26.754  1.00  0.00     0.118 C 
ENDROOT
BRANCH   1   2
ATOM      2  N   UNL A   1      33.239  30.339  26.976  1.00  0.00    -0.352 N 
ATOM      3  O   UNL A   1      35.049  29.112  27.508  1.00  0.00    -0.269 OA
ATOM      4  C   UNL A   1      33.900  29.142  27.080  1.00  0.00     0.251 C 
ATOM      5  H   UNL A   1      33.803  31.140  27.063  1.00  0.00     0.163 HD
BRANCH   4   6
ATOM      6  C   UNL A   1      33.239  27.887  26.659  1.00  0.00     0.039 A 
ATOM      7  C   UNL A   1      31.965  27.569  27.135  1.00  0.00     0.016 A 
ATOM      8  C   UNL A   1      33.844  27.074  25.696  1.00  0.00     0.016 A 
ATOM      9  C   UNL A   1      31.324  26.413  26.693  1.00  0.00     0.027 A 
ATOM     10  C   UNL A   1      33.196  25.912  25.256  1.00  0.00     0.027 A 
ATOM     11  C   UNL A   1      31.939  25.572  25.767  1.00  0.00     0.049 A 
BRANCH  11  12
ATOM     12  N   UNL A   1      31.208  24.479  25.209  1.00  0.00    -0.280 N 
ATOM     13  H   UNL A   1      30.517  24.648  24.529  1.00  0.00     0.180 HD
BRANCH  12  14
ATOM     14  S   UNL A   1      31.525  22.885  25.716  1.00  0.00     0.258 S 
ATOM     15  O   UNL A   1      32.607  23.029  26.674  1.00  0.00    -0.202 OA
ATOM     16  O   UNL A   1      30.249  22.375  26.175  1.00  0.00    -0.202 OA
BRANCH  14  17
ATOM     17  C   UNL A   1      32.062  21.937  24.322  1.00  0.00     0.066 C 
ATOM     18  C   UNL A   1      32.939  22.541  23.490  1.00  0.00     0.026 C 
ATOM     19  C   UNL A   1      32.320  20.479  24.615  1.00  0.00     0.055 C 
ATOM     20  C   UNL A   1      34.372  22.295  23.826  1.00  0.00    -0.021 A 
ATOM     21  C   UNL A   1      33.698  20.309  25.268  1.00  0.00     0.041 C 
ATOM     22  C   UNL A   1      35.353  23.130  23.283  1.00  0.00     0.008 A 
ATOM     23  C   UNL A   1      34.741  21.244  24.691  1.00  0.00    -0.040 A 
ATOM     24  C   UNL A   1      36.692  22.958  23.639  1.00  0.00     0.001 A 
ATOM     25  C   UNL A   1      36.083  21.099  25.060  1.00  0.00     0.004 A 
ATOM     26  C   UNL A   1      37.053  21.957  24.539  1.00  0.00     0.000 A 
ENDBRANCH  14  17
ENDBRANCH  12  14
ENDBRANCH  11  12
ENDBRANCH   4   6
ENDBRANCH   1   2
BRANCH   1  27
ATOM     27  C   UNL A   1      31.488  32.076  26.870  1.00  0.00     0.042 C 
BRANCH  27  28
ATOM     28  C   UNL A   1      32.700  32.993  26.921  1.00  0.00     0.118 C 
BRANCH  28  29
ATOM     29  N   UNL A   1      32.434  34.251  27.604  1.00  0.00    -0.352 N 
ATOM     30  C   UNL A   1      33.013  34.804  28.718  1.00  0.00     0.251 C 
ATOM     31  H   UNL A   1      31.722  34.796  27.198  1.00  0.00     0.163 HD
ATOM     32  O   UNL A   1      32.515  35.810  29.216  1.00  0.00    -0.269 OA
BRANCH  30  33
ATOM     33  C   UNL A   1      34.208  34.193  29.342  1.00  0.00     0.039 A 
ATOM     34  C   UNL A   1      34.025  33.248  30.356  1.00  0.00     0.014 A 
ATOM     35  C   UNL A   1      35.503  34.560  28.967  1.00  0.00     0.014 A 
ATOM     36  C   UNL A   1      35.132  32.633  30.944  1.00  0.00     0.010 A 
ATOM     37  C   UNL A   1      36.600  33.874  29.478  1.00  0.00     0.010 A 
ATOM     38  C   UNL A   1      36.429  32.916  30.487  1.00  0.00    -0.014 A 
BRANCH  38  39
ATOM     39  C   UNL A   1      37.612  32.236  31.073  1.00  0.00     0.031 A 
ATOM     40  C   UNL A   1      38.092  32.599  32.451  1.00  0.00     0.074 A 
ATOM     41  C   UNL A   1      38.282  31.325  30.342  1.00  0.00     0.049 A 
ATOM     42  N   UNL A   1      39.109  32.124  33.126  1.00  0.00    -0.248 NA
ATOM     43  C   UNL A   1      37.353  33.659  33.155  1.00  0.00     0.031 C 
ATOM     44  C   UNL A   1      37.964  30.942  28.966  1.00  0.00     0.029 A 
ATOM     45  N   UNL A   1      39.372  30.552  30.657  1.00  0.00    -0.354 N 
ATOM     46  C   UNL A   1      39.141  32.839  34.316  1.00  0.00     0.074 A 
ATOM     47  C   UNL A   1      38.081  33.820  34.250  1.00  0.00     0.031 C 
ATOM     48  C   UNL A   1      38.814  29.982  28.568  1.00  0.00     0.029 A 
ATOM     49  C   UNL A   1      39.751  29.700  29.650  1.00  0.00     0.049 A 
ATOM     50  H   UNL A   1      39.838  30.605  31.524  1.00  0.00     0.167 HD
ATOM     51  C   UNL A   1      39.962  32.675  35.381  1.00  0.00     0.037 A 
ATOM     52  C   UNL A   1      40.736  28.782  29.612  1.00  0.00     0.037 A 
ATOM     53  C   UNL A   1      40.989  31.670  35.462  1.00  0.00     0.049 A 
ATOM     54  C   UNL A   1      41.593  28.578  30.831  1.00  0.00     0.074 A 
ATOM     55  C   UNL A   1      41.828  31.375  36.522  1.00  0.00     0.029 A 
ATOM     56  N   UNL A   1      41.310  30.790  34.440  1.00  0.00    -0.354 N 
ATOM     57  N   UNL A   1      41.563  29.207  31.980  1.00  0.00    -0.248 NA
ATOM     58  C   UNL A   1      42.610  27.521  30.750  1.00  0.00     0.031 C 
ATOM     59  C   UNL A   1      42.680  30.337  36.129  1.00  0.00     0.029 A 
ATOM     60  C   UNL A   1      42.343  29.958  34.841  1.00  0.00     0.049 A 
ATOM     61  H   UNL A   1      40.870  30.762  33.560  1.00  0.00     0.167 HD
ATOM     62  C   UNL A   1      42.536  28.608  32.768  1.00  0.00     0.074 A 
ATOM     63  C   UNL A   1      43.125  27.552  31.971  1.00  0.00     0.031 C 
ATOM     64  C   UNL A   1      42.913  28.909  34.035  1.00  0.00     0.037 A 
BRANCH  51  65
ATOM     65  C   UNL A   1      39.769  33.594  36.552  1.00  0.00     0.064 A 
ATOM     66  C   UNL A   1      38.901  33.270  37.607  1.00  0.00     0.173 A 
ATOM     67  C   UNL A   1      40.477  34.802  36.635  1.00  0.00     0.173 A 
ATOM     68  F   UNL A   1      38.188  32.134  37.569  1.00  0.00    -0.203 F 
ATOM     69  C   UNL A   1      38.729  34.133  38.685  1.00  0.00     0.198 A 
ATOM     70  C   UNL A   1      40.325  35.649  37.729  1.00  0.00     0.198 A 
ATOM     71  F   UNL A   1      41.323  35.160  35.656  1.00  0.00    -0.203 F 
ATOM     72  F   UNL A   1      37.856  33.825  39.655  1.00  0.00    -0.200 F 
ATOM     73  C   UNL A   1      39.445  35.318  38.750  1.00  0.00     0.200 A 
ATOM     74  F   UNL A   1      41.026  36.790  37.796  1.00  0.00    -0.200 F 
ATOM     75  F   UNL A   1      39.283  36.145  39.791  1.00  0.00    -0.200 F 
ENDBRANCH  51  65
BRANCH  52  76
ATOM     76  C   UNL A   1      40.927  27.952  28.396  1.00  0.00     0.064 A 
ATOM     77  C   UNL A   1      40.260  26.726  28.254  1.00  0.00     0.173 A 
ATOM     78  C   UNL A   1      41.772  28.360  27.356  1.00  0.00     0.173 A 
ATOM     79  F   UNL A   1      39.454  26.285  29.231  1.00  0.00    -0.203 F 
ATOM     80  C   UNL A   1      40.450  25.930  27.127  1.00  0.00     0.198 A 
ATOM     81  C   UNL A   1      41.941  27.575  26.217  1.00  0.00     0.198 A 
ATOM     82  F   UNL A   1      42.426  29.528  27.441  1.00  0.00    -0.203 F 
ATOM     83  F   UNL A   1      39.835  24.743  27.037  1.00  0.00    -0.200 F 
ATOM     84  C   UNL A   1      41.287  26.358  26.107  1.00  0.00     0.200 A 
ATOM     85  F   UNL A   1      42.739  27.998  25.227  1.00  0.00    -0.200 F 
ATOM     86  F   UNL A   1      41.466  25.594  25.021  1.00  0.00    -0.200 F 
ENDBRANCH  52  76
BRANCH  64  87
ATOM     87  C   UNL A   1      43.991  28.062  34.642  1.00  0.00     0.064 A 
ATOM     88  C   UNL A   1      45.339  28.451  34.604  1.00  0.00     0.173 A 
ATOM     89  C   UNL A   1      43.672  26.853  35.278  1.00  0.00     0.173 A 
ATOM     90  F   UNL A   1      45.696  29.591  33.994  1.00  0.00    -0.203 F 
ATOM     91  C   UNL A   1      46.332  27.641  35.149  1.00  0.00     0.198 A 
ATOM     92  C   UNL A   1      44.664  26.061  35.847  1.00  0.00     0.198 A 
ATOM     93  F   UNL A   1      42.397  26.442  35.346  1.00  0.00    -0.203 F 
ATOM     94  F   UNL A   1      47.618  28.003  35.050  1.00  0.00    -0.200 F 
ATOM     95  C   UNL A   1      45.994  26.450  35.773  1.00  0.00     0.200 A 
ATOM     96  F   UNL A   1      44.335  24.915  36.459  1.00  0.00    -0.200 F 
ATOM     97  F   UNL A   1      46.950  25.669  36.294  1.00  0.00    -0.200 F 
ENDBRANCH  64  87
ENDBRANCH  38  39
ENDBRANCH  30  33
ENDBRANCH  28  29
ENDBRANCH  27  28
ENDBRANCH   1  27
TORSDOF 13
ENDMDL
MODEL 3
REMARK VINA RESULT:     -13.3      1.799      2.870
REMARK SMILES O=C(NCCCNC(=O)c1ccc(-c2c3nc(c(-c4c(F)c(F)c(F)c(F)c4F)c4ccc([nH]4)c(-c4c(F)c(F)c(F)c(F)c4F)c4nc(c(-c5c(F)c(F)c(F)c(F)c5F)c5ccc2[nH]5)C=C4)C=C3)cc1)c1ccc(NS(=O)(=O)C2=Cc3ccccc3CC2)cc1
REMARK SMILES IDX 4 1 3 2 1 3 2 4 73 6 74 7 92 8 75 9 91 10 76 11 77 12 78 14
REMARK SMILES IDX 79 15 80 16 81 17 82 18 90 19 83 20 89 21 84 22 88 23 85 24
REMARK SMILES IDX 87 25 86 26 5 27 6 28 7 29 8 30 9 32 10 33 11 34 72 35 12 36
REMARK SMILES IDX 71 37 13 38 14 39 15 40 65 41 16 42 70 43 64 44 66 45 17 46
REMARK SMILES IDX 69 47 63 48 62 49 18 51 50 52 30 53 49 54 31 55 34 56 48 57
REMARK SMILES IDX 67 58 32 59 33 60 47 62 68 63 35 64 19 65 20 66 28 67 21 68
REMARK SMILES IDX 22 69 26 70 29 71 23 72 24 73 27 74 25 75 51 76 52 77 60 78
REMARK SMILES IDX 53 79 54 80 58 81 61 82 55 83 56 84 59 85 57 86 36 87 37 88
REMARK SMILES IDX 45 89 38 90 39 91 43 92 46 93 40 94 41 95 44 96 42 97
REMARK H PARENT 3 5 77 13 7 31 66 50 34 61
REMARK Flexibility Score: inf
ROOT
ATOM      1  C   UNL A   1      31.052  30.940  25.367  1.00  0.00     0.118 C 
ENDROOT
BRANCH   1   2
ATOM      2  N   UNL A   1      29.971  31.135  24.414  1.00  0.00    -0.352 N 
ATOM      3  O   UNL A   1      28.830  30.813  22.501  1.00  0.00    -0.269 OA
ATOM      4  C   UNL A   1      29.614  30.369  23.334  1.00  0.00     0.251 C 
ATOM      5  H   UNL A   1      29.415  31.933  24.566  1.00  0.00     0.163 HD
BRANCH   4   6
ATOM      6  C   UNL A   1      30.154  29.000  23.180  1.00  0.00     0.039 A 
ATOM      7  C   UNL A   1      29.344  27.892  23.437  1.00  0.00     0.016 A 
ATOM      8  C   UNL A   1      31.442  28.816  22.668  1.00  0.00     0.016 A 
ATOM      9  C   UNL A   1      29.840  26.605  23.239  1.00  0.00     0.027 A 
ATOM     10  C   UNL A   1      31.936  27.520  22.471  1.00  0.00     0.027 A 
ATOM     11  C   UNL A   1      31.139  26.411  22.773  1.00  0.00     0.049 A 
BRANCH  11  12
ATOM     12  N   UNL A   1      31.578  25.096  22.427  1.00  0.00    -0.280 N 
ATOM     13  H   UNL A   1      30.916  24.395  22.226  1.00  0.00     0.180 HD
BRANCH  12  14
ATOM     14  S   UNL A   1      33.240  24.733  22.362  1.00  0.00     0.258 S 
ATOM     15  O   UNL A   1      33.313  23.567  21.501  1.00  0.00    -0.202 OA
ATOM     16  O   UNL A   1      33.876  25.962  21.930  1.00  0.00    -0.202 OA
BRANCH  14  17
ATOM     17  C   UNL A   1      33.802  24.331  23.990  1.00  0.00     0.066 C 
ATOM     18  C   UNL A   1      34.376  25.334  24.691  1.00  0.00     0.026 C 
ATOM     19  C   UNL A   1      32.879  23.423  24.767  1.00  0.00     0.055 C 
ATOM     20  C   UNL A   1      33.427  26.113  25.538  1.00  0.00    -0.021 A 
ATOM     21  C   UNL A   1      31.719  24.233  25.361  1.00  0.00     0.041 C 
ATOM     22  C   UNL A   1      33.813  27.368  26.018  1.00  0.00     0.008 A 
ATOM     23  C   UNL A   1      32.149  25.603  25.846  1.00  0.00    -0.040 A 
ATOM     24  C   UNL A   1      32.914  28.141  26.755  1.00  0.00     0.001 A 
ATOM     25  C   UNL A   1      31.248  26.399  26.564  1.00  0.00     0.004 A 
ATOM     26  C   UNL A   1      31.630  27.664  27.011  1.00  0.00     0.000 A 
ENDBRANCH  14  17
ENDBRANCH  12  14
ENDBRANCH  11  12
ENDBRANCH   4   6
ENDBRANCH   1   2
BRANCH   1  27
ATOM     27  C   UNL A   1      31.033  31.983  26.474  1.00  0.00     0.042 C 
BRANCH  27  28
ATOM     28  C   UNL A   1      32.408  32.493  26.879  1.00  0.00     0.118 C 
BRANCH  28  29
ATOM     29  N   UNL A   1      32.380  33.850  27.407  1.00  0.00    -0.352 N 
ATOM     30  C   UNL A   1      33.140  34.447  28.380  1.00  0.00     0.251 C 
ATOM     31  H   UNL A   1      31.703  34.436  26.996  1.00  0.00     0.163 HD
ATOM     32  O   UNL A   1      32.831  35.566  28.780  1.00  0.00    -0.269 OA
BRANCH  30  33
ATOM     33  C   UNL A   1      34.307  33.754  28.971  1.00  0.00     0.039 A 
ATOM     34  C   UNL A   1      35.588  34.225  28.667  1.00  0.00     0.014 A 
ATOM     35  C   UNL A   1      34.160  32.634  29.793  1.00  0.00     0.014 A 
ATOM     36  C   UNL A   1      36.708  33.611  29.232  1.00  0.00     0.010 A 
ATOM     37  C   UNL A   1      35.267  32.089  30.436  1.00  0.00     0.010 A 
ATOM     38  C   UNL A   1      36.556  32.558  30.149  1.00  0.00    -0.014 A 
BRANCH  38  39
ATOM     39  C   UNL A   1      37.736  31.926  30.791  1.00  0.00     0.031 A 
ATOM     40  C   UNL A   1      38.149  32.325  32.181  1.00  0.00     0.074 A 
ATOM     41  C   UNL A   1      38.463  31.026  30.102  1.00  0.00     0.049 A 
ATOM     42  N   UNL A   1      39.155  31.894  32.903  1.00  0.00    -0.248 NA
ATOM     43  C   UNL A   1      37.350  33.372  32.838  1.00  0.00     0.031 C 
ATOM     44  C   UNL A   1      38.211  30.612  28.721  1.00  0.00     0.029 A 
ATOM     45  N   UNL A   1      39.564  30.295  30.472  1.00  0.00    -0.354 N 
ATOM     46  C   UNL A   1      39.117  32.629  34.080  1.00  0.00     0.074 A 
ATOM     47  C   UNL A   1      38.029  33.573  33.958  1.00  0.00     0.031 C 
ATOM     48  C   UNL A   1      39.107  29.675  28.372  1.00  0.00     0.029 A 
ATOM     49  C   UNL A   1      40.009  29.440  29.494  1.00  0.00     0.049 A 
ATOM     50  H   UNL A   1      39.994  30.376  31.354  1.00  0.00     0.167 HD
ATOM     51  C   UNL A   1      39.900  32.507  35.179  1.00  0.00     0.037 A 
ATOM     52  C   UNL A   1      41.024  28.555  29.509  1.00  0.00     0.037 A 
ATOM     53  C   UNL A   1      40.955  31.538  35.316  1.00  0.00     0.049 A 
ATOM     54  C   UNL A   1      41.839  28.397  30.763  1.00  0.00     0.074 A 
ATOM     55  C   UNL A   1      41.761  31.287  36.412  1.00  0.00     0.029 A 
ATOM     56  N   UNL A   1      41.344  30.653  34.322  1.00  0.00    -0.354 N 
ATOM     57  N   UNL A   1      41.744  29.042  31.900  1.00  0.00    -0.248 NA
ATOM     58  C   UNL A   1      42.892  27.373  30.740  1.00  0.00     0.031 C 
ATOM     59  C   UNL A   1      42.661  30.271  36.070  1.00  0.00     0.029 A 
ATOM     60  C   UNL A   1      42.386  29.862  34.776  1.00  0.00     0.049 A 
ATOM     61  H   UNL A   1      40.940  30.597  33.426  1.00  0.00     0.167 HD
ATOM     62  C   UNL A   1      42.704  28.488  32.734  1.00  0.00     0.074 A 
ATOM     63  C   UNL A   1      43.357  27.439  31.979  1.00  0.00     0.031 C 
ATOM     64  C   UNL A   1      43.021  28.820  34.010  1.00  0.00     0.037 A 
BRANCH  51  65
ATOM     65  C   UNL A   1      39.632  33.438  36.326  1.00  0.00     0.064 A 
ATOM     66  C   UNL A   1      38.794  33.071  37.391  1.00  0.00     0.173 A 
ATOM     67  C   UNL A   1      40.238  34.702  36.376  1.00  0.00     0.173 A 
ATOM     68  F   UNL A   1      38.178  31.879  37.384  1.00  0.00    -0.203 F 
ATOM     69  C   UNL A   1      38.552  33.944  38.447  1.00  0.00     0.198 A 
ATOM     70  C   UNL A   1      40.017  35.561  37.449  1.00  0.00     0.198 A 
ATOM     71  F   UNL A   1      41.051  35.103  35.386  1.00  0.00    -0.203 F 
ATOM     72  F   UNL A   1      37.707  33.590  39.427  1.00  0.00    -0.200 F 
ATOM     73  C   UNL A   1      39.168  35.185  38.480  1.00  0.00     0.200 A 
ATOM     74  F   UNL A   1      40.621  36.757  37.485  1.00  0.00    -0.200 F 
ATOM     75  F   UNL A   1      38.937  36.023  39.500  1.00  0.00    -0.200 F 
ENDBRANCH  51  65
BRANCH  52  76
ATOM     76  C   UNL A   1      41.289  27.712  28.316  1.00  0.00     0.064 A 
ATOM     77  C   UNL A   1      42.183  28.137  27.322  1.00  0.00     0.173 A 
ATOM     78  C   UNL A   1      40.658  26.473  28.142  1.00  0.00     0.173 A 
ATOM     79  F   UNL A   1      42.797  29.324  27.437  1.00  0.00    -0.203 F 
ATOM     80  C   UNL A   1      42.419  27.363  26.189  1.00  0.00     0.198 A 
ATOM     81  C   UNL A   1      40.916  25.687  27.019  1.00  0.00     0.198 A 
ATOM     82  F   UNL A   1      39.801  26.019  29.068  1.00  0.00    -0.203 F 
ATOM     83  F   UNL A   1      43.246  27.812  25.234  1.00  0.00    -0.200 F 
ATOM     84  C   UNL A   1      41.789  26.136  26.041  1.00  0.00     0.200 A 
ATOM     85  F   UNL A   1      40.317  24.496  26.887  1.00  0.00    -0.200 F 
ATOM     86  F   UNL A   1      42.021  25.390  24.952  1.00  0.00    -0.200 F 
ENDBRANCH  52  76
BRANCH  64  87
ATOM     87  C   UNL A   1      44.101  28.018  34.672  1.00  0.00     0.064 A 
ATOM     88  C   UNL A   1      45.448  28.405  34.605  1.00  0.00     0.173 A 
ATOM     89  C   UNL A   1      43.785  26.856  35.391  1.00  0.00     0.173 A 
ATOM     90  F   UNL A   1      45.803  29.500  33.917  1.00  0.00    -0.203 F 
ATOM     91  C   UNL A   1      46.443  27.635  35.203  1.00  0.00     0.198 A 
ATOM     92  C   UNL A   1      44.779  26.106  36.011  1.00  0.00     0.198 A 
ATOM     93  F   UNL A   1      42.510  26.449  35.490  1.00  0.00    -0.203 F 
ATOM     94  F   UNL A   1      47.729  27.991  35.077  1.00  0.00    -0.200 F 
ATOM     95  C   UNL A   1      46.107  26.490  35.909  1.00  0.00     0.200 A 
ATOM     96  F   UNL A   1      44.452  25.004  36.702  1.00  0.00    -0.200 F 
ATOM     97  F   UNL A   1      47.066  25.748  36.481  1.00  0.00    -0.200 F 
ENDBRANCH  64  87
ENDBRANCH  38  39
ENDBRANCH  30  33
ENDBRANCH  28  29
ENDBRANCH  27  28
ENDBRANCH   1  27
TORSDOF 13
ENDMDL
