MODEL 1
REMARK VINA RESULT:     -12.6      0.000      0.000
REMARK SMILES C[C@@H](C(=O)NCCCNC(=O)c1ccc(-c2c3nc(c(-c4c(F)c(F)c(F)c(F)c4F)c4ccc([nH]4)c(-c4c(F)c(F)c(F)c(F)c4F)c4nc(c(-c5c(F)c(F)c(F)c(F)c5F)c5ccc2[nH]5)C=C4)C=C3)cc1)c1ccc(C[C@H]2CCCC2=O)cc1F
REMARK SMILES IDX 6 1 5 2 3 3 4 4 2 6 1 7 75 8 76 9 87 10 77 11 86 12 88 13
REMARK SMILES IDX 78 14 79 15 80 16 81 17 84 18 82 19 83 20 85 21 7 22 8 23
REMARK SMILES IDX 9 24 10 25 11 27 12 28 13 29 74 30 14 31 73 32 15 33 16 34
REMARK SMILES IDX 17 35 67 36 18 37 72 38 66 39 68 40 19 41 71 42 65 43 64 44
REMARK SMILES IDX 20 46 52 47 32 48 51 49 33 50 36 51 50 52 69 53 34 54 35 55
REMARK SMILES IDX 49 57 70 58 37 59 21 60 22 61 30 62 23 63 24 64 28 65 31 66
REMARK SMILES IDX 25 67 26 68 29 69 27 70 53 71 54 72 62 73 55 74 56 75 60 76
REMARK SMILES IDX 63 77 57 78 58 79 61 80 59 81 38 82 39 83 47 84 40 85 41 86
REMARK SMILES IDX 45 87 48 88 42 89 43 90 46 91 44 92
REMARK H PARENT 5 5 9 26 68 45 36 56
REMARK Flexibility Score: inf
ROOT
ATOM      1  C   UNL A   1      32.321  27.342  26.523  1.00  0.00     0.117 C 
ENDROOT
BRANCH   1   2
ATOM      2  N   UNL A   1      32.946  26.851  25.311  1.00  0.00    -0.356 N 
ATOM      3  C   UNL A   1      32.409  26.252  24.208  1.00  0.00     0.227 C 
ATOM      4  O   UNL A   1      33.194  25.998  23.292  1.00  0.00    -0.274 OA
ATOM      5  H   UNL A   1      33.923  26.969  25.278  1.00  0.00     0.163 HD
BRANCH   3   6
ATOM      6  C   UNL A   1      30.898  25.980  24.133  1.00  0.00     0.108 C 
ATOM      7  C   UNL A   1      30.572  24.633  23.482  1.00  0.00     0.023 C 
BRANCH   6   8
ATOM      8  C   UNL A   1      30.137  27.086  23.414  1.00  0.00    -0.000 A 
ATOM      9  C   UNL A   1      30.826  28.038  22.649  1.00  0.00     0.008 A 
ATOM     10  C   UNL A   1      28.747  27.208  23.524  1.00  0.00     0.127 A 
ATOM     11  C   UNL A   1      30.140  29.098  22.048  1.00  0.00     0.004 A 
ATOM     12  C   UNL A   1      28.058  28.260  22.927  1.00  0.00     0.043 A 
ATOM     13  F   UNL A   1      28.048  26.329  24.256  1.00  0.00    -0.207 F 
ATOM     14  C   UNL A   1      28.754  29.234  22.203  1.00  0.00    -0.044 A 
BRANCH  14  15
ATOM     15  C   UNL A   1      28.028  30.433  21.642  1.00  0.00     0.047 C 
BRANCH  15  16
ATOM     16  C   UNL A   1      27.666  31.526  22.655  1.00  0.00     0.060 C 
ATOM     17  C   UNL A   1      28.335  31.434  24.033  1.00  0.00     0.012 C 
ATOM     18  C   UNL A   1      28.087  32.905  22.195  1.00  0.00     0.136 C 
ATOM     19  C   UNL A   1      29.528  32.383  23.991  1.00  0.00     0.009 C 
ATOM     20  C   UNL A   1      29.079  33.551  23.126  1.00  0.00     0.076 C 
ATOM     21  O   UNL A   1      27.652  33.449  21.186  1.00  0.00    -0.299 OA
ENDBRANCH  15  16
ENDBRANCH  14  15
ENDBRANCH   6   8
ENDBRANCH   3   6
ENDBRANCH   1   2
BRANCH   1  22
ATOM     22  C   UNL A   1      31.852  28.790  26.392  1.00  0.00     0.042 C 
BRANCH  22  23
ATOM     23  C   UNL A   1      32.899  29.761  25.851  1.00  0.00     0.118 C 
BRANCH  23  24
ATOM     24  N   UNL A   1      32.690  31.130  26.298  1.00  0.00    -0.352 N 
ATOM     25  C   UNL A   1      33.338  31.869  27.251  1.00  0.00     0.251 C 
ATOM     26  H   UNL A   1      31.960  31.603  25.837  1.00  0.00     0.163 HD
ATOM     27  O   UNL A   1      32.882  32.971  27.560  1.00  0.00    -0.269 OA
BRANCH  25  28
ATOM     28  C   UNL A   1      34.555  31.373  27.935  1.00  0.00     0.039 A 
ATOM     29  C   UNL A   1      35.633  32.253  28.079  1.00  0.00     0.014 A 
ATOM     30  C   UNL A   1      34.679  30.053  28.379  1.00  0.00     0.014 A 
ATOM     31  C   UNL A   1      36.806  31.829  28.706  1.00  0.00     0.010 A 
ATOM     32  C   UNL A   1      35.827  29.648  29.064  1.00  0.00     0.010 A 
ATOM     33  C   UNL A   1      36.905  30.530  29.228  1.00  0.00    -0.014 A 
BRANCH  33  34
ATOM     34  C   UNL A   1      38.128  30.105  29.956  1.00  0.00     0.031 A 
ATOM     35  C   UNL A   1      38.412  30.604  31.345  1.00  0.00     0.074 A 
ATOM     36  C   UNL A   1      39.003  29.279  29.349  1.00  0.00     0.049 A 
ATOM     37  N   UNL A   1      39.416  30.318  32.137  1.00  0.00    -0.248 NA
ATOM     38  C   UNL A   1      37.456  31.566  31.913  1.00  0.00     0.031 C 
ATOM     39  C   UNL A   1      38.873  28.771  27.982  1.00  0.00     0.029 A 
ATOM     40  N   UNL A   1      40.171  28.721  29.802  1.00  0.00    -0.354 N 
ATOM     41  C   UNL A   1      39.217  31.068  33.289  1.00  0.00     0.074 A 
ATOM     42  C   UNL A   1      38.023  31.857  33.076  1.00  0.00     0.031 C 
ATOM     43  C   UNL A   1      39.903  27.953  27.719  1.00  0.00     0.029 A 
ATOM     44  C   UNL A   1      40.777  27.895  28.887  1.00  0.00     0.049 A 
ATOM     45  H   UNL A   1      40.541  28.895  30.698  1.00  0.00     0.167 HD
ATOM     46  C   UNL A   1      39.949  31.078  34.429  1.00  0.00     0.037 A 
ATOM     47  C   UNL A   1      41.904  27.165  28.983  1.00  0.00     0.037 A 
ATOM     48  C   UNL A   1      41.125  30.276  34.652  1.00  0.00     0.049 A 
ATOM     49  C   UNL A   1      42.681  27.173  30.268  1.00  0.00     0.074 A 
ATOM     50  C   UNL A   1      41.898  30.174  35.796  1.00  0.00     0.029 A 
ATOM     51  N   UNL A   1      41.697  29.436  33.707  1.00  0.00    -0.354 N 
ATOM     52  N   UNL A   1      42.440  27.828  31.377  1.00  0.00    -0.248 NA
ATOM     53  C   UNL A   1      43.883  26.327  30.319  1.00  0.00     0.031 C 
ATOM     54  C   UNL A   1      42.958  29.299  35.532  1.00  0.00     0.029 A 
ATOM     55  C   UNL A   1      42.823  28.826  34.237  1.00  0.00     0.049 A 
ATOM     56  H   UNL A   1      41.353  29.295  32.796  1.00  0.00     0.167 HD
ATOM     57  C   UNL A   1      43.446  27.465  32.261  1.00  0.00     0.074 A 
ATOM     58  C   UNL A   1      44.288  26.512  31.567  1.00  0.00     0.031 C 
ATOM     59  C   UNL A   1      43.655  27.886  33.533  1.00  0.00     0.037 A 
BRANCH  46  60
ATOM     60  C   UNL A   1      39.494  31.986  35.535  1.00  0.00     0.064 A 
ATOM     61  C   UNL A   1      39.947  33.311  35.627  1.00  0.00     0.173 A 
ATOM     62  C   UNL A   1      38.565  31.541  36.486  1.00  0.00     0.173 A 
ATOM     63  F   UNL A   1      40.843  33.780  34.746  1.00  0.00    -0.203 F 
ATOM     64  C   UNL A   1      39.505  34.149  36.646  1.00  0.00     0.198 A 
ATOM     65  C   UNL A   1      38.107  32.391  37.491  1.00  0.00     0.198 A 
ATOM     66  F   UNL A   1      38.095  30.286  36.439  1.00  0.00    -0.203 F 
ATOM     67  F   UNL A   1      39.984  35.397  36.739  1.00  0.00    -0.200 F 
ATOM     68  C   UNL A   1      38.582  33.691  37.574  1.00  0.00     0.200 A 
ATOM     69  F   UNL A   1      37.206  31.950  38.380  1.00  0.00    -0.200 F 
ATOM     70  F   UNL A   1      38.154  34.502  38.551  1.00  0.00    -0.200 F 
ENDBRANCH  46  60
BRANCH  47  71
ATOM     71  C   UNL A   1      42.339  26.330  27.835  1.00  0.00     0.064 A 
ATOM     72  C   UNL A   1      43.289  26.806  26.921  1.00  0.00     0.173 A 
ATOM     73  C   UNL A   1      41.823  25.042  27.633  1.00  0.00     0.173 A 
ATOM     74  F   UNL A   1      43.794  28.040  27.064  1.00  0.00    -0.203 F 
ATOM     75  C   UNL A   1      43.694  26.031  25.837  1.00  0.00     0.198 A 
ATOM     76  C   UNL A   1      42.248  24.259  26.563  1.00  0.00     0.198 A 
ATOM     77  F   UNL A   1      40.917  24.541  28.485  1.00  0.00    -0.203 F 
ATOM     78  F   UNL A   1      44.576  26.525  24.956  1.00  0.00    -0.200 F 
ATOM     79  C   UNL A   1      43.178  24.756  25.662  1.00  0.00     0.200 A 
ATOM     80  F   UNL A   1      41.756  23.023  26.403  1.00  0.00    -0.200 F 
ATOM     81  F   UNL A   1      43.573  24.009  24.622  1.00  0.00    -0.200 F 
ENDBRANCH  47  71
BRANCH  59  82
ATOM     82  C   UNL A   1      44.835  27.307  34.254  1.00  0.00     0.064 A 
ATOM     83  C   UNL A   1      44.734  26.112  34.981  1.00  0.00     0.173 A 
ATOM     84  C   UNL A   1      46.084  27.946  34.207  1.00  0.00     0.173 A 
ATOM     85  F   UNL A   1      43.557  25.473  35.070  1.00  0.00    -0.203 F 
ATOM     86  C   UNL A   1      45.834  25.592  35.658  1.00  0.00     0.198 A 
ATOM     87  C   UNL A   1      47.187  27.409  34.865  1.00  0.00     0.198 A 
ATOM     88  F   UNL A   1      46.233  29.090  33.522  1.00  0.00    -0.203 F 
ATOM     89  F   UNL A   1      45.701  24.475  36.389  1.00  0.00    -0.200 F 
ATOM     90  C   UNL A   1      47.059  26.238  35.596  1.00  0.00     0.200 A 
ATOM     91  F   UNL A   1      48.373  28.030  34.798  1.00  0.00    -0.200 F 
ATOM     92  F   UNL A   1      48.115  25.737  36.252  1.00  0.00    -0.200 F 
ENDBRANCH  59  82
ENDBRANCH  33  34
ENDBRANCH  25  28
ENDBRANCH  23  24
ENDBRANCH  22  23
ENDBRANCH   1  22
TORSDOF 13
ENDMDL
MODEL 2
REMARK VINA RESULT:     -12.5      2.704      5.286
REMARK SMILES C[C@@H](C(=O)NCCCNC(=O)c1ccc(-c2c3nc(c(-c4c(F)c(F)c(F)c(F)c4F)c4ccc([nH]4)c(-c4c(F)c(F)c(F)c(F)c4F)c4nc(c(-c5c(F)c(F)c(F)c(F)c5F)c5ccc2[nH]5)C=C4)C=C3)cc1)c1ccc(C[C@H]2CCCC2=O)cc1F
REMARK SMILES IDX 6 1 5 2 3 3 4 4 2 6 1 7 75 8 76 9 87 10 77 11 86 12 88 13
REMARK SMILES IDX 78 14 79 15 80 16 81 17 84 18 82 19 83 20 85 21 7 22 8 23
REMARK SMILES IDX 9 24 10 25 11 27 12 28 13 29 74 30 14 31 73 32 15 33 16 34
REMARK SMILES IDX 17 35 67 36 18 37 72 38 66 39 68 40 19 41 71 42 65 43 64 44
REMARK SMILES IDX 20 46 52 47 32 48 51 49 33 50 36 51 50 52 69 53 34 54 35 55
REMARK SMILES IDX 49 57 70 58 37 59 21 60 22 61 30 62 23 63 24 64 28 65 31 66
REMARK SMILES IDX 25 67 26 68 29 69 27 70 53 71 54 72 62 73 55 74 56 75 60 76
REMARK SMILES IDX 63 77 57 78 58 79 61 80 59 81 38 82 39 83 47 84 40 85 41 86
REMARK SMILES IDX 45 87 48 88 42 89 43 90 46 91 44 92
REMARK H PARENT 5 5 9 26 68 45 36 56
REMARK Flexibility Score: inf
ROOT
ATOM      1  C   UNL A   1      32.560  27.068  26.540  1.00  0.00     0.117 C 
ENDROOT
BRANCH   1   2
ATOM      2  N   UNL A   1      31.561  26.062  26.841  1.00  0.00    -0.356 N 
ATOM      3  C   UNL A   1      31.115  24.998  26.110  1.00  0.00     0.227 C 
ATOM      4  O   UNL A   1      30.288  24.269  26.662  1.00  0.00    -0.274 OA
ATOM      5  H   UNL A   1      31.130  26.164  27.720  1.00  0.00     0.163 HD
BRANCH   3   6
ATOM      6  C   UNL A   1      31.680  24.733  24.706  1.00  0.00     0.108 C 
ATOM      7  C   UNL A   1      30.614  24.834  23.611  1.00  0.00     0.023 C 
BRANCH   6   8
ATOM      8  C   UNL A   1      32.385  23.387  24.602  1.00  0.00    -0.000 A 
ATOM      9  C   UNL A   1      31.801  22.336  23.880  1.00  0.00     0.008 A 
ATOM     10  C   UNL A   1      33.604  23.148  25.247  1.00  0.00     0.127 A 
ATOM     11  C   UNL A   1      32.408  21.076  23.843  1.00  0.00     0.004 A 
ATOM     12  C   UNL A   1      34.214  21.897  25.213  1.00  0.00     0.043 A 
ATOM     13  F   UNL A   1      34.193  24.119  25.960  1.00  0.00    -0.207 F 
ATOM     14  C   UNL A   1      33.606  20.838  24.531  1.00  0.00    -0.044 A 
BRANCH  14  15
ATOM     15  C   UNL A   1      34.207  19.453  24.577  1.00  0.00     0.047 C 
BRANCH  15  16
ATOM     16  C   UNL A   1      33.306  18.320  24.072  1.00  0.00     0.060 C 
ATOM     17  C   UNL A   1      33.940  17.322  23.094  1.00  0.00     0.012 C 
ATOM     18  C   UNL A   1      32.839  17.410  25.187  1.00  0.00     0.136 C 
ATOM     19  C   UNL A   1      34.363  16.118  23.929  1.00  0.00     0.009 C 
ATOM     20  C   UNL A   1      33.298  15.987  25.008  1.00  0.00     0.076 C 
ATOM     21  O   UNL A   1      32.144  17.783  26.126  1.00  0.00    -0.299 OA
ENDBRANCH  15  16
ENDBRANCH  14  15
ENDBRANCH   6   8
ENDBRANCH   3   6
ENDBRANCH   1   2
BRANCH   1  22
ATOM     22  C   UNL A   1      31.960  28.304  25.872  1.00  0.00     0.042 C 
BRANCH  22  23
ATOM     23  C   UNL A   1      32.972  29.374  25.469  1.00  0.00     0.118 C 
BRANCH  23  24
ATOM     24  N   UNL A   1      32.629  30.698  25.966  1.00  0.00    -0.352 N 
ATOM     25  C   UNL A   1      33.186  31.452  26.964  1.00  0.00     0.251 C 
ATOM     26  H   UNL A   1      31.867  31.121  25.508  1.00  0.00     0.163 HD
ATOM     27  O   UNL A   1      32.624  32.493  27.307  1.00  0.00    -0.269 OA
BRANCH  25  28
ATOM     28  C   UNL A   1      34.430  31.040  27.656  1.00  0.00     0.039 A 
ATOM     29  C   UNL A   1      35.432  32.000  27.831  1.00  0.00     0.014 A 
ATOM     30  C   UNL A   1      34.653  29.725  28.077  1.00  0.00     0.014 A 
ATOM     31  C   UNL A   1      36.628  31.658  28.468  1.00  0.00     0.010 A 
ATOM     32  C   UNL A   1      35.820  29.399  28.771  1.00  0.00     0.010 A 
ATOM     33  C   UNL A   1      36.822  30.360  28.967  1.00  0.00    -0.014 A 
BRANCH  33  34
ATOM     34  C   UNL A   1      38.066  30.020  29.704  1.00  0.00     0.031 A 
ATOM     35  C   UNL A   1      38.308  30.542  31.092  1.00  0.00     0.074 A 
ATOM     36  C   UNL A   1      38.997  29.250  29.106  1.00  0.00     0.049 A 
ATOM     37  N   UNL A   1      39.324  30.326  31.892  1.00  0.00    -0.248 NA
ATOM     38  C   UNL A   1      37.287  31.442  31.651  1.00  0.00     0.031 C 
ATOM     39  C   UNL A   1      38.909  28.729  27.741  1.00  0.00     0.029 A 
ATOM     40  N   UNL A   1      40.197  28.772  29.569  1.00  0.00    -0.354 N 
ATOM     41  C   UNL A   1      39.069  31.066  33.039  1.00  0.00     0.074 A 
ATOM     42  C   UNL A   1      37.827  31.774  32.815  1.00  0.00     0.031 C 
ATOM     43  C   UNL A   1      39.993  27.979  27.488  1.00  0.00     0.029 A 
ATOM     44  C   UNL A   1      40.860  27.983  28.662  1.00  0.00     0.049 A 
ATOM     45  H   UNL A   1      40.548  28.974  30.467  1.00  0.00     0.167 HD
ATOM     46  C   UNL A   1      39.791  31.129  34.184  1.00  0.00     0.037 A 
ATOM     47  C   UNL A   1      42.032  27.329  28.768  1.00  0.00     0.037 A 
ATOM     48  C   UNL A   1      41.015  30.407  34.417  1.00  0.00     0.049 A 
ATOM     49  C   UNL A   1      42.799  27.393  30.058  1.00  0.00     0.074 A 
ATOM     50  C   UNL A   1      41.786  30.360  35.566  1.00  0.00     0.029 A 
ATOM     51  N   UNL A   1      41.647  29.602  33.480  1.00  0.00    -0.354 N 
ATOM     52  N   UNL A   1      42.509  28.036  31.162  1.00  0.00    -0.248 NA
ATOM     53  C   UNL A   1      44.053  26.628  30.120  1.00  0.00     0.031 C 
ATOM     54  C   UNL A   1      42.903  29.555  35.313  1.00  0.00     0.029 A 
ATOM     55  C   UNL A   1      42.807  29.069  34.020  1.00  0.00     0.049 A 
ATOM     56  H   UNL A   1      41.319  29.435  32.567  1.00  0.00     0.167 HD
ATOM     57  C   UNL A   1      43.531  27.743  32.054  1.00  0.00     0.074 A 
ATOM     58  C   UNL A   1      44.438  26.845  31.370  1.00  0.00     0.031 C 
ATOM     59  C   UNL A   1      43.704  28.182  33.325  1.00  0.00     0.037 A 
BRANCH  46  60
ATOM     60  C   UNL A   1      39.270  32.010  35.282  1.00  0.00     0.064 A 
ATOM     61  C   UNL A   1      38.449  31.500  36.300  1.00  0.00     0.173 A 
ATOM     62  C   UNL A   1      39.627  33.364  35.342  1.00  0.00     0.173 A 
ATOM     63  F   UNL A   1      38.072  30.213  36.282  1.00  0.00    -0.203 F 
ATOM     64  C   UNL A   1      37.984  32.321  37.323  1.00  0.00     0.198 A 
ATOM     65  C   UNL A   1      39.179  34.177  36.381  1.00  0.00     0.198 A 
ATOM     66  F   UNL A   1      40.415  33.899  34.397  1.00  0.00    -0.203 F 
ATOM     67  F   UNL A   1      37.167  31.822  38.261  1.00  0.00    -0.200 F 
ATOM     68  C   UNL A   1      38.354  33.657  37.366  1.00  0.00     0.200 A 
ATOM     69  F   UNL A   1      39.547  35.465  36.428  1.00  0.00    -0.200 F 
ATOM     70  F   UNL A   1      37.910  34.445  38.356  1.00  0.00    -0.200 F 
ENDBRANCH  46  60
BRANCH  47  71
ATOM     71  C   UNL A   1      42.529  26.519  27.627  1.00  0.00     0.064 A 
ATOM     72  C   UNL A   1      43.469  27.044  26.730  1.00  0.00     0.173 A 
ATOM     73  C   UNL A   1      42.081  25.208  27.414  1.00  0.00     0.173 A 
ATOM     74  F   UNL A   1      43.910  28.302  26.883  1.00  0.00    -0.203 F 
ATOM     75  C   UNL A   1      43.931  26.293  25.652  1.00  0.00     0.198 A 
ATOM     76  C   UNL A   1      42.563  24.449  26.351  1.00  0.00     0.198 A 
ATOM     77  F   UNL A   1      41.187  24.660  28.250  1.00  0.00    -0.203 F 
ATOM     78  F   UNL A   1      44.802  26.832  24.788  1.00  0.00    -0.200 F 
ATOM     79  C   UNL A   1      43.482  24.994  25.466  1.00  0.00     0.200 A 
ATOM     80  F   UNL A   1      42.137  23.190  26.180  1.00  0.00    -0.200 F 
ATOM     81  F   UNL A   1      43.932  24.270  24.432  1.00  0.00    -0.200 F 
ENDBRANCH  47  71
BRANCH  59  82
ATOM     82  C   UNL A   1      44.914  27.685  34.056  1.00  0.00     0.064 A 
ATOM     83  C   UNL A   1      46.125  28.395  34.034  1.00  0.00     0.173 A 
ATOM     84  C   UNL A   1      44.862  26.496  34.799  1.00  0.00     0.173 A 
ATOM     85  F   UNL A   1      46.229  29.529  33.325  1.00  0.00    -0.203 F 
ATOM     86  C   UNL A   1      47.246  27.917  34.706  1.00  0.00     0.198 A 
ATOM     87  C   UNL A   1      45.979  26.034  35.489  1.00  0.00     0.198 A 
ATOM     88  F   UNL A   1      43.727  25.783  34.854  1.00  0.00    -0.203 F 
ATOM     89  F   UNL A   1      48.406  28.585  34.630  1.00  0.00    -0.200 F 
ATOM     90  C   UNL A   1      47.171  26.740  35.436  1.00  0.00     0.200 A 
ATOM     91  F   UNL A   1      45.904  24.901  36.201  1.00  0.00    -0.200 F 
ATOM     92  F   UNL A   1      48.253  26.280  36.079  1.00  0.00    -0.200 F 
ENDBRANCH  59  82
ENDBRANCH  33  34
ENDBRANCH  25  28
ENDBRANCH  23  24
ENDBRANCH  22  23
ENDBRANCH   1  22
TORSDOF 13
ENDMDL
MODEL 3
REMARK VINA RESULT:     -12.4      1.480      2.473
REMARK SMILES C[C@@H](C(=O)NCCCNC(=O)c1ccc(-c2c3nc(c(-c4c(F)c(F)c(F)c(F)c4F)c4ccc([nH]4)c(-c4c(F)c(F)c(F)c(F)c4F)c4nc(c(-c5c(F)c(F)c(F)c(F)c5F)c5ccc2[nH]5)C=C4)C=C3)cc1)c1ccc(C[C@H]2CCCC2=O)cc1F
REMARK SMILES IDX 6 1 5 2 3 3 4 4 2 6 1 7 75 8 76 9 87 10 77 11 86 12 88 13
REMARK SMILES IDX 78 14 79 15 80 16 81 17 84 18 82 19 83 20 85 21 7 22 8 23
REMARK SMILES IDX 9 24 10 25 11 27 12 28 13 29 74 30 14 31 73 32 15 33 16 34
REMARK SMILES IDX 17 35 67 36 18 37 72 38 66 39 68 40 19 41 71 42 65 43 64 44
REMARK SMILES IDX 20 46 52 47 32 48 51 49 33 50 36 51 50 52 69 53 34 54 35 55
REMARK SMILES IDX 49 57 70 58 37 59 21 60 22 61 30 62 23 63 24 64 28 65 31 66
REMARK SMILES IDX 25 67 26 68 29 69 27 70 53 71 54 72 62 73 55 74 56 75 60 76
REMARK SMILES IDX 63 77 57 78 58 79 61 80 59 81 38 82 39 83 47 84 40 85 41 86
REMARK SMILES IDX 45 87 48 88 42 89 43 90 46 91 44 92
REMARK H PARENT 5 5 9 26 68 45 36 56
REMARK Flexibility Score: inf
ROOT
ATOM      1  C   UNL A   1      31.782  29.887  26.879  1.00  0.00     0.117 C 
ENDROOT
BRANCH   1   2
ATOM      2  N   UNL A   1      33.010  29.520  26.203  1.00  0.00    -0.356 N 
ATOM      3  C   UNL A   1      33.297  28.471  25.377  1.00  0.00     0.227 C 
ATOM      4  O   UNL A   1      34.431  28.456  24.893  1.00  0.00    -0.274 OA
ATOM      5  H   UNL A   1      33.766  30.130  26.367  1.00  0.00     0.163 HD
BRANCH   3   6
ATOM      6  C   UNL A   1      32.220  27.424  25.053  1.00  0.00     0.108 C 
ATOM      7  C   UNL A   1      32.808  26.128  24.488  1.00  0.00     0.023 C 
BRANCH   6   8
ATOM      8  C   UNL A   1      31.154  27.953  24.102  1.00  0.00    -0.000 A 
ATOM      9  C   UNL A   1      31.464  28.967  23.184  1.00  0.00     0.008 A 
ATOM     10  C   UNL A   1      29.839  27.475  24.139  1.00  0.00     0.127 A 
ATOM     11  C   UNL A   1      30.471  29.507  22.361  1.00  0.00     0.004 A 
ATOM     12  C   UNL A   1      28.847  28.007  23.321  1.00  0.00     0.043 A 
ATOM     13  F   UNL A   1      29.494  26.514  25.009  1.00  0.00    -0.207 F 
ATOM     14  C   UNL A   1      29.148  29.051  22.440  1.00  0.00    -0.044 A 
BRANCH  14  15
ATOM     15  C   UNL A   1      28.056  29.703  21.626  1.00  0.00     0.047 C 
BRANCH  15  16
ATOM     16  C   UNL A   1      27.463  30.987  22.218  1.00  0.00     0.060 C 
ATOM     17  C   UNL A   1      27.654  31.202  23.724  1.00  0.00     0.012 C 
ATOM     18  C   UNL A   1      28.092  32.237  21.641  1.00  0.00     0.136 C 
ATOM     19  C   UNL A   1      28.856  32.129  23.873  1.00  0.00     0.009 C 
ATOM     20  C   UNL A   1      28.778  33.077  22.686  1.00  0.00     0.076 C 
ATOM     21  O   UNL A   1      28.034  32.545  20.456  1.00  0.00    -0.299 OA
ENDBRANCH  15  16
ENDBRANCH  14  15
ENDBRANCH   6   8
ENDBRANCH   3   6
ENDBRANCH   1   2
BRANCH   1  22
ATOM     22  C   UNL A   1      31.450  31.369  26.721  1.00  0.00     0.042 C 
BRANCH  22  23
ATOM     23  C   UNL A   1      32.659  32.299  26.661  1.00  0.00     0.118 C 
BRANCH  23  24
ATOM     24  N   UNL A   1      32.408  33.600  27.262  1.00  0.00    -0.352 N 
ATOM     25  C   UNL A   1      33.018  34.234  28.311  1.00  0.00     0.251 C 
ATOM     26  H   UNL A   1      31.675  34.108  26.845  1.00  0.00     0.163 HD
ATOM     27  O   UNL A   1      32.528  35.281  28.739  1.00  0.00    -0.269 OA
BRANCH  25  28
ATOM     28  C   UNL A   1      34.233  33.687  28.959  1.00  0.00     0.039 A 
ATOM     29  C   UNL A   1      34.072  32.660  29.895  1.00  0.00     0.014 A 
ATOM     30  C   UNL A   1      35.509  34.202  28.713  1.00  0.00     0.014 A 
ATOM     31  C   UNL A   1      35.186  32.119  30.542  1.00  0.00     0.010 A 
ATOM     32  C   UNL A   1      36.628  33.618  29.311  1.00  0.00     0.010 A 
ATOM     33  C   UNL A   1      36.477  32.575  30.236  1.00  0.00    -0.014 A 
BRANCH  33  34
ATOM     34  C   UNL A   1      37.664  31.950  30.874  1.00  0.00     0.031 A 
ATOM     35  C   UNL A   1      38.088  32.339  32.263  1.00  0.00     0.074 A 
ATOM     36  C   UNL A   1      38.379  31.038  30.186  1.00  0.00     0.049 A 
ATOM     37  N   UNL A   1      39.081  31.878  32.984  1.00  0.00    -0.248 NA
ATOM     38  C   UNL A   1      37.310  33.398  32.922  1.00  0.00     0.031 C 
ATOM     39  C   UNL A   1      38.107  30.617  28.811  1.00  0.00     0.029 A 
ATOM     40  N   UNL A   1      39.478  30.301  30.549  1.00  0.00    -0.354 N 
ATOM     41  C   UNL A   1      39.051  32.594  34.173  1.00  0.00     0.074 A 
ATOM     42  C   UNL A   1      37.972  33.553  34.060  1.00  0.00     0.031 C 
ATOM     43  C   UNL A   1      38.995  29.676  28.456  1.00  0.00     0.029 A 
ATOM     44  C   UNL A   1      39.910  29.442  29.569  1.00  0.00     0.049 A 
ATOM     45  H   UNL A   1      39.915  30.380  31.428  1.00  0.00     0.167 HD
ATOM     46  C   UNL A   1      39.836  32.449  35.268  1.00  0.00     0.037 A 
ATOM     47  C   UNL A   1      40.925  28.557  29.571  1.00  0.00     0.037 A 
ATOM     48  C   UNL A   1      40.895  31.481  35.391  1.00  0.00     0.049 A 
ATOM     49  C   UNL A   1      41.762  28.396  30.808  1.00  0.00     0.074 A 
ATOM     50  C   UNL A   1      41.704  31.218  36.483  1.00  0.00     0.029 A 
ATOM     51  N   UNL A   1      41.291  30.613  34.383  1.00  0.00    -0.354 N 
ATOM     52  N   UNL A   1      41.675  29.027  31.954  1.00  0.00    -0.248 NA
ATOM     53  C   UNL A   1      42.831  27.389  30.756  1.00  0.00     0.031 C 
ATOM     54  C   UNL A   1      42.613  30.216  36.125  1.00  0.00     0.029 A 
ATOM     55  C   UNL A   1      42.344  29.828  34.823  1.00  0.00     0.049 A 
ATOM     56  H   UNL A   1      40.884  30.565  33.489  1.00  0.00     0.167 HD
ATOM     57  C   UNL A   1      42.663  28.485  32.763  1.00  0.00     0.074 A 
ATOM     58  C   UNL A   1      43.324  27.457  31.985  1.00  0.00     0.031 C 
ATOM     59  C   UNL A   1      42.996  28.813  34.036  1.00  0.00     0.037 A 
BRANCH  46  60
ATOM     60  C   UNL A   1      39.572  33.360  36.432  1.00  0.00     0.064 A 
ATOM     61  C   UNL A   1      38.714  32.981  37.477  1.00  0.00     0.173 A 
ATOM     62  C   UNL A   1      40.214  34.603  36.526  1.00  0.00     0.173 A 
ATOM     63  F   UNL A   1      38.069  31.806  37.428  1.00  0.00    -0.203 F 
ATOM     64  C   UNL A   1      38.489  33.826  38.560  1.00  0.00     0.198 A 
ATOM     65  C   UNL A   1      40.005  35.434  37.624  1.00  0.00     0.198 A 
ATOM     66  F   UNL A   1      41.049  35.008  35.559  1.00  0.00    -0.203 F 
ATOM     67  F   UNL A   1      37.633  33.462  39.524  1.00  0.00    -0.200 F 
ATOM     68  C   UNL A   1      39.139  35.049  38.636  1.00  0.00     0.200 A 
ATOM     69  F   UNL A   1      40.642  36.611  37.702  1.00  0.00    -0.200 F 
ATOM     70  F   UNL A   1      38.925  35.858  39.683  1.00  0.00    -0.200 F 
ENDBRANCH  46  60
BRANCH  47  71
ATOM     71  C   UNL A   1      41.177  27.723  28.369  1.00  0.00     0.064 A 
ATOM     72  C   UNL A   1      42.066  28.150  27.373  1.00  0.00     0.173 A 
ATOM     73  C   UNL A   1      40.542  26.485  28.194  1.00  0.00     0.173 A 
ATOM     74  F   UNL A   1      42.681  29.336  27.489  1.00  0.00    -0.203 F 
ATOM     75  C   UNL A   1      42.299  27.376  26.238  1.00  0.00     0.198 A 
ATOM     76  C   UNL A   1      40.795  25.701  27.071  1.00  0.00     0.198 A 
ATOM     77  F   UNL A   1      39.687  26.032  29.123  1.00  0.00    -0.203 F 
ATOM     78  F   UNL A   1      43.126  27.824  25.283  1.00  0.00    -0.200 F 
ATOM     79  C   UNL A   1      41.667  26.151  26.091  1.00  0.00     0.200 A 
ATOM     80  F   UNL A   1      40.192  24.513  26.937  1.00  0.00    -0.200 F 
ATOM     81  F   UNL A   1      41.896  25.404  25.001  1.00  0.00    -0.200 F 
ENDBRANCH  47  71
BRANCH  59  82
ATOM     82  C   UNL A   1      44.118  28.042  34.665  1.00  0.00     0.064 A 
ATOM     83  C   UNL A   1      45.444  28.495  34.598  1.00  0.00     0.173 A 
ATOM     84  C   UNL A   1      43.863  26.847  35.354  1.00  0.00     0.173 A 
ATOM     85  F   UNL A   1      45.739  29.624  33.935  1.00  0.00    -0.203 F 
ATOM     86  C   UNL A   1      46.479  27.763  35.174  1.00  0.00     0.198 A 
ATOM     87  C   UNL A   1      44.898  26.131  35.950  1.00  0.00     0.198 A 
ATOM     88  F   UNL A   1      42.612  26.374  35.449  1.00  0.00    -0.203 F 
ATOM     89  F   UNL A   1      47.745  28.188  35.054  1.00  0.00    -0.200 F 
ATOM     90  C   UNL A   1      46.205  26.585  35.852  1.00  0.00     0.200 A 
ATOM     91  F   UNL A   1      44.632  24.997  36.612  1.00  0.00    -0.200 F 
ATOM     92  F   UNL A   1      47.203  25.881  36.403  1.00  0.00    -0.200 F 
ENDBRANCH  59  82
ENDBRANCH  33  34
ENDBRANCH  25  28
ENDBRANCH  23  24
ENDBRANCH  22  23
ENDBRANCH   1  22
TORSDOF 13
ENDMDL
