MODEL 1
REMARK VINA RESULT:     -13.1      0.000      0.000
REMARK SMILES CCc1cc(C)c2c(c1)C=C(C(=O)NCCCNC(=O)c1ccc(-c3c4nc(c(-c5c(F)c(F)c(F)c(F)c5F)c5ccc([nH]5)c(-c5c(F)c(F)c(F)c(F)c5F)c5nc(c(-c6c(F)c(F)c(F)c(F)c6F)c6ccc3[nH]6)C=C5)C=C4)cc1)[C@@H](C(F)(F)F)O2
REMARK SMILES IDX 16 1 15 2 14 3 12 4 13 5 11 7 3 8 4 9 9 10 5 11 8 12 6 13
REMARK SMILES IDX 7 14 10 15 89 16 84 17 2 18 1 19 85 20 86 21 87 22 88 23
REMARK SMILES IDX 17 24 18 25 19 26 20 28 21 29 22 30 83 31 23 32 82 33 24 34
REMARK SMILES IDX 25 35 26 36 76 37 27 38 81 39 75 40 77 41 28 42 80 43 74 44
REMARK SMILES IDX 73 45 29 47 61 48 41 49 60 50 42 51 45 52 59 53 78 54 43 55
REMARK SMILES IDX 44 56 58 58 79 59 46 60 30 61 31 62 39 63 32 64 33 65 37 66
REMARK SMILES IDX 40 67 34 68 35 69 38 70 36 71 62 72 63 73 71 74 64 75 65 76
REMARK SMILES IDX 69 77 72 78 66 79 67 80 70 81 68 82 47 83 48 84 56 85 49 86
REMARK SMILES IDX 50 87 54 88 57 89 51 90 52 91 55 92 53 93
REMARK H PARENT 14 6 18 27 77 46 45 57
REMARK Flexibility Score: inf
ROOT
ATOM      1  C   UNL A   1      31.381  32.297  26.501  1.00  0.00     0.042 C 
ENDROOT
BRANCH   1   2
ATOM      2  C   UNL A   1      31.408  30.789  26.304  1.00  0.00     0.118 C 
BRANCH   2   3
ATOM      3  N   UNL A   1      31.153  30.427  24.918  1.00  0.00    -0.352 N 
ATOM      4  C   UNL A   1      31.162  29.301  24.170  1.00  0.00     0.251 C 
ATOM      5  O   UNL A   1      30.909  29.469  22.973  1.00  0.00    -0.270 OA
ATOM      6  H   UNL A   1      30.909  31.213  24.381  1.00  0.00     0.163 HD
BRANCH   4   7
ATOM      7  C   UNL A   1      31.444  27.931  24.684  1.00  0.00     0.067 C 
ATOM      8  C   UNL A   1      34.722  24.491  25.597  1.00  0.00    -0.047 A 
ATOM      9  C   UNL A   1      33.705  23.696  26.157  1.00  0.00     0.011 A 
ATOM     10  C   UNL A   1      34.396  25.776  25.143  1.00  0.00     0.015 A 
ATOM     11  C   UNL A   1      32.393  24.169  26.282  1.00  0.00    -0.008 A 
ATOM     12  C   UNL A   1      33.088  26.259  25.251  1.00  0.00     0.018 A 
ATOM     13  C   UNL A   1      31.319  23.304  26.875  1.00  0.00     0.048 C 
ATOM     14  C   UNL A   1      32.098  25.453  25.814  1.00  0.00     0.130 A 
ATOM     15  C   UNL A   1      32.745  27.603  24.797  1.00  0.00     0.025 C 
ATOM     16  O   UNL A   1      30.812  25.897  25.968  1.00  0.00    -0.475 OA
ATOM     17  C   UNL A   1      30.389  26.922  25.032  1.00  0.00     0.314 C 
BRANCH   8  18
ATOM     18  C   UNL A   1      36.108  23.894  25.489  1.00  0.00     0.032 C 
ATOM     19  C   UNL A   1      36.507  23.328  24.132  1.00  0.00     0.009 C 
ENDBRANCH   8  18
BRANCH  17  20
ATOM     20  C   UNL A   1      29.759  26.260  23.792  1.00  0.00     0.429 C 
ATOM     21  F   UNL A   1      30.541  26.462  22.702  1.00  0.00    -0.167 F 
ATOM     22  F   UNL A   1      29.635  24.917  23.927  1.00  0.00    -0.167 F 
ATOM     23  F   UNL A   1      28.529  26.738  23.502  1.00  0.00    -0.167 F 
ENDBRANCH  17  20
ENDBRANCH   4   7
ENDBRANCH   2   3
ENDBRANCH   1   2
BRANCH   1  24
ATOM     24  C   UNL A   1      32.656  32.802  27.164  1.00  0.00     0.118 C 
BRANCH  24  25
ATOM     25  N   UNL A   1      32.505  34.181  27.624  1.00  0.00    -0.352 N 
ATOM     26  C   UNL A   1      33.068  34.802  28.707  1.00  0.00     0.251 C 
ATOM     27  H   UNL A   1      31.913  34.745  27.075  1.00  0.00     0.163 HD
ATOM     28  O   UNL A   1      32.604  35.858  29.131  1.00  0.00    -0.269 OA
BRANCH  26  29
ATOM     29  C   UNL A   1      34.242  34.198  29.359  1.00  0.00     0.039 A 
ATOM     30  C   UNL A   1      35.523  34.473  28.872  1.00  0.00     0.014 A 
ATOM     31  C   UNL A   1      34.062  33.333  30.441  1.00  0.00     0.014 A 
ATOM     32  C   UNL A   1      36.631  33.914  29.507  1.00  0.00     0.010 A 
ATOM     33  C   UNL A   1      35.167  32.843  31.121  1.00  0.00     0.010 A 
ATOM     34  C   UNL A   1      36.457  33.112  30.645  1.00  0.00    -0.014 A 
BRANCH  34  35
ATOM     35  C   UNL A   1      37.606  32.479  31.328  1.00  0.00     0.031 A 
ATOM     36  C   UNL A   1      38.336  31.357  30.650  1.00  0.00     0.074 A 
ATOM     37  C   UNL A   1      37.935  32.860  32.575  1.00  0.00     0.049 A 
ATOM     38  N   UNL A   1      39.316  30.616  31.098  1.00  0.00    -0.248 NA
ATOM     39  C   UNL A   1      37.880  30.999  29.297  1.00  0.00     0.031 C 
ATOM     40  C   UNL A   1      37.263  33.907  33.343  1.00  0.00     0.029 A 
ATOM     41  N   UNL A   1      38.912  32.398  33.419  1.00  0.00    -0.354 N 
ATOM     42  C   UNL A   1      39.583  29.703  30.088  1.00  0.00     0.074 A 
ATOM     43  C   UNL A   1      38.622  29.936  29.034  1.00  0.00     0.031 C 
ATOM     44  C   UNL A   1      37.860  34.023  34.540  1.00  0.00     0.029 A 
ATOM     45  C   UNL A   1      38.936  33.038  34.632  1.00  0.00     0.049 A 
ATOM     46  H   UNL A   1      39.535  31.675  33.178  1.00  0.00     0.167 HD
ATOM     47  C   UNL A   1      40.567  28.775  30.033  1.00  0.00     0.037 A 
ATOM     48  C   UNL A   1      39.740  32.851  35.695  1.00  0.00     0.037 A 
ATOM     49  C   UNL A   1      41.531  28.568  31.078  1.00  0.00     0.049 A 
ATOM     50  C   UNL A   1      40.817  31.804  35.620  1.00  0.00     0.074 A 
ATOM     51  C   UNL A   1      42.608  27.701  31.100  1.00  0.00     0.029 A 
ATOM     52  N   UNL A   1      41.528  29.239  32.294  1.00  0.00    -0.354 N 
ATOM     53  N   UNL A   1      41.111  30.991  34.635  1.00  0.00    -0.248 NA
ATOM     54  C   UNL A   1      41.676  31.651  36.802  1.00  0.00     0.031 C 
ATOM     55  C   UNL A   1      43.230  27.814  32.348  1.00  0.00     0.029 A 
ATOM     56  C   UNL A   1      42.569  28.786  33.085  1.00  0.00     0.049 A 
ATOM     57  H   UNL A   1      40.882  29.934  32.554  1.00  0.00     0.167 HD
ATOM     58  C   UNL A   1      42.197  30.242  35.066  1.00  0.00     0.074 A 
ATOM     59  C   UNL A   1      42.518  30.708  36.400  1.00  0.00     0.031 C 
ATOM     60  C   UNL A   1      42.866  29.259  34.415  1.00  0.00     0.037 A 
BRANCH  47  61
ATOM     61  C   UNL A   1      40.644  27.927  28.798  1.00  0.00     0.064 A 
ATOM     62  C   UNL A   1      41.443  28.296  27.703  1.00  0.00     0.173 A 
ATOM     63  C   UNL A   1      39.923  26.727  28.707  1.00  0.00     0.173 A 
ATOM     64  F   UNL A   1      42.141  29.442  27.732  1.00  0.00    -0.203 F 
ATOM     65  C   UNL A   1      41.487  27.515  26.551  1.00  0.00     0.198 A 
ATOM     66  C   UNL A   1      39.995  25.933  27.567  1.00  0.00     0.198 A 
ATOM     67  F   UNL A   1      39.147  26.327  29.725  1.00  0.00    -0.203 F 
ATOM     68  F   UNL A   1      42.210  27.919  25.498  1.00  0.00    -0.200 F 
ATOM     69  C   UNL A   1      40.768  26.331  26.486  1.00  0.00     0.200 A 
ATOM     70  F   UNL A   1      39.308  24.783  27.508  1.00  0.00    -0.200 F 
ATOM     71  F   UNL A   1      40.813  25.579  25.378  1.00  0.00    -0.200 F 
ENDBRANCH  47  61
BRANCH  48  72
ATOM     72  C   UNL A   1      39.577  33.718  36.888  1.00  0.00     0.064 A 
ATOM     73  C   UNL A   1      40.191  34.977  36.942  1.00  0.00     0.173 A 
ATOM     74  C   UNL A   1      38.759  33.341  37.963  1.00  0.00     0.173 A 
ATOM     75  F   UNL A   1      40.994  35.372  35.945  1.00  0.00    -0.203 F 
ATOM     76  C   UNL A   1      39.990  35.828  38.026  1.00  0.00     0.198 A 
ATOM     77  C   UNL A   1      38.542  34.202  39.037  1.00  0.00     0.198 A 
ATOM     78  F   UNL A   1      38.144  32.149  37.953  1.00  0.00    -0.203 F 
ATOM     79  F   UNL A   1      40.598  37.022  38.060  1.00  0.00    -0.200 F 
ATOM     80  C   UNL A   1      39.157  35.445  39.067  1.00  0.00     0.200 A 
ATOM     81  F   UNL A   1      37.724  33.835  40.032  1.00  0.00    -0.200 F 
ATOM     82  F   UNL A   1      38.946  36.274  40.099  1.00  0.00    -0.200 F 
ENDBRANCH  48  72
BRANCH  60  83
ATOM     83  C   UNL A   1      44.019  28.617  35.129  1.00  0.00     0.064 A 
ATOM     84  C   UNL A   1      43.845  27.462  35.903  1.00  0.00     0.173 A 
ATOM     85  C   UNL A   1      45.322  29.110  34.962  1.00  0.00     0.173 A 
ATOM     86  F   UNL A   1      42.615  26.961  36.102  1.00  0.00    -0.203 F 
ATOM     87  C   UNL A   1      44.933  26.827  36.494  1.00  0.00     0.198 A 
ATOM     88  C   UNL A   1      46.411  28.456  35.530  1.00  0.00     0.198 A 
ATOM     89  F   UNL A   1      45.542  30.206  34.222  1.00  0.00    -0.203 F 
ATOM     90  F   UNL A   1      44.741  25.740  37.254  1.00  0.00    -0.200 F 
ATOM     91  C   UNL A   1      46.216  27.318  36.299  1.00  0.00     0.200 A 
ATOM     92  F   UNL A   1      47.651  28.922  35.327  1.00  0.00    -0.200 F 
ATOM     93  F   UNL A   1      47.265  26.693  36.851  1.00  0.00    -0.200 F 
ENDBRANCH  60  83
ENDBRANCH  34  35
ENDBRANCH  26  29
ENDBRANCH  24  25
ENDBRANCH   1  24
TORSDOF 12
ENDMDL
MODEL 2
REMARK VINA RESULT:     -13.1      5.721     11.014
REMARK SMILES CCc1cc(C)c2c(c1)C=C(C(=O)NCCCNC(=O)c1ccc(-c3c4nc(c(-c5c(F)c(F)c(F)c(F)c5F)c5ccc([nH]5)c(-c5c(F)c(F)c(F)c(F)c5F)c5nc(c(-c6c(F)c(F)c(F)c(F)c6F)c6ccc3[nH]6)C=C5)C=C4)cc1)[C@@H](C(F)(F)F)O2
REMARK SMILES IDX 16 1 15 2 14 3 12 4 13 5 11 7 3 8 4 9 9 10 5 11 8 12 6 13
REMARK SMILES IDX 7 14 10 15 89 16 84 17 2 18 1 19 85 20 86 21 87 22 88 23
REMARK SMILES IDX 17 24 18 25 19 26 20 28 21 29 22 30 83 31 23 32 82 33 24 34
REMARK SMILES IDX 25 35 26 36 76 37 27 38 81 39 75 40 77 41 28 42 80 43 74 44
REMARK SMILES IDX 73 45 29 47 61 48 41 49 60 50 42 51 45 52 59 53 78 54 43 55
REMARK SMILES IDX 44 56 58 58 79 59 46 60 30 61 31 62 39 63 32 64 33 65 37 66
REMARK SMILES IDX 40 67 34 68 35 69 38 70 36 71 62 72 63 73 71 74 64 75 65 76
REMARK SMILES IDX 69 77 72 78 66 79 67 80 70 81 68 82 47 83 48 84 56 85 49 86
REMARK SMILES IDX 50 87 54 88 57 89 51 90 52 91 55 92 53 93
REMARK H PARENT 14 6 18 27 77 46 45 57
REMARK Flexibility Score: inf
ROOT
ATOM      1  C   UNL A   1      37.952  19.606  25.001  1.00  0.00     0.042 C 
ENDROOT
BRANCH   1   2
ATOM      2  C   UNL A   1      36.914  20.674  24.690  1.00  0.00     0.118 C 
BRANCH   2   3
ATOM      3  N   UNL A   1      35.847  20.685  25.679  1.00  0.00    -0.352 N 
ATOM      4  C   UNL A   1      34.773  21.453  25.970  1.00  0.00     0.251 C 
ATOM      5  O   UNL A   1      34.134  21.099  26.966  1.00  0.00    -0.270 OA
ATOM      6  H   UNL A   1      35.930  19.932  26.306  1.00  0.00     0.163 HD
BRANCH   4   7
ATOM      7  C   UNL A   1      34.333  22.644  25.190  1.00  0.00     0.067 C 
ATOM      8  C   UNL A   1      33.610  27.428  25.076  1.00  0.00    -0.047 A 
ATOM      9  C   UNL A   1      33.244  27.321  23.722  1.00  0.00     0.011 A 
ATOM     10  C   UNL A   1      34.028  26.272  25.750  1.00  0.00     0.015 A 
ATOM     11  C   UNL A   1      33.305  26.099  23.042  1.00  0.00    -0.008 A 
ATOM     12  C   UNL A   1      34.084  25.041  25.089  1.00  0.00     0.018 A 
ATOM     13  C   UNL A   1      32.902  26.003  21.599  1.00  0.00     0.048 C 
ATOM     14  C   UNL A   1      33.719  24.963  23.743  1.00  0.00     0.130 A 
ATOM     15  C   UNL A   1      34.534  23.838  25.779  1.00  0.00     0.025 C 
ATOM     16  O   UNL A   1      33.789  23.786  23.049  1.00  0.00    -0.475 OA
ATOM     17  C   UNL A   1      33.666  22.580  23.847  1.00  0.00     0.314 C 
BRANCH   8  18
ATOM     18  C   UNL A   1      33.501  28.785  25.735  1.00  0.00     0.032 C 
ATOM     19  C   UNL A   1      33.686  28.830  27.246  1.00  0.00     0.009 C 
ENDBRANCH   8  18
BRANCH  17  20
ATOM     20  C   UNL A   1      32.184  22.167  23.931  1.00  0.00     0.429 C 
ATOM     21  F   UNL A   1      31.508  22.617  22.845  1.00  0.00    -0.167 F 
ATOM     22  F   UNL A   1      32.021  20.821  23.950  1.00  0.00    -0.167 F 
ATOM     23  F   UNL A   1      31.560  22.651  25.028  1.00  0.00    -0.167 F 
ENDBRANCH  17  20
ENDBRANCH   4   7
ENDBRANCH   2   3
ENDBRANCH   1   2
BRANCH   1  24
ATOM     24  C   UNL A   1      39.038  20.130  25.932  1.00  0.00     0.118 C 
BRANCH  24  25
ATOM     25  N   UNL A   1      40.139  19.177  26.051  1.00  0.00    -0.352 N 
ATOM     26  C   UNL A   1      41.489  19.411  26.094  1.00  0.00     0.251 C 
ATOM     27  H   UNL A   1      39.873  18.231  26.110  1.00  0.00     0.163 HD
ATOM     28  O   UNL A   1      42.286  18.500  25.884  1.00  0.00    -0.269 OA
BRANCH  26  29
ATOM     29  C   UNL A   1      41.981  20.764  26.403  1.00  0.00     0.039 A 
ATOM     30  C   UNL A   1      42.280  21.108  27.724  1.00  0.00     0.014 A 
ATOM     31  C   UNL A   1      42.115  21.701  25.376  1.00  0.00     0.014 A 
ATOM     32  C   UNL A   1      42.765  22.385  28.006  1.00  0.00     0.010 A 
ATOM     33  C   UNL A   1      42.673  22.942  25.644  1.00  0.00     0.010 A 
ATOM     34  C   UNL A   1      42.980  23.300  26.964  1.00  0.00    -0.014 A 
BRANCH  34  35
ATOM     35  C   UNL A   1      43.466  24.671  27.228  1.00  0.00     0.031 A 
ATOM     36  C   UNL A   1      42.511  25.697  27.763  1.00  0.00     0.074 A 
ATOM     37  C   UNL A   1      44.729  25.005  26.912  1.00  0.00     0.049 A 
ATOM     38  N   UNL A   1      42.706  26.970  27.994  1.00  0.00    -0.248 NA
ATOM     39  C   UNL A   1      41.143  25.236  28.051  1.00  0.00     0.031 C 
ATOM     40  C   UNL A   1      45.724  24.098  26.342  1.00  0.00     0.029 A 
ATOM     41  N   UNL A   1      45.387  26.203  27.016  1.00  0.00    -0.354 N 
ATOM     42  C   UNL A   1      41.486  27.458  28.440  1.00  0.00     0.074 A 
ATOM     43  C   UNL A   1      40.541  26.366  28.385  1.00  0.00     0.031 C 
ATOM     44  C   UNL A   1      46.875  24.767  26.165  1.00  0.00     0.029 A 
ATOM     45  C   UNL A   1      46.686  26.156  26.581  1.00  0.00     0.049 A 
ATOM     46  H   UNL A   1      44.965  27.021  27.368  1.00  0.00     0.167 HD
ATOM     47  C   UNL A   1      41.192  28.701  28.887  1.00  0.00     0.037 A 
ATOM     48  C   UNL A   1      47.618  27.124  26.527  1.00  0.00     0.037 A 
ATOM     49  C   UNL A   1      42.147  29.773  28.958  1.00  0.00     0.049 A 
ATOM     50  C   UNL A   1      47.267  28.504  27.014  1.00  0.00     0.074 A 
ATOM     51  C   UNL A   1      41.973  31.052  29.454  1.00  0.00     0.029 A 
ATOM     52  N   UNL A   1      43.459  29.687  28.511  1.00  0.00    -0.354 N 
ATOM     53  N   UNL A   1      46.132  28.942  27.502  1.00  0.00    -0.248 NA
ATOM     54  C   UNL A   1      48.326  29.520  26.949  1.00  0.00     0.031 C 
ATOM     55  C   UNL A   1      43.168  31.756  29.265  1.00  0.00     0.029 A 
ATOM     56  C   UNL A   1      44.100  30.901  28.696  1.00  0.00     0.049 A 
ATOM     57  H   UNL A   1      43.872  28.884  28.122  1.00  0.00     0.167 HD
ATOM     58  C   UNL A   1      46.341  30.278  27.818  1.00  0.00     0.074 A 
ATOM     59  C   UNL A   1      47.718  30.573  27.478  1.00  0.00     0.031 C 
ATOM     60  C   UNL A   1      45.471  31.175  28.343  1.00  0.00     0.037 A 
BRANCH  47  61
ATOM     61  C   UNL A   1      39.784  28.954  29.339  1.00  0.00     0.064 A 
ATOM     62  C   UNL A   1      38.804  29.434  28.454  1.00  0.00     0.173 A 
ATOM     63  C   UNL A   1      39.403  28.705  30.666  1.00  0.00     0.173 A 
ATOM     64  F   UNL A   1      39.120  29.703  27.178  1.00  0.00    -0.203 F 
ATOM     65  C   UNL A   1      37.507  29.690  28.891  1.00  0.00     0.198 A 
ATOM     66  C   UNL A   1      38.097  28.932  31.091  1.00  0.00     0.198 A 
ATOM     67  F   UNL A   1      40.299  28.244  31.551  1.00  0.00    -0.203 F 
ATOM     68  F   UNL A   1      36.606  30.204  28.043  1.00  0.00    -0.200 F 
ATOM     69  C   UNL A   1      37.153  29.433  30.207  1.00  0.00     0.200 A 
ATOM     70  F   UNL A   1      37.752  28.674  32.360  1.00  0.00    -0.200 F 
ATOM     71  F   UNL A   1      35.903  29.677  30.625  1.00  0.00    -0.200 F 
ENDBRANCH  47  61
BRANCH  48  72
ATOM     72  C   UNL A   1      48.981  26.794  26.041  1.00  0.00     0.064 A 
ATOM     73  C   UNL A   1      49.332  27.013  24.703  1.00  0.00     0.173 A 
ATOM     74  C   UNL A   1      49.974  26.318  26.910  1.00  0.00     0.173 A 
ATOM     75  F   UNL A   1      48.412  27.453  23.834  1.00  0.00    -0.203 F 
ATOM     76  C   UNL A   1      50.628  26.773  24.251  1.00  0.00     0.198 A 
ATOM     77  C   UNL A   1      51.275  26.097  26.461  1.00  0.00     0.198 A 
ATOM     78  F   UNL A   1      49.688  26.099  28.202  1.00  0.00    -0.203 F 
ATOM     79  F   UNL A   1      50.935  26.979  22.963  1.00  0.00    -0.200 F 
ATOM     80  C   UNL A   1      51.601  26.325  25.133  1.00  0.00     0.200 A 
ATOM     81  F   UNL A   1      52.216  25.681  27.320  1.00  0.00    -0.200 F 
ATOM     82  F   UNL A   1      52.853  26.115  24.702  1.00  0.00    -0.200 F 
ENDBRANCH  48  72
BRANCH  60  83
ATOM     83  C   UNL A   1      45.975  32.566  28.588  1.00  0.00     0.064 A 
ATOM     84  C   UNL A   1      45.837  33.573  27.623  1.00  0.00     0.173 A 
ATOM     85  C   UNL A   1      46.520  32.916  29.834  1.00  0.00     0.173 A 
ATOM     86  F   UNL A   1      45.334  33.284  26.413  1.00  0.00    -0.203 F 
ATOM     87  C   UNL A   1      46.234  34.880  27.891  1.00  0.00     0.198 A 
ATOM     88  C   UNL A   1      46.889  34.229  30.109  1.00  0.00     0.198 A 
ATOM     89  F   UNL A   1      46.664  31.990  30.793  1.00  0.00    -0.203 F 
ATOM     90  F   UNL A   1      46.119  35.821  26.945  1.00  0.00    -0.200 F 
ATOM     91  C   UNL A   1      46.749  35.209  29.137  1.00  0.00     0.200 A 
ATOM     92  F   UNL A   1      47.371  34.549  31.317  1.00  0.00    -0.200 F 
ATOM     93  F   UNL A   1      47.111  36.471  29.402  1.00  0.00    -0.200 F 
ENDBRANCH  60  83
ENDBRANCH  34  35
ENDBRANCH  26  29
ENDBRANCH  24  25
ENDBRANCH   1  24
TORSDOF 12
ENDMDL
MODEL 3
REMARK VINA RESULT:     -13.1      5.742     11.070
REMARK SMILES CCc1cc(C)c2c(c1)C=C(C(=O)NCCCNC(=O)c1ccc(-c3c4nc(c(-c5c(F)c(F)c(F)c(F)c5F)c5ccc([nH]5)c(-c5c(F)c(F)c(F)c(F)c5F)c5nc(c(-c6c(F)c(F)c(F)c(F)c6F)c6ccc3[nH]6)C=C5)C=C4)cc1)[C@@H](C(F)(F)F)O2
REMARK SMILES IDX 16 1 15 2 14 3 12 4 13 5 11 7 3 8 4 9 9 10 5 11 8 12 6 13
REMARK SMILES IDX 7 14 10 15 89 16 84 17 2 18 1 19 85 20 86 21 87 22 88 23
REMARK SMILES IDX 17 24 18 25 19 26 20 28 21 29 22 30 83 31 23 32 82 33 24 34
REMARK SMILES IDX 25 35 26 36 76 37 27 38 81 39 75 40 77 41 28 42 80 43 74 44
REMARK SMILES IDX 73 45 29 47 61 48 41 49 60 50 42 51 45 52 59 53 78 54 43 55
REMARK SMILES IDX 44 56 58 58 79 59 46 60 30 61 31 62 39 63 32 64 33 65 37 66
REMARK SMILES IDX 40 67 34 68 35 69 38 70 36 71 62 72 63 73 71 74 64 75 65 76
REMARK SMILES IDX 69 77 72 78 66 79 67 80 70 81 68 82 47 83 48 84 56 85 49 86
REMARK SMILES IDX 50 87 54 88 57 89 51 90 52 91 55 92 53 93
REMARK H PARENT 14 6 18 27 77 46 45 57
REMARK Flexibility Score: inf
ROOT
ATOM      1  C   UNL A   1      37.994  19.571  24.996  1.00  0.00     0.042 C 
ENDROOT
BRANCH   1   2
ATOM      2  C   UNL A   1      36.944  20.616  24.648  1.00  0.00     0.118 C 
BRANCH   2   3
ATOM      3  N   UNL A   1      35.885  20.661  25.644  1.00  0.00    -0.352 N 
ATOM      4  C   UNL A   1      34.811  21.437  25.915  1.00  0.00     0.251 C 
ATOM      5  O   UNL A   1      34.182  21.118  26.929  1.00  0.00    -0.270 OA
ATOM      6  H   UNL A   1      35.976  19.933  26.298  1.00  0.00     0.163 HD
BRANCH   4   7
ATOM      7  C   UNL A   1      34.362  22.597  25.095  1.00  0.00     0.067 C 
ATOM      8  C   UNL A   1      33.599  27.367  24.817  1.00  0.00    -0.047 A 
ATOM      9  C   UNL A   1      33.234  27.211  23.467  1.00  0.00     0.011 A 
ATOM     10  C   UNL A   1      34.026  26.239  25.530  1.00  0.00     0.015 A 
ATOM     11  C   UNL A   1      33.305  25.967  22.830  1.00  0.00    -0.008 A 
ATOM     12  C   UNL A   1      34.093  24.987  24.911  1.00  0.00     0.018 A 
ATOM     13  C   UNL A   1      32.903  25.818  21.391  1.00  0.00     0.048 C 
ATOM     14  C   UNL A   1      33.729  24.859  23.570  1.00  0.00     0.130 A 
ATOM     15  C   UNL A   1      34.553  23.811  25.643  1.00  0.00     0.025 C 
ATOM     16  O   UNL A   1      33.809  23.659  22.916  1.00  0.00    -0.475 OA
ATOM     17  C   UNL A   1      33.696  22.481  23.755  1.00  0.00     0.314 C 
BRANCH   8  18
ATOM     18  C   UNL A   1      33.479  28.745  25.428  1.00  0.00     0.032 C 
ATOM     19  C   UNL A   1      33.828  28.873  26.906  1.00  0.00     0.009 C 
ENDBRANCH   8  18
BRANCH  17  20
ATOM     20  C   UNL A   1      32.217  22.058  23.854  1.00  0.00     0.429 C 
ATOM     21  F   UNL A   1      32.121  20.713  24.005  1.00  0.00    -0.167 F 
ATOM     22  F   UNL A   1      31.591  22.606  24.924  1.00  0.00    -0.167 F 
ATOM     23  F   UNL A   1      31.495  22.396  22.763  1.00  0.00    -0.167 F 
ENDBRANCH  17  20
ENDBRANCH   4   7
ENDBRANCH   2   3
ENDBRANCH   1   2
BRANCH   1  24
ATOM     24  C   UNL A   1      39.113  20.158  25.847  1.00  0.00     0.118 C 
BRANCH  24  25
ATOM     25  N   UNL A   1      40.208  19.205  26.013  1.00  0.00    -0.352 N 
ATOM     26  C   UNL A   1      41.556  19.437  26.099  1.00  0.00     0.251 C 
ATOM     27  H   UNL A   1      39.938  18.260  26.072  1.00  0.00     0.163 HD
ATOM     28  O   UNL A   1      42.358  18.523  25.926  1.00  0.00    -0.269 OA
BRANCH  26  29
ATOM     29  C   UNL A   1      42.039  20.793  26.411  1.00  0.00     0.039 A 
ATOM     30  C   UNL A   1      42.276  21.156  27.739  1.00  0.00     0.014 A 
ATOM     31  C   UNL A   1      42.228  21.713  25.376  1.00  0.00     0.014 A 
ATOM     32  C   UNL A   1      42.753  22.435  28.024  1.00  0.00     0.010 A 
ATOM     33  C   UNL A   1      42.779  22.955  25.652  1.00  0.00     0.010 A 
ATOM     34  C   UNL A   1      43.024  23.332  26.980  1.00  0.00    -0.014 A 
BRANCH  34  35
ATOM     35  C   UNL A   1      43.503  24.705  27.245  1.00  0.00     0.031 A 
ATOM     36  C   UNL A   1      42.546  25.724  27.790  1.00  0.00     0.074 A 
ATOM     37  C   UNL A   1      44.763  25.047  26.923  1.00  0.00     0.049 A 
ATOM     38  N   UNL A   1      42.736  26.997  28.024  1.00  0.00    -0.248 NA
ATOM     39  C   UNL A   1      41.182  25.254  28.084  1.00  0.00     0.031 C 
ATOM     40  C   UNL A   1      45.760  24.148  26.344  1.00  0.00     0.029 A 
ATOM     41  N   UNL A   1      45.414  26.249  27.027  1.00  0.00    -0.354 N 
ATOM     42  C   UNL A   1      41.516  27.477  28.479  1.00  0.00     0.074 A 
ATOM     43  C   UNL A   1      40.577  26.380  28.427  1.00  0.00     0.031 C 
ATOM     44  C   UNL A   1      46.905  24.824  26.162  1.00  0.00     0.029 A 
ATOM     45  C   UNL A   1      46.711  26.210  26.584  1.00  0.00     0.049 A 
ATOM     46  H   UNL A   1      44.990  27.063  27.384  1.00  0.00     0.167 HD
ATOM     47  C   UNL A   1      41.218  28.717  28.933  1.00  0.00     0.037 A 
ATOM     48  C   UNL A   1      47.638  27.184  26.528  1.00  0.00     0.037 A 
ATOM     49  C   UNL A   1      42.167  29.794  29.001  1.00  0.00     0.049 A 
ATOM     50  C   UNL A   1      47.282  28.560  27.022  1.00  0.00     0.074 A 
ATOM     51  C   UNL A   1      41.989  31.070  29.503  1.00  0.00     0.029 A 
ATOM     52  N   UNL A   1      43.476  29.717  28.546  1.00  0.00    -0.354 N 
ATOM     53  N   UNL A   1      46.148  28.991  27.519  1.00  0.00    -0.248 NA
ATOM     54  C   UNL A   1      48.335  29.582  26.954  1.00  0.00     0.031 C 
ATOM     55  C   UNL A   1      43.178  31.781  29.309  1.00  0.00     0.029 A 
ATOM     56  C   UNL A   1      44.112  30.933  28.731  1.00  0.00     0.049 A 
ATOM     57  H   UNL A   1      43.891  28.917  28.152  1.00  0.00     0.167 HD
ATOM     58  C   UNL A   1      46.351  30.326  27.838  1.00  0.00     0.074 A 
ATOM     59  C   UNL A   1      47.725  30.631  27.490  1.00  0.00     0.031 C 
ATOM     60  C   UNL A   1      45.479  31.217  28.371  1.00  0.00     0.037 A 
BRANCH  47  61
ATOM     61  C   UNL A   1      39.811  28.960  29.394  1.00  0.00     0.064 A 
ATOM     62  C   UNL A   1      39.421  28.717  30.721  1.00  0.00     0.173 A 
ATOM     63  C   UNL A   1      38.842  29.452  28.507  1.00  0.00     0.173 A 
ATOM     64  F   UNL A   1      40.306  28.232  31.607  1.00  0.00    -0.203 F 
ATOM     65  C   UNL A   1      38.107  28.922  31.132  1.00  0.00     0.198 A 
ATOM     66  C   UNL A   1      37.537  29.686  28.929  1.00  0.00     0.198 A 
ATOM     67  F   UNL A   1      39.161  29.704  27.229  1.00  0.00    -0.203 F 
ATOM     68  F   UNL A   1      37.746  28.626  32.388  1.00  0.00    -0.200 F 
ATOM     69  C   UNL A   1      37.167  29.411  30.238  1.00  0.00     0.200 A 
ATOM     70  F   UNL A   1      36.631  30.169  28.067  1.00  0.00    -0.200 F 
ATOM     71  F   UNL A   1      35.902  29.610  30.635  1.00  0.00    -0.200 F 
ENDBRANCH  47  61
BRANCH  48  72
ATOM     72  C   UNL A   1      48.999  26.863  26.033  1.00  0.00     0.064 A 
ATOM     73  C   UNL A   1      49.940  26.258  26.878  1.00  0.00     0.173 A 
ATOM     74  C   UNL A   1      49.367  27.088  24.699  1.00  0.00     0.173 A 
ATOM     75  F   UNL A   1      49.638  26.037  28.165  1.00  0.00    -0.203 F 
ATOM     76  C   UNL A   1      51.197  25.888  26.406  1.00  0.00     0.198 A 
ATOM     77  C   UNL A   1      50.618  26.699  24.222  1.00  0.00     0.198 A 
ATOM     78  F   UNL A   1      48.499  27.657  23.850  1.00  0.00    -0.203 F 
ATOM     79  F   UNL A   1      52.083  25.323  27.238  1.00  0.00    -0.200 F 
ATOM     80  C   UNL A   1      51.531  26.099  25.076  1.00  0.00     0.200 A 
ATOM     81  F   UNL A   1      50.930  26.888  22.933  1.00  0.00    -0.200 F 
ATOM     82  F   UNL A   1      52.733  25.721  24.617  1.00  0.00    -0.200 F 
ENDBRANCH  48  72
BRANCH  60  83
ATOM     83  C   UNL A   1      45.977  32.610  28.618  1.00  0.00     0.064 A 
ATOM     84  C   UNL A   1      46.650  32.944  29.801  1.00  0.00     0.173 A 
ATOM     85  C   UNL A   1      45.860  33.594  27.624  1.00  0.00     0.173 A 
ATOM     86  F   UNL A   1      46.774  32.041  30.786  1.00  0.00    -0.203 F 
ATOM     87  C   UNL A   1      47.180  34.218  29.986  1.00  0.00     0.198 A 
ATOM     88  C   UNL A   1      46.417  34.857  27.800  1.00  0.00     0.198 A 
ATOM     89  F   UNL A   1      45.234  33.319  26.471  1.00  0.00    -0.203 F 
ATOM     90  F   UNL A   1      47.794  34.526  31.137  1.00  0.00    -0.200 F 
ATOM     91  C   UNL A   1      47.073  35.169  28.982  1.00  0.00     0.200 A 
ATOM     92  F   UNL A   1      46.327  35.770  26.824  1.00  0.00    -0.200 F 
ATOM     93  F   UNL A   1      47.603  36.388  29.153  1.00  0.00    -0.200 F 
ENDBRANCH  60  83
ENDBRANCH  34  35
ENDBRANCH  26  29
ENDBRANCH  24  25
ENDBRANCH   1  24
TORSDOF 12
ENDMDL
