MODEL 1
REMARK VINA RESULT:     -13.0      0.000      0.000
REMARK SMILES O=C(NCCCNC(=O)C1CCN(c2ccc(C(F)(F)F)cc2[N+](=O)[O-])CC1)c1ccc(-c2c3nc(c(-c4c(F)c(F)c(F)c(F)c4F)c4ccc([nH]4)c(-c4c(F)c(F)c(F)c(F)c4F)c4nc(c(-c5c(F)c(F)c(F)c(F)c5F)c5ccc2[nH]5)C=C4)C=C3)cc1
REMARK SMILES IDX 5 1 4 2 3 3 1 4 2 5 29 7 30 8 91 9 31 10 90 11 32 12 33 13
REMARK SMILES IDX 34 14 84 15 35 16 89 17 83 18 85 19 36 20 88 21 82 22 81 23
REMARK SMILES IDX 37 25 69 26 49 27 68 28 50 29 53 30 67 31 86 32 51 33 52 34
REMARK SMILES IDX 66 36 87 37 54 38 38 39 39 40 47 41 40 42 41 43 45 44 48 45
REMARK SMILES IDX 42 46 43 47 46 48 44 49 70 50 71 51 79 52 72 53 73 54 77 55
REMARK SMILES IDX 80 56 74 57 75 58 78 59 76 60 55 61 56 62 64 63 57 64 58 65
REMARK SMILES IDX 62 66 65 67 59 68 60 69 63 70 61 71 6 72 7 73 8 74 9 76
REMARK SMILES IDX 10 77 11 78 28 79 12 80 27 81 13 82 14 83 15 84 23 85 16 86
REMARK SMILES IDX 22 87 17 88 24 89 25 90 26 91 18 92 19 93 20 94 21 95
REMARK H PARENT 3 6 85 24 53 35 7 75
REMARK Flexibility Score: inf
ROOT
ATOM      1  C   UNL A   1      38.212  19.631  24.869  1.00  0.00     0.042 C 
ENDROOT
BRANCH   1   2
ATOM      2  C   UNL A   1      39.266  20.071  25.873  1.00  0.00     0.118 C 
BRANCH   2   3
ATOM      3  N   UNL A   1      40.367  19.123  25.955  1.00  0.00    -0.352 N 
ATOM      4  O   UNL A   1      42.489  18.405  25.847  1.00  0.00    -0.269 OA
ATOM      5  C   UNL A   1      41.720  19.338  26.058  1.00  0.00     0.251 C 
ATOM      6  H   UNL A   1      40.100  18.177  25.932  1.00  0.00     0.163 HD
BRANCH   5   7
ATOM      7  C   UNL A   1      42.269  20.667  26.424  1.00  0.00     0.039 A 
ATOM      8  C   UNL A   1      42.657  21.591  25.451  1.00  0.00     0.014 A 
ATOM      9  C   UNL A   1      42.299  21.035  27.774  1.00  0.00     0.014 A 
ATOM     10  C   UNL A   1      43.176  22.828  25.827  1.00  0.00     0.010 A 
ATOM     11  C   UNL A   1      42.733  22.312  28.147  1.00  0.00     0.010 A 
ATOM     12  C   UNL A   1      43.185  23.217  27.175  1.00  0.00    -0.014 A 
BRANCH  12  13
ATOM     13  C   UNL A   1      43.567  24.607  27.529  1.00  0.00     0.031 A 
ATOM     14  C   UNL A   1      45.003  25.045  27.532  1.00  0.00     0.074 A 
ATOM     15  C   UNL A   1      42.592  25.478  27.854  1.00  0.00     0.049 A 
ATOM     16  N   UNL A   1      45.504  26.220  27.821  1.00  0.00    -0.248 NA
ATOM     17  C   UNL A   1      46.007  24.033  27.177  1.00  0.00     0.031 C 
ATOM     18  C   UNL A   1      41.165  25.154  27.915  1.00  0.00     0.029 A 
ATOM     19  N   UNL A   1      42.645  26.807  28.186  1.00  0.00    -0.354 N 
ATOM     20  C   UNL A   1      46.881  26.085  27.701  1.00  0.00     0.074 A 
ATOM     21  C   UNL A   1      47.138  24.708  27.340  1.00  0.00     0.031 C 
ATOM     22  C   UNL A   1      40.476  26.261  28.228  1.00  0.00     0.029 A 
ATOM     23  C   UNL A   1      41.413  27.356  28.447  1.00  0.00     0.049 A 
ATOM     24  H   UNL A   1      43.485  27.319  28.234  1.00  0.00     0.167 HD
ATOM     25  C   UNL A   1      47.837  27.031  27.872  1.00  0.00     0.037 A 
ATOM     26  C   UNL A   1      41.074  28.598  28.838  1.00  0.00     0.037 A 
ATOM     27  C   UNL A   1      47.569  28.405  28.216  1.00  0.00     0.049 A 
ATOM     28  C   UNL A   1      42.154  29.623  29.024  1.00  0.00     0.074 A 
ATOM     29  C   UNL A   1      48.464  29.450  28.360  1.00  0.00     0.029 A 
ATOM     30  N   UNL A   1      46.308  28.922  28.481  1.00  0.00    -0.354 N 
ATOM     31  N   UNL A   1      43.448  29.497  28.859  1.00  0.00    -0.248 NA
ATOM     32  C   UNL A   1      41.729  30.962  29.451  1.00  0.00     0.031 C 
ATOM     33  C   UNL A   1      47.753  30.587  28.758  1.00  0.00     0.029 A 
ATOM     34  C   UNL A   1      46.407  30.265  28.815  1.00  0.00     0.049 A 
ATOM     35  H   UNL A   1      45.467  28.412  28.438  1.00  0.00     0.167 HD
ATOM     36  C   UNL A   1      43.993  30.737  29.150  1.00  0.00     0.074 A 
ATOM     37  C   UNL A   1      42.885  31.612  29.480  1.00  0.00     0.031 C 
ATOM     38  C   UNL A   1      45.294  31.118  29.148  1.00  0.00     0.037 A 
BRANCH  25  39
ATOM     39  C   UNL A   1      49.269  26.609  27.705  1.00  0.00     0.064 A 
ATOM     40  C   UNL A   1      49.856  26.464  26.439  1.00  0.00     0.173 A 
ATOM     41  C   UNL A   1      50.077  26.387  28.831  1.00  0.00     0.173 A 
ATOM     42  F   UNL A   1      49.125  26.654  25.330  1.00  0.00    -0.203 F 
ATOM     43  C   UNL A   1      51.189  26.082  26.306  1.00  0.00     0.198 A 
ATOM     44  C   UNL A   1      51.417  26.032  28.694  1.00  0.00     0.198 A 
ATOM     45  F   UNL A   1      49.570  26.519  30.066  1.00  0.00    -0.203 F 
ATOM     46  F   UNL A   1      51.715  25.903  25.086  1.00  0.00    -0.200 F 
ATOM     47  C   UNL A   1      51.970  25.873  27.433  1.00  0.00     0.200 A 
ATOM     48  F   UNL A   1      52.173  25.842  29.784  1.00  0.00    -0.200 F 
ATOM     49  F   UNL A   1      53.254  25.510  27.302  1.00  0.00    -0.200 F 
ENDBRANCH  25  39
BRANCH  26  50
ATOM     50  C   UNL A   1      39.645  28.923  29.084  1.00  0.00     0.064 A 
ATOM     51  C   UNL A   1      38.812  29.353  28.043  1.00  0.00     0.173 A 
ATOM     52  C   UNL A   1      39.079  28.778  30.359  1.00  0.00     0.173 A 
ATOM     53  F   UNL A   1      39.313  29.523  26.811  1.00  0.00    -0.203 F 
ATOM     54  C   UNL A   1      37.467  29.634  28.271  1.00  0.00     0.198 A 
ATOM     55  C   UNL A   1      37.728  29.032  30.579  1.00  0.00     0.198 A 
ATOM     56  F   UNL A   1      39.834  28.363  31.387  1.00  0.00    -0.203 F 
ATOM     57  F   UNL A   1      36.698  30.076  27.267  1.00  0.00    -0.200 F 
ATOM     58  C   UNL A   1      36.924  29.464  29.536  1.00  0.00     0.200 A 
ATOM     59  F   UNL A   1      37.205  28.848  31.799  1.00  0.00    -0.200 F 
ATOM     60  F   UNL A   1      35.627  29.723  29.751  1.00  0.00    -0.200 F 
ENDBRANCH  26  50
BRANCH  38  61
ATOM     61  C   UNL A   1      45.585  32.546  29.501  1.00  0.00     0.064 A 
ATOM     62  C   UNL A   1      45.858  32.935  30.821  1.00  0.00     0.173 A 
ATOM     63  C   UNL A   1      45.618  33.533  28.505  1.00  0.00     0.173 A 
ATOM     64  F   UNL A   1      45.821  32.030  31.812  1.00  0.00    -0.203 F 
ATOM     65  C   UNL A   1      46.132  34.264  31.134  1.00  0.00     0.198 A 
ATOM     66  C   UNL A   1      45.918  34.856  28.816  1.00  0.00     0.198 A 
ATOM     67  F   UNL A   1      45.366  33.212  27.227  1.00  0.00    -0.203 F 
ATOM     68  F   UNL A   1      46.344  34.620  32.407  1.00  0.00    -0.200 F 
ATOM     69  C   UNL A   1      46.168  35.221  30.131  1.00  0.00     0.200 A 
ATOM     70  F   UNL A   1      45.964  35.778  27.845  1.00  0.00    -0.200 F 
ATOM     71  F   UNL A   1      46.436  36.499  30.432  1.00  0.00    -0.200 F 
ENDBRANCH  38  61
ENDBRANCH  12  13
ENDBRANCH   5   7
ENDBRANCH   2   3
ENDBRANCH   1   2
BRANCH   1  72
ATOM     72  C   UNL A   1      36.864  20.320  25.036  1.00  0.00     0.117 C 
BRANCH  72  73
ATOM     73  N   UNL A   1      36.767  21.506  24.211  1.00  0.00    -0.356 N 
ATOM     74  C   UNL A   1      35.796  22.392  23.914  1.00  0.00     0.223 C 
ATOM     75  H   UNL A   1      37.615  21.717  23.756  1.00  0.00     0.163 HD
ATOM     76  O   UNL A   1      36.107  23.217  23.042  1.00  0.00    -0.275 OA
BRANCH  74  77
ATOM     77  C   UNL A   1      34.399  22.492  24.537  1.00  0.00     0.082 C 
ATOM     78  C   UNL A   1      33.107  22.281  23.756  1.00  0.00     0.035 C 
ATOM     79  C   UNL A   1      34.297  23.775  25.377  1.00  0.00     0.035 C 
ATOM     80  C   UNL A   1      32.570  23.508  23.021  1.00  0.00     0.117 C 
ATOM     81  C   UNL A   1      33.970  24.979  24.502  1.00  0.00     0.117 C 
ATOM     82  N   UNL A   1      32.705  24.736  23.811  1.00  0.00    -0.366 N 
BRANCH  82  83
ATOM     83  C   UNL A   1      31.833  25.777  23.500  1.00  0.00     0.116 A 
ATOM     84  C   UNL A   1      30.634  25.843  24.239  1.00  0.00     0.034 A 
ATOM     85  C   UNL A   1      32.011  26.793  22.544  1.00  0.00     0.293 A 
ATOM     86  C   UNL A   1      29.677  26.846  24.039  1.00  0.00     0.016 A 
ATOM     87  C   UNL A   1      31.061  27.817  22.336  1.00  0.00     0.101 A 
ATOM     88  C   UNL A   1      29.881  27.848  23.087  1.00  0.00     0.062 A 
BRANCH  85  89
ATOM     89  N   UNL A   1      33.152  26.809  21.645  1.00  0.00     0.064 N 
ATOM     90  O   UNL A   1      33.982  27.714  21.809  1.00  0.00    -0.258 OA
ATOM     91  O   UNL A   1      33.185  25.965  20.739  1.00  0.00    -0.258 OA
ENDBRANCH  85  89
BRANCH  88  92
ATOM     92  C   UNL A   1      28.833  28.915  22.880  1.00  0.00     0.416 C 
ATOM     93  F   UNL A   1      29.030  29.989  23.692  1.00  0.00    -0.166 F 
ATOM     94  F   UNL A   1      28.827  29.398  21.608  1.00  0.00    -0.166 F 
ATOM     95  F   UNL A   1      27.568  28.483  23.127  1.00  0.00    -0.166 F 
ENDBRANCH  88  92
ENDBRANCH  82  83
ENDBRANCH  74  77
ENDBRANCH  72  73
ENDBRANCH   1  72
TORSDOF 13
ENDMDL
MODEL 2
REMARK VINA RESULT:     -13.0      5.812     10.052
REMARK SMILES O=C(NCCCNC(=O)C1CCN(c2ccc(C(F)(F)F)cc2[N+](=O)[O-])CC1)c1ccc(-c2c3nc(c(-c4c(F)c(F)c(F)c(F)c4F)c4ccc([nH]4)c(-c4c(F)c(F)c(F)c(F)c4F)c4nc(c(-c5c(F)c(F)c(F)c(F)c5F)c5ccc2[nH]5)C=C4)C=C3)cc1
REMARK SMILES IDX 5 1 4 2 3 3 1 4 2 5 29 7 30 8 91 9 31 10 90 11 32 12 33 13
REMARK SMILES IDX 34 14 84 15 35 16 89 17 83 18 85 19 36 20 88 21 82 22 81 23
REMARK SMILES IDX 37 25 69 26 49 27 68 28 50 29 53 30 67 31 86 32 51 33 52 34
REMARK SMILES IDX 66 36 87 37 54 38 38 39 39 40 47 41 40 42 41 43 45 44 48 45
REMARK SMILES IDX 42 46 43 47 46 48 44 49 70 50 71 51 79 52 72 53 73 54 77 55
REMARK SMILES IDX 80 56 74 57 75 58 78 59 76 60 55 61 56 62 64 63 57 64 58 65
REMARK SMILES IDX 62 66 65 67 59 68 60 69 63 70 61 71 6 72 7 73 8 74 9 76
REMARK SMILES IDX 10 77 11 78 28 79 12 80 27 81 13 82 14 83 15 84 23 85 16 86
REMARK SMILES IDX 22 87 17 88 24 89 25 90 26 91 18 92 19 93 20 94 21 95
REMARK H PARENT 3 6 85 24 53 35 7 75
REMARK Flexibility Score: inf
ROOT
ATOM      1  C   UNL A   1      31.410  32.404  26.323  1.00  0.00     0.042 C 
ENDROOT
BRANCH   1   2
ATOM      2  C   UNL A   1      32.543  32.839  27.240  1.00  0.00     0.118 C 
BRANCH   2   3
ATOM      3  N   UNL A   1      32.428  34.239  27.617  1.00  0.00    -0.352 N 
ATOM      4  O   UNL A   1      32.580  36.043  28.941  1.00  0.00    -0.269 OA
ATOM      5  C   UNL A   1      33.017  34.935  28.645  1.00  0.00     0.251 C 
ATOM      6  H   UNL A   1      31.833  34.774  27.044  1.00  0.00     0.163 HD
BRANCH   5   7
ATOM      7  C   UNL A   1      34.169  34.380  29.397  1.00  0.00     0.039 A 
ATOM      8  C   UNL A   1      33.988  33.568  30.519  1.00  0.00     0.014 A 
ATOM      9  C   UNL A   1      35.461  34.594  28.904  1.00  0.00     0.014 A 
ATOM     10  C   UNL A   1      35.090  33.070  31.209  1.00  0.00     0.010 A 
ATOM     11  C   UNL A   1      36.564  34.015  29.543  1.00  0.00     0.010 A 
ATOM     12  C   UNL A   1      36.387  33.255  30.708  1.00  0.00    -0.014 A 
BRANCH  12  13
ATOM     13  C   UNL A   1      37.525  32.556  31.357  1.00  0.00     0.031 A 
ATOM     14  C   UNL A   1      38.251  31.439  30.667  1.00  0.00     0.074 A 
ATOM     15  C   UNL A   1      37.898  32.946  32.592  1.00  0.00     0.049 A 
ATOM     16  N   UNL A   1      39.260  30.723  31.097  1.00  0.00    -0.248 NA
ATOM     17  C   UNL A   1      37.776  31.066  29.328  1.00  0.00     0.031 C 
ATOM     18  C   UNL A   1      37.245  34.000  33.371  1.00  0.00     0.029 A 
ATOM     19  N   UNL A   1      38.912  32.512  33.405  1.00  0.00    -0.354 N 
ATOM     20  C   UNL A   1      39.531  29.806  30.091  1.00  0.00     0.074 A 
ATOM     21  C   UNL A   1      38.562  30.036  29.041  1.00  0.00     0.031 C 
ATOM     22  C   UNL A   1      37.896  34.156  34.533  1.00  0.00     0.029 A 
ATOM     23  C   UNL A   1      38.973  33.177  34.607  1.00  0.00     0.049 A 
ATOM     24  H   UNL A   1      39.538  31.795  33.154  1.00  0.00     0.167 HD
ATOM     25  C   UNL A   1      40.505  28.864  30.051  1.00  0.00     0.037 A 
ATOM     26  C   UNL A   1      39.791  33.005  35.661  1.00  0.00     0.037 A 
ATOM     27  C   UNL A   1      41.475  28.653  31.096  1.00  0.00     0.049 A 
ATOM     28  C   UNL A   1      40.857  31.951  35.591  1.00  0.00     0.074 A 
ATOM     29  C   UNL A   1      42.532  27.761  31.127  1.00  0.00     0.029 A 
ATOM     30  N   UNL A   1      41.500  29.339  32.303  1.00  0.00    -0.354 N 
ATOM     31  N   UNL A   1      41.135  31.122  34.613  1.00  0.00    -0.248 NA
ATOM     32  C   UNL A   1      41.722  31.806  36.768  1.00  0.00     0.031 C 
ATOM     33  C   UNL A   1      43.167  27.873  32.369  1.00  0.00     0.029 A 
ATOM     34  C   UNL A   1      42.537  28.870  33.095  1.00  0.00     0.049 A 
ATOM     35  H   UNL A   1      40.873  30.055  32.559  1.00  0.00     0.167 HD
ATOM     36  C   UNL A   1      42.211  30.365  35.049  1.00  0.00     0.074 A 
ATOM     37  C   UNL A   1      42.552  30.849  36.373  1.00  0.00     0.031 C 
ATOM     38  C   UNL A   1      42.857  29.358  34.413  1.00  0.00     0.037 A 
BRANCH  25  39
ATOM     39  C   UNL A   1      40.562  27.973  28.843  1.00  0.00     0.064 A 
ATOM     40  C   UNL A   1      39.819  26.785  28.764  1.00  0.00     0.173 A 
ATOM     41  C   UNL A   1      41.339  28.334  27.732  1.00  0.00     0.173 A 
ATOM     42  F   UNL A   1      39.067  26.388  29.802  1.00  0.00    -0.203 F 
ATOM     43  C   UNL A   1      39.877  25.978  27.630  1.00  0.00     0.198 A 
ATOM     44  C   UNL A   1      41.373  27.538  26.589  1.00  0.00     0.198 A 
ATOM     45  F   UNL A   1      42.064  29.463  27.751  1.00  0.00    -0.203 F 
ATOM     46  F   UNL A   1      39.196  24.823  27.595  1.00  0.00    -0.200 F 
ATOM     47  C   UNL A   1      40.648  26.358  26.541  1.00  0.00     0.200 A 
ATOM     48  F   UNL A   1      42.110  27.914  25.535  1.00  0.00    -0.200 F 
ATOM     49  F   UNL A   1      40.699  25.582  25.450  1.00  0.00    -0.200 F 
ENDBRANCH  25  39
BRANCH  26  50
ATOM     50  C   UNL A   1      39.617  33.853  36.868  1.00  0.00     0.064 A 
ATOM     51  C   UNL A   1      40.181  35.132  36.940  1.00  0.00     0.173 A 
ATOM     52  C   UNL A   1      38.854  33.410  37.959  1.00  0.00     0.173 A 
ATOM     53  F   UNL A   1      40.932  35.592  35.929  1.00  0.00    -0.203 F 
ATOM     54  C   UNL A   1      39.996  35.936  38.064  1.00  0.00     0.198 A 
ATOM     55  C   UNL A   1      38.647  34.224  39.069  1.00  0.00     0.198 A 
ATOM     56  F   UNL A   1      38.289  32.194  37.935  1.00  0.00    -0.203 F 
ATOM     57  F   UNL A   1      40.574  37.143  38.124  1.00  0.00    -0.200 F 
ATOM     58  C   UNL A   1      39.222  35.485  39.123  1.00  0.00     0.200 A 
ATOM     59  F   UNL A   1      37.883  33.792  40.081  1.00  0.00    -0.200 F 
ATOM     60  F   UNL A   1      39.034  36.263  40.197  1.00  0.00    -0.200 F 
ENDBRANCH  26  50
BRANCH  38  61
ATOM     61  C   UNL A   1      44.006  28.722  35.138  1.00  0.00     0.064 A 
ATOM     62  C   UNL A   1      45.321  29.179  34.971  1.00  0.00     0.173 A 
ATOM     63  C   UNL A   1      43.785  27.661  36.029  1.00  0.00     0.173 A 
ATOM     64  F   UNL A   1      45.585  30.179  34.116  1.00  0.00    -0.203 F 
ATOM     65  C   UNL A   1      46.378  28.582  35.654  1.00  0.00     0.198 A 
ATOM     66  C   UNL A   1      44.840  27.084  36.730  1.00  0.00     0.198 A 
ATOM     67  F   UNL A   1      42.545  27.189  36.225  1.00  0.00    -0.203 F 
ATOM     68  F   UNL A   1      47.632  29.004  35.445  1.00  0.00    -0.200 F 
ATOM     69  C   UNL A   1      46.135  27.541  36.537  1.00  0.00     0.200 A 
ATOM     70  F   UNL A   1      44.603  26.086  37.592  1.00  0.00    -0.200 F 
ATOM     71  F   UNL A   1      47.153  26.970  37.197  1.00  0.00    -0.200 F 
ENDBRANCH  38  61
ENDBRANCH  12  13
ENDBRANCH   5   7
ENDBRANCH   2   3
ENDBRANCH   1   2
BRANCH   1  72
ATOM     72  C   UNL A   1      31.099  30.914  26.378  1.00  0.00     0.117 C 
BRANCH  72  73
ATOM     73  N   UNL A   1      31.635  30.215  25.229  1.00  0.00    -0.356 N 
ATOM     74  C   UNL A   1      32.341  29.083  25.038  1.00  0.00     0.223 C 
ATOM     75  H   UNL A   1      31.437  30.678  24.383  1.00  0.00     0.163 HD
ATOM     76  O   UNL A   1      32.712  28.905  23.868  1.00  0.00    -0.275 OA
BRANCH  74  77
ATOM     77  C   UNL A   1      32.703  28.019  26.080  1.00  0.00     0.082 C 
ATOM     78  C   UNL A   1      33.958  27.157  26.007  1.00  0.00     0.035 C 
ATOM     79  C   UNL A   1      31.478  27.136  26.366  1.00  0.00     0.035 C 
ATOM     80  C   UNL A   1      33.844  25.894  25.155  1.00  0.00     0.117 C 
ATOM     81  C   UNL A   1      31.340  26.035  25.321  1.00  0.00     0.117 C 
ATOM     82  N   UNL A   1      32.553  25.219  25.325  1.00  0.00    -0.366 N 
BRANCH  82  83
ATOM     83  C   UNL A   1      32.516  23.858  25.031  1.00  0.00     0.116 A 
ATOM     84  C   UNL A   1      32.901  23.479  23.729  1.00  0.00     0.034 A 
ATOM     85  C   UNL A   1      32.158  22.800  25.887  1.00  0.00     0.293 A 
ATOM     86  C   UNL A   1      32.925  22.145  23.304  1.00  0.00     0.016 A 
ATOM     87  C   UNL A   1      32.186  21.448  25.480  1.00  0.00     0.101 A 
ATOM     88  C   UNL A   1      32.571  21.112  24.177  1.00  0.00     0.062 A 
BRANCH  85  89
ATOM     89  N   UNL A   1      31.655  23.037  27.229  1.00  0.00     0.064 N 
ATOM     90  O   UNL A   1      32.445  22.853  28.165  1.00  0.00    -0.258 OA
ATOM     91  O   UNL A   1      30.460  23.339  27.353  1.00  0.00    -0.258 OA
ENDBRANCH  85  89
BRANCH  88  92
ATOM     92  C   UNL A   1      32.594  19.681  23.699  1.00  0.00     0.416 C 
ATOM     93  F   UNL A   1      32.158  19.564  22.414  1.00  0.00    -0.166 F 
ATOM     94  F   UNL A   1      33.844  19.145  23.724  1.00  0.00    -0.166 F 
ATOM     95  F   UNL A   1      31.811  18.851  24.439  1.00  0.00    -0.166 F 
ENDBRANCH  88  92
ENDBRANCH  82  83
ENDBRANCH  74  77
ENDBRANCH  72  73
ENDBRANCH   1  72
TORSDOF 13
ENDMDL
MODEL 3
REMARK VINA RESULT:     -13.0      5.850     10.098
REMARK SMILES O=C(NCCCNC(=O)C1CCN(c2ccc(C(F)(F)F)cc2[N+](=O)[O-])CC1)c1ccc(-c2c3nc(c(-c4c(F)c(F)c(F)c(F)c4F)c4ccc([nH]4)c(-c4c(F)c(F)c(F)c(F)c4F)c4nc(c(-c5c(F)c(F)c(F)c(F)c5F)c5ccc2[nH]5)C=C4)C=C3)cc1
REMARK SMILES IDX 5 1 4 2 3 3 1 4 2 5 29 7 30 8 91 9 31 10 90 11 32 12 33 13
REMARK SMILES IDX 34 14 84 15 35 16 89 17 83 18 85 19 36 20 88 21 82 22 81 23
REMARK SMILES IDX 37 25 69 26 49 27 68 28 50 29 53 30 67 31 86 32 51 33 52 34
REMARK SMILES IDX 66 36 87 37 54 38 38 39 39 40 47 41 40 42 41 43 45 44 48 45
REMARK SMILES IDX 42 46 43 47 46 48 44 49 70 50 71 51 79 52 72 53 73 54 77 55
REMARK SMILES IDX 80 56 74 57 75 58 78 59 76 60 55 61 56 62 64 63 57 64 58 65
REMARK SMILES IDX 62 66 65 67 59 68 60 69 63 70 61 71 6 72 7 73 8 74 9 76
REMARK SMILES IDX 10 77 11 78 28 79 12 80 27 81 13 82 14 83 15 84 23 85 16 86
REMARK SMILES IDX 22 87 17 88 24 89 25 90 26 91 18 92 19 93 20 94 21 95
REMARK H PARENT 3 6 85 24 53 35 7 75
REMARK Flexibility Score: inf
ROOT
ATOM      1  C   UNL A   1      31.392  32.384  26.397  1.00  0.00     0.042 C 
ENDROOT
BRANCH   1   2
ATOM      2  C   UNL A   1      32.596  32.870  27.190  1.00  0.00     0.118 C 
BRANCH   2   3
ATOM      3  N   UNL A   1      32.466  34.268  27.571  1.00  0.00    -0.352 N 
ATOM      4  O   UNL A   1      32.584  36.066  28.906  1.00  0.00    -0.269 OA
ATOM      5  C   UNL A   1      33.033  34.962  28.612  1.00  0.00     0.251 C 
ATOM      6  H   UNL A   1      31.876  34.801  26.992  1.00  0.00     0.163 HD
BRANCH   5   7
ATOM      7  C   UNL A   1      34.177  34.412  29.380  1.00  0.00     0.039 A 
ATOM      8  C   UNL A   1      33.985  33.656  30.538  1.00  0.00     0.014 A 
ATOM      9  C   UNL A   1      35.470  34.571  28.869  1.00  0.00     0.014 A 
ATOM     10  C   UNL A   1      35.079  33.160  31.241  1.00  0.00     0.010 A 
ATOM     11  C   UNL A   1      36.563  33.994  29.524  1.00  0.00     0.010 A 
ATOM     12  C   UNL A   1      36.377  33.291  30.724  1.00  0.00    -0.014 A 
BRANCH  12  13
ATOM     13  C   UNL A   1      37.502  32.592  31.395  1.00  0.00     0.031 A 
ATOM     14  C   UNL A   1      38.224  31.457  30.730  1.00  0.00     0.074 A 
ATOM     15  C   UNL A   1      37.867  32.999  32.627  1.00  0.00     0.049 A 
ATOM     16  N   UNL A   1      39.222  30.739  31.181  1.00  0.00    -0.248 NA
ATOM     17  C   UNL A   1      37.758  31.065  29.393  1.00  0.00     0.031 C 
ATOM     18  C   UNL A   1      37.217  34.073  33.382  1.00  0.00     0.029 A 
ATOM     19  N   UNL A   1      38.870  32.570  33.456  1.00  0.00    -0.354 N 
ATOM     20  C   UNL A   1      39.494  29.802  30.194  1.00  0.00     0.074 A 
ATOM     21  C   UNL A   1      38.537  30.024  29.131  1.00  0.00     0.031 C 
ATOM     22  C   UNL A   1      37.859  34.242  34.546  1.00  0.00     0.029 A 
ATOM     23  C   UNL A   1      38.926  33.254  34.646  1.00  0.00     0.049 A 
ATOM     24  H   UNL A   1      39.491  31.843  33.222  1.00  0.00     0.167 HD
ATOM     25  C   UNL A   1      40.459  28.851  30.179  1.00  0.00     0.037 A 
ATOM     26  C   UNL A   1      39.733  33.092  35.711  1.00  0.00     0.037 A 
ATOM     27  C   UNL A   1      41.418  28.649  31.236  1.00  0.00     0.049 A 
ATOM     28  C   UNL A   1      40.790  32.028  35.669  1.00  0.00     0.074 A 
ATOM     29  C   UNL A   1      42.466  27.747  31.291  1.00  0.00     0.029 A 
ATOM     30  N   UNL A   1      41.438  29.355  32.431  1.00  0.00    -0.354 N 
ATOM     31  N   UNL A   1      41.069  31.180  34.708  1.00  0.00    -0.248 NA
ATOM     32  C   UNL A   1      41.643  31.894  36.856  1.00  0.00     0.031 C 
ATOM     33  C   UNL A   1      43.090  27.874  32.538  1.00  0.00     0.029 A 
ATOM     34  C   UNL A   1      42.463  28.889  33.241  1.00  0.00     0.049 A 
ATOM     35  H   UNL A   1      40.815  30.081  32.669  1.00  0.00     0.167 HD
ATOM     36  C   UNL A   1      42.134  30.421  35.166  1.00  0.00     0.074 A 
ATOM     37  C   UNL A   1      42.467  30.923  36.485  1.00  0.00     0.031 C 
ATOM     38  C   UNL A   1      42.776  29.397  34.554  1.00  0.00     0.037 A 
BRANCH  25  39
ATOM     39  C   UNL A   1      40.519  27.939  28.986  1.00  0.00     0.064 A 
ATOM     40  C   UNL A   1      39.757  26.762  28.915  1.00  0.00     0.173 A 
ATOM     41  C   UNL A   1      41.319  28.269  27.881  1.00  0.00     0.173 A 
ATOM     42  F   UNL A   1      38.983  26.396  29.948  1.00  0.00    -0.203 F 
ATOM     43  C   UNL A   1      39.818  25.936  27.796  1.00  0.00     0.198 A 
ATOM     44  C   UNL A   1      41.356  27.454  26.752  1.00  0.00     0.198 A 
ATOM     45  F   UNL A   1      42.062  29.386  27.893  1.00  0.00    -0.203 F 
ATOM     46  F   UNL A   1      39.118  24.793  27.770  1.00  0.00    -0.200 F 
ATOM     47  C   UNL A   1      40.612  26.285  26.713  1.00  0.00     0.200 A 
ATOM     48  F   UNL A   1      42.114  27.799  25.703  1.00  0.00    -0.200 F 
ATOM     49  F   UNL A   1      40.665  25.490  25.636  1.00  0.00    -0.200 F 
ENDBRANCH  25  39
BRANCH  26  50
ATOM     50  C   UNL A   1      39.556  33.962  36.902  1.00  0.00     0.064 A 
ATOM     51  C   UNL A   1      38.780  33.546  37.992  1.00  0.00     0.173 A 
ATOM     52  C   UNL A   1      40.188  35.211  36.986  1.00  0.00     0.173 A 
ATOM     53  F   UNL A   1      38.143  32.368  37.950  1.00  0.00    -0.203 F 
ATOM     54  C   UNL A   1      38.635  34.354  39.119  1.00  0.00     0.198 A 
ATOM     55  C   UNL A   1      40.065  36.005  38.124  1.00  0.00     0.198 A 
ATOM     56  F   UNL A   1      40.946  35.651  35.971  1.00  0.00    -0.203 F 
ATOM     57  F   UNL A   1      37.861  33.950  40.134  1.00  0.00    -0.200 F 
ATOM     58  C   UNL A   1      39.285  35.577  39.187  1.00  0.00     0.200 A 
ATOM     59  F   UNL A   1      40.710  37.177  38.193  1.00  0.00    -0.200 F 
ATOM     60  F   UNL A   1      39.155  36.347  40.277  1.00  0.00    -0.200 F 
ENDBRANCH  26  50
BRANCH  38  61
ATOM     61  C   UNL A   1      43.912  28.762  35.299  1.00  0.00     0.064 A 
ATOM     62  C   UNL A   1      43.710  27.668  36.152  1.00  0.00     0.173 A 
ATOM     63  C   UNL A   1      45.222  29.238  35.138  1.00  0.00     0.173 A 
ATOM     64  F   UNL A   1      42.472  27.188  36.354  1.00  0.00    -0.203 F 
ATOM     65  C   UNL A   1      44.775  27.086  36.834  1.00  0.00     0.198 A 
ATOM     66  C   UNL A   1      46.288  28.637  35.800  1.00  0.00     0.198 A 
ATOM     67  F   UNL A   1      45.468  30.281  34.331  1.00  0.00    -0.203 F 
ATOM     68  F   UNL A   1      44.552  26.071  37.680  1.00  0.00    -0.200 F 
ATOM     69  C   UNL A   1      46.063  27.567  36.652  1.00  0.00     0.200 A 
ATOM     70  F   UNL A   1      47.534  29.095  35.615  1.00  0.00    -0.200 F 
ATOM     71  F   UNL A   1      47.088  27.003  37.306  1.00  0.00    -0.200 F 
ENDBRANCH  38  61
ENDBRANCH  12  13
ENDBRANCH   5   7
ENDBRANCH   2   3
ENDBRANCH   1   2
BRANCH   1  72
ATOM     72  C   UNL A   1      31.158  30.881  26.478  1.00  0.00     0.117 C 
BRANCH  72  73
ATOM     73  N   UNL A   1      31.703  30.194  25.327  1.00  0.00    -0.356 N 
ATOM     74  C   UNL A   1      32.402  29.059  25.128  1.00  0.00     0.223 C 
ATOM     75  H   UNL A   1      31.521  30.671  24.485  1.00  0.00     0.163 HD
ATOM     76  O   UNL A   1      32.787  28.894  23.960  1.00  0.00    -0.275 OA
BRANCH  74  77
ATOM     77  C   UNL A   1      32.740  27.976  26.159  1.00  0.00     0.082 C 
ATOM     78  C   UNL A   1      33.989  27.105  26.091  1.00  0.00     0.035 C 
ATOM     79  C   UNL A   1      31.504  27.099  26.415  1.00  0.00     0.035 C 
ATOM     80  C   UNL A   1      33.877  25.855  25.218  1.00  0.00     0.117 C 
ATOM     81  C   UNL A   1      31.372  26.016  25.351  1.00  0.00     0.117 C 
ATOM     82  N   UNL A   1      32.578  25.189  25.361  1.00  0.00    -0.366 N 
BRANCH  82  83
ATOM     83  C   UNL A   1      32.534  23.833  25.046  1.00  0.00     0.116 A 
ATOM     84  C   UNL A   1      32.890  23.475  23.729  1.00  0.00     0.034 A 
ATOM     85  C   UNL A   1      32.194  22.762  25.892  1.00  0.00     0.293 A 
ATOM     86  C   UNL A   1      32.904  22.148  23.283  1.00  0.00     0.016 A 
ATOM     87  C   UNL A   1      32.212  21.417  25.462  1.00  0.00     0.101 A 
ATOM     88  C   UNL A   1      32.569  21.101  24.147  1.00  0.00     0.062 A 
BRANCH  85  89
ATOM     89  N   UNL A   1      31.720  22.977  27.248  1.00  0.00     0.064 N 
ATOM     90  O   UNL A   1      32.500  22.689  28.167  1.00  0.00    -0.258 OA
ATOM     91  O   UNL A   1      30.554  23.367  27.397  1.00  0.00    -0.258 OA
ENDBRANCH  85  89
BRANCH  88  92
ATOM     92  C   UNL A   1      32.581  19.678  23.645  1.00  0.00     0.416 C 
ATOM     93  F   UNL A   1      32.143  19.585  22.360  1.00  0.00    -0.166 F 
ATOM     94  F   UNL A   1      33.827  19.132  23.660  1.00  0.00    -0.166 F 
ATOM     95  F   UNL A   1      31.793  18.842  24.373  1.00  0.00    -0.166 F 
ENDBRANCH  88  92
ENDBRANCH  82  83
ENDBRANCH  74  77
ENDBRANCH  72  73
ENDBRANCH   1  72
TORSDOF 13
ENDMDL
