MODEL 1
REMARK VINA RESULT:      -9.6      0.000      0.000
REMARK SMILES COc1cc(/C=C2/SC(=S)N(c3ccc(C)cc3C)C2=O)ccc1O[C@@H](C)C(=O)NCCCNC(=O)c1ccc(-c2c3nc(c(-c4c(F)c(F)c(F)c(F)c4F)c4ccc([nH]4)c(-c4c(F)c(F)c(F)c(F)c4F)c4nc(c(-c5c(F)c(F)c(F)c(F)c5F)c5ccc2[nH]5)C=C4)C=C3)cc1
REMARK SMILES IDX 31 1 30 2 28 3 29 4 26 6 27 7 25 8 24 9 3 10 4 11 5 12 23 13
REMARK SMILES IDX 22 14 2 15 1 16 6 17 7 18 8 19 20 20 9 21 11 22 21 23 10 24
REMARK SMILES IDX 12 25 13 26 18 27 14 28 17 29 19 30 15 31 16 32 32 33 33 34
REMARK SMILES IDX 34 35 35 36 36 38 37 39 38 40 99 41 39 42 98 43 40 44 41 45
REMARK SMILES IDX 42 46 92 47 43 48 97 49 91 50 93 51 44 52 96 53 90 54 89 55
REMARK SMILES IDX 45 57 77 58 57 59 76 60 58 61 61 62 75 63 94 64 59 65 60 66
REMARK SMILES IDX 74 68 95 69 62 70 46 71 47 72 55 73 48 74 49 75 53 76 56 77
REMARK SMILES IDX 50 78 51 79 54 80 52 81 78 82 79 83 87 84 80 85 81 86 85 87
REMARK SMILES IDX 88 88 82 89 83 90 86 91 84 92 63 93 64 94 72 95 65 96 66 97
REMARK SMILES IDX 70 98 73 99 67 100 68 101 71 102 69 103
REMARK H PARENT 30 5 34 37 93 56 61 67
REMARK Flexibility Score: inf
ROOT
ATOM      1  C   UNL A   1      36.283  33.490  29.545  1.00  0.00     0.118 C 
ENDROOT
BRANCH   1   2
ATOM      2  N   UNL A   1      36.595  34.175  30.780  1.00  0.00    -0.353 N 
ATOM      3  C   UNL A   1      37.008  33.845  32.020  1.00  0.00     0.260 C 
ATOM      4  O   UNL A   1      37.344  34.850  32.680  1.00  0.00    -0.271 OA
ATOM      5  H   UNL A   1      36.470  35.147  30.691  1.00  0.00     0.163 HD
BRANCH   3   6
ATOM      6  C   UNL A   1      37.179  32.427  32.722  1.00  0.00     0.259 C 
ATOM      7  C   UNL A   1      35.898  31.604  32.503  1.00  0.00     0.064 C 
BRANCH   6   8
ATOM      8  O   UNL A   1      37.839  31.800  33.796  1.00  0.00    -0.477 OA
BRANCH   8   9
ATOM      9  C   UNL A   1      38.934  31.044  33.581  1.00  0.00     0.162 A 
ATOM     10  C   UNL A   1      40.242  31.427  33.880  1.00  0.00     0.161 A 
ATOM     11  C   UNL A   1      41.304  30.573  33.532  1.00  0.00     0.058 A 
ATOM     12  C   UNL A   1      41.028  29.309  32.979  1.00  0.00    -0.020 A 
ATOM     13  C   UNL A   1      38.667  29.724  33.242  1.00  0.00     0.051 A 
ATOM     14  C   UNL A   1      39.709  28.844  33.001  1.00  0.00     0.012 A 
BRANCH  10  15
ATOM     15  O   UNL A   1      40.428  32.503  34.709  1.00  0.00    -0.493 OA
ATOM     16  C   UNL A   1      40.454  33.784  34.095  1.00  0.00     0.278 C 
ENDBRANCH  10  15
BRANCH  12  17
ATOM     17  C   UNL A   1      42.053  28.447  32.363  1.00  0.00     0.029 C 
ATOM     18  C   UNL A   1      42.894  27.652  33.060  1.00  0.00     0.081 C 
ATOM     19  S   UNL A   1      44.227  26.832  32.335  1.00  0.00    -0.054 SA
ATOM     20  C   UNL A   1      42.911  27.380  34.540  1.00  0.00     0.270 C 
ATOM     21  C   UNL A   1      44.893  26.307  33.886  1.00  0.00     0.152 C 
ATOM     22  N   UNL A   1      44.097  26.772  34.916  1.00  0.00    -0.261 N 
ATOM     23  O   UNL A   1      41.983  27.634  35.293  1.00  0.00    -0.268 OA
ATOM     24  S   UNL A   1      46.231  25.315  33.994  1.00  0.00    -0.051 S 
BRANCH  22  25
ATOM     25  C   UNL A   1      44.367  26.512  36.296  1.00  0.00     0.054 A 
ATOM     26  C   UNL A   1      45.084  27.469  37.035  1.00  0.00     0.027 A 
ATOM     27  C   UNL A   1      43.912  25.347  36.948  1.00  0.00    -0.027 A 
ATOM     28  C   UNL A   1      45.268  27.325  38.411  1.00  0.00     0.005 A 
ATOM     29  C   UNL A   1      44.080  25.234  38.341  1.00  0.00     0.009 A 
ATOM     30  C   UNL A   1      43.280  24.173  36.245  1.00  0.00     0.046 C 
ATOM     31  C   UNL A   1      44.737  26.222  39.079  1.00  0.00    -0.051 A 
ATOM     32  C   UNL A   1      44.899  26.092  40.565  1.00  0.00     0.044 C 
ENDBRANCH  22  25
ENDBRANCH  12  17
ENDBRANCH   8   9
ENDBRANCH   6   8
ENDBRANCH   3   6
ENDBRANCH   1   2
BRANCH   1  33
ATOM     33  C   UNL A   1      34.852  32.994  29.469  1.00  0.00     0.042 C 
BRANCH  33  34
ATOM     34  C   UNL A   1      34.285  32.759  28.070  1.00  0.00     0.118 C 
BRANCH  34  35
ATOM     35  N   UNL A   1      33.797  31.407  27.834  1.00  0.00    -0.352 N 
ATOM     36  C   UNL A   1      34.377  30.161  27.843  1.00  0.00     0.251 C 
ATOM     37  H   UNL A   1      32.835  31.379  27.621  1.00  0.00     0.163 HD
ATOM     38  O   UNL A   1      33.648  29.210  27.551  1.00  0.00    -0.269 OA
BRANCH  36  39
ATOM     39  C   UNL A   1      35.809  29.887  28.158  1.00  0.00     0.039 A 
ATOM     40  C   UNL A   1      36.134  29.520  29.477  1.00  0.00     0.014 A 
ATOM     41  C   UNL A   1      36.855  30.040  27.253  1.00  0.00     0.014 A 
ATOM     42  C   UNL A   1      37.463  29.292  29.870  1.00  0.00     0.010 A 
ATOM     43  C   UNL A   1      38.162  29.697  27.613  1.00  0.00     0.010 A 
ATOM     44  C   UNL A   1      38.499  29.347  28.934  1.00  0.00    -0.014 A 
BRANCH  44  45
ATOM     45  C   UNL A   1      39.935  29.082  29.270  1.00  0.00     0.031 A 
ATOM     46  C   UNL A   1      40.848  30.242  29.602  1.00  0.00     0.074 A 
ATOM     47  C   UNL A   1      40.476  27.856  29.094  1.00  0.00     0.049 A 
ATOM     48  N   UNL A   1      42.157  30.297  29.646  1.00  0.00    -0.248 NA
ATOM     49  C   UNL A   1      40.193  31.531  29.891  1.00  0.00     0.031 C 
ATOM     50  C   UNL A   1      39.749  26.641  28.722  1.00  0.00     0.029 A 
ATOM     51  N   UNL A   1      41.800  27.469  29.055  1.00  0.00    -0.354 N 
ATOM     52  C   UNL A   1      42.473  31.611  29.968  1.00  0.00     0.074 A 
ATOM     53  C   UNL A   1      41.230  32.349  29.988  1.00  0.00     0.031 C 
ATOM     54  C   UNL A   1      40.627  25.698  28.345  1.00  0.00     0.029 A 
ATOM     55  C   UNL A   1      41.978  26.235  28.467  1.00  0.00     0.049 A 
ATOM     56  H   UNL A   1      42.539  28.015  29.409  1.00  0.00     0.167 HD
ATOM     57  C   UNL A   1      43.678  32.143  30.290  1.00  0.00     0.037 A 
ATOM     58  C   UNL A   1      43.090  25.624  28.020  1.00  0.00     0.037 A 
ATOM     59  C   UNL A   1      44.907  31.394  30.311  1.00  0.00     0.049 A 
ATOM     60  C   UNL A   1      44.432  26.241  28.288  1.00  0.00     0.074 A 
ATOM     61  C   UNL A   1      46.147  31.770  30.795  1.00  0.00     0.029 A 
ATOM     62  N   UNL A   1      45.049  30.111  29.804  1.00  0.00    -0.354 N 
ATOM     63  N   UNL A   1      44.716  27.426  28.767  1.00  0.00    -0.248 NA
ATOM     64  C   UNL A   1      45.607  25.398  28.028  1.00  0.00     0.031 C 
ATOM     65  C   UNL A   1      47.050  30.731  30.543  1.00  0.00     0.029 A 
ATOM     66  C   UNL A   1      46.362  29.689  29.945  1.00  0.00     0.049 A 
ATOM     67  H   UNL A   1      44.325  29.579  29.403  1.00  0.00     0.167 HD
ATOM     68  C   UNL A   1      46.090  27.435  28.961  1.00  0.00     0.074 A 
ATOM     69  C   UNL A   1      46.587  26.156  28.499  1.00  0.00     0.031 C 
ATOM     70  C   UNL A   1      46.855  28.404  29.520  1.00  0.00     0.037 A 
BRANCH  57  71
ATOM     71  C   UNL A   1      43.714  33.586  30.719  1.00  0.00     0.064 A 
ATOM     72  C   UNL A   1      43.598  33.948  32.071  1.00  0.00     0.173 A 
ATOM     73  C   UNL A   1      43.907  34.614  29.785  1.00  0.00     0.173 A 
ATOM     74  F   UNL A   1      43.417  33.006  33.010  1.00  0.00    -0.203 F 
ATOM     75  C   UNL A   1      43.623  35.283  32.466  1.00  0.00     0.198 A 
ATOM     76  C   UNL A   1      43.969  35.947  30.188  1.00  0.00     0.198 A 
ATOM     77  F   UNL A   1      44.041  34.331  28.480  1.00  0.00    -0.203 F 
ATOM     78  F   UNL A   1      43.444  35.601  33.756  1.00  0.00    -0.200 F 
ATOM     79  C   UNL A   1      43.815  36.281  31.525  1.00  0.00     0.200 A 
ATOM     80  F   UNL A   1      44.173  36.912  29.281  1.00  0.00    -0.200 F 
ATOM     81  F   UNL A   1      43.844  37.566  31.907  1.00  0.00    -0.200 F 
ENDBRANCH  57  71
BRANCH  58  82
ATOM     82  C   UNL A   1      42.989  24.310  27.336  1.00  0.00     0.064 A 
ATOM     83  C   UNL A   1      43.218  24.209  25.957  1.00  0.00     0.173 A 
ATOM     84  C   UNL A   1      42.665  23.138  28.035  1.00  0.00     0.173 A 
ATOM     85  F   UNL A   1      43.503  25.309  25.247  1.00  0.00    -0.203 F 
ATOM     86  C   UNL A   1      43.114  22.986  25.299  1.00  0.00     0.198 A 
ATOM     87  C   UNL A   1      42.579  21.912  27.378  1.00  0.00     0.198 A 
ATOM     88  F   UNL A   1      42.426  23.181  29.352  1.00  0.00    -0.203 F 
ATOM     89  F   UNL A   1      43.304  22.924  23.975  1.00  0.00    -0.200 F 
ATOM     90  C   UNL A   1      42.798  21.837  26.010  1.00  0.00     0.200 A 
ATOM     91  F   UNL A   1      42.277  20.802  28.067  1.00  0.00    -0.200 F 
ATOM     92  F   UNL A   1      42.698  20.662  25.376  1.00  0.00    -0.200 F 
ENDBRANCH  58  82
BRANCH  70  93
ATOM     93  C   UNL A   1      48.293  28.074  29.790  1.00  0.00     0.064 A 
ATOM     94  C   UNL A   1      48.731  27.568  31.021  1.00  0.00     0.173 A 
ATOM     95  C   UNL A   1      49.250  28.266  28.781  1.00  0.00     0.173 A 
ATOM     96  F   UNL A   1      47.859  27.385  32.025  1.00  0.00    -0.203 F 
ATOM     97  C   UNL A   1      50.079  27.296  31.243  1.00  0.00     0.198 A 
ATOM     98  C   UNL A   1      50.592  27.964  28.995  1.00  0.00     0.198 A 
ATOM     99  F   UNL A   1      48.885  28.747  27.583  1.00  0.00    -0.203 F 
ATOM    100  F   UNL A   1      50.485  26.869  32.446  1.00  0.00    -0.200 F 
ATOM    101  C   UNL A   1      51.006  27.488  30.228  1.00  0.00     0.200 A 
ATOM    102  F   UNL A   1      51.482  28.139  28.009  1.00  0.00    -0.200 F 
ATOM    103  F   UNL A   1      52.303  27.225  30.444  1.00  0.00    -0.200 F 
ENDBRANCH  70  93
ENDBRANCH  44  45
ENDBRANCH  36  39
ENDBRANCH  34  35
ENDBRANCH  33  34
ENDBRANCH   1  33
TORSDOF 15
ENDMDL
MODEL 2
REMARK VINA RESULT:      -9.6      4.717      9.303
REMARK SMILES COc1cc(/C=C2/SC(=S)N(c3ccc(C)cc3C)C2=O)ccc1O[C@@H](C)C(=O)NCCCNC(=O)c1ccc(-c2c3nc(c(-c4c(F)c(F)c(F)c(F)c4F)c4ccc([nH]4)c(-c4c(F)c(F)c(F)c(F)c4F)c4nc(c(-c5c(F)c(F)c(F)c(F)c5F)c5ccc2[nH]5)C=C4)C=C3)cc1
REMARK SMILES IDX 31 1 30 2 28 3 29 4 26 6 27 7 25 8 24 9 3 10 4 11 5 12 23 13
REMARK SMILES IDX 22 14 2 15 1 16 6 17 7 18 8 19 20 20 9 21 11 22 21 23 10 24
REMARK SMILES IDX 12 25 13 26 18 27 14 28 17 29 19 30 15 31 16 32 32 33 33 34
REMARK SMILES IDX 34 35 35 36 36 38 37 39 38 40 99 41 39 42 98 43 40 44 41 45
REMARK SMILES IDX 42 46 92 47 43 48 97 49 91 50 93 51 44 52 96 53 90 54 89 55
REMARK SMILES IDX 45 57 77 58 57 59 76 60 58 61 61 62 75 63 94 64 59 65 60 66
REMARK SMILES IDX 74 68 95 69 62 70 46 71 47 72 55 73 48 74 49 75 53 76 56 77
REMARK SMILES IDX 50 78 51 79 54 80 52 81 78 82 79 83 87 84 80 85 81 86 85 87
REMARK SMILES IDX 88 88 82 89 83 90 86 91 84 92 63 93 64 94 72 95 65 96 66 97
REMARK SMILES IDX 70 98 73 99 67 100 68 101 71 102 69 103
REMARK H PARENT 30 5 34 37 93 56 61 67
REMARK Flexibility Score: inf
ROOT
ATOM      1  C   UNL A   1      35.588  23.888  25.589  1.00  0.00     0.118 C 
ENDROOT
BRANCH   1   2
ATOM      2  N   UNL A   1      34.629  24.113  24.530  1.00  0.00    -0.353 N 
ATOM      3  C   UNL A   1      33.402  24.656  24.402  1.00  0.00     0.260 C 
ATOM      4  O   UNL A   1      33.082  24.803  23.205  1.00  0.00    -0.271 OA
ATOM      5  H   UNL A   1      34.964  23.776  23.668  1.00  0.00     0.163 HD
BRANCH   3   6
ATOM      6  C   UNL A   1      32.367  25.168  25.497  1.00  0.00     0.259 C 
ATOM      7  C   UNL A   1      32.053  24.014  26.465  1.00  0.00     0.064 C 
BRANCH   6   8
ATOM      8  O   UNL A   1      31.323  26.095  25.679  1.00  0.00    -0.477 OA
BRANCH   8   9
ATOM      9  C   UNL A   1      31.592  27.398  25.896  1.00  0.00     0.162 A 
ATOM     10  C   UNL A   1      31.686  28.372  24.901  1.00  0.00     0.161 A 
ATOM     11  C   UNL A   1      32.051  29.682  25.255  1.00  0.00     0.058 A 
ATOM     12  C   UNL A   1      32.222  30.015  26.612  1.00  0.00    -0.020 A 
ATOM     13  C   UNL A   1      31.549  27.783  27.230  1.00  0.00     0.051 A 
ATOM     14  C   UNL A   1      31.803  29.098  27.581  1.00  0.00     0.012 A 
BRANCH  10  15
ATOM     15  O   UNL A   1      31.190  28.075  23.657  1.00  0.00    -0.493 OA
ATOM     16  C   UNL A   1      29.975  28.711  23.286  1.00  0.00     0.278 C 
ENDBRANCH  10  15
BRANCH  12  17
ATOM     17  C   UNL A   1      32.832  31.276  27.071  1.00  0.00     0.029 C 
ATOM     18  C   UNL A   1      34.104  31.387  27.512  1.00  0.00     0.081 C 
ATOM     19  S   UNL A   1      34.719  32.818  28.252  1.00  0.00    -0.054 SA
ATOM     20  C   UNL A   1      35.182  30.336  27.531  1.00  0.00     0.270 C 
ATOM     21  C   UNL A   1      36.236  32.050  28.736  1.00  0.00     0.152 C 
ATOM     22  N   UNL A   1      36.239  30.729  28.335  1.00  0.00    -0.261 N 
ATOM     23  O   UNL A   1      35.134  29.297  26.892  1.00  0.00    -0.268 OA
ATOM     24  S   UNL A   1      37.470  32.898  29.475  1.00  0.00    -0.051 S 
BRANCH  22  25
ATOM     25  C   UNL A   1      37.331  29.836  28.575  1.00  0.00     0.054 A 
ATOM     26  C   UNL A   1      38.218  29.558  27.521  1.00  0.00     0.027 A 
ATOM     27  C   UNL A   1      37.566  29.254  29.838  1.00  0.00    -0.027 A 
ATOM     28  C   UNL A   1      39.368  28.794  27.732  1.00  0.00     0.005 A 
ATOM     29  C   UNL A   1      38.745  28.513  30.038  1.00  0.00     0.009 A 
ATOM     30  C   UNL A   1      36.610  29.335  31.000  1.00  0.00     0.046 C 
ATOM     31  C   UNL A   1      39.656  28.295  29.001  1.00  0.00    -0.051 A 
ATOM     32  C   UNL A   1      40.914  27.512  29.235  1.00  0.00     0.044 C 
ENDBRANCH  22  25
ENDBRANCH  12  17
ENDBRANCH   8   9
ENDBRANCH   6   8
ENDBRANCH   3   6
ENDBRANCH   1   2
BRANCH   1  33
ATOM     33  C   UNL A   1      37.008  23.693  25.092  1.00  0.00     0.042 C 
BRANCH  33  34
ATOM     34  C   UNL A   1      38.043  23.272  26.135  1.00  0.00     0.118 C 
BRANCH  34  35
ATOM     35  N   UNL A   1      38.530  21.907  25.986  1.00  0.00    -0.352 N 
ATOM     36  C   UNL A   1      39.749  21.297  26.161  1.00  0.00     0.251 C 
ATOM     37  H   UNL A   1      37.828  21.280  25.695  1.00  0.00     0.163 HD
ATOM     38  O   UNL A   1      39.808  20.094  25.898  1.00  0.00    -0.269 OA
BRANCH  36  39
ATOM     39  C   UNL A   1      40.990  21.985  26.622  1.00  0.00     0.039 A 
ATOM     40  C   UNL A   1      42.158  21.212  26.759  1.00  0.00     0.014 A 
ATOM     41  C   UNL A   1      41.053  23.324  26.995  1.00  0.00     0.014 A 
ATOM     42  C   UNL A   1      43.357  21.770  27.234  1.00  0.00     0.010 A 
ATOM     43  C   UNL A   1      42.273  23.905  27.354  1.00  0.00     0.010 A 
ATOM     44  C   UNL A   1      43.442  23.137  27.511  1.00  0.00    -0.014 A 
BRANCH  44  45
ATOM     45  C   UNL A   1      44.694  23.810  27.987  1.00  0.00     0.031 A 
ATOM     46  C   UNL A   1      44.812  24.221  29.438  1.00  0.00     0.074 A 
ATOM     47  C   UNL A   1      45.634  24.229  27.111  1.00  0.00     0.049 A 
ATOM     48  N   UNL A   1      45.652  25.048  30.012  1.00  0.00    -0.248 NA
ATOM     49  C   UNL A   1      43.822  23.645  30.366  1.00  0.00     0.031 C 
ATOM     50  C   UNL A   1      45.646  23.967  25.671  1.00  0.00     0.029 A 
ATOM     51  N   UNL A   1      46.685  25.105  27.292  1.00  0.00    -0.354 N 
ATOM     52  C   UNL A   1      45.292  25.084  31.354  1.00  0.00     0.074 A 
ATOM     53  C   UNL A   1      44.088  24.295  31.488  1.00  0.00     0.031 C 
ATOM     54  C   UNL A   1      46.542  24.774  25.081  1.00  0.00     0.029 A 
ATOM     55  C   UNL A   1      47.180  25.596  26.103  1.00  0.00     0.049 A 
ATOM     56  H   UNL A   1      47.044  25.352  28.175  1.00  0.00     0.167 HD
ATOM     57  C   UNL A   1      45.943  25.660  32.395  1.00  0.00     0.037 A 
ATOM     58  C   UNL A   1      48.006  26.629  25.852  1.00  0.00     0.037 A 
ATOM     59  C   UNL A   1      47.166  26.408  32.262  1.00  0.00     0.049 A 
ATOM     60  C   UNL A   1      48.671  27.339  26.996  1.00  0.00     0.074 A 
ATOM     61  C   UNL A   1      48.012  26.876  33.253  1.00  0.00     0.029 A 
ATOM     62  N   UNL A   1      47.707  26.813  31.052  1.00  0.00    -0.354 N 
ATOM     63  N   UNL A   1      48.445  27.229  28.280  1.00  0.00    -0.248 NA
ATOM     64  C   UNL A   1      49.765  28.258  26.652  1.00  0.00     0.031 C 
ATOM     65  C   UNL A   1      49.042  27.600  32.643  1.00  0.00     0.029 A 
ATOM     66  C   UNL A   1      48.865  27.543  31.271  1.00  0.00     0.049 A 
ATOM     67  H   UNL A   1      47.326  26.612  30.167  1.00  0.00     0.167 HD
ATOM     68  C   UNL A   1      49.430  27.984  28.903  1.00  0.00     0.074 A 
ATOM     69  C   UNL A   1      50.222  28.587  27.852  1.00  0.00     0.031 C 
ATOM     70  C   UNL A   1      49.677  28.116  30.229  1.00  0.00     0.037 A 
BRANCH  57  71
ATOM     71  C   UNL A   1      45.388  25.440  33.777  1.00  0.00     0.064 A 
ATOM     72  C   UNL A   1      45.750  24.316  34.538  1.00  0.00     0.173 A 
ATOM     73  C   UNL A   1      44.522  26.372  34.366  1.00  0.00     0.173 A 
ATOM     74  F   UNL A   1      46.580  23.393  34.028  1.00  0.00    -0.203 F 
ATOM     75  C   UNL A   1      45.229  24.109  35.812  1.00  0.00     0.198 A 
ATOM     76  C   UNL A   1      44.032  26.181  35.657  1.00  0.00     0.198 A 
ATOM     77  F   UNL A   1      44.152  27.474  33.696  1.00  0.00    -0.203 F 
ATOM     78  F   UNL A   1      45.541  22.993  36.487  1.00  0.00    -0.200 F 
ATOM     79  C   UNL A   1      44.375  25.044  36.373  1.00  0.00     0.200 A 
ATOM     80  F   UNL A   1      43.220  27.094  36.208  1.00  0.00    -0.200 F 
ATOM     81  F   UNL A   1      43.878  24.846  37.602  1.00  0.00    -0.200 F 
ENDBRANCH  57  71
BRANCH  58  82
ATOM     82  C   UNL A   1      48.316  27.006  24.450  1.00  0.00     0.064 A 
ATOM     83  C   UNL A   1      49.541  26.644  23.873  1.00  0.00     0.173 A 
ATOM     84  C   UNL A   1      47.408  27.729  23.663  1.00  0.00     0.173 A 
ATOM     85  F   UNL A   1      50.448  25.975  24.599  1.00  0.00    -0.203 F 
ATOM     86  C   UNL A   1      49.852  27.001  22.563  1.00  0.00     0.198 A 
ATOM     87  C   UNL A   1      47.714  28.071  22.347  1.00  0.00     0.198 A 
ATOM     88  F   UNL A   1      46.228  28.110  24.169  1.00  0.00    -0.203 F 
ATOM     89  F   UNL A   1      51.044  26.671  22.048  1.00  0.00    -0.200 F 
ATOM     90  C   UNL A   1      48.937  27.711  21.800  1.00  0.00     0.200 A 
ATOM     91  F   UNL A   1      46.828  28.754  21.609  1.00  0.00    -0.200 F 
ATOM     92  F   UNL A   1      49.238  28.054  20.540  1.00  0.00    -0.200 F 
ENDBRANCH  58  82
BRANCH  70  93
ATOM     93  C   UNL A   1      50.932  28.836  30.625  1.00  0.00     0.064 A 
ATOM     94  C   UNL A   1      50.966  30.218  30.853  1.00  0.00     0.173 A 
ATOM     95  C   UNL A   1      52.126  28.114  30.783  1.00  0.00     0.173 A 
ATOM     96  F   UNL A   1      49.857  30.957  30.695  1.00  0.00    -0.203 F 
ATOM     97  C   UNL A   1      52.157  30.856  31.195  1.00  0.00     0.198 A 
ATOM     98  C   UNL A   1      53.307  28.750  31.156  1.00  0.00     0.198 A 
ATOM     99  F   UNL A   1      52.148  26.789  30.578  1.00  0.00    -0.203 F 
ATOM    100  F   UNL A   1      52.180  32.187  31.351  1.00  0.00    -0.200 F 
ATOM    101  C   UNL A   1      53.323  30.121  31.352  1.00  0.00     0.200 A 
ATOM    102  F   UNL A   1      54.428  28.035  31.318  1.00  0.00    -0.200 F 
ATOM    103  F   UNL A   1      54.467  30.737  31.682  1.00  0.00    -0.200 F 
ENDBRANCH  70  93
ENDBRANCH  44  45
ENDBRANCH  36  39
ENDBRANCH  34  35
ENDBRANCH  33  34
ENDBRANCH   1  33
TORSDOF 15
ENDMDL
MODEL 3
REMARK VINA RESULT:      -9.6      4.297     10.564
REMARK SMILES COc1cc(/C=C2/SC(=S)N(c3ccc(C)cc3C)C2=O)ccc1O[C@@H](C)C(=O)NCCCNC(=O)c1ccc(-c2c3nc(c(-c4c(F)c(F)c(F)c(F)c4F)c4ccc([nH]4)c(-c4c(F)c(F)c(F)c(F)c4F)c4nc(c(-c5c(F)c(F)c(F)c(F)c5F)c5ccc2[nH]5)C=C4)C=C3)cc1
REMARK SMILES IDX 31 1 30 2 28 3 29 4 26 6 27 7 25 8 24 9 3 10 4 11 5 12 23 13
REMARK SMILES IDX 22 14 2 15 1 16 6 17 7 18 8 19 20 20 9 21 11 22 21 23 10 24
REMARK SMILES IDX 12 25 13 26 18 27 14 28 17 29 19 30 15 31 16 32 32 33 33 34
REMARK SMILES IDX 34 35 35 36 36 38 37 39 38 40 99 41 39 42 98 43 40 44 41 45
REMARK SMILES IDX 42 46 92 47 43 48 97 49 91 50 93 51 44 52 96 53 90 54 89 55
REMARK SMILES IDX 45 57 77 58 57 59 76 60 58 61 61 62 75 63 94 64 59 65 60 66
REMARK SMILES IDX 74 68 95 69 62 70 46 71 47 72 55 73 48 74 49 75 53 76 56 77
REMARK SMILES IDX 50 78 51 79 54 80 52 81 78 82 79 83 87 84 80 85 81 86 85 87
REMARK SMILES IDX 88 88 82 89 83 90 86 91 84 92 63 93 64 94 72 95 65 96 66 97
REMARK SMILES IDX 70 98 73 99 67 100 68 101 71 102 69 103
REMARK H PARENT 30 5 34 37 93 56 61 67
REMARK Flexibility Score: inf
ROOT
ATOM      1  C   UNL A   1      42.760  22.187  25.828  1.00  0.00     0.118 C 
ENDROOT
BRANCH   1   2
ATOM      2  N   UNL A   1      44.069  21.679  25.482  1.00  0.00    -0.353 N 
ATOM      3  C   UNL A   1      45.334  22.144  25.437  1.00  0.00     0.260 C 
ATOM      4  O   UNL A   1      46.161  21.224  25.271  1.00  0.00    -0.271 OA
ATOM      5  H   UNL A   1      44.024  20.737  25.202  1.00  0.00     0.163 HD
BRANCH   3   6
ATOM      6  C   UNL A   1      45.913  23.616  25.612  1.00  0.00     0.259 C 
ATOM      7  C   UNL A   1      45.863  23.998  27.101  1.00  0.00     0.064 C 
BRANCH   6   8
ATOM      8  O   UNL A   1      46.048  24.836  24.924  1.00  0.00    -0.477 OA
BRANCH   8   9
ATOM      9  C   UNL A   1      45.828  26.008  25.553  1.00  0.00     0.162 A 
ATOM     10  C   UNL A   1      46.809  26.777  26.180  1.00  0.00     0.161 A 
ATOM     11  C   UNL A   1      46.431  27.943  26.869  1.00  0.00     0.058 A 
ATOM     12  C   UNL A   1      45.089  28.367  26.837  1.00  0.00    -0.020 A 
ATOM     13  C   UNL A   1      44.563  26.545  25.347  1.00  0.00     0.051 A 
ATOM     14  C   UNL A   1      44.216  27.749  25.936  1.00  0.00     0.012 A 
BRANCH  10  15
ATOM     15  O   UNL A   1      48.123  26.501  25.901  1.00  0.00    -0.493 OA
ATOM     16  C   UNL A   1      48.855  27.507  25.216  1.00  0.00     0.278 C 
ENDBRANCH  10  15
BRANCH  12  17
ATOM     17  C   UNL A   1      44.547  29.422  27.711  1.00  0.00     0.029 C 
ATOM     18  C   UNL A   1      44.947  30.713  27.681  1.00  0.00     0.081 C 
ATOM     19  S   UNL A   1      44.463  31.873  28.862  1.00  0.00    -0.054 SA
ATOM     20  C   UNL A   1      45.904  31.372  26.724  1.00  0.00     0.270 C 
ATOM     21  C   UNL A   1      45.581  33.108  28.269  1.00  0.00     0.152 C 
ATOM     22  N   UNL A   1      46.299  32.612  27.199  1.00  0.00    -0.261 N 
ATOM     23  O   UNL A   1      46.250  30.885  25.660  1.00  0.00    -0.268 OA
ATOM     24  S   UNL A   1      45.623  34.652  28.902  1.00  0.00    -0.051 S 
BRANCH  22  25
ATOM     25  C   UNL A   1      47.285  33.371  26.493  1.00  0.00     0.054 A 
ATOM     26  C   UNL A   1      46.859  34.419  25.659  1.00  0.00     0.027 A 
ATOM     27  C   UNL A   1      48.667  33.127  26.631  1.00  0.00    -0.027 A 
ATOM     28  C   UNL A   1      47.780  35.270  25.046  1.00  0.00     0.005 A 
ATOM     29  C   UNL A   1      49.580  34.013  26.030  1.00  0.00     0.009 A 
ATOM     30  C   UNL A   1      49.251  31.942  27.357  1.00  0.00     0.046 C 
ATOM     31  C   UNL A   1      49.148  35.092  25.255  1.00  0.00    -0.051 A 
ATOM     32  C   UNL A   1      50.133  36.034  24.630  1.00  0.00     0.044 C 
ENDBRANCH  22  25
ENDBRANCH  12  17
ENDBRANCH   8   9
ENDBRANCH   6   8
ENDBRANCH   3   6
ENDBRANCH   1   2
BRANCH   1  33
ATOM     33  C   UNL A   1      41.756  21.102  26.164  1.00  0.00     0.042 C 
BRANCH  33  34
ATOM     34  C   UNL A   1      40.607  21.500  27.089  1.00  0.00     0.118 C 
BRANCH  34  35
ATOM     35  N   UNL A   1      39.426  22.007  26.403  1.00  0.00    -0.352 N 
ATOM     36  C   UNL A   1      38.833  23.243  26.298  1.00  0.00     0.251 C 
ATOM     37  H   UNL A   1      38.945  21.309  25.901  1.00  0.00     0.163 HD
ATOM     38  O   UNL A   1      37.789  23.300  25.645  1.00  0.00    -0.269 OA
BRANCH  36  39
ATOM     39  C   UNL A   1      39.347  24.495  26.925  1.00  0.00     0.039 A 
ATOM     40  C   UNL A   1      38.940  24.787  28.239  1.00  0.00     0.014 A 
ATOM     41  C   UNL A   1      40.145  25.429  26.271  1.00  0.00     0.014 A 
ATOM     42  C   UNL A   1      39.339  25.969  28.886  1.00  0.00     0.010 A 
ATOM     43  C   UNL A   1      40.638  26.545  26.955  1.00  0.00     0.010 A 
ATOM     44  C   UNL A   1      40.223  26.855  28.264  1.00  0.00    -0.014 A 
BRANCH  44  45
ATOM     45  C   UNL A   1      40.720  28.116  28.903  1.00  0.00     0.031 A 
ATOM     46  C   UNL A   1      41.995  28.085  29.717  1.00  0.00     0.074 A 
ATOM     47  C   UNL A   1      39.955  29.229  28.929  1.00  0.00     0.049 A 
ATOM     48  N   UNL A   1      42.463  28.956  30.578  1.00  0.00    -0.248 NA
ATOM     49  C   UNL A   1      42.843  26.890  29.564  1.00  0.00     0.031 C 
ATOM     50  C   UNL A   1      38.673  29.410  28.244  1.00  0.00     0.029 A 
ATOM     51  N   UNL A   1      40.079  30.372  29.694  1.00  0.00    -0.354 N 
ATOM     52  C   UNL A   1      43.649  28.415  31.058  1.00  0.00     0.074 A 
ATOM     53  C   UNL A   1      43.769  27.091  30.488  1.00  0.00     0.031 C 
ATOM     54  C   UNL A   1      38.062  30.502  28.729  1.00  0.00     0.029 A 
ATOM     55  C   UNL A   1      38.916  31.109  29.744  1.00  0.00     0.049 A 
ATOM     56  H   UNL A   1      40.910  30.633  30.154  1.00  0.00     0.167 HD
ATOM     57  C   UNL A   1      44.592  28.992  31.844  1.00  0.00     0.037 A 
ATOM     58  C   UNL A   1      38.547  32.120  30.552  1.00  0.00     0.037 A 
ATOM     59  C   UNL A   1      44.489  30.326  32.374  1.00  0.00     0.049 A 
ATOM     60  C   UNL A   1      39.552  32.717  31.495  1.00  0.00     0.074 A 
ATOM     61  C   UNL A   1      45.451  31.082  33.021  1.00  0.00     0.029 A 
ATOM     62  N   UNL A   1      43.338  31.097  32.330  1.00  0.00    -0.354 N 
ATOM     63  N   UNL A   1      40.750  32.291  31.804  1.00  0.00    -0.248 NA
ATOM     64  C   UNL A   1      39.178  33.985  32.138  1.00  0.00     0.031 C 
ATOM     65  C   UNL A   1      44.869  32.295  33.406  1.00  0.00     0.029 A 
ATOM     66  C   UNL A   1      43.559  32.314  32.957  1.00  0.00     0.049 A 
ATOM     67  H   UNL A   1      42.489  30.822  31.916  1.00  0.00     0.167 HD
ATOM     68  C   UNL A   1      41.311  33.284  32.595  1.00  0.00     0.074 A 
ATOM     69  C   UNL A   1      40.303  34.309  32.759  1.00  0.00     0.031 C 
ATOM     70  C   UNL A   1      42.570  33.352  33.093  1.00  0.00     0.037 A 
BRANCH  57  71
ATOM     71  C   UNL A   1      45.851  28.211  32.116  1.00  0.00     0.064 A 
ATOM     72  C   UNL A   1      45.969  27.387  33.248  1.00  0.00     0.173 A 
ATOM     73  C   UNL A   1      46.933  28.250  31.224  1.00  0.00     0.173 A 
ATOM     74  F   UNL A   1      44.963  27.307  34.133  1.00  0.00    -0.203 F 
ATOM     75  C   UNL A   1      47.136  26.674  33.502  1.00  0.00     0.198 A 
ATOM     76  C   UNL A   1      48.086  27.504  31.463  1.00  0.00     0.198 A 
ATOM     77  F   UNL A   1      46.874  29.005  30.117  1.00  0.00    -0.203 F 
ATOM     78  F   UNL A   1      47.244  25.948  34.625  1.00  0.00    -0.200 F 
ATOM     79  C   UNL A   1      48.192  26.727  32.607  1.00  0.00     0.200 A 
ATOM     80  F   UNL A   1      49.101  27.541  30.588  1.00  0.00    -0.200 F 
ATOM     81  F   UNL A   1      49.314  26.035  32.850  1.00  0.00    -0.200 F 
ENDBRANCH  57  71
BRANCH  58  82
ATOM     82  C   UNL A   1      37.180  32.689  30.451  1.00  0.00     0.064 A 
ATOM     83  C   UNL A   1      36.845  33.546  29.393  1.00  0.00     0.173 A 
ATOM     84  C   UNL A   1      36.187  32.396  31.396  1.00  0.00     0.173 A 
ATOM     85  F   UNL A   1      37.773  33.874  28.483  1.00  0.00    -0.203 F 
ATOM     86  C   UNL A   1      35.571  34.099  29.291  1.00  0.00     0.198 A 
ATOM     87  C   UNL A   1      34.907  32.936  31.283  1.00  0.00     0.198 A 
ATOM     88  F   UNL A   1      36.456  31.592  32.433  1.00  0.00    -0.203 F 
ATOM     89  F   UNL A   1      35.289  34.942  28.289  1.00  0.00    -0.200 F 
ATOM     90  C   UNL A   1      34.601  33.791  30.233  1.00  0.00     0.200 A 
ATOM     91  F   UNL A   1      33.970  32.635  32.193  1.00  0.00    -0.200 F 
ATOM     92  F   UNL A   1      33.376  34.323  30.134  1.00  0.00    -0.200 F 
ENDBRANCH  58  82
BRANCH  70  93
ATOM     93  C   UNL A   1      42.979  34.636  33.753  1.00  0.00     0.064 A 
ATOM     94  C   UNL A   1      43.400  35.756  33.024  1.00  0.00     0.173 A 
ATOM     95  C   UNL A   1      42.936  34.741  35.152  1.00  0.00     0.173 A 
ATOM     96  F   UNL A   1      43.478  35.701  31.685  1.00  0.00    -0.203 F 
ATOM     97  C   UNL A   1      43.797  36.923  33.673  1.00  0.00     0.198 A 
ATOM     98  C   UNL A   1      43.302  35.919  35.797  1.00  0.00     0.198 A 
ATOM     99  F   UNL A   1      42.539  33.699  35.898  1.00  0.00    -0.203 F 
ATOM    100  F   UNL A   1      44.253  37.962  32.961  1.00  0.00    -0.200 F 
ATOM    101  C   UNL A   1      43.740  37.006  35.057  1.00  0.00     0.200 A 
ATOM    102  F   UNL A   1      43.235  35.999  37.132  1.00  0.00    -0.200 F 
ATOM    103  F   UNL A   1      44.121  38.130  35.680  1.00  0.00    -0.200 F 
ENDBRANCH  70  93
ENDBRANCH  44  45
ENDBRANCH  36  39
ENDBRANCH  34  35
ENDBRANCH  33  34
ENDBRANCH   1  33
TORSDOF 15
ENDMDL
