MODEL 1
REMARK VINA RESULT:     -10.7      0.000      0.000
REMARK SMILES C=CCNC(=O)C[NH2+][C@](C)(C(=O)NCCCNC(=O)c1ccc(-c2c3nc(c(-c4c(F)c(F)c(F)c(F)c4F)c4ccc([nH]4)c(-c4c(F)c(F)c(F)c(F)c4F)c4nc(c(-c5c(F)c(F)c(F)c(F)c5F)c5ccc2[nH]5)C=C4)C=C3)cc1)C(F)(F)F
REMARK SMILES IDX 11 1 12 2 13 3 9 5 10 6 8 7 7 10 5 11 4 12 6 14 3 15 2 16
REMARK SMILES IDX 1 17 83 18 84 19 85 20 86 21 14 22 15 23 16 24 17 25 18 26
REMARK SMILES IDX 19 28 20 29 21 30 82 31 22 32 81 33 23 34 24 35 25 36 75 37
REMARK SMILES IDX 26 38 80 39 74 40 76 41 27 42 79 43 73 44 72 45 28 47 60 48
REMARK SMILES IDX 40 49 59 50 41 51 44 52 58 53 77 54 42 55 43 56 57 58 78 59
REMARK SMILES IDX 45 60 29 61 30 62 38 63 31 64 32 65 36 66 39 67 33 68 34 69
REMARK SMILES IDX 37 70 35 71 61 72 62 73 70 74 63 75 64 76 68 77 71 78 65 79
REMARK SMILES IDX 66 80 69 81 67 82 46 83 47 84 55 85 48 86 49 87 53 88 56 89
REMARK SMILES IDX 50 90 51 91 54 92 52 93
REMARK H PARENT 13 4 8 8 8 9 4 13 17 27 76 46 44 57
REMARK Flexibility Score: inf
ROOT
ATOM      1  C   UNL A   1      36.326  22.608  23.536  1.00  0.00     0.290 C 
ATOM      2  O   UNL A   1      36.679  23.182  22.504  1.00  0.00    -0.267 OA
ATOM      3  N   UNL A   1      37.124  21.570  23.924  1.00  0.00    -0.350 N 
ATOM      4  H   UNL A   1      37.914  21.448  23.349  1.00  0.00     0.163 HD
ENDROOT
BRANCH   1   5
ATOM      5  C   UNL A   1      35.102  23.057  24.361  1.00  0.00     0.268 C 
ATOM      6  C   UNL A   1      34.151  23.912  23.494  1.00  0.00     0.101 C 
BRANCH   5   7
ATOM      7  N   UNL A   1      34.325  21.856  24.827  1.00  0.00    -0.318 N 
ATOM      8  H   UNL A   1      34.889  21.024  24.653  1.00  0.00     0.347 HD
ATOM      9  H   UNL A   1      34.128  22.005  25.817  1.00  0.00     0.347 HD
BRANCH   7  10
ATOM     10  C   UNL A   1      33.021  21.676  24.164  1.00  0.00     0.362 C 
BRANCH  10  11
ATOM     11  C   UNL A   1      32.085  20.926  25.121  1.00  0.00     0.275 C 
ATOM     12  N   UNL A   1      31.109  21.624  25.776  1.00  0.00    -0.348 N 
ATOM     13  H   UNL A   1      30.562  21.108  26.411  1.00  0.00     0.163 HD
ATOM     14  O   UNL A   1      32.183  19.711  25.296  1.00  0.00    -0.268 OA
BRANCH  12  15
ATOM     15  C   UNL A   1      30.779  23.026  25.649  1.00  0.00     0.143 C 
BRANCH  15  16
ATOM     16  C   UNL A   1      31.472  23.755  26.757  1.00  0.00    -0.014 C 
ATOM     17  C   UNL A   1      32.190  24.873  26.591  1.00  0.00     0.006 C 
ENDBRANCH  15  16
ENDBRANCH  12  15
ENDBRANCH  10  11
ENDBRANCH   7  10
ENDBRANCH   5   7
BRANCH   5  18
ATOM     18  C   UNL A   1      35.639  23.996  25.485  1.00  0.00     0.453 C 
ATOM     19  F   UNL A   1      35.126  25.246  25.397  1.00  0.00    -0.164 F 
ATOM     20  F   UNL A   1      35.274  23.518  26.708  1.00  0.00    -0.164 F 
ATOM     21  F   UNL A   1      36.987  24.095  25.511  1.00  0.00    -0.164 F 
ENDBRANCH   5  18
ENDBRANCH   1   5
BRANCH   3  22
ATOM     22  C   UNL A   1      37.048  20.607  25.010  1.00  0.00     0.118 C 
BRANCH  22  23
ATOM     23  C   UNL A   1      38.229  19.649  25.006  1.00  0.00     0.042 C 
BRANCH  23  24
ATOM     24  C   UNL A   1      39.358  20.059  25.943  1.00  0.00     0.118 C 
BRANCH  24  25
ATOM     25  N   UNL A   1      40.449  19.094  25.965  1.00  0.00    -0.352 N 
ATOM     26  C   UNL A   1      41.796  19.283  26.141  1.00  0.00     0.251 C 
ATOM     27  H   UNL A   1      40.176  18.157  25.833  1.00  0.00     0.163 HD
ATOM     28  O   UNL A   1      42.572  18.348  25.937  1.00  0.00    -0.269 OA
BRANCH  26  29
ATOM     29  C   UNL A   1      42.327  20.599  26.550  1.00  0.00     0.039 A 
ATOM     30  C   UNL A   1      42.890  21.431  25.579  1.00  0.00     0.014 A 
ATOM     31  C   UNL A   1      42.291  21.010  27.885  1.00  0.00     0.014 A 
ATOM     32  C   UNL A   1      43.352  22.700  25.935  1.00  0.00     0.010 A 
ATOM     33  C   UNL A   1      42.664  22.308  28.222  1.00  0.00     0.010 A 
ATOM     34  C   UNL A   1      43.205  23.165  27.252  1.00  0.00    -0.014 A 
BRANCH  34  35
ATOM     35  C   UNL A   1      43.620  24.537  27.638  1.00  0.00     0.031 A 
ATOM     36  C   UNL A   1      42.581  25.572  27.974  1.00  0.00     0.074 A 
ATOM     37  C   UNL A   1      44.926  24.869  27.625  1.00  0.00     0.049 A 
ATOM     38  N   UNL A   1      42.738  26.841  28.258  1.00  0.00    -0.248 NA
ATOM     39  C   UNL A   1      41.178  25.131  27.963  1.00  0.00     0.031 C 
ATOM     40  C   UNL A   1      46.025  23.967  27.274  1.00  0.00     0.029 A 
ATOM     41  N   UNL A   1      45.551  26.058  27.907  1.00  0.00    -0.354 N 
ATOM     42  C   UNL A   1      41.458  27.347  28.445  1.00  0.00     0.074 A 
ATOM     43  C   UNL A   1      40.532  26.266  28.184  1.00  0.00     0.031 C 
ATOM     44  C   UNL A   1      47.188  24.628  27.387  1.00  0.00     0.029 A 
ATOM     45  C   UNL A   1      46.917  26.007  27.776  1.00  0.00     0.049 A 
ATOM     46  H   UNL A   1      45.065  26.870  28.178  1.00  0.00     0.167 HD
ATOM     47  C   UNL A   1      41.088  28.593  28.829  1.00  0.00     0.037 A 
ATOM     48  C   UNL A   1      47.845  26.968  27.944  1.00  0.00     0.037 A 
ATOM     49  C   UNL A   1      42.012  29.659  29.112  1.00  0.00     0.049 A 
ATOM     50  C   UNL A   1      47.405  28.348  28.353  1.00  0.00     0.074 A 
ATOM     51  C   UNL A   1      41.740  30.943  29.550  1.00  0.00     0.029 A 
ATOM     52  N   UNL A   1      43.390  29.564  28.983  1.00  0.00    -0.354 N 
ATOM     53  N   UNL A   1      46.195  28.797  28.589  1.00  0.00    -0.248 NA
ATOM     54  C   UNL A   1      48.461  29.355  28.528  1.00  0.00     0.031 C 
ATOM     55  C   UNL A   1      42.950  31.639  29.644  1.00  0.00     0.029 A 
ATOM     56  C   UNL A   1      43.980  30.773  29.317  1.00  0.00     0.049 A 
ATOM     57  H   UNL A   1      43.877  28.758  28.696  1.00  0.00     0.167 HD
ATOM     58  C   UNL A   1      46.348  30.123  28.972  1.00  0.00     0.074 A 
ATOM     59  C   UNL A   1      47.768  30.401  28.953  1.00  0.00     0.031 C 
ATOM     60  C   UNL A   1      45.397  31.028  29.308  1.00  0.00     0.037 A 
BRANCH  47  61
ATOM     61  C   UNL A   1      39.619  28.868  28.975  1.00  0.00     0.064 A 
ATOM     62  C   UNL A   1      38.961  28.709  30.204  1.00  0.00     0.173 A 
ATOM     63  C   UNL A   1      38.869  29.341  27.888  1.00  0.00     0.173 A 
ATOM     64  F   UNL A   1      39.628  28.247  31.273  1.00  0.00    -0.203 F 
ATOM     65  C   UNL A   1      37.602  28.985  30.333  1.00  0.00     0.198 A 
ATOM     66  C   UNL A   1      37.518  29.647  28.027  1.00  0.00     0.198 A 
ATOM     67  F   UNL A   1      39.449  29.517  26.691  1.00  0.00    -0.203 F 
ATOM     68  F   UNL A   1      36.986  28.778  31.505  1.00  0.00    -0.200 F 
ATOM     69  C   UNL A   1      36.884  29.462  29.247  1.00  0.00     0.200 A 
ATOM     70  F   UNL A   1      36.828  30.122  26.981  1.00  0.00    -0.200 F 
ATOM     71  F   UNL A   1      35.579  29.739  29.374  1.00  0.00    -0.200 F 
ENDBRANCH  47  61
BRANCH  48  72
ATOM     72  C   UNL A   1      49.287  26.661  27.747  1.00  0.00     0.064 A 
ATOM     73  C   UNL A   1      49.855  26.669  26.464  1.00  0.00     0.173 A 
ATOM     74  C   UNL A   1      50.120  26.331  28.825  1.00  0.00     0.173 A 
ATOM     75  F   UNL A   1      49.096  26.959  25.398  1.00  0.00    -0.203 F 
ATOM     76  C   UNL A   1      51.191  26.329  26.265  1.00  0.00     0.198 A 
ATOM     77  C   UNL A   1      51.464  26.023  28.629  1.00  0.00     0.198 A 
ATOM     78  F   UNL A   1      49.628  26.315  30.073  1.00  0.00    -0.203 F 
ATOM     79  F   UNL A   1      51.693  26.289  25.023  1.00  0.00    -0.200 F 
ATOM     80  C   UNL A   1      51.997  26.010  27.349  1.00  0.00     0.200 A 
ATOM     81  F   UNL A   1      52.242  25.731  29.680  1.00  0.00    -0.200 F 
ATOM     82  F   UNL A   1      53.281  25.682  27.157  1.00  0.00    -0.200 F 
ENDBRANCH  48  72
BRANCH  60  83
ATOM     83  C   UNL A   1      45.864  32.392  29.732  1.00  0.00     0.064 A 
ATOM     84  C   UNL A   1      46.035  33.434  28.809  1.00  0.00     0.173 A 
ATOM     85  C   UNL A   1      46.111  32.665  31.086  1.00  0.00     0.173 A 
ATOM     86  F   UNL A   1      45.827  33.219  27.502  1.00  0.00    -0.203 F 
ATOM     87  C   UNL A   1      46.464  34.692  29.224  1.00  0.00     0.198 A 
ATOM     88  C   UNL A   1      46.507  33.933  31.501  1.00  0.00     0.198 A 
ATOM     89  F   UNL A   1      45.954  31.706  32.010  1.00  0.00    -0.203 F 
ATOM     90  F   UNL A   1      46.672  35.658  28.318  1.00  0.00    -0.200 F 
ATOM     91  C   UNL A   1      46.693  34.943  30.568  1.00  0.00     0.200 A 
ATOM     92  F   UNL A   1      46.713  34.178  32.802  1.00  0.00    -0.200 F 
ATOM     93  F   UNL A   1      47.099  36.157  30.965  1.00  0.00    -0.200 F 
ENDBRANCH  60  83
ENDBRANCH  34  35
ENDBRANCH  26  29
ENDBRANCH  24  25
ENDBRANCH  23  24
ENDBRANCH  22  23
ENDBRANCH   3  22
TORSDOF 16
ENDMDL
MODEL 2
REMARK VINA RESULT:     -10.6      1.323      2.433
REMARK SMILES C=CCNC(=O)C[NH2+][C@](C)(C(=O)NCCCNC(=O)c1ccc(-c2c3nc(c(-c4c(F)c(F)c(F)c(F)c4F)c4ccc([nH]4)c(-c4c(F)c(F)c(F)c(F)c4F)c4nc(c(-c5c(F)c(F)c(F)c(F)c5F)c5ccc2[nH]5)C=C4)C=C3)cc1)C(F)(F)F
REMARK SMILES IDX 11 1 12 2 13 3 9 5 10 6 8 7 7 10 5 11 4 12 6 14 3 15 2 16
REMARK SMILES IDX 1 17 83 18 84 19 85 20 86 21 14 22 15 23 16 24 17 25 18 26
REMARK SMILES IDX 19 28 20 29 21 30 82 31 22 32 81 33 23 34 24 35 25 36 75 37
REMARK SMILES IDX 26 38 80 39 74 40 76 41 27 42 79 43 73 44 72 45 28 47 60 48
REMARK SMILES IDX 40 49 59 50 41 51 44 52 58 53 77 54 42 55 43 56 57 58 78 59
REMARK SMILES IDX 45 60 29 61 30 62 38 63 31 64 32 65 36 66 39 67 33 68 34 69
REMARK SMILES IDX 37 70 35 71 61 72 62 73 70 74 63 75 64 76 68 77 71 78 65 79
REMARK SMILES IDX 66 80 69 81 67 82 46 83 47 84 55 85 48 86 49 87 53 88 56 89
REMARK SMILES IDX 50 90 51 91 54 92 52 93
REMARK H PARENT 13 4 8 8 8 9 4 13 17 27 76 46 44 57
REMARK Flexibility Score: inf
ROOT
ATOM      1  C   UNL A   1      36.184  22.574  23.632  1.00  0.00     0.290 C 
ATOM      2  O   UNL A   1      36.622  23.317  22.751  1.00  0.00    -0.267 OA
ATOM      3  N   UNL A   1      37.051  21.613  24.065  1.00  0.00    -0.350 N 
ATOM      4  H   UNL A   1      37.940  21.673  23.648  1.00  0.00     0.163 HD
ENDROOT
BRANCH   1   5
ATOM      5  C   UNL A   1      34.776  22.746  24.240  1.00  0.00     0.268 C 
ATOM      6  C   UNL A   1      33.884  23.594  23.307  1.00  0.00     0.101 C 
BRANCH   5   7
ATOM      7  N   UNL A   1      34.113  21.405  24.397  1.00  0.00    -0.318 N 
ATOM      8  H   UNL A   1      34.479  20.783  23.677  1.00  0.00     0.347 HD
ATOM      9  H   UNL A   1      34.324  21.087  25.344  1.00  0.00     0.347 HD
BRANCH   7  10
ATOM     10  C   UNL A   1      32.644  21.431  24.282  1.00  0.00     0.362 C 
BRANCH  10  11
ATOM     11  C   UNL A   1      32.224  20.461  23.170  1.00  0.00     0.275 C 
ATOM     12  N   UNL A   1      32.293  19.116  23.403  1.00  0.00    -0.348 N 
ATOM     13  H   UNL A   1      32.055  18.534  22.647  1.00  0.00     0.163 HD
ATOM     14  O   UNL A   1      31.810  20.867  22.083  1.00  0.00    -0.268 OA
BRANCH  12  15
ATOM     15  C   UNL A   1      32.671  18.442  24.626  1.00  0.00     0.143 C 
BRANCH  15  16
ATOM     16  C   UNL A   1      33.256  17.117  24.249  1.00  0.00    -0.014 C 
ATOM     17  C   UNL A   1      33.999  16.904  23.156  1.00  0.00     0.006 C 
ENDBRANCH  15  16
ENDBRANCH  12  15
ENDBRANCH  10  11
ENDBRANCH   7  10
ENDBRANCH   5   7
BRANCH   5  18
ATOM     18  C   UNL A   1      34.953  23.574  25.552  1.00  0.00     0.453 C 
ATOM     19  F   UNL A   1      33.831  24.256  25.883  1.00  0.00    -0.164 F 
ATOM     20  F   UNL A   1      35.216  22.741  26.598  1.00  0.00    -0.164 F 
ATOM     21  F   UNL A   1      35.980  24.450  25.506  1.00  0.00    -0.164 F 
ENDBRANCH   5  18
ENDBRANCH   1   5
BRANCH   3  22
ATOM     22  C   UNL A   1      36.932  20.520  25.015  1.00  0.00     0.118 C 
BRANCH  22  23
ATOM     23  C   UNL A   1      38.145  19.602  24.983  1.00  0.00     0.042 C 
BRANCH  23  24
ATOM     24  C   UNL A   1      39.267  20.030  25.919  1.00  0.00     0.118 C 
BRANCH  24  25
ATOM     25  N   UNL A   1      40.337  19.044  26.002  1.00  0.00    -0.352 N 
ATOM     26  C   UNL A   1      41.691  19.215  26.129  1.00  0.00     0.251 C 
ATOM     27  H   UNL A   1      40.040  18.106  25.961  1.00  0.00     0.163 HD
ATOM     28  O   UNL A   1      42.442  18.247  25.992  1.00  0.00    -0.269 OA
BRANCH  26  29
ATOM     29  C   UNL A   1      42.261  20.549  26.407  1.00  0.00     0.039 A 
ATOM     30  C   UNL A   1      42.773  21.299  25.344  1.00  0.00     0.014 A 
ATOM     31  C   UNL A   1      42.314  21.057  27.707  1.00  0.00     0.014 A 
ATOM     32  C   UNL A   1      43.269  22.583  25.576  1.00  0.00     0.010 A 
ATOM     33  C   UNL A   1      42.722  22.370  27.924  1.00  0.00     0.010 A 
ATOM     34  C   UNL A   1      43.211  23.145  26.863  1.00  0.00    -0.014 A 
BRANCH  34  35
ATOM     35  C   UNL A   1      43.664  24.535  27.119  1.00  0.00     0.031 A 
ATOM     36  C   UNL A   1      42.689  25.566  27.619  1.00  0.00     0.074 A 
ATOM     37  C   UNL A   1      44.936  24.885  26.844  1.00  0.00     0.049 A 
ATOM     38  N   UNL A   1      42.872  26.846  27.830  1.00  0.00    -0.248 NA
ATOM     39  C   UNL A   1      41.319  25.105  27.894  1.00  0.00     0.031 C 
ATOM     40  C   UNL A   1      45.965  23.988  26.314  1.00  0.00     0.029 A 
ATOM     41  N   UNL A   1      45.579  26.092  26.964  1.00  0.00    -0.354 N 
ATOM     42  C   UNL A   1      41.642  27.340  28.246  1.00  0.00     0.074 A 
ATOM     43  C   UNL A   1      40.706  26.238  28.201  1.00  0.00     0.031 C 
ATOM     44  C   UNL A   1      47.114  24.668  26.179  1.00  0.00     0.029 A 
ATOM     45  C   UNL A   1      46.895  26.055  26.573  1.00  0.00     0.049 A 
ATOM     46  H   UNL A   1      45.139  26.906  27.300  1.00  0.00     0.167 HD
ATOM     47  C   UNL A   1      41.328  28.592  28.656  1.00  0.00     0.037 A 
ATOM     48  C   UNL A   1      47.818  27.035  26.529  1.00  0.00     0.037 A 
ATOM     49  C   UNL A   1      42.267  29.680  28.724  1.00  0.00     0.049 A 
ATOM     50  C   UNL A   1      47.437  28.422  26.974  1.00  0.00     0.074 A 
ATOM     51  C   UNL A   1      42.059  30.974  29.168  1.00  0.00     0.029 A 
ATOM     52  N   UNL A   1      43.596  29.601  28.333  1.00  0.00    -0.354 N 
ATOM     53  N   UNL A   1      46.287  28.861  27.426  1.00  0.00    -0.248 NA
ATOM     54  C   UNL A   1      48.487  29.448  26.911  1.00  0.00     0.031 C 
ATOM     55  C   UNL A   1      43.249  31.689  29.005  1.00  0.00     0.029 A 
ATOM     56  C   UNL A   1      44.215  30.828  28.511  1.00  0.00     0.049 A 
ATOM     57  H   UNL A   1      44.035  28.792  27.982  1.00  0.00     0.167 HD
ATOM     58  C   UNL A   1      46.484  30.200  27.733  1.00  0.00     0.074 A 
ATOM     59  C   UNL A   1      47.868  30.498  27.431  1.00  0.00     0.031 C 
ATOM     60  C   UNL A   1      45.598  31.103  28.220  1.00  0.00     0.037 A 
BRANCH  47  61
ATOM     61  C   UNL A   1      39.909  28.851  29.076  1.00  0.00     0.064 A 
ATOM     62  C   UNL A   1      38.939  29.284  28.160  1.00  0.00     0.173 A 
ATOM     63  C   UNL A   1      39.503  28.620  30.399  1.00  0.00     0.173 A 
ATOM     64  F   UNL A   1      39.278  29.533  26.885  1.00  0.00    -0.203 F 
ATOM     65  C   UNL A   1      37.623  29.503  28.557  1.00  0.00     0.198 A 
ATOM     66  C   UNL A   1      38.179  28.809  30.786  1.00  0.00     0.198 A 
ATOM     67  F   UNL A   1      40.387  28.199  31.316  1.00  0.00    -0.203 F 
ATOM     68  F   UNL A   1      36.726  29.964  27.674  1.00  0.00    -0.200 F 
ATOM     69  C   UNL A   1      37.241  29.257  29.867  1.00  0.00     0.200 A 
ATOM     70  F   UNL A   1      37.808  28.556  32.049  1.00  0.00    -0.200 F 
ATOM     71  F   UNL A   1      35.972  29.457  30.246  1.00  0.00    -0.200 F 
ENDBRANCH  47  61
BRANCH  48  72
ATOM     72  C   UNL A   1      49.201  26.742  26.065  1.00  0.00     0.064 A 
ATOM     73  C   UNL A   1      50.169  26.254  26.956  1.00  0.00     0.173 A 
ATOM     74  C   UNL A   1      49.591  26.963  24.737  1.00  0.00     0.173 A 
ATOM     75  F   UNL A   1      49.851  26.045  28.241  1.00  0.00    -0.203 F 
ATOM     76  C   UNL A   1      51.480  26.028  26.543  1.00  0.00     0.198 A 
ATOM     77  C   UNL A   1      50.894  26.705  24.316  1.00  0.00     0.198 A 
ATOM     78  F   UNL A   1      48.703  27.422  23.844  1.00  0.00    -0.203 F 
ATOM     79  F   UNL A   1      52.398  25.617  27.428  1.00  0.00    -0.200 F 
ATOM     80  C   UNL A   1      51.841  26.250  25.222  1.00  0.00     0.200 A 
ATOM     81  F   UNL A   1      51.235  26.907  23.036  1.00  0.00    -0.200 F 
ATOM     82  F   UNL A   1      53.102  26.035  24.825  1.00  0.00    -0.200 F 
ENDBRANCH  48  72
BRANCH  60  83
ATOM     83  C   UNL A   1      46.110  32.486  28.504  1.00  0.00     0.064 A 
ATOM     84  C   UNL A   1      46.060  33.505  27.542  1.00  0.00     0.173 A 
ATOM     85  C   UNL A   1      46.627  32.802  29.770  1.00  0.00     0.173 A 
ATOM     86  F   UNL A   1      45.589  33.250  26.312  1.00  0.00    -0.203 F 
ATOM     87  C   UNL A   1      46.535  34.783  27.828  1.00  0.00     0.198 A 
ATOM     88  C   UNL A   1      47.071  34.089  30.063  1.00  0.00     0.198 A 
ATOM     89  F   UNL A   1      46.690  31.867  30.729  1.00  0.00    -0.203 F 
ATOM     90  F   UNL A   1      46.527  35.726  26.876  1.00  0.00    -0.200 F 
ATOM     91  C   UNL A   1      47.033  35.075  29.089  1.00  0.00     0.200 A 
ATOM     92  F   UNL A   1      47.537  34.373  31.286  1.00  0.00    -0.200 F 
ATOM     93  F   UNL A   1      47.484  36.306  29.363  1.00  0.00    -0.200 F 
ENDBRANCH  60  83
ENDBRANCH  34  35
ENDBRANCH  26  29
ENDBRANCH  24  25
ENDBRANCH  23  24
ENDBRANCH  22  23
ENDBRANCH   3  22
TORSDOF 16
ENDMDL
MODEL 3
REMARK VINA RESULT:     -10.5      6.003     10.915
REMARK SMILES C=CCNC(=O)C[NH2+][C@](C)(C(=O)NCCCNC(=O)c1ccc(-c2c3nc(c(-c4c(F)c(F)c(F)c(F)c4F)c4ccc([nH]4)c(-c4c(F)c(F)c(F)c(F)c4F)c4nc(c(-c5c(F)c(F)c(F)c(F)c5F)c5ccc2[nH]5)C=C4)C=C3)cc1)C(F)(F)F
REMARK SMILES IDX 11 1 12 2 13 3 9 5 10 6 8 7 7 10 5 11 4 12 6 14 3 15 2 16
REMARK SMILES IDX 1 17 83 18 84 19 85 20 86 21 14 22 15 23 16 24 17 25 18 26
REMARK SMILES IDX 19 28 20 29 21 30 82 31 22 32 81 33 23 34 24 35 25 36 75 37
REMARK SMILES IDX 26 38 80 39 74 40 76 41 27 42 79 43 73 44 72 45 28 47 60 48
REMARK SMILES IDX 40 49 59 50 41 51 44 52 58 53 77 54 42 55 43 56 57 58 78 59
REMARK SMILES IDX 45 60 29 61 30 62 38 63 31 64 32 65 36 66 39 67 33 68 34 69
REMARK SMILES IDX 37 70 35 71 61 72 62 73 70 74 63 75 64 76 68 77 71 78 65 79
REMARK SMILES IDX 66 80 69 81 67 82 46 83 47 84 55 85 48 86 49 87 53 88 56 89
REMARK SMILES IDX 50 90 51 91 54 92 52 93
REMARK H PARENT 13 4 8 8 8 9 4 13 17 27 76 46 44 57
REMARK Flexibility Score: inf
ROOT
ATOM      1  C   UNL A   1      31.728  28.583  27.015  1.00  0.00     0.290 C 
ATOM      2  O   UNL A   1      31.707  28.044  28.124  1.00  0.00    -0.267 OA
ATOM      3  N   UNL A   1      31.639  29.945  27.030  1.00  0.00    -0.350 N 
ATOM      4  H   UNL A   1      31.622  30.325  27.938  1.00  0.00     0.163 HD
ENDROOT
BRANCH   1   5
ATOM      5  C   UNL A   1      31.893  27.784  25.705  1.00  0.00     0.268 C 
ATOM      6  C   UNL A   1      31.368  26.342  25.882  1.00  0.00     0.101 C 
BRANCH   5   7
ATOM      7  N   UNL A   1      31.088  28.423  24.606  1.00  0.00    -0.318 N 
ATOM      8  H   UNL A   1      30.516  29.160  25.017  1.00  0.00     0.347 HD
ATOM      9  H   UNL A   1      31.760  28.774  23.922  1.00  0.00     0.347 HD
BRANCH   7  10
ATOM     10  C   UNL A   1      30.199  27.497  23.882  1.00  0.00     0.362 C 
BRANCH  10  11
ATOM     11  C   UNL A   1      30.525  27.576  22.385  1.00  0.00     0.275 C 
ATOM     12  N   UNL A   1      31.155  26.520  21.788  1.00  0.00    -0.348 N 
ATOM     13  H   UNL A   1      31.382  26.635  20.837  1.00  0.00     0.163 HD
ATOM     14  O   UNL A   1      30.216  28.558  21.710  1.00  0.00    -0.268 OA
BRANCH  12  15
ATOM     15  C   UNL A   1      31.528  25.254  22.380  1.00  0.00     0.143 C 
BRANCH  15  16
ATOM     16  C   UNL A   1      32.900  24.913  21.888  1.00  0.00    -0.014 C 
ATOM     17  C   UNL A   1      33.570  23.804  22.229  1.00  0.00     0.006 C 
ENDBRANCH  15  16
ENDBRANCH  12  15
ENDBRANCH  10  11
ENDBRANCH   7  10
ENDBRANCH   5   7
BRANCH   5  18
ATOM     18  C   UNL A   1      33.427  27.666  25.442  1.00  0.00     0.453 C 
ATOM     19  F   UNL A   1      33.704  26.903  24.360  1.00  0.00    -0.164 F 
ATOM     20  F   UNL A   1      33.954  28.897  25.188  1.00  0.00    -0.164 F 
ATOM     21  F   UNL A   1      34.120  27.174  26.493  1.00  0.00    -0.164 F 
ENDBRANCH   5  18
ENDBRANCH   1   5
BRANCH   3  22
ATOM     22  C   UNL A   1      31.565  30.950  25.984  1.00  0.00     0.118 C 
BRANCH  22  23
ATOM     23  C   UNL A   1      31.337  32.345  26.547  1.00  0.00     0.042 C 
BRANCH  23  24
ATOM     24  C   UNL A   1      32.490  32.864  27.395  1.00  0.00     0.118 C 
BRANCH  24  25
ATOM     25  N   UNL A   1      32.344  34.271  27.743  1.00  0.00    -0.352 N 
ATOM     26  C   UNL A   1      33.004  35.025  28.678  1.00  0.00     0.251 C 
ATOM     27  H   UNL A   1      31.664  34.758  27.223  1.00  0.00     0.163 HD
ATOM     28  O   UNL A   1      32.597  36.158  28.944  1.00  0.00    -0.269 OA
BRANCH  26  29
ATOM     29  C   UNL A   1      34.184  34.488  29.387  1.00  0.00     0.039 A 
ATOM     30  C   UNL A   1      34.008  33.903  30.644  1.00  0.00     0.014 A 
ATOM     31  C   UNL A   1      35.462  34.574  28.831  1.00  0.00     0.014 A 
ATOM     32  C   UNL A   1      35.100  33.343  31.308  1.00  0.00     0.010 A 
ATOM     33  C   UNL A   1      36.533  33.935  29.449  1.00  0.00     0.010 A 
ATOM     34  C   UNL A   1      36.366  33.318  30.698  1.00  0.00    -0.014 A 
BRANCH  34  35
ATOM     35  C   UNL A   1      37.526  32.663  31.353  1.00  0.00     0.031 A 
ATOM     36  C   UNL A   1      38.239  31.531  30.665  1.00  0.00     0.074 A 
ATOM     37  C   UNL A   1      37.898  33.044  32.590  1.00  0.00     0.049 A 
ATOM     38  N   UNL A   1      39.221  30.782  31.102  1.00  0.00    -0.248 NA
ATOM     39  C   UNL A   1      37.770  31.174  29.316  1.00  0.00     0.031 C 
ATOM     40  C   UNL A   1      37.259  34.099  33.379  1.00  0.00     0.029 A 
ATOM     41  N   UNL A   1      38.901  32.582  33.406  1.00  0.00    -0.354 N 
ATOM     42  C   UNL A   1      39.474  29.863  30.092  1.00  0.00     0.074 A 
ATOM     43  C   UNL A   1      38.507  30.106  29.045  1.00  0.00     0.031 C 
ATOM     44  C   UNL A   1      37.900  34.220  34.552  1.00  0.00     0.029 A 
ATOM     45  C   UNL A   1      38.967  33.228  34.616  1.00  0.00     0.049 A 
ATOM     46  H   UNL A   1      39.515  31.858  33.147  1.00  0.00     0.167 HD
ATOM     47  C   UNL A   1      40.445  28.920  30.031  1.00  0.00     0.037 A 
ATOM     48  C   UNL A   1      39.791  33.033  35.663  1.00  0.00     0.037 A 
ATOM     49  C   UNL A   1      41.422  28.696  31.063  1.00  0.00     0.049 A 
ATOM     50  C   UNL A   1      40.850  31.966  35.575  1.00  0.00     0.074 A 
ATOM     51  C   UNL A   1      42.473  27.797  31.077  1.00  0.00     0.029 A 
ATOM     52  N   UNL A   1      41.466  29.381  32.269  1.00  0.00    -0.354 N 
ATOM     53  N   UNL A   1      41.120  31.146  34.588  1.00  0.00    -0.248 NA
ATOM     54  C   UNL A   1      41.724  31.804  36.744  1.00  0.00     0.031 C 
ATOM     55  C   UNL A   1      43.126  27.906  32.308  1.00  0.00     0.029 A 
ATOM     56  C   UNL A   1      42.517  28.911  33.041  1.00  0.00     0.049 A 
ATOM     57  H   UNL A   1      40.843  30.095  32.537  1.00  0.00     0.167 HD
ATOM     58  C   UNL A   1      42.213  30.397  35.002  1.00  0.00     0.074 A 
ATOM     59  C   UNL A   1      42.566  30.871  36.324  1.00  0.00     0.031 C 
ATOM     60  C   UNL A   1      42.865  29.405  34.348  1.00  0.00     0.037 A 
BRANCH  47  61
ATOM     61  C   UNL A   1      40.505  28.064  28.798  1.00  0.00     0.064 A 
ATOM     62  C   UNL A   1      41.263  28.440  27.679  1.00  0.00     0.173 A 
ATOM     63  C   UNL A   1      39.837  26.831  28.751  1.00  0.00     0.173 A 
ATOM     64  F   UNL A   1      41.911  29.615  27.666  1.00  0.00    -0.203 F 
ATOM     65  C   UNL A   1      41.326  27.629  26.548  1.00  0.00     0.198 A 
ATOM     66  C   UNL A   1      39.928  26.007  27.633  1.00  0.00     0.198 A 
ATOM     67  F   UNL A   1      39.103  26.419  29.796  1.00  0.00    -0.203 F 
ATOM     68  F   UNL A   1      42.017  28.033  25.474  1.00  0.00    -0.200 F 
ATOM     69  C   UNL A   1      40.667  26.409  26.529  1.00  0.00     0.200 A 
ATOM     70  F   UNL A   1      39.302  24.822  27.621  1.00  0.00    -0.200 F 
ATOM     71  F   UNL A   1      40.738  25.624  25.446  1.00  0.00    -0.200 F 
ENDBRANCH  47  61
BRANCH  48  72
ATOM     72  C   UNL A   1      39.668  33.877  36.882  1.00  0.00     0.064 A 
ATOM     73  C   UNL A   1      38.890  33.458  37.971  1.00  0.00     0.173 A 
ATOM     74  C   UNL A   1      40.301  35.125  36.975  1.00  0.00     0.173 A 
ATOM     75  F   UNL A   1      38.248  32.282  37.922  1.00  0.00    -0.203 F 
ATOM     76  C   UNL A   1      38.725  34.268  39.093  1.00  0.00     0.198 A 
ATOM     77  C   UNL A   1      40.162  35.920  38.111  1.00  0.00     0.198 A 
ATOM     78  F   UNL A   1      41.061  35.570  35.964  1.00  0.00    -0.203 F 
ATOM     79  F   UNL A   1      37.930  33.868  40.095  1.00  0.00    -0.200 F 
ATOM     80  C   UNL A   1      39.365  35.496  39.165  1.00  0.00     0.200 A 
ATOM     81  F   UNL A   1      40.794  37.099  38.182  1.00  0.00    -0.200 F 
ATOM     82  F   UNL A   1      39.205  36.275  40.242  1.00  0.00    -0.200 F 
ENDBRANCH  48  72
BRANCH  60  83
ATOM     83  C   UNL A   1      44.058  28.799  35.029  1.00  0.00     0.064 A 
ATOM     84  C   UNL A   1      45.351  29.313  34.850  1.00  0.00     0.173 A 
ATOM     85  C   UNL A   1      43.898  27.711  35.900  1.00  0.00     0.173 A 
ATOM     86  F   UNL A   1      45.559  30.343  34.016  1.00  0.00    -0.203 F 
ATOM     87  C   UNL A   1      46.444  28.739  35.495  1.00  0.00     0.198 A 
ATOM     88  C   UNL A   1      44.988  27.161  36.569  1.00  0.00     0.198 A 
ATOM     89  F   UNL A   1      42.682  27.187  36.113  1.00  0.00    -0.203 F 
ATOM     90  F   UNL A   1      47.677  29.212  35.268  1.00  0.00    -0.200 F 
ATOM     91  C   UNL A   1      46.261  27.670  36.359  1.00  0.00     0.200 A 
ATOM     92  F   UNL A   1      44.807  26.138  37.415  1.00  0.00    -0.200 F 
ATOM     93  F   UNL A   1      47.313  27.124  36.984  1.00  0.00    -0.200 F 
ENDBRANCH  60  83
ENDBRANCH  34  35
ENDBRANCH  26  29
ENDBRANCH  24  25
ENDBRANCH  23  24
ENDBRANCH  22  23
ENDBRANCH   3  22
TORSDOF 16
ENDMDL
