MODEL 1
REMARK VINA RESULT:     -12.1      0.000      0.000
REMARK SMILES C[C@@H](CS(=O)(=O)[C@@H]1CCC[C@H](S(C)(=O)=O)C1)C(=O)NCCCNC(=O)c1ccc(-c2c3nc(c(-c4c(F)c(F)c(F)c(F)c4F)c4ccc([nH]4)c(-c4c(F)c(F)c(F)c(F)c4F)c4nc(c(-c5c(F)c(F)c(F)c(F)c5F)c5ccc2[nH]5)C=C4)C=C3)cc1
REMARK SMILES IDX 20 1 19 2 17 3 18 4 2 6 1 7 3 8 4 9 5 10 6 11 7 12 8 13
REMARK SMILES IDX 16 14 9 15 11 16 10 17 12 18 13 19 14 20 15 21 21 22 22 23
REMARK SMILES IDX 23 24 24 25 25 27 26 28 27 29 88 30 28 31 87 32 29 33 30 34
REMARK SMILES IDX 31 35 81 36 32 37 86 38 80 39 82 40 33 41 85 42 79 43 78 44
REMARK SMILES IDX 34 46 66 47 46 48 65 49 47 50 50 51 64 52 83 53 48 54 49 55
REMARK SMILES IDX 63 57 84 58 51 59 35 60 36 61 44 62 37 63 38 64 42 65 45 66
REMARK SMILES IDX 39 67 40 68 43 69 41 70 67 71 68 72 76 73 69 74 70 75 74 76
REMARK SMILES IDX 77 77 71 78 72 79 75 80 73 81 52 82 53 83 61 84 54 85 55 86
REMARK SMILES IDX 59 87 62 88 56 89 57 90 60 91 58 92
REMARK H PARENT 19 5 23 26 82 45 50 56
REMARK Flexibility Score: inf
ROOT
ATOM      1  C   UNL A   1      31.115  30.692  25.433  1.00  0.00     0.117 C 
ENDROOT
BRANCH   1   2
ATOM      2  N   UNL A   1      30.393  30.638  24.198  1.00  0.00    -0.356 N 
ATOM      3  C   UNL A   1      30.045  29.522  23.505  1.00  0.00     0.223 C 
ATOM      4  O   UNL A   1      29.163  29.655  22.651  1.00  0.00    -0.275 OA
ATOM      5  H   UNL A   1      30.122  31.500  23.809  1.00  0.00     0.163 HD
BRANCH   3   6
ATOM      6  C   UNL A   1      30.771  28.173  23.656  1.00  0.00     0.090 C 
ATOM      7  C   UNL A   1      29.849  27.076  24.170  1.00  0.00     0.019 C 
BRANCH   6   8
ATOM      8  C   UNL A   1      31.937  27.798  22.731  1.00  0.00     0.150 C 
BRANCH   8   9
ATOM      9  S   UNL A   1      32.756  26.212  22.548  1.00  0.00     0.153 S 
ATOM     10  O   UNL A   1      31.787  25.229  22.104  1.00  0.00    -0.229 OA
ATOM     11  O   UNL A   1      33.879  26.484  21.663  1.00  0.00    -0.229 OA
BRANCH   9  12
ATOM     12  C   UNL A   1      33.530  25.604  24.085  1.00  0.00     0.110 C 
ATOM     13  C   UNL A   1      34.834  24.836  23.875  1.00  0.00     0.020 C 
ATOM     14  C   UNL A   1      32.517  24.912  24.988  1.00  0.00     0.039 C 
ATOM     15  C   UNL A   1      35.402  24.220  25.144  1.00  0.00     0.003 C 
ATOM     16  C   UNL A   1      33.127  24.198  26.205  1.00  0.00     0.109 C 
ATOM     17  C   UNL A   1      34.351  23.362  25.833  1.00  0.00     0.020 C 
BRANCH  16  18
ATOM     18  S   UNL A   1      31.843  23.191  26.976  1.00  0.00     0.150 S 
ATOM     19  C   UNL A   1      31.397  21.990  25.746  1.00  0.00     0.158 C 
ATOM     20  O   UNL A   1      32.466  22.474  28.073  1.00  0.00    -0.229 OA
ATOM     21  O   UNL A   1      30.692  24.041  27.208  1.00  0.00    -0.229 OA
ENDBRANCH  16  18
ENDBRANCH   9  12
ENDBRANCH   8   9
ENDBRANCH   6   8
ENDBRANCH   3   6
ENDBRANCH   1   2
BRANCH   1  22
ATOM     22  C   UNL A   1      30.984  31.982  26.214  1.00  0.00     0.042 C 
BRANCH  22  23
ATOM     23  C   UNL A   1      32.287  32.408  26.859  1.00  0.00     0.118 C 
BRANCH  23  24
ATOM     24  N   UNL A   1      32.237  33.776  27.377  1.00  0.00    -0.352 N 
ATOM     25  C   UNL A   1      32.961  34.448  28.332  1.00  0.00     0.251 C 
ATOM     26  H   UNL A   1      31.541  34.329  26.954  1.00  0.00     0.163 HD
ATOM     27  O   UNL A   1      32.574  35.556  28.700  1.00  0.00    -0.269 OA
BRANCH  25  28
ATOM     28  C   UNL A   1      34.177  33.871  28.949  1.00  0.00     0.039 A 
ATOM     29  C   UNL A   1      35.430  34.406  28.625  1.00  0.00     0.014 A 
ATOM     30  C   UNL A   1      34.110  32.778  29.805  1.00  0.00     0.014 A 
ATOM     31  C   UNL A   1      36.589  33.888  29.215  1.00  0.00     0.010 A 
ATOM     32  C   UNL A   1      35.233  32.371  30.511  1.00  0.00     0.010 A 
ATOM     33  C   UNL A   1      36.494  32.896  30.202  1.00  0.00    -0.014 A 
BRANCH  33  34
ATOM     34  C   UNL A   1      37.684  32.331  30.892  1.00  0.00     0.031 A 
ATOM     35  C   UNL A   1      38.484  31.242  30.222  1.00  0.00     0.074 A 
ATOM     36  C   UNL A   1      37.982  32.717  32.147  1.00  0.00     0.049 A 
ATOM     37  N   UNL A   1      39.437  30.489  30.711  1.00  0.00    -0.248 NA
ATOM     38  C   UNL A   1      38.125  30.916  28.830  1.00  0.00     0.031 C 
ATOM     39  C   UNL A   1      37.256  33.723  32.923  1.00  0.00     0.029 A 
ATOM     40  N   UNL A   1      38.969  32.292  33.001  1.00  0.00    -0.354 N 
ATOM     41  C   UNL A   1      39.754  29.583  29.706  1.00  0.00     0.074 A 
ATOM     42  C   UNL A   1      38.846  29.829  28.610  1.00  0.00     0.031 C 
ATOM     43  C   UNL A   1      37.840  33.861  34.123  1.00  0.00     0.029 A 
ATOM     44  C   UNL A   1      38.947  32.916  34.224  1.00  0.00     0.049 A 
ATOM     45  H   UNL A   1      39.632  31.605  32.759  1.00  0.00     0.167 HD
ATOM     46  C   UNL A   1      40.738  28.653  29.683  1.00  0.00     0.037 A 
ATOM     47  C   UNL A   1      39.723  32.734  35.309  1.00  0.00     0.037 A 
ATOM     48  C   UNL A   1      41.676  28.455  30.755  1.00  0.00     0.049 A 
ATOM     49  C   UNL A   1      40.821  31.705  35.254  1.00  0.00     0.074 A 
ATOM     50  C   UNL A   1      42.759  27.597  30.808  1.00  0.00     0.029 A 
ATOM     51  N   UNL A   1      41.645  29.139  31.963  1.00  0.00    -0.354 N 
ATOM     52  N   UNL A   1      41.151  30.896  34.276  1.00  0.00    -0.248 NA
ATOM     53  C   UNL A   1      41.660  31.569  36.452  1.00  0.00     0.031 C 
ATOM     54  C   UNL A   1      43.354  27.724  32.067  1.00  0.00     0.029 A 
ATOM     55  C   UNL A   1      42.679  28.705  32.776  1.00  0.00     0.049 A 
ATOM     56  H   UNL A   1      40.986  29.829  32.205  1.00  0.00     0.167 HD
ATOM     57  C   UNL A   1      42.251  30.180  34.727  1.00  0.00     0.074 A 
ATOM     58  C   UNL A   1      42.542  30.661  36.062  1.00  0.00     0.031 C 
ATOM     59  C   UNL A   1      42.957  29.209  34.096  1.00  0.00     0.037 A 
BRANCH  46  60
ATOM     60  C   UNL A   1      40.856  27.790  28.458  1.00  0.00     0.064 A 
ATOM     61  C   UNL A   1      41.646  28.166  27.361  1.00  0.00     0.173 A 
ATOM     62  C   UNL A   1      40.189  26.557  28.388  1.00  0.00     0.173 A 
ATOM     63  F   UNL A   1      42.297  29.340  27.368  1.00  0.00    -0.203 F 
ATOM     64  C   UNL A   1      41.732  27.362  26.226  1.00  0.00     0.198 A 
ATOM     65  C   UNL A   1      40.307  25.738  27.268  1.00  0.00     0.198 A 
ATOM     66  F   UNL A   1      39.423  26.143  29.409  1.00  0.00    -0.203 F 
ATOM     67  F   UNL A   1      42.442  27.775  25.167  1.00  0.00    -0.200 F 
ATOM     68  C   UNL A   1      41.070  26.145  26.184  1.00  0.00     0.200 A 
ATOM     69  F   UNL A   1      39.677  24.555  27.235  1.00  0.00    -0.200 F 
ATOM     70  F   UNL A   1      41.159  25.369  25.095  1.00  0.00    -0.200 F 
ENDBRANCH  46  60
BRANCH  47  71
ATOM     71  C   UNL A   1      39.510  33.562  36.525  1.00  0.00     0.064 A 
ATOM     72  C   UNL A   1      40.099  34.829  36.643  1.00  0.00     0.173 A 
ATOM     73  C   UNL A   1      38.721  33.110  37.593  1.00  0.00     0.173 A 
ATOM     74  F   UNL A   1      40.876  35.300  35.656  1.00  0.00    -0.203 F 
ATOM     75  C   UNL A   1      39.928  35.600  37.791  1.00  0.00     0.198 A 
ATOM     76  C   UNL A   1      38.523  33.897  38.727  1.00  0.00     0.198 A 
ATOM     77  F   UNL A   1      38.125  31.910  37.529  1.00  0.00    -0.203 F 
ATOM     78  F   UNL A   1      40.542  36.787  37.895  1.00  0.00    -0.200 F 
ATOM     79  C   UNL A   1      39.135  35.137  38.829  1.00  0.00     0.200 A 
ATOM     80  F   UNL A   1      37.739  33.453  39.718  1.00  0.00    -0.200 F 
ATOM     81  F   UNL A   1      38.965  35.881  39.930  1.00  0.00    -0.200 F 
ENDBRANCH  47  71
BRANCH  59  82
ATOM     82  C   UNL A   1      44.139  28.635  34.823  1.00  0.00     0.064 A 
ATOM     83  C   UNL A   1      45.409  29.225  34.749  1.00  0.00     0.173 A 
ATOM     84  C   UNL A   1      43.985  27.505  35.642  1.00  0.00     0.173 A 
ATOM     85  F   UNL A   1      45.609  30.298  33.969  1.00  0.00    -0.203 F 
ATOM     86  C   UNL A   1      46.488  28.689  35.445  1.00  0.00     0.198 A 
ATOM     87  C   UNL A   1      45.059  26.993  36.364  1.00  0.00     0.198 A 
ATOM     88  F   UNL A   1      42.789  26.908  35.754  1.00  0.00    -0.203 F 
ATOM     89  F   UNL A   1      47.704  29.238  35.318  1.00  0.00    -0.200 F 
ATOM     90  C   UNL A   1      46.310  27.579  36.258  1.00  0.00     0.200 A 
ATOM     91  F   UNL A   1      44.881  25.932  37.162  1.00  0.00    -0.200 F 
ATOM     92  F   UNL A   1      47.348  27.071  36.936  1.00  0.00    -0.200 F 
ENDBRANCH  59  82
ENDBRANCH  33  34
ENDBRANCH  25  28
ENDBRANCH  23  24
ENDBRANCH  22  23
ENDBRANCH   1  22
TORSDOF 14
ENDMDL
MODEL 2
REMARK VINA RESULT:     -12.1      1.323      3.016
REMARK SMILES C[C@@H](CS(=O)(=O)[C@@H]1CCC[C@H](S(C)(=O)=O)C1)C(=O)NCCCNC(=O)c1ccc(-c2c3nc(c(-c4c(F)c(F)c(F)c(F)c4F)c4ccc([nH]4)c(-c4c(F)c(F)c(F)c(F)c4F)c4nc(c(-c5c(F)c(F)c(F)c(F)c5F)c5ccc2[nH]5)C=C4)C=C3)cc1
REMARK SMILES IDX 20 1 19 2 17 3 18 4 2 6 1 7 3 8 4 9 5 10 6 11 7 12 8 13
REMARK SMILES IDX 16 14 9 15 11 16 10 17 12 18 13 19 14 20 15 21 21 22 22 23
REMARK SMILES IDX 23 24 24 25 25 27 26 28 27 29 88 30 28 31 87 32 29 33 30 34
REMARK SMILES IDX 31 35 81 36 32 37 86 38 80 39 82 40 33 41 85 42 79 43 78 44
REMARK SMILES IDX 34 46 66 47 46 48 65 49 47 50 50 51 64 52 83 53 48 54 49 55
REMARK SMILES IDX 63 57 84 58 51 59 35 60 36 61 44 62 37 63 38 64 42 65 45 66
REMARK SMILES IDX 39 67 40 68 43 69 41 70 67 71 68 72 76 73 69 74 70 75 74 76
REMARK SMILES IDX 77 77 71 78 72 79 75 80 73 81 52 82 53 83 61 84 54 85 55 86
REMARK SMILES IDX 59 87 62 88 56 89 57 90 60 91 58 92
REMARK H PARENT 19 5 23 26 82 45 50 56
REMARK Flexibility Score: inf
ROOT
ATOM      1  C   UNL A   1      31.501  30.698  26.513  1.00  0.00     0.117 C 
ENDROOT
BRANCH   1   2
ATOM      2  N   UNL A   1      32.348  30.422  25.392  1.00  0.00    -0.356 N 
ATOM      3  C   UNL A   1      33.067  29.290  25.172  1.00  0.00     0.223 C 
ATOM      4  O   UNL A   1      33.471  29.106  24.020  1.00  0.00    -0.275 OA
ATOM      5  H   UNL A   1      32.418  31.127  24.709  1.00  0.00     0.163 HD
BRANCH   3   6
ATOM      6  C   UNL A   1      33.484  28.323  26.295  1.00  0.00     0.090 C 
ATOM      7  C   UNL A   1      34.526  28.931  27.224  1.00  0.00     0.019 C 
BRANCH   6   8
ATOM      8  C   UNL A   1      32.494  27.292  26.855  1.00  0.00     0.150 C 
BRANCH   8   9
ATOM      9  S   UNL A   1      31.943  25.753  26.116  1.00  0.00     0.153 S 
ATOM     10  O   UNL A   1      33.028  24.792  26.161  1.00  0.00    -0.229 OA
ATOM     11  O   UNL A   1      30.728  25.416  26.844  1.00  0.00    -0.229 OA
BRANCH   9  12
ATOM     12  C   UNL A   1      31.397  25.924  24.383  1.00  0.00     0.110 C 
ATOM     13  C   UNL A   1      32.515  25.790  23.352  1.00  0.00     0.020 C 
ATOM     14  C   UNL A   1      30.493  27.136  24.196  1.00  0.00     0.039 C 
ATOM     15  C   UNL A   1      32.077  26.064  21.921  1.00  0.00     0.003 C 
ATOM     16  C   UNL A   1      30.156  27.463  22.733  1.00  0.00     0.109 C 
ATOM     17  C   UNL A   1      31.388  27.419  21.829  1.00  0.00     0.020 C 
BRANCH  16  18
ATOM     18  S   UNL A   1      29.351  29.078  22.681  1.00  0.00     0.150 S 
ATOM     19  C   UNL A   1      27.633  28.748  22.989  1.00  0.00     0.158 C 
ATOM     20  O   UNL A   1      29.853  29.839  23.810  1.00  0.00    -0.229 OA
ATOM     21  O   UNL A   1      29.473  29.590  21.331  1.00  0.00    -0.229 OA
ENDBRANCH  16  18
ENDBRANCH   9  12
ENDBRANCH   8   9
ENDBRANCH   6   8
ENDBRANCH   3   6
ENDBRANCH   1   2
BRANCH   1  22
ATOM     22  C   UNL A   1      31.283  32.163  26.825  1.00  0.00     0.042 C 
BRANCH  22  23
ATOM     23  C   UNL A   1      32.578  32.948  26.872  1.00  0.00     0.118 C 
BRANCH  23  24
ATOM     24  N   UNL A   1      32.444  34.211  27.599  1.00  0.00    -0.352 N 
ATOM     25  C   UNL A   1      33.087  34.742  28.691  1.00  0.00     0.251 C 
ATOM     26  H   UNL A   1      31.749  34.802  27.230  1.00  0.00     0.163 HD
ATOM     27  O   UNL A   1      32.636  35.762  29.209  1.00  0.00    -0.269 OA
BRANCH  25  28
ATOM     28  C   UNL A   1      34.292  34.112  29.278  1.00  0.00     0.039 A 
ATOM     29  C   UNL A   1      35.558  34.604  28.936  1.00  0.00     0.014 A 
ATOM     30  C   UNL A   1      34.200  33.011  30.121  1.00  0.00     0.014 A 
ATOM     31  C   UNL A   1      36.707  34.035  29.498  1.00  0.00     0.010 A 
ATOM     32  C   UNL A   1      35.320  32.554  30.801  1.00  0.00     0.010 A 
ATOM     33  C   UNL A   1      36.594  33.035  30.474  1.00  0.00    -0.014 A 
BRANCH  33  34
ATOM     34  C   UNL A   1      37.775  32.418  31.135  1.00  0.00     0.031 A 
ATOM     35  C   UNL A   1      38.528  31.317  30.432  1.00  0.00     0.074 A 
ATOM     36  C   UNL A   1      38.103  32.767  32.393  1.00  0.00     0.049 A 
ATOM     37  N   UNL A   1      39.463  30.523  30.891  1.00  0.00    -0.248 NA
ATOM     38  C   UNL A   1      38.139  31.032  29.039  1.00  0.00     0.031 C 
ATOM     39  C   UNL A   1      37.423  33.781  33.200  1.00  0.00     0.029 A 
ATOM     40  N   UNL A   1      39.088  32.294  33.223  1.00  0.00    -0.354 N 
ATOM     41  C   UNL A   1      39.735  29.629  29.863  1.00  0.00     0.074 A 
ATOM     42  C   UNL A   1      38.820  29.926  28.786  1.00  0.00     0.031 C 
ATOM     43  C   UNL A   1      38.027  33.875  34.394  1.00  0.00     0.029 A 
ATOM     44  C   UNL A   1      39.104  32.892  34.459  1.00  0.00     0.049 A 
ATOM     45  H   UNL A   1      39.724  31.590  32.957  1.00  0.00     0.167 HD
ATOM     46  C   UNL A   1      40.687  28.668  29.806  1.00  0.00     0.037 A 
ATOM     47  C   UNL A   1      39.890  32.663  35.528  1.00  0.00     0.037 A 
ATOM     48  C   UNL A   1      41.634  28.417  30.860  1.00  0.00     0.049 A 
ATOM     49  C   UNL A   1      40.952  31.600  35.435  1.00  0.00     0.074 A 
ATOM     50  C   UNL A   1      42.688  27.523  30.879  1.00  0.00     0.029 A 
ATOM     51  N   UNL A   1      41.643  29.076  32.081  1.00  0.00    -0.354 N 
ATOM     52  N   UNL A   1      41.241  30.801  34.437  1.00  0.00    -0.248 NA
ATOM     53  C   UNL A   1      41.803  31.412  36.618  1.00  0.00     0.031 C 
ATOM     54  C   UNL A   1      43.306  27.605  32.131  1.00  0.00     0.029 A 
ATOM     55  C   UNL A   1      42.674  28.592  32.870  1.00  0.00     0.049 A 
ATOM     56  H   UNL A   1      41.011  29.783  32.348  1.00  0.00     0.167 HD
ATOM     57  C   UNL A   1      42.323  30.040  34.857  1.00  0.00     0.074 A 
ATOM     58  C   UNL A   1      42.649  30.484  36.196  1.00  0.00     0.031 C 
ATOM     59  C   UNL A   1      42.987  29.059  34.196  1.00  0.00     0.037 A 
BRANCH  46  60
ATOM     60  C   UNL A   1      40.759  27.826  28.562  1.00  0.00     0.064 A 
ATOM     61  C   UNL A   1      40.065  26.612  28.449  1.00  0.00     0.173 A 
ATOM     62  C   UNL A   1      41.513  28.251  27.458  1.00  0.00     0.173 A 
ATOM     63  F   UNL A   1      39.338  26.151  29.479  1.00  0.00    -0.203 F 
ATOM     64  C   UNL A   1      40.155  25.836  27.296  1.00  0.00     0.198 A 
ATOM     65  C   UNL A   1      41.571  27.492  26.291  1.00  0.00     0.198 A 
ATOM     66  F   UNL A   1      42.194  29.406  27.506  1.00  0.00    -0.203 F 
ATOM     67  F   UNL A   1      39.534  24.649  27.239  1.00  0.00    -0.200 F 
ATOM     68  C   UNL A   1      40.901  26.280  26.215  1.00  0.00     0.200 A 
ATOM     69  F   UNL A   1      42.280  27.930  25.242  1.00  0.00    -0.200 F 
ATOM     70  F   UNL A   1      40.981  25.536  25.103  1.00  0.00    -0.200 F 
ENDBRANCH  46  60
BRANCH  47  71
ATOM     71  C   UNL A   1      39.722  33.472  36.764  1.00  0.00     0.064 A 
ATOM     72  C   UNL A   1      40.485  34.630  36.973  1.00  0.00     0.173 A 
ATOM     73  C   UNL A   1      38.803  33.111  37.760  1.00  0.00     0.173 A 
ATOM     74  F   UNL A   1      41.389  35.009  36.057  1.00  0.00    -0.203 F 
ATOM     75  C   UNL A   1      40.354  35.379  38.140  1.00  0.00     0.198 A 
ATOM     76  C   UNL A   1      38.649  33.880  38.912  1.00  0.00     0.198 A 
ATOM     77  F   UNL A   1      38.039  32.019  37.606  1.00  0.00    -0.203 F 
ATOM     78  F   UNL A   1      41.132  36.453  38.335  1.00  0.00    -0.200 F 
ATOM     79  C   UNL A   1      39.432  35.007  39.106  1.00  0.00     0.200 A 
ATOM     80  F   UNL A   1      37.742  33.527  39.833  1.00  0.00    -0.200 F 
ATOM     81  F   UNL A   1      39.302  35.731  40.226  1.00  0.00    -0.200 F 
ENDBRANCH  47  71
BRANCH  59  82
ATOM     82  C   UNL A   1      44.160  28.432  34.893  1.00  0.00     0.064 A 
ATOM     83  C   UNL A   1      44.024  27.272  35.668  1.00  0.00     0.173 A 
ATOM     84  C   UNL A   1      45.445  28.978  34.744  1.00  0.00     0.173 A 
ATOM     85  F   UNL A   1      42.815  26.721  35.852  1.00  0.00    -0.203 F 
ATOM     86  C   UNL A   1      45.128  26.695  36.291  1.00  0.00     0.198 A 
ATOM     87  C   UNL A   1      46.551  28.378  35.340  1.00  0.00     0.198 A 
ATOM     88  F   UNL A   1      45.630  30.083  34.006  1.00  0.00    -0.203 F 
ATOM     89  F   UNL A   1      44.967  25.616  37.069  1.00  0.00    -0.200 F 
ATOM     90  C   UNL A   1      46.390  27.244  36.119  1.00  0.00     0.200 A 
ATOM     91  F   UNL A   1      47.771  28.900  35.158  1.00  0.00    -0.200 F 
ATOM     92  F   UNL A   1      47.452  26.681  36.711  1.00  0.00    -0.200 F 
ENDBRANCH  59  82
ENDBRANCH  33  34
ENDBRANCH  25  28
ENDBRANCH  23  24
ENDBRANCH  22  23
ENDBRANCH   1  22
TORSDOF 14
ENDMDL
MODEL 3
REMARK VINA RESULT:     -12.0      5.920     11.148
REMARK SMILES C[C@@H](CS(=O)(=O)[C@@H]1CCC[C@H](S(C)(=O)=O)C1)C(=O)NCCCNC(=O)c1ccc(-c2c3nc(c(-c4c(F)c(F)c(F)c(F)c4F)c4ccc([nH]4)c(-c4c(F)c(F)c(F)c(F)c4F)c4nc(c(-c5c(F)c(F)c(F)c(F)c5F)c5ccc2[nH]5)C=C4)C=C3)cc1
REMARK SMILES IDX 20 1 19 2 17 3 18 4 2 6 1 7 3 8 4 9 5 10 6 11 7 12 8 13
REMARK SMILES IDX 16 14 9 15 11 16 10 17 12 18 13 19 14 20 15 21 21 22 22 23
REMARK SMILES IDX 23 24 24 25 25 27 26 28 27 29 88 30 28 31 87 32 29 33 30 34
REMARK SMILES IDX 31 35 81 36 32 37 86 38 80 39 82 40 33 41 85 42 79 43 78 44
REMARK SMILES IDX 34 46 66 47 46 48 65 49 47 50 50 51 64 52 83 53 48 54 49 55
REMARK SMILES IDX 63 57 84 58 51 59 35 60 36 61 44 62 37 63 38 64 42 65 45 66
REMARK SMILES IDX 39 67 40 68 43 69 41 70 67 71 68 72 76 73 69 74 70 75 74 76
REMARK SMILES IDX 77 77 71 78 72 79 75 80 73 81 52 82 53 83 61 84 54 85 55 86
REMARK SMILES IDX 59 87 62 88 56 89 57 90 60 91 58 92
REMARK H PARENT 19 5 23 26 82 45 50 56
REMARK Flexibility Score: inf
ROOT
ATOM      1  C   UNL A   1      37.394  20.904  24.625  1.00  0.00     0.117 C 
ENDROOT
BRANCH   1   2
ATOM      2  N   UNL A   1      37.997  22.121  25.080  1.00  0.00    -0.356 N 
ATOM      3  C   UNL A   1      37.355  23.257  25.456  1.00  0.00     0.223 C 
ATOM      4  O   UNL A   1      38.012  24.071  26.114  1.00  0.00    -0.275 OA
ATOM      5  H   UNL A   1      38.980  22.135  25.124  1.00  0.00     0.163 HD
BRANCH   3   6
ATOM      6  C   UNL A   1      35.927  23.610  25.005  1.00  0.00     0.090 C 
ATOM      7  C   UNL A   1      35.727  23.409  23.509  1.00  0.00     0.019 C 
BRANCH   6   8
ATOM      8  C   UNL A   1      34.733  23.420  25.951  1.00  0.00     0.150 C 
BRANCH   8   9
ATOM      9  S   UNL A   1      33.695  21.972  26.168  1.00  0.00     0.153 S 
ATOM     10  O   UNL A   1      34.217  21.177  27.262  1.00  0.00    -0.229 OA
ATOM     11  O   UNL A   1      32.350  22.510  26.321  1.00  0.00    -0.229 OA
BRANCH   9  12
ATOM     12  C   UNL A   1      33.591  20.913  24.685  1.00  0.00     0.110 C 
ATOM     13  C   UNL A   1      32.286  21.047  23.903  1.00  0.00     0.020 C 
ATOM     14  C   UNL A   1      34.014  19.482  24.987  1.00  0.00     0.039 C 
ATOM     15  C   UNL A   1      32.153  20.068  22.747  1.00  0.00     0.003 C 
ATOM     16  C   UNL A   1      33.765  18.486  23.844  1.00  0.00     0.109 C 
ATOM     17  C   UNL A   1      32.372  18.642  23.232  1.00  0.00     0.020 C 
BRANCH  16  18
ATOM     18  S   UNL A   1      34.029  16.816  24.476  1.00  0.00     0.150 S 
ATOM     19  C   UNL A   1      32.811  16.606  25.751  1.00  0.00     0.158 C 
ATOM     20  O   UNL A   1      33.693  15.897  23.404  1.00  0.00    -0.229 OA
ATOM     21  O   UNL A   1      35.338  16.779  25.097  1.00  0.00    -0.229 OA
ENDBRANCH  16  18
ENDBRANCH   9  12
ENDBRANCH   8   9
ENDBRANCH   6   8
ENDBRANCH   3   6
ENDBRANCH   1   2
BRANCH   1  22
ATOM     22  C   UNL A   1      38.199  19.645  24.862  1.00  0.00     0.042 C 
BRANCH  22  23
ATOM     23  C   UNL A   1      39.032  19.715  26.126  1.00  0.00     0.118 C 
BRANCH  23  24
ATOM     24  N   UNL A   1      40.278  18.952  26.020  1.00  0.00    -0.352 N 
ATOM     25  C   UNL A   1      41.604  19.309  26.041  1.00  0.00     0.251 C 
ATOM     26  H   UNL A   1      40.135  17.984  25.912  1.00  0.00     0.163 HD
ATOM     27  O   UNL A   1      42.450  18.469  25.741  1.00  0.00    -0.269 OA
BRANCH  25  28
ATOM     28  C   UNL A   1      42.046  20.679  26.389  1.00  0.00     0.039 A 
ATOM     29  C   UNL A   1      42.383  20.974  27.716  1.00  0.00     0.014 A 
ATOM     30  C   UNL A   1      42.087  21.694  25.440  1.00  0.00     0.014 A 
ATOM     31  C   UNL A   1      42.823  22.257  28.060  1.00  0.00     0.010 A 
ATOM     32  C   UNL A   1      42.674  22.914  25.744  1.00  0.00     0.010 A 
ATOM     33  C   UNL A   1      43.018  23.226  27.065  1.00  0.00    -0.014 A 
BRANCH  33  34
ATOM     34  C   UNL A   1      43.519  24.594  27.362  1.00  0.00     0.031 A 
ATOM     35  C   UNL A   1      42.575  25.624  27.931  1.00  0.00     0.074 A 
ATOM     36  C   UNL A   1      44.777  24.940  27.027  1.00  0.00     0.049 A 
ATOM     37  N   UNL A   1      42.747  26.911  28.093  1.00  0.00    -0.248 NA
ATOM     38  C   UNL A   1      41.234  25.150  28.319  1.00  0.00     0.031 C 
ATOM     39  C   UNL A   1      45.771  24.052  26.423  1.00  0.00     0.029 A 
ATOM     40  N   UNL A   1      45.430  26.142  27.132  1.00  0.00    -0.354 N 
ATOM     41  C   UNL A   1      41.531  27.398  28.557  1.00  0.00     0.074 A 
ATOM     42  C   UNL A   1      40.608  26.286  28.580  1.00  0.00     0.031 C 
ATOM     43  C   UNL A   1      46.915  24.729  26.241  1.00  0.00     0.029 A 
ATOM     44  C   UNL A   1      46.720  26.112  26.663  1.00  0.00     0.049 A 
ATOM     45  H   UNL A   1      45.012  26.951  27.508  1.00  0.00     0.167 HD
ATOM     46  C   UNL A   1      41.219  28.651  28.963  1.00  0.00     0.037 A 
ATOM     47  C   UNL A   1      47.637  27.094  26.572  1.00  0.00     0.037 A 
ATOM     48  C   UNL A   1      42.160  29.739  28.993  1.00  0.00     0.049 A 
ATOM     49  C   UNL A   1      47.272  28.476  27.044  1.00  0.00     0.074 A 
ATOM     50  C   UNL A   1      41.975  31.028  29.456  1.00  0.00     0.029 A 
ATOM     51  N   UNL A   1      43.472  29.656  28.548  1.00  0.00    -0.354 N 
ATOM     52  N   UNL A   1      46.138  28.912  27.538  1.00  0.00    -0.248 NA
ATOM     53  C   UNL A   1      48.319  29.503  26.953  1.00  0.00     0.031 C 
ATOM     54  C   UNL A   1      43.160  31.741  29.247  1.00  0.00     0.029 A 
ATOM     55  C   UNL A   1      44.102  30.879  28.708  1.00  0.00     0.049 A 
ATOM     56  H   UNL A   1      43.893  28.847  28.176  1.00  0.00     0.167 HD
ATOM     57  C   UNL A   1      46.343  30.250  27.844  1.00  0.00     0.074 A 
ATOM     58  C   UNL A   1      47.716  30.551  27.495  1.00  0.00     0.031 C 
ATOM     59  C   UNL A   1      45.474  31.151  28.365  1.00  0.00     0.037 A 
BRANCH  46  60
ATOM     60  C   UNL A   1      39.809  28.910  29.416  1.00  0.00     0.064 A 
ATOM     61  C   UNL A   1      39.412  28.715  30.748  1.00  0.00     0.173 A 
ATOM     62  C   UNL A   1      38.846  29.383  28.511  1.00  0.00     0.173 A 
ATOM     63  F   UNL A   1      40.289  28.253  31.653  1.00  0.00    -0.203 F 
ATOM     64  C   UNL A   1      38.098  28.943  31.148  1.00  0.00     0.198 A 
ATOM     65  C   UNL A   1      37.541  29.647  28.922  1.00  0.00     0.198 A 
ATOM     66  F   UNL A   1      39.168  29.592  27.226  1.00  0.00    -0.203 F 
ATOM     67  F   UNL A   1      37.730  28.687  32.411  1.00  0.00    -0.200 F 
ATOM     68  C   UNL A   1      37.166  29.417  30.237  1.00  0.00     0.200 A 
ATOM     69  F   UNL A   1      36.646  30.118  28.044  1.00  0.00    -0.200 F 
ATOM     70  F   UNL A   1      35.903  29.644  30.626  1.00  0.00    -0.200 F 
ENDBRANCH  46  60
BRANCH  47  71
ATOM     71  C   UNL A   1      48.994  26.800  26.040  1.00  0.00     0.064 A 
ATOM     72  C   UNL A   1      49.296  27.012  24.687  1.00  0.00     0.173 A 
ATOM     73  C   UNL A   1      50.014  26.300  26.863  1.00  0.00     0.173 A 
ATOM     74  F   UNL A   1      48.350  27.473  23.856  1.00  0.00    -0.203 F 
ATOM     75  C   UNL A   1      50.556  26.713  24.174  1.00  0.00     0.198 A 
ATOM     76  C   UNL A   1      51.284  26.033  26.356  1.00  0.00     0.198 A 
ATOM     77  F   UNL A   1      49.783  26.089  28.168  1.00  0.00    -0.203 F 
ATOM     78  F   UNL A   1      50.802  26.881  22.867  1.00  0.00    -0.200 F 
ATOM     79  C   UNL A   1      51.551  26.230  25.010  1.00  0.00     0.200 A 
ATOM     80  F   UNL A   1      52.248  25.586  27.172  1.00  0.00    -0.200 F 
ATOM     81  F   UNL A   1      52.766  25.949  24.518  1.00  0.00    -0.200 F 
ENDBRANCH  47  71
BRANCH  59  82
ATOM     82  C   UNL A   1      45.995  32.534  28.632  1.00  0.00     0.064 A 
ATOM     83  C   UNL A   1      46.617  32.868  29.843  1.00  0.00     0.173 A 
ATOM     84  C   UNL A   1      45.909  33.525  27.641  1.00  0.00     0.173 A 
ATOM     85  F   UNL A   1      46.710  31.959  30.826  1.00  0.00    -0.203 F 
ATOM     86  C   UNL A   1      47.109  34.151  30.064  1.00  0.00     0.198 A 
ATOM     87  C   UNL A   1      46.434  34.796  27.853  1.00  0.00     0.198 A 
ATOM     88  F   UNL A   1      45.331  33.254  26.461  1.00  0.00    -0.203 F 
ATOM     89  F   UNL A   1      47.653  34.462  31.248  1.00  0.00    -0.200 F 
ATOM     90  C   UNL A   1      47.025  35.110  29.066  1.00  0.00     0.200 A 
ATOM     91  F   UNL A   1      46.368  35.716  26.881  1.00  0.00    -0.200 F 
ATOM     92  F   UNL A   1      47.510  36.342  29.277  1.00  0.00    -0.200 F 
ENDBRANCH  59  82
ENDBRANCH  33  34
ENDBRANCH  25  28
ENDBRANCH  23  24
ENDBRANCH  22  23
ENDBRANCH   1  22
TORSDOF 14
ENDMDL
