MODEL 1
REMARK VINA RESULT:     -14.4      0.000      0.000
REMARK SMILES O=C(C[C@H](Cc1ccc(Cl)cc1)C(=O)Nc1cc(Cl)ccc1Cl)NCCCNC(=O)c1ccc(-c2c3nc(c(-c4c(F)c(F)c(F)c(F)c4F)c4ccc([nH]4)c(-c4c(F)c(F)c(F)c(F)c4F)c4nc(c(-c5c(F)c(F)c(F)c(F)c5F)c5ccc2[nH]5)C=C4)C=C3)cc1
REMARK SMILES IDX 25 1 24 2 1 3 2 4 3 6 4 7 13 8 14 9 15 10 16 12 17 13 22 14
REMARK SMILES IDX 18 15 21 16 23 17 19 18 20 19 5 20 6 21 7 22 12 23 8 24
REMARK SMILES IDX 11 25 9 26 10 27 26 28 27 29 28 30 29 31 30 33 31 34 32 35
REMARK SMILES IDX 93 36 33 37 92 38 34 39 35 40 36 41 86 42 37 43 91 44 85 45
REMARK SMILES IDX 87 46 38 47 90 48 84 49 83 50 39 52 71 53 51 54 70 55 52 56
REMARK SMILES IDX 55 57 69 58 88 59 53 60 54 61 68 63 89 64 56 65 40 66 41 67
REMARK SMILES IDX 49 68 42 69 43 70 47 71 50 72 44 73 45 74 48 75 46 76 72 77
REMARK SMILES IDX 73 78 81 79 74 80 75 81 79 82 82 83 76 84 77 85 80 86 78 87
REMARK SMILES IDX 57 88 58 89 66 90 59 91 60 92 64 93 67 94 61 95 62 96 65 97
REMARK SMILES IDX 63 98
REMARK H PARENT 24 5 15 11 28 32 87 51 55 62
REMARK Flexibility Score: inf
ROOT
ATOM      1  C   UNL A   1      36.772  20.836  25.480  1.00  0.00     0.117 C 
ENDROOT
BRANCH   1   2
ATOM      2  N   UNL A   1      35.604  22.345  26.316  1.00  0.00    -0.356 N 
ATOM      3  O   UNL A   1      35.302  24.579  25.449  1.00  0.00    -0.275 OA
ATOM      4  C   UNL A   1      34.910  23.603  26.085  1.00  0.00     0.220 C 
ATOM      5  H   UNL A   1      35.463  22.108  27.262  1.00  0.00     0.163 HD
BRANCH   4   6
ATOM      6  C   UNL A   1      33.548  23.677  26.760  1.00  0.00     0.113 C 
BRANCH   6   7
ATOM      7  C   UNL A   1      32.270  22.981  26.226  1.00  0.00     0.092 C 
BRANCH   7   8
ATOM      8  C   UNL A   1      30.901  23.502  26.751  1.00  0.00     0.228 C 
ATOM      9  O   UNL A   1      30.185  22.735  27.407  1.00  0.00    -0.274 OA
ATOM     10  N   UNL A   1      30.424  24.770  26.558  1.00  0.00    -0.324 N 
ATOM     11  H   UNL A   1      29.543  24.985  26.941  1.00  0.00     0.169 HD
BRANCH  10  12
ATOM     12  C   UNL A   1      31.083  25.785  25.861  1.00  0.00     0.061 A 
ATOM     13  C   UNL A   1      31.637  27.222  26.814  1.00  0.00     0.048 A 
ATOM     14  C   UNL A   1      30.690  25.929  24.086  1.00  0.00     0.064 A 
ATOM     15  C   UNL A   1      31.755  28.835  25.998  1.00  0.00     0.043 A 
ATOM     16  C   UNL A   1      30.782  27.564  23.295  1.00  0.00     0.024 A 
ATOM     17  Cl  UNL A   1      30.158  24.558  23.192  1.00  0.00    -0.082 Cl
ATOM     18  Cl  UNL A   1      32.232  30.214  26.897  1.00  0.00    -0.084 Cl
ATOM     19  C   UNL A   1      31.241  29.027  24.280  1.00  0.00     0.022 A 
ENDBRANCH  10  12
ENDBRANCH   7   8
BRANCH   7  20
ATOM     20  C   UNL A   1      32.195  22.472  24.754  1.00  0.00     0.049 C 
BRANCH  20  21
ATOM     21  C   UNL A   1      32.397  20.997  24.465  1.00  0.00    -0.047 A 
ATOM     22  C   UNL A   1      32.126  20.485  23.189  1.00  0.00     0.005 A 
ATOM     23  C   UNL A   1      32.820  20.095  25.451  1.00  0.00     0.005 A 
ATOM     24  C   UNL A   1      32.435  19.156  22.867  1.00  0.00     0.021 A 
ATOM     25  C   UNL A   1      33.186  18.787  25.121  1.00  0.00     0.021 A 
ATOM     26  C   UNL A   1      33.017  18.330  23.820  1.00  0.00     0.041 A 
ATOM     27  Cl  UNL A   1      33.543  16.752  23.386  1.00  0.00    -0.084 Cl
ENDBRANCH  20  21
ENDBRANCH   7  20
ENDBRANCH   6   7
ENDBRANCH   4   6
ENDBRANCH   1   2
BRANCH   1  28
ATOM     28  C   UNL A   1      38.405  20.748  24.987  1.00  0.00     0.042 C 
BRANCH  28  29
ATOM     29  C   UNL A   1      39.412  20.546  26.119  1.00  0.00     0.118 C 
BRANCH  29  30
ATOM     30  N   UNL A   1      40.245  19.353  25.996  1.00  0.00    -0.352 N 
ATOM     31  C   UNL A   1      41.612  19.299  26.142  1.00  0.00     0.251 C 
ATOM     32  H   UNL A   1      39.785  18.507  25.790  1.00  0.00     0.163 HD
ATOM     33  O   UNL A   1      42.249  18.269  25.984  1.00  0.00    -0.269 OA
BRANCH  31  34
ATOM     34  C   UNL A   1      42.279  20.575  26.436  1.00  0.00     0.039 A 
ATOM     35  C   UNL A   1      42.522  21.455  25.382  1.00  0.00     0.014 A 
ATOM     36  C   UNL A   1      42.408  20.969  27.766  1.00  0.00     0.014 A 
ATOM     37  C   UNL A   1      42.852  22.775  25.672  1.00  0.00     0.010 A 
ATOM     38  C   UNL A   1      42.645  22.306  28.050  1.00  0.00     0.010 A 
ATOM     39  C   UNL A   1      42.879  23.217  27.005  1.00  0.00    -0.014 A 
BRANCH  39  40
ATOM     40  C   UNL A   1      43.216  24.622  27.330  1.00  0.00     0.031 A 
ATOM     41  C   UNL A   1      44.614  25.109  27.081  1.00  0.00     0.074 A 
ATOM     42  C   UNL A   1      42.289  25.434  27.873  1.00  0.00     0.049 A 
ATOM     43  N   UNL A   1      45.139  26.282  27.320  1.00  0.00    -0.248 NA
ATOM     44  C   UNL A   1      45.562  24.133  26.514  1.00  0.00     0.031 C 
ATOM     45  C   UNL A   1      40.914  25.053  28.203  1.00  0.00     0.029 A 
ATOM     46  N   UNL A   1      42.365  26.753  28.244  1.00  0.00    -0.354 N 
ATOM     47  C   UNL A   1      46.472  26.176  26.949  1.00  0.00     0.074 A 
ATOM     48  C   UNL A   1      46.698  24.809  26.543  1.00  0.00     0.031 C 
ATOM     49  C   UNL A   1      40.268  26.123  28.696  1.00  0.00     0.029 A 
ATOM     50  C   UNL A   1      41.190  27.254  28.750  1.00  0.00     0.049 A 
ATOM     51  H   UNL A   1      43.185  27.290  28.156  1.00  0.00     0.167 HD
ATOM     52  C   UNL A   1      47.415  27.144  26.913  1.00  0.00     0.037 A 
ATOM     53  C   UNL A   1      40.897  28.488  29.204  1.00  0.00     0.037 A 
ATOM     54  C   UNL A   1      47.170  28.510  27.288  1.00  0.00     0.049 A 
ATOM     55  C   UNL A   1      41.969  29.547  29.166  1.00  0.00     0.074 A 
ATOM     56  C   UNL A   1      48.035  29.586  27.238  1.00  0.00     0.029 A 
ATOM     57  N   UNL A   1      45.963  28.982  27.786  1.00  0.00    -0.354 N 
ATOM     58  N   UNL A   1      43.206  29.458  28.739  1.00  0.00    -0.248 NA
ATOM     59  C   UNL A   1      41.604  30.880  29.664  1.00  0.00     0.031 C 
ATOM     60  C   UNL A   1      47.369  30.700  27.757  1.00  0.00     0.029 A 
ATOM     61  C   UNL A   1      46.070  30.332  28.072  1.00  0.00     0.049 A 
ATOM     62  H   UNL A   1      45.154  28.438  27.917  1.00  0.00     0.167 HD
ATOM     63  C   UNL A   1      43.755  30.725  28.885  1.00  0.00     0.074 A 
ATOM     64  C   UNL A   1      42.711  31.569  29.429  1.00  0.00     0.031 C 
ATOM     65  C   UNL A   1      45.008  31.153  28.597  1.00  0.00     0.037 A 
BRANCH  52  66
ATOM     66  C   UNL A   1      48.788  26.756  26.448  1.00  0.00     0.064 A 
ATOM     67  C   UNL A   1      49.721  26.168  27.316  1.00  0.00     0.173 A 
ATOM     68  C   UNL A   1      49.173  26.963  25.116  1.00  0.00     0.173 A 
ATOM     69  F   UNL A   1      49.411  25.962  28.606  1.00  0.00    -0.203 F 
ATOM     70  C   UNL A   1      51.000  25.838  26.878  1.00  0.00     0.198 A 
ATOM     71  C   UNL A   1      50.440  26.597  24.671  1.00  0.00     0.198 A 
ATOM     72  F   UNL A   1      48.320  27.520  24.243  1.00  0.00    -0.203 F 
ATOM     73  F   UNL A   1      51.895  25.337  27.741  1.00  0.00    -0.200 F 
ATOM     74  C   UNL A   1      51.357  26.045  25.554  1.00  0.00     0.200 A 
ATOM     75  F   UNL A   1      50.778  26.787  23.388  1.00  0.00    -0.200 F 
ATOM     76  F   UNL A   1      52.586  25.720  25.130  1.00  0.00    -0.200 F 
ENDBRANCH  52  66
BRANCH  53  77
ATOM     77  C   UNL A   1      39.531  28.800  29.707  1.00  0.00     0.064 A 
ATOM     78  C   UNL A   1      39.184  28.571  31.045  1.00  0.00     0.173 A 
ATOM     79  C   UNL A   1      38.541  29.318  28.859  1.00  0.00     0.173 A 
ATOM     80  F   UNL A   1      40.088  28.060  31.894  1.00  0.00    -0.203 F 
ATOM     81  C   UNL A   1      37.894  28.823  31.510  1.00  0.00     0.198 A 
ATOM     82  C   UNL A   1      37.260  29.599  29.331  1.00  0.00     0.198 A 
ATOM     83  F   UNL A   1      38.820  29.562  27.569  1.00  0.00    -0.203 F 
ATOM     84  F   UNL A   1      37.577  28.548  32.782  1.00  0.00    -0.200 F 
ATOM     85  C   UNL A   1      36.934  29.342  30.655  1.00  0.00     0.200 A 
ATOM     86  F   UNL A   1      36.341  30.116  28.504  1.00  0.00    -0.200 F 
ATOM     87  F   UNL A   1      35.695  29.587  31.103  1.00  0.00    -0.200 F 
ENDBRANCH  53  77
BRANCH  65  88
ATOM     88  C   UNL A   1      45.315  32.605  28.819  1.00  0.00     0.064 A 
ATOM     89  C   UNL A   1      45.026  33.577  27.851  1.00  0.00     0.173 A 
ATOM     90  C   UNL A   1      45.833  33.036  30.051  1.00  0.00     0.173 A 
ATOM     91  F   UNL A   1      44.541  33.214  26.654  1.00  0.00    -0.203 F 
ATOM     92  C   UNL A   1      45.260  34.926  28.101  1.00  0.00     0.198 A 
ATOM     93  C   UNL A   1      46.036  34.388  30.309  1.00  0.00     0.198 A 
ATOM     94  F   UNL A   1      46.117  32.146  31.013  1.00  0.00    -0.203 F 
ATOM     95  F   UNL A   1      45.014  35.834  27.147  1.00  0.00    -0.200 F 
ATOM     96  C   UNL A   1      45.754  35.331  29.333  1.00  0.00     0.200 A 
ATOM     97  F   UNL A   1      46.493  34.777  31.507  1.00  0.00    -0.200 F 
ATOM     98  F   UNL A   1      45.961  36.632  29.579  1.00  0.00    -0.200 F 
ENDBRANCH  65  88
ENDBRANCH  39  40
ENDBRANCH  31  34
ENDBRANCH  29  30
ENDBRANCH  28  29
ENDBRANCH   1  28
TORSDOF 15
ENDMDL
MODEL 2
REMARK VINA RESULT:     -14.4      0.720      7.373
REMARK SMILES O=C(C[C@H](Cc1ccc(Cl)cc1)C(=O)Nc1cc(Cl)ccc1Cl)NCCCNC(=O)c1ccc(-c2c3nc(c(-c4c(F)c(F)c(F)c(F)c4F)c4ccc([nH]4)c(-c4c(F)c(F)c(F)c(F)c4F)c4nc(c(-c5c(F)c(F)c(F)c(F)c5F)c5ccc2[nH]5)C=C4)C=C3)cc1
REMARK SMILES IDX 25 1 24 2 1 3 2 4 3 6 4 7 13 8 14 9 15 10 16 12 17 13 22 14
REMARK SMILES IDX 18 15 21 16 23 17 19 18 20 19 5 20 6 21 7 22 12 23 8 24
REMARK SMILES IDX 11 25 9 26 10 27 26 28 27 29 28 30 29 31 30 33 31 34 32 35
REMARK SMILES IDX 93 36 33 37 92 38 34 39 35 40 36 41 86 42 37 43 91 44 85 45
REMARK SMILES IDX 87 46 38 47 90 48 84 49 83 50 39 52 71 53 51 54 70 55 52 56
REMARK SMILES IDX 55 57 69 58 88 59 53 60 54 61 68 63 89 64 56 65 40 66 41 67
REMARK SMILES IDX 49 68 42 69 43 70 47 71 50 72 44 73 45 74 48 75 46 76 72 77
REMARK SMILES IDX 73 78 81 79 74 80 75 81 79 82 82 83 76 84 77 85 80 86 78 87
REMARK SMILES IDX 57 88 58 89 66 90 59 91 60 92 64 93 67 94 61 95 62 96 65 97
REMARK SMILES IDX 63 98
REMARK H PARENT 24 5 15 11 28 32 87 51 55 62
REMARK Flexibility Score: inf
ROOT
ATOM      1  C   UNL A   1      36.874  20.807  25.389  1.00  0.00     0.117 C 
ENDROOT
BRANCH   1   2
ATOM      2  N   UNL A   1      35.533  21.944  26.505  1.00  0.00    -0.356 N 
ATOM      3  O   UNL A   1      34.881  24.231  26.077  1.00  0.00    -0.275 OA
ATOM      4  C   UNL A   1      34.657  23.106  26.521  1.00  0.00     0.220 C 
ATOM      5  H   UNL A   1      35.461  21.517  27.390  1.00  0.00     0.163 HD
BRANCH   4   6
ATOM      6  C   UNL A   1      33.324  22.851  27.210  1.00  0.00     0.113 C 
BRANCH   6   7
ATOM      7  C   UNL A   1      31.997  22.559  26.462  1.00  0.00     0.092 C 
BRANCH   7   8
ATOM      8  C   UNL A   1      30.761  23.427  26.836  1.00  0.00     0.228 C 
ATOM      9  O   UNL A   1      29.863  22.921  27.519  1.00  0.00    -0.274 OA
ATOM     10  N   UNL A   1      30.594  24.738  26.478  1.00  0.00    -0.324 N 
ATOM     11  H   UNL A   1      29.769  25.186  26.775  1.00  0.00     0.169 HD
BRANCH  10  12
ATOM     12  C   UNL A   1      31.495  25.492  25.724  1.00  0.00     0.061 A 
ATOM     13  C   UNL A   1      32.415  26.793  26.586  1.00  0.00     0.048 A 
ATOM     14  C   UNL A   1      31.147  25.615  23.938  1.00  0.00     0.064 A 
ATOM     15  C   UNL A   1      32.952  28.258  25.667  1.00  0.00     0.043 A 
ATOM     16  C   UNL A   1      31.665  27.110  23.041  1.00  0.00     0.024 A 
ATOM     17  Cl  UNL A   1      30.266  24.377  23.130  1.00  0.00    -0.082 Cl
ATOM     18  Cl  UNL A   1      33.782  29.518  26.479  1.00  0.00    -0.084 Cl
ATOM     19  C   UNL A   1      32.500  28.462  23.933  1.00  0.00     0.022 A 
ENDBRANCH  10  12
ENDBRANCH   7   8
BRANCH   7  20
ATOM     20  C   UNL A   1      32.003  22.136  24.962  1.00  0.00     0.049 C 
BRANCH  20  21
ATOM     21  C   UNL A   1      32.322  20.699  24.594  1.00  0.00    -0.047 A 
ATOM     22  C   UNL A   1      32.142  20.251  23.278  1.00  0.00     0.005 A 
ATOM     23  C   UNL A   1      32.766  19.767  25.544  1.00  0.00     0.005 A 
ATOM     24  C   UNL A   1      32.558  18.970  22.892  1.00  0.00     0.021 A 
ATOM     25  C   UNL A   1      33.237  18.511  25.153  1.00  0.00     0.021 A 
ATOM     26  C   UNL A   1      33.157  18.127  23.820  1.00  0.00     0.041 A 
ATOM     27  Cl  UNL A   1      33.811  16.619  23.317  1.00  0.00    -0.084 Cl
ENDBRANCH  20  21
ENDBRANCH   7  20
ENDBRANCH   6   7
ENDBRANCH   4   6
ENDBRANCH   1   2
BRANCH   1  28
ATOM     28  C   UNL A   1      38.534  20.972  25.018  1.00  0.00     0.042 C 
BRANCH  28  29
ATOM     29  C   UNL A   1      39.488  20.677  26.176  1.00  0.00     0.118 C 
BRANCH  29  30
ATOM     30  N   UNL A   1      40.216  19.417  26.067  1.00  0.00    -0.352 N 
ATOM     31  C   UNL A   1      41.579  19.256  26.171  1.00  0.00     0.251 C 
ATOM     32  H   UNL A   1      39.683  18.605  25.903  1.00  0.00     0.163 HD
ATOM     33  O   UNL A   1      42.126  18.173  26.028  1.00  0.00    -0.269 OA
BRANCH  31  34
ATOM     34  C   UNL A   1      42.356  20.481  26.401  1.00  0.00     0.039 A 
ATOM     35  C   UNL A   1      42.719  21.254  25.298  1.00  0.00     0.014 A 
ATOM     36  C   UNL A   1      42.478  20.960  27.705  1.00  0.00     0.014 A 
ATOM     37  C   UNL A   1      43.166  22.555  25.508  1.00  0.00     0.010 A 
ATOM     38  C   UNL A   1      42.833  22.286  27.902  1.00  0.00     0.010 A 
ATOM     39  C   UNL A   1      43.190  23.090  26.806  1.00  0.00    -0.014 A 
BRANCH  39  40
ATOM     40  C   UNL A   1      43.650  24.477  27.045  1.00  0.00     0.031 A 
ATOM     41  C   UNL A   1      42.672  25.483  27.579  1.00  0.00     0.074 A 
ATOM     42  C   UNL A   1      44.916  24.833  26.752  1.00  0.00     0.049 A 
ATOM     43  N   UNL A   1      42.844  26.755  27.830  1.00  0.00    -0.248 NA
ATOM     44  C   UNL A   1      41.304  25.001  27.836  1.00  0.00     0.031 C 
ATOM     45  C   UNL A   1      45.937  23.951  26.185  1.00  0.00     0.029 A 
ATOM     46  N   UNL A   1      45.560  26.037  26.894  1.00  0.00    -0.354 N 
ATOM     47  C   UNL A   1      41.608  27.220  28.256  1.00  0.00     0.074 A 
ATOM     48  C   UNL A   1      40.677  26.121  28.156  1.00  0.00     0.031 C 
ATOM     49  C   UNL A   1      47.087  24.633  26.057  1.00  0.00     0.029 A 
ATOM     50  C   UNL A   1      46.876  26.009  26.500  1.00  0.00     0.049 A 
ATOM     51  H   UNL A   1      45.120  26.844  27.244  1.00  0.00     0.167 HD
ATOM     52  C   UNL A   1      41.287  28.447  28.725  1.00  0.00     0.037 A 
ATOM     53  C   UNL A   1      47.803  26.987  26.500  1.00  0.00     0.037 A 
ATOM     54  C   UNL A   1      42.229  29.524  28.851  1.00  0.00     0.049 A 
ATOM     55  C   UNL A   1      47.417  28.350  27.017  1.00  0.00     0.074 A 
ATOM     56  C   UNL A   1      42.028  30.790  29.366  1.00  0.00     0.029 A 
ATOM     57  N   UNL A   1      43.558  29.455  28.452  1.00  0.00    -0.354 N 
ATOM     58  N   UNL A   1      46.265  28.759  27.492  1.00  0.00    -0.248 NA
ATOM     59  C   UNL A   1      48.461  29.384  27.005  1.00  0.00     0.031 C 
ATOM     60  C   UNL A   1      43.221  31.507  29.229  1.00  0.00     0.029 A 
ATOM     61  C   UNL A   1      44.182  30.668  28.686  1.00  0.00     0.049 A 
ATOM     62  H   UNL A   1      43.990  28.663  28.060  1.00  0.00     0.167 HD
ATOM     63  C   UNL A   1      46.453  30.084  27.865  1.00  0.00     0.074 A 
ATOM     64  C   UNL A   1      47.835  30.405  27.572  1.00  0.00     0.031 C 
ATOM     65  C   UNL A   1      45.565  30.956  28.401  1.00  0.00     0.037 A 
BRANCH  52  66
ATOM     66  C   UNL A   1      39.863  28.679  29.139  1.00  0.00     0.064 A 
ATOM     67  C   UNL A   1      38.904  29.171  28.240  1.00  0.00     0.173 A 
ATOM     68  C   UNL A   1      39.448  28.395  30.448  1.00  0.00     0.173 A 
ATOM     69  F   UNL A   1      39.252  29.475  26.979  1.00  0.00    -0.203 F 
ATOM     70  C   UNL A   1      37.594  29.406  28.645  1.00  0.00     0.198 A 
ATOM     71  C   UNL A   1      38.128  28.595  30.841  1.00  0.00     0.198 A 
ATOM     72  F   UNL A   1      40.323  27.921  31.349  1.00  0.00    -0.203 F 
ATOM     73  F   UNL A   1      36.713  29.937  27.786  1.00  0.00    -0.200 F 
ATOM     74  C   UNL A   1      37.204  29.111  29.943  1.00  0.00     0.200 A 
ATOM     75  F   UNL A   1      37.750  28.298  32.091  1.00  0.00    -0.200 F 
ATOM     76  F   UNL A   1      35.940  29.331  30.331  1.00  0.00    -0.200 F 
ENDBRANCH  52  66
BRANCH  53  77
ATOM     77  C   UNL A   1      49.186  26.712  26.024  1.00  0.00     0.064 A 
ATOM     78  C   UNL A   1      49.579  27.037  24.718  1.00  0.00     0.173 A 
ATOM     79  C   UNL A   1      50.139  26.107  26.856  1.00  0.00     0.173 A 
ATOM     80  F   UNL A   1      48.701  27.601  23.875  1.00  0.00    -0.203 F 
ATOM     81  C   UNL A   1      50.861  26.745  24.256  1.00  0.00     0.198 A 
ATOM     82  C   UNL A   1      51.431  25.843  26.403  1.00  0.00     0.198 A 
ATOM     83  F   UNL A   1      49.820  25.780  28.118  1.00  0.00    -0.203 F 
ATOM     84  F   UNL A   1      51.192  27.021  22.987  1.00  0.00    -0.200 F 
ATOM     85  C   UNL A   1      51.788  26.153  25.099  1.00  0.00     0.200 A 
ATOM     86  F   UNL A   1      52.327  25.286  27.228  1.00  0.00    -0.200 F 
ATOM     87  F   UNL A   1      53.021  25.874  24.655  1.00  0.00    -0.200 F 
ENDBRANCH  53  77
BRANCH  65  88
ATOM     88  C   UNL A   1      46.062  32.328  28.749  1.00  0.00     0.064 A 
ATOM     89  C   UNL A   1      46.686  32.598  29.975  1.00  0.00     0.173 A 
ATOM     90  C   UNL A   1      45.981  33.367  27.808  1.00  0.00     0.173 A 
ATOM     91  F   UNL A   1      46.776  31.642  30.912  1.00  0.00    -0.203 F 
ATOM     92  C   UNL A   1      47.196  33.862  30.254  1.00  0.00     0.198 A 
ATOM     93  C   UNL A   1      46.522  34.620  28.078  1.00  0.00     0.198 A 
ATOM     94  F   UNL A   1      45.403  33.157  26.617  1.00  0.00    -0.203 F 
ATOM     95  F   UNL A   1      47.753  34.110  31.447  1.00  0.00    -0.200 F 
ATOM     96  C   UNL A   1      47.123  34.869  29.302  1.00  0.00     0.200 A 
ATOM     97  F   UNL A   1      46.469  35.584  27.148  1.00  0.00    -0.200 F 
ATOM     98  F   UNL A   1      47.632  36.080  29.564  1.00  0.00    -0.200 F 
ENDBRANCH  65  88
ENDBRANCH  39  40
ENDBRANCH  31  34
ENDBRANCH  29  30
ENDBRANCH  28  29
ENDBRANCH   1  28
TORSDOF 15
ENDMDL
MODEL 3
REMARK VINA RESULT:     -14.3      5.081     10.854
REMARK SMILES O=C(C[C@H](Cc1ccc(Cl)cc1)C(=O)Nc1cc(Cl)ccc1Cl)NCCCNC(=O)c1ccc(-c2c3nc(c(-c4c(F)c(F)c(F)c(F)c4F)c4ccc([nH]4)c(-c4c(F)c(F)c(F)c(F)c4F)c4nc(c(-c5c(F)c(F)c(F)c(F)c5F)c5ccc2[nH]5)C=C4)C=C3)cc1
REMARK SMILES IDX 25 1 24 2 1 3 2 4 3 6 4 7 13 8 14 9 15 10 16 12 17 13 22 14
REMARK SMILES IDX 18 15 21 16 23 17 19 18 20 19 5 20 6 21 7 22 12 23 8 24
REMARK SMILES IDX 11 25 9 26 10 27 26 28 27 29 28 30 29 31 30 33 31 34 32 35
REMARK SMILES IDX 93 36 33 37 92 38 34 39 35 40 36 41 86 42 37 43 91 44 85 45
REMARK SMILES IDX 87 46 38 47 90 48 84 49 83 50 39 52 71 53 51 54 70 55 52 56
REMARK SMILES IDX 55 57 69 58 88 59 53 60 54 61 68 63 89 64 56 65 40 66 41 67
REMARK SMILES IDX 49 68 42 69 43 70 47 71 50 72 44 73 45 74 48 75 46 76 72 77
REMARK SMILES IDX 73 78 81 79 74 80 75 81 79 82 82 83 76 84 77 85 80 86 78 87
REMARK SMILES IDX 57 88 58 89 66 90 59 91 60 92 64 93 67 94 61 95 62 96 65 97
REMARK SMILES IDX 63 98
REMARK H PARENT 24 5 15 11 28 32 87 51 55 62
REMARK Flexibility Score: inf
ROOT
ATOM      1  C   UNL A   1      32.755  30.045  26.060  1.00  0.00     0.117 C 
ENDROOT
BRANCH   1   2
ATOM      2  N   UNL A   1      32.780  27.987  26.382  1.00  0.00    -0.356 N 
ATOM      3  O   UNL A   1      30.899  26.603  26.997  1.00  0.00    -0.275 OA
ATOM      4  C   UNL A   1      31.991  26.767  26.458  1.00  0.00     0.220 C 
ATOM      5  H   UNL A   1      33.717  27.735  26.555  1.00  0.00     0.163 HD
BRANCH   4   6
ATOM      6  C   UNL A   1      32.660  25.570  25.797  1.00  0.00     0.113 C 
BRANCH   6   7
ATOM      7  C   UNL A   1      31.915  24.276  25.377  1.00  0.00     0.092 C 
BRANCH   7   8
ATOM      8  C   UNL A   1      31.586  23.247  26.497  1.00  0.00     0.228 C 
ATOM      9  O   UNL A   1      30.820  23.585  27.408  1.00  0.00    -0.274 OA
ATOM     10  N   UNL A   1      32.070  21.968  26.546  1.00  0.00    -0.324 N 
ATOM     11  H   UNL A   1      31.788  21.407  27.305  1.00  0.00     0.169 HD
BRANCH  10  12
ATOM     12  C   UNL A   1      32.931  21.393  25.610  1.00  0.00     0.061 A 
ATOM     13  C   UNL A   1      32.372  19.878  24.788  1.00  0.00     0.048 A 
ATOM     14  C   UNL A   1      34.708  21.741  25.830  1.00  0.00     0.064 A 
ATOM     15  C   UNL A   1      33.598  18.673  24.220  1.00  0.00     0.043 A 
ATOM     16  C   UNL A   1      35.921  20.501  25.283  1.00  0.00     0.024 A 
ATOM     17  Cl  UNL A   1      35.228  23.179  26.619  1.00  0.00    -0.082 Cl
ATOM     18  Cl  UNL A   1      33.083  17.214  23.482  1.00  0.00    -0.084 Cl
ATOM     19  C   UNL A   1      35.352  18.934  24.548  1.00  0.00     0.022 A 
ENDBRANCH  10  12
ENDBRANCH   7   8
BRANCH   7  20
ATOM     20  C   UNL A   1      30.838  24.305  24.251  1.00  0.00     0.049 C 
BRANCH  20  21
ATOM     21  C   UNL A   1      30.468  25.628  23.607  1.00  0.00    -0.047 A 
ATOM     22  C   UNL A   1      29.249  26.246  23.915  1.00  0.00     0.005 A 
ATOM     23  C   UNL A   1      31.297  26.257  22.666  1.00  0.00     0.005 A 
ATOM     24  C   UNL A   1      28.952  27.529  23.436  1.00  0.00     0.021 A 
ATOM     25  C   UNL A   1      31.035  27.559  22.233  1.00  0.00     0.021 A 
ATOM     26  C   UNL A   1      29.873  28.202  22.643  1.00  0.00     0.041 A 
ATOM     27  Cl  UNL A   1      29.585  29.833  22.184  1.00  0.00    -0.084 Cl
ENDBRANCH  20  21
ENDBRANCH   7  20
ENDBRANCH   6   7
ENDBRANCH   4   6
ENDBRANCH   1   2
BRANCH   1  28
ATOM     28  C   UNL A   1      32.092  31.363  26.921  1.00  0.00     0.042 C 
BRANCH  28  29
ATOM     29  C   UNL A   1      33.112  32.386  27.424  1.00  0.00     0.118 C 
BRANCH  29  30
ATOM     30  N   UNL A   1      32.578  33.725  27.654  1.00  0.00    -0.352 N 
ATOM     31  C   UNL A   1      33.065  34.648  28.552  1.00  0.00     0.251 C 
ATOM     32  H   UNL A   1      31.797  33.993  27.118  1.00  0.00     0.163 HD
ATOM     33  O   UNL A   1      32.540  35.739  28.721  1.00  0.00    -0.269 OA
BRANCH  31  34
ATOM     34  C   UNL A   1      34.221  34.223  29.351  1.00  0.00     0.039 A 
ATOM     35  C   UNL A   1      34.010  33.326  30.398  1.00  0.00     0.014 A 
ATOM     36  C   UNL A   1      35.500  34.517  28.884  1.00  0.00     0.014 A 
ATOM     37  C   UNL A   1      35.105  32.672  30.954  1.00  0.00     0.010 A 
ATOM     38  C   UNL A   1      36.577  33.794  29.375  1.00  0.00     0.010 A 
ATOM     39  C   UNL A   1      36.389  32.875  30.422  1.00  0.00    -0.014 A 
BRANCH  39  40
ATOM     40  C   UNL A   1      37.564  32.176  30.993  1.00  0.00     0.031 A 
ATOM     41  C   UNL A   1      38.035  32.555  32.367  1.00  0.00     0.074 A 
ATOM     42  C   UNL A   1      38.216  31.243  30.272  1.00  0.00     0.049 A 
ATOM     43  N   UNL A   1      39.056  32.103  33.047  1.00  0.00    -0.248 NA
ATOM     44  C   UNL A   1      37.273  33.609  33.059  1.00  0.00     0.031 C 
ATOM     45  C   UNL A   1      37.875  30.831  28.910  1.00  0.00     0.029 A 
ATOM     46  N   UNL A   1      39.305  30.471  30.589  1.00  0.00    -0.354 N 
ATOM     47  C   UNL A   1      39.064  32.828  34.231  1.00  0.00     0.074 A 
ATOM     48  C   UNL A   1      37.999  33.799  34.147  1.00  0.00     0.031 C 
ATOM     49  C   UNL A   1      38.716  29.859  28.520  1.00  0.00     0.029 A 
ATOM     50  C   UNL A   1      39.677  29.603  29.591  1.00  0.00     0.049 A 
ATOM     51  H   UNL A   1      39.775  30.532  31.451  1.00  0.00     0.167 HD
ATOM     52  C   UNL A   1      39.864  32.669  35.309  1.00  0.00     0.037 A 
ATOM     53  C   UNL A   1      40.681  28.706  29.550  1.00  0.00     0.037 A 
ATOM     54  C   UNL A   1      40.899  31.676  35.395  1.00  0.00     0.049 A 
ATOM     55  C   UNL A   1      41.568  28.557  30.760  1.00  0.00     0.074 A 
ATOM     56  C   UNL A   1      41.732  31.388  36.458  1.00  0.00     0.029 A 
ATOM     57  N   UNL A   1      41.239  30.808  34.366  1.00  0.00    -0.354 N 
ATOM     58  N   UNL A   1      41.518  29.193  31.907  1.00  0.00    -0.248 NA
ATOM     59  C   UNL A   1      42.645  27.562  30.675  1.00  0.00     0.031 C 
ATOM     60  C   UNL A   1      42.615  30.382  36.056  1.00  0.00     0.029 A 
ATOM     61  C   UNL A   1      42.291  29.999  34.763  1.00  0.00     0.049 A 
ATOM     62  H   UNL A   1      40.800  30.773  33.486  1.00  0.00     0.167 HD
ATOM     63  C   UNL A   1      42.531  28.653  32.689  1.00  0.00     0.074 A 
ATOM     64  C   UNL A   1      43.172  27.629  31.889  1.00  0.00     0.031 C 
ATOM     65  C   UNL A   1      42.899  28.975  33.953  1.00  0.00     0.037 A 
BRANCH  52  66
ATOM     66  C   UNL A   1      39.642  33.587  36.476  1.00  0.00     0.064 A 
ATOM     67  C   UNL A   1      38.826  33.222  37.557  1.00  0.00     0.173 A 
ATOM     68  C   UNL A   1      40.264  34.843  36.520  1.00  0.00     0.173 A 
ATOM     69  F   UNL A   1      38.194  32.037  37.559  1.00  0.00    -0.203 F 
ATOM     70  C   UNL A   1      38.609  34.094  38.620  1.00  0.00     0.198 A 
ATOM     71  C   UNL A   1      40.075  35.699  37.601  1.00  0.00     0.198 A 
ATOM     72  F   UNL A   1      41.056  35.243  35.513  1.00  0.00    -0.203 F 
ATOM     73  F   UNL A   1      37.774  33.749  39.610  1.00  0.00    -0.200 F 
ATOM     74  C   UNL A   1      39.240  35.329  38.646  1.00  0.00     0.200 A 
ATOM     75  F   UNL A   1      40.695  36.886  37.630  1.00  0.00    -0.200 F 
ATOM     76  F   UNL A   1      39.036  36.166  39.672  1.00  0.00    -0.200 F 
ENDBRANCH  52  66
BRANCH  53  77
ATOM     77  C   UNL A   1      40.887  27.862  28.342  1.00  0.00     0.064 A 
ATOM     78  C   UNL A   1      41.681  28.308  27.275  1.00  0.00     0.173 A 
ATOM     79  C   UNL A   1      40.285  26.601  28.219  1.00  0.00     0.173 A 
ATOM     80  F   UNL A   1      42.265  29.514  27.334  1.00  0.00    -0.203 F 
ATOM     81  C   UNL A   1      41.843  27.538  26.125  1.00  0.00     0.198 A 
ATOM     82  C   UNL A   1      40.472  25.818  27.081  1.00  0.00     0.198 A 
ATOM     83  F   UNL A   1      39.520  26.122  29.212  1.00  0.00    -0.203 F 
ATOM     84  F   UNL A   1      42.566  28.011  25.101  1.00  0.00    -0.200 F 
ATOM     85  C   UNL A   1      41.244  26.292  26.030  1.00  0.00     0.200 A 
ATOM     86  F   UNL A   1      39.905  24.607  27.002  1.00  0.00    -0.200 F 
ATOM     87  F   UNL A   1      41.402  25.551  24.925  1.00  0.00    -0.200 F 
ENDBRANCH  53  77
BRANCH  65  88
ATOM     88  C   UNL A   1      44.016  28.187  34.572  1.00  0.00     0.064 A 
ATOM     89  C   UNL A   1      45.341  28.644  34.551  1.00  0.00     0.173 A 
ATOM     90  C   UNL A   1      43.741  26.997  35.264  1.00  0.00     0.173 A 
ATOM     91  F   UNL A   1      45.657  29.769  33.892  1.00  0.00    -0.203 F 
ATOM     92  C   UNL A   1      46.353  27.930  35.185  1.00  0.00     0.198 A 
ATOM     93  C   UNL A   1      44.749  26.303  35.925  1.00  0.00     0.198 A 
ATOM     94  F   UNL A   1      42.487  26.523  35.322  1.00  0.00    -0.203 F 
ATOM     95  F   UNL A   1      47.619  28.363  35.119  1.00  0.00    -0.200 F 
ATOM     96  C   UNL A   1      46.055  26.767  35.880  1.00  0.00     0.200 A 
ATOM     97  F   UNL A   1      44.455  25.191  36.613  1.00  0.00    -0.200 F 
ATOM     98  F   UNL A   1      47.027  26.090  36.507  1.00  0.00    -0.200 F 
ENDBRANCH  65  88
ENDBRANCH  39  40
ENDBRANCH  31  34
ENDBRANCH  29  30
ENDBRANCH  28  29
ENDBRANCH   1  28
TORSDOF 15
ENDMDL
