MODEL 1
REMARK VINA RESULT:     -10.2      0.000      0.000
REMARK SMILES O=C(C[C@H]1CN(C(=O)NCc2ccc(Br)cc2)CCO1)NCCCNC(=O)c1ccc(-c2c3nc(c(-c4c(F)c(F)c(F)c(F)c4F)c4ccc([nH]4)c(-c4c(F)c(F)c(F)c(F)c4F)c4nc(c(-c5c(F)c(F)c(F)c(F)c5F)c5ccc2[nH]5)C=C4)C=C3)cc1
REMARK SMILES IDX 22 1 21 2 1 3 2 4 3 6 4 7 5 8 20 9 6 10 19 11 18 12 7 13
REMARK SMILES IDX 8 14 9 15 10 17 11 18 12 19 17 20 13 21 16 22 14 23 15 24
REMARK SMILES IDX 23 25 24 26 25 27 26 28 27 30 28 31 29 32 90 33 30 34 89 35
REMARK SMILES IDX 31 36 32 37 33 38 83 39 34 40 88 41 82 42 84 43 35 44 87 45
REMARK SMILES IDX 81 46 80 47 36 49 68 50 48 51 67 52 49 53 52 54 66 55 85 56
REMARK SMILES IDX 50 57 51 58 65 60 86 61 53 62 37 63 38 64 46 65 39 66 40 67
REMARK SMILES IDX 44 68 47 69 41 70 42 71 45 72 43 73 69 74 70 75 78 76 71 77
REMARK SMILES IDX 72 78 76 79 79 80 73 81 74 82 77 83 75 84 54 85 55 86 63 87
REMARK SMILES IDX 56 88 57 89 61 90 64 91 58 92 59 93 62 94 60 95
REMARK H PARENT 21 5 9 16 25 29 84 48 52 59
REMARK Flexibility Score: inf
ROOT
ATOM      1  C   UNL A   1      33.412  35.094  29.613  1.00  0.00     0.117 C 
ENDROOT
BRANCH   1   2
ATOM      2  N   UNL A   1      34.141  34.614  30.782  1.00  0.00    -0.356 N 
ATOM      3  O   UNL A   1      32.459  35.051  32.252  1.00  0.00    -0.275 OA
ATOM      4  C   UNL A   1      33.567  34.561  32.033  1.00  0.00     0.222 C 
ATOM      5  H   UNL A   1      35.073  34.318  30.672  1.00  0.00     0.163 HD
BRANCH   4   6
ATOM      6  C   UNL A   1      34.375  33.959  33.184  1.00  0.00     0.133 C 
BRANCH   6   7
ATOM      7  C   UNL A   1      35.431  34.845  33.850  1.00  0.00     0.147 C 
ATOM      8  C   UNL A   1      36.092  34.200  35.103  1.00  0.00     0.154 C 
ATOM      9  O   UNL A   1      36.417  35.270  32.888  1.00  0.00    -0.374 OA
ATOM     10  N   UNL A   1      37.145  33.234  34.789  1.00  0.00    -0.320 N 
ATOM     11  C   UNL A   1      37.336  34.226  32.539  1.00  0.00     0.182 C 
ATOM     12  C   UNL A   1      38.083  33.745  33.777  1.00  0.00     0.150 C 
BRANCH  10  13
ATOM     13  C   UNL A   1      37.485  32.060  35.390  1.00  0.00     0.317 C 
ATOM     14  O   UNL A   1      37.550  31.967  36.622  1.00  0.00    -0.249 OA
ATOM     15  N   UNL A   1      37.778  30.920  34.760  1.00  0.00    -0.334 N 
ATOM     16  H   UNL A   1      37.988  30.219  35.419  1.00  0.00     0.165 HD
BRANCH  15  17
ATOM     17  C   UNL A   1      37.887  30.386  33.425  1.00  0.00     0.153 C 
BRANCH  17  18
ATOM     18  C   UNL A   1      39.234  29.743  33.194  1.00  0.00    -0.029 A 
ATOM     19  C   UNL A   1      39.324  28.511  32.538  1.00  0.00     0.007 A 
ATOM     20  C   UNL A   1      40.421  30.342  33.632  1.00  0.00     0.007 A 
ATOM     21  C   UNL A   1      40.542  27.847  32.387  1.00  0.00     0.016 A 
ATOM     22  C   UNL A   1      41.650  29.687  33.481  1.00  0.00     0.016 A 
ATOM     23  C   UNL A   1      41.700  28.432  32.877  1.00  0.00     0.017 A 
ATOM     24  Br  UNL A   1      43.345  27.515  32.737  1.00  0.00    -0.051 Br
ENDBRANCH  17  18
ENDBRANCH  15  17
ENDBRANCH  10  13
ENDBRANCH   6   7
ENDBRANCH   4   6
ENDBRANCH   1   2
BRANCH   1  25
ATOM     25  C   UNL A   1      33.408  34.133  28.422  1.00  0.00     0.042 C 
BRANCH  25  26
ATOM     26  C   UNL A   1      34.299  32.898  28.572  1.00  0.00     0.118 C 
BRANCH  26  27
ATOM     27  N   UNL A   1      33.667  31.661  28.138  1.00  0.00    -0.352 N 
ATOM     28  C   UNL A   1      34.204  30.409  27.967  1.00  0.00     0.251 C 
ATOM     29  H   UNL A   1      32.706  31.732  27.937  1.00  0.00     0.163 HD
ATOM     30  O   UNL A   1      33.489  29.505  27.533  1.00  0.00    -0.269 OA
BRANCH  28  31
ATOM     31  C   UNL A   1      35.629  30.114  28.263  1.00  0.00     0.039 A 
ATOM     32  C   UNL A   1      36.553  30.186  27.213  1.00  0.00     0.014 A 
ATOM     33  C   UNL A   1      36.057  29.696  29.524  1.00  0.00     0.014 A 
ATOM     34  C   UNL A   1      37.904  29.895  27.436  1.00  0.00     0.010 A 
ATOM     35  C   UNL A   1      37.414  29.431  29.754  1.00  0.00     0.010 A 
ATOM     36  C   UNL A   1      38.353  29.535  28.716  1.00  0.00    -0.014 A 
BRANCH  36  37
ATOM     37  C   UNL A   1      39.799  29.290  28.982  1.00  0.00     0.031 A 
ATOM     38  C   UNL A   1      40.650  30.336  29.648  1.00  0.00     0.074 A 
ATOM     39  C   UNL A   1      40.366  28.134  28.585  1.00  0.00     0.049 A 
ATOM     40  N   UNL A   1      41.938  30.325  29.891  1.00  0.00    -0.248 NA
ATOM     41  C   UNL A   1      39.966  31.561  30.089  1.00  0.00     0.031 C 
ATOM     42  C   UNL A   1      39.664  27.037  27.919  1.00  0.00     0.029 A 
ATOM     43  N   UNL A   1      41.666  27.696  28.670  1.00  0.00    -0.354 N 
ATOM     44  C   UNL A   1      42.221  31.538  30.505  1.00  0.00     0.074 A 
ATOM     45  C   UNL A   1      40.976  32.275  30.568  1.00  0.00     0.031 C 
ATOM     46  C   UNL A   1      40.539  26.050  27.661  1.00  0.00     0.029 A 
ATOM     47  C   UNL A   1      41.869  26.459  28.107  1.00  0.00     0.049 A 
ATOM     48  H   UNL A   1      42.384  28.219  29.094  1.00  0.00     0.167 HD
ATOM     49  C   UNL A   1      43.406  31.991  30.984  1.00  0.00     0.037 A 
ATOM     50  C   UNL A   1      42.998  25.740  27.950  1.00  0.00     0.037 A 
ATOM     51  C   UNL A   1      44.646  31.258  30.941  1.00  0.00     0.049 A 
ATOM     52  C   UNL A   1      44.308  26.283  28.457  1.00  0.00     0.074 A 
ATOM     53  C   UNL A   1      45.885  31.628  31.438  1.00  0.00     0.029 A 
ATOM     54  N   UNL A   1      44.807  30.006  30.366  1.00  0.00    -0.354 N 
ATOM     55  N   UNL A   1      44.552  27.413  29.074  1.00  0.00    -0.248 NA
ATOM     56  C   UNL A   1      45.500  25.447  28.247  1.00  0.00     0.031 C 
ATOM     57  C   UNL A   1      46.805  30.622  31.124  1.00  0.00     0.029 A 
ATOM     58  C   UNL A   1      46.130  29.602  30.477  1.00  0.00     0.049 A 
ATOM     59  H   UNL A   1      44.090  29.483  29.941  1.00  0.00     0.167 HD
ATOM     60  C   UNL A   1      45.912  27.407  29.358  1.00  0.00     0.074 A 
ATOM     61  C   UNL A   1      46.442  26.160  28.848  1.00  0.00     0.031 C 
ATOM     62  C   UNL A   1      46.649  28.351  29.989  1.00  0.00     0.037 A 
BRANCH  49  63
ATOM     63  C   UNL A   1      43.431  33.362  31.598  1.00  0.00     0.064 A 
ATOM     64  C   UNL A   1      43.304  33.549  32.982  1.00  0.00     0.173 A 
ATOM     65  C   UNL A   1      43.647  34.494  30.799  1.00  0.00     0.173 A 
ATOM     66  F   UNL A   1      43.089  32.499  33.788  1.00  0.00    -0.203 F 
ATOM     67  C   UNL A   1      43.368  34.823  33.541  1.00  0.00     0.198 A 
ATOM     68  C   UNL A   1      43.739  35.764  31.364  1.00  0.00     0.198 A 
ATOM     69  F   UNL A   1      43.787  34.369  29.470  1.00  0.00    -0.203 F 
ATOM     70  F   UNL A   1      43.203  34.983  34.861  1.00  0.00    -0.200 F 
ATOM     71  C   UNL A   1      43.593  35.928  32.732  1.00  0.00     0.200 A 
ATOM     72  F   UNL A   1      43.971  36.829  30.583  1.00  0.00    -0.200 F 
ATOM     73  F   UNL A   1      43.663  37.152  33.273  1.00  0.00    -0.200 F 
ENDBRANCH  49  63
BRANCH  50  74
ATOM     74  C   UNL A   1      42.941  24.414  27.282  1.00  0.00     0.064 A 
ATOM     75  C   UNL A   1      43.237  24.282  25.918  1.00  0.00     0.173 A 
ATOM     76  C   UNL A   1      42.578  23.258  27.988  1.00  0.00     0.173 A 
ATOM     77  F   UNL A   1      43.563  25.364  25.196  1.00  0.00    -0.203 F 
ATOM     78  C   UNL A   1      43.158  23.045  25.282  1.00  0.00     0.198 A 
ATOM     79  C   UNL A   1      42.526  22.017  27.356  1.00  0.00     0.198 A 
ATOM     80  F   UNL A   1      42.283  23.334  29.294  1.00  0.00    -0.203 F 
ATOM     81  F   UNL A   1      43.401  22.953  23.968  1.00  0.00    -0.200 F 
ATOM     82  C   UNL A   1      42.807  21.913  26.002  1.00  0.00     0.200 A 
ATOM     83  F   UNL A   1      42.197  20.924  28.058  1.00  0.00    -0.200 F 
ATOM     84  F   UNL A   1      42.733  20.724  25.391  1.00  0.00    -0.200 F 
ENDBRANCH  50  74
BRANCH  62  85
ATOM     85  C   UNL A   1      48.104  28.061  30.221  1.00  0.00     0.064 A 
ATOM     86  C   UNL A   1      48.550  27.379  31.363  1.00  0.00     0.173 A 
ATOM     87  C   UNL A   1      49.059  28.420  29.257  1.00  0.00     0.173 A 
ATOM     88  F   UNL A   1      47.680  27.027  32.321  1.00  0.00    -0.203 F 
ATOM     89  C   UNL A   1      49.900  27.083  31.538  1.00  0.00     0.198 A 
ATOM     90  C   UNL A   1      50.404  28.099  29.423  1.00  0.00     0.198 A 
ATOM     91  F   UNL A   1      48.684  29.069  28.144  1.00  0.00    -0.203 F 
ATOM     92  F   UNL A   1      50.309  26.462  32.653  1.00  0.00    -0.200 F 
ATOM     93  C   UNL A   1      50.824  27.435  30.565  1.00  0.00     0.200 A 
ATOM     94  F   UNL A   1      51.292  28.430  28.476  1.00  0.00    -0.200 F 
ATOM     95  F   UNL A   1      52.120  27.138  30.730  1.00  0.00    -0.200 F 
ENDBRANCH  62  85
ENDBRANCH  36  37
ENDBRANCH  28  31
ENDBRANCH  26  27
ENDBRANCH  25  26
ENDBRANCH   1  25
TORSDOF 14
ENDMDL
MODEL 2
REMARK VINA RESULT:     -10.1      4.655     10.681
REMARK SMILES O=C(C[C@H]1CN(C(=O)NCc2ccc(Br)cc2)CCO1)NCCCNC(=O)c1ccc(-c2c3nc(c(-c4c(F)c(F)c(F)c(F)c4F)c4ccc([nH]4)c(-c4c(F)c(F)c(F)c(F)c4F)c4nc(c(-c5c(F)c(F)c(F)c(F)c5F)c5ccc2[nH]5)C=C4)C=C3)cc1
REMARK SMILES IDX 22 1 21 2 1 3 2 4 3 6 4 7 5 8 20 9 6 10 19 11 18 12 7 13
REMARK SMILES IDX 8 14 9 15 10 17 11 18 12 19 17 20 13 21 16 22 14 23 15 24
REMARK SMILES IDX 23 25 24 26 25 27 26 28 27 30 28 31 29 32 90 33 30 34 89 35
REMARK SMILES IDX 31 36 32 37 33 38 83 39 34 40 88 41 82 42 84 43 35 44 87 45
REMARK SMILES IDX 81 46 80 47 36 49 68 50 48 51 67 52 49 53 52 54 66 55 85 56
REMARK SMILES IDX 50 57 51 58 65 60 86 61 53 62 37 63 38 64 46 65 39 66 40 67
REMARK SMILES IDX 44 68 47 69 41 70 42 71 45 72 43 73 69 74 70 75 78 76 71 77
REMARK SMILES IDX 72 78 76 79 79 80 73 81 74 82 77 83 75 84 54 85 55 86 63 87
REMARK SMILES IDX 56 88 57 89 61 90 64 91 58 92 59 93 62 94 60 95
REMARK H PARENT 21 5 9 16 25 29 84 48 52 59
REMARK Flexibility Score: inf
ROOT
ATOM      1  C   UNL A   1      31.680  30.432  26.818  1.00  0.00     0.117 C 
ENDROOT
BRANCH   1   2
ATOM      2  N   UNL A   1      32.025  29.761  25.570  1.00  0.00    -0.356 N 
ATOM      3  O   UNL A   1      34.120  29.177  26.237  1.00  0.00    -0.275 OA
ATOM      4  C   UNL A   1      33.224  29.105  25.397  1.00  0.00     0.222 C 
ATOM      5  H   UNL A   1      31.379  29.778  24.827  1.00  0.00     0.163 HD
BRANCH   4   6
ATOM      6  C   UNL A   1      33.465  28.353  24.088  1.00  0.00     0.133 C 
BRANCH   6   7
ATOM      7  C   UNL A   1      33.770  26.855  24.175  1.00  0.00     0.147 C 
ATOM      8  C   UNL A   1      32.898  26.096  25.217  1.00  0.00     0.154 C 
ATOM      9  O   UNL A   1      33.693  26.245  22.872  1.00  0.00    -0.374 OA
ATOM     10  N   UNL A   1      31.555  25.762  24.740  1.00  0.00    -0.320 N 
ATOM     11  C   UNL A   1      32.343  26.067  22.422  1.00  0.00     0.182 C 
ATOM     12  C   UNL A   1      31.577  25.175  23.390  1.00  0.00     0.150 C 
BRANCH  10  13
ATOM     13  C   UNL A   1      30.358  25.744  25.388  1.00  0.00     0.317 C 
ATOM     14  O   UNL A   1      30.287  25.472  26.593  1.00  0.00    -0.249 OA
ATOM     15  N   UNL A   1      29.170  26.000  24.836  1.00  0.00    -0.334 N 
ATOM     16  H   UNL A   1      28.462  25.923  25.516  1.00  0.00     0.165 HD
BRANCH  15  17
ATOM     17  C   UNL A   1      28.590  26.353  23.563  1.00  0.00     0.153 C 
BRANCH  17  18
ATOM     18  C   UNL A   1      28.619  27.846  23.336  1.00  0.00    -0.029 A 
ATOM     19  C   UNL A   1      27.428  28.578  23.308  1.00  0.00     0.007 A 
ATOM     20  C   UNL A   1      29.821  28.537  23.137  1.00  0.00     0.007 A 
ATOM     21  C   UNL A   1      27.411  29.942  23.012  1.00  0.00     0.016 A 
ATOM     22  C   UNL A   1      29.816  29.907  22.845  1.00  0.00     0.016 A 
ATOM     23  C   UNL A   1      28.609  30.598  22.764  1.00  0.00     0.017 A 
ATOM     24  Br  UNL A   1      28.595  32.428  22.299  1.00  0.00    -0.051 Br
ENDBRANCH  17  18
ENDBRANCH  15  17
ENDBRANCH  10  13
ENDBRANCH   6   7
ENDBRANCH   4   6
ENDBRANCH   1   2
BRANCH   1  25
ATOM     25  C   UNL A   1      31.418  31.934  26.686  1.00  0.00     0.042 C 
BRANCH  25  26
ATOM     26  C   UNL A   1      32.647  32.832  26.849  1.00  0.00     0.118 C 
BRANCH  26  27
ATOM     27  N   UNL A   1      32.359  34.117  27.466  1.00  0.00    -0.352 N 
ATOM     28  C   UNL A   1      32.997  34.763  28.496  1.00  0.00     0.251 C 
ATOM     29  H   UNL A   1      31.588  34.598  27.087  1.00  0.00     0.163 HD
ATOM     30  O   UNL A   1      32.545  35.835  28.901  1.00  0.00    -0.269 OA
BRANCH  28  31
ATOM     31  C   UNL A   1      34.202  34.200  29.155  1.00  0.00     0.039 A 
ATOM     32  C   UNL A   1      34.020  33.289  30.203  1.00  0.00     0.014 A 
ATOM     33  C   UNL A   1      35.494  34.607  28.819  1.00  0.00     0.014 A 
ATOM     34  C   UNL A   1      35.124  32.748  30.872  1.00  0.00     0.010 A 
ATOM     35  C   UNL A   1      36.601  34.043  29.470  1.00  0.00     0.010 A 
ATOM     36  C   UNL A   1      36.428  33.102  30.498  1.00  0.00    -0.014 A 
BRANCH  36  37
ATOM     37  C   UNL A   1      37.613  32.481  31.155  1.00  0.00     0.031 A 
ATOM     38  C   UNL A   1      38.366  31.362  30.491  1.00  0.00     0.074 A 
ATOM     39  C   UNL A   1      37.992  32.895  32.379  1.00  0.00     0.049 A 
ATOM     40  N   UNL A   1      39.372  30.654  30.946  1.00  0.00    -0.248 NA
ATOM     41  C   UNL A   1      37.925  30.979  29.141  1.00  0.00     0.031 C 
ATOM     42  C   UNL A   1      37.348  33.962  33.145  1.00  0.00     0.029 A 
ATOM     43  N   UNL A   1      39.003  32.458  33.202  1.00  0.00    -0.354 N 
ATOM     44  C   UNL A   1      39.679  29.740  29.946  1.00  0.00     0.074 A 
ATOM     45  C   UNL A   1      38.732  29.961  28.873  1.00  0.00     0.031 C 
ATOM     46  C   UNL A   1      37.982  34.101  34.321  1.00  0.00     0.029 A 
ATOM     47  C   UNL A   1      39.051  33.109  34.411  1.00  0.00     0.049 A 
ATOM     48  H   UNL A   1      39.634  31.745  32.949  1.00  0.00     0.167 HD
ATOM     49  C   UNL A   1      40.667  28.812  29.920  1.00  0.00     0.037 A 
ATOM     50  C   UNL A   1      39.851  32.920  35.479  1.00  0.00     0.037 A 
ATOM     51  C   UNL A   1      41.624  28.597  30.976  1.00  0.00     0.049 A 
ATOM     52  C   UNL A   1      40.916  31.856  35.438  1.00  0.00     0.074 A 
ATOM     53  C   UNL A   1      42.681  27.703  31.014  1.00  0.00     0.029 A 
ATOM     54  N   UNL A   1      41.640  29.281  32.182  1.00  0.00    -0.354 N 
ATOM     55  N   UNL A   1      41.222  31.029  34.470  1.00  0.00    -0.248 NA
ATOM     56  C   UNL A   1      41.748  31.702  36.642  1.00  0.00     0.031 C 
ATOM     57  C   UNL A   1      43.308  27.814  32.259  1.00  0.00     0.029 A 
ATOM     58  C   UNL A   1      42.675  28.812  32.978  1.00  0.00     0.049 A 
ATOM     59  H   UNL A   1      41.010  29.993  32.436  1.00  0.00     0.167 HD
ATOM     60  C   UNL A   1      42.302  30.286  34.930  1.00  0.00     0.074 A 
ATOM     61  C   UNL A   1      42.600  30.759  36.264  1.00  0.00     0.031 C 
ATOM     62  C   UNL A   1      42.984  29.302  34.297  1.00  0.00     0.037 A 
BRANCH  49  63
ATOM     63  C   UNL A   1      40.767  27.937  28.704  1.00  0.00     0.064 A 
ATOM     64  C   UNL A   1      40.035  26.746  28.594  1.00  0.00     0.173 A 
ATOM     65  C   UNL A   1      41.556  28.325  27.611  1.00  0.00     0.173 A 
ATOM     66  F   UNL A   1      39.271  26.327  29.614  1.00  0.00    -0.203 F 
ATOM     67  C   UNL A   1      40.108  25.963  27.444  1.00  0.00     0.198 A 
ATOM     68  C   UNL A   1      41.605  27.556  26.452  1.00  0.00     0.198 A 
ATOM     69  F   UNL A   1      42.268  29.462  27.660  1.00  0.00    -0.203 F 
ATOM     70  F   UNL A   1      39.432  24.808  27.377  1.00  0.00    -0.200 F 
ATOM     71  C   UNL A   1      40.887  26.373  26.372  1.00  0.00     0.200 A 
ATOM     72  F   UNL A   1      42.347  27.960  25.411  1.00  0.00    -0.200 F 
ATOM     73  F   UNL A   1      40.949  25.623  25.262  1.00  0.00    -0.200 F 
ENDBRANCH  49  63
BRANCH  50  74
ATOM     74  C   UNL A   1      39.679  33.767  36.688  1.00  0.00     0.064 A 
ATOM     75  C   UNL A   1      40.325  35.006  36.796  1.00  0.00     0.173 A 
ATOM     76  C   UNL A   1      38.879  33.350  37.762  1.00  0.00     0.173 A 
ATOM     77  F   UNL A   1      41.122  35.434  35.807  1.00  0.00    -0.203 F 
ATOM     78  C   UNL A   1      40.189  35.790  37.940  1.00  0.00     0.198 A 
ATOM     79  C   UNL A   1      38.722  34.148  38.893  1.00  0.00     0.198 A 
ATOM     80  F   UNL A   1      38.242  32.171  37.706  1.00  0.00    -0.203 F 
ATOM     81  F   UNL A   1      40.854  36.949  38.037  1.00  0.00    -0.200 F 
ATOM     82  C   UNL A   1      39.383  35.363  38.985  1.00  0.00     0.200 A 
ATOM     83  F   UNL A   1      37.934  33.737  39.896  1.00  0.00    -0.200 F 
ATOM     84  F   UNL A   1      39.251  36.119  40.083  1.00  0.00    -0.200 F 
ENDBRANCH  50  74
BRANCH  62  85
ATOM     85  C   UNL A   1      44.161  28.699  35.008  1.00  0.00     0.064 A 
ATOM     86  C   UNL A   1      44.028  27.574  35.835  1.00  0.00     0.173 A 
ATOM     87  C   UNL A   1      45.449  29.221  34.811  1.00  0.00     0.173 A 
ATOM     88  F   UNL A   1      42.818  27.046  36.067  1.00  0.00    -0.203 F 
ATOM     89  C   UNL A   1      45.140  27.005  36.453  1.00  0.00     0.198 A 
ATOM     90  C   UNL A   1      46.561  28.634  35.408  1.00  0.00     0.198 A 
ATOM     91  F   UNL A   1      45.630  30.293  34.025  1.00  0.00    -0.203 F 
ATOM     92  F   UNL A   1      44.987  25.952  37.266  1.00  0.00    -0.200 F 
ATOM     93  C   UNL A   1      46.405  27.529  36.232  1.00  0.00     0.200 A 
ATOM     94  F   UNL A   1      47.783  29.135  35.184  1.00  0.00    -0.200 F 
ATOM     95  F   UNL A   1      47.475  26.973  36.816  1.00  0.00    -0.200 F 
ENDBRANCH  62  85
ENDBRANCH  36  37
ENDBRANCH  28  31
ENDBRANCH  26  27
ENDBRANCH  25  26
ENDBRANCH   1  25
TORSDOF 14
ENDMDL
MODEL 3
REMARK VINA RESULT:     -10.1      4.354     10.233
REMARK SMILES O=C(C[C@H]1CN(C(=O)NCc2ccc(Br)cc2)CCO1)NCCCNC(=O)c1ccc(-c2c3nc(c(-c4c(F)c(F)c(F)c(F)c4F)c4ccc([nH]4)c(-c4c(F)c(F)c(F)c(F)c4F)c4nc(c(-c5c(F)c(F)c(F)c(F)c5F)c5ccc2[nH]5)C=C4)C=C3)cc1
REMARK SMILES IDX 22 1 21 2 1 3 2 4 3 6 4 7 5 8 20 9 6 10 19 11 18 12 7 13
REMARK SMILES IDX 8 14 9 15 10 17 11 18 12 19 17 20 13 21 16 22 14 23 15 24
REMARK SMILES IDX 23 25 24 26 25 27 26 28 27 30 28 31 29 32 90 33 30 34 89 35
REMARK SMILES IDX 31 36 32 37 33 38 83 39 34 40 88 41 82 42 84 43 35 44 87 45
REMARK SMILES IDX 81 46 80 47 36 49 68 50 48 51 67 52 49 53 52 54 66 55 85 56
REMARK SMILES IDX 50 57 51 58 65 60 86 61 53 62 37 63 38 64 46 65 39 66 40 67
REMARK SMILES IDX 44 68 47 69 41 70 42 71 45 72 43 73 69 74 70 75 78 76 71 77
REMARK SMILES IDX 72 78 76 79 79 80 73 81 74 82 77 83 75 84 54 85 55 86 63 87
REMARK SMILES IDX 56 88 57 89 61 90 64 91 58 92 59 93 62 94 60 95
REMARK H PARENT 21 5 9 16 25 29 84 48 52 59
REMARK Flexibility Score: inf
ROOT
ATOM      1  C   UNL A   1      31.713  30.367  26.508  1.00  0.00     0.117 C 
ENDROOT
BRANCH   1   2
ATOM      2  N   UNL A   1      31.674  30.078  25.079  1.00  0.00    -0.356 N 
ATOM      3  O   UNL A   1      33.633  28.921  25.062  1.00  0.00    -0.275 OA
ATOM      4  C   UNL A   1      32.625  29.296  24.463  1.00  0.00     0.222 C 
ATOM      5  H   UNL A   1      30.943  30.455  24.538  1.00  0.00     0.163 HD
BRANCH   4   6
ATOM      6  C   UNL A   1      32.456  28.971  22.978  1.00  0.00     0.133 C 
BRANCH   6   7
ATOM      7  C   UNL A   1      31.975  27.565  22.609  1.00  0.00     0.147 C 
ATOM      8  C   UNL A   1      32.121  26.528  23.760  1.00  0.00     0.154 C 
ATOM      9  O   UNL A   1      30.627  27.607  22.099  1.00  0.00    -0.374 OA
ATOM     10  N   UNL A   1      31.055  26.596  24.761  1.00  0.00    -0.320 N 
ATOM     11  C   UNL A   1      29.651  27.802  23.131  1.00  0.00     0.182 C 
ATOM     12  C   UNL A   1      29.721  26.667  24.145  1.00  0.00     0.150 C 
BRANCH  10  13
ATOM     13  C   UNL A   1      31.090  26.428  26.112  1.00  0.00     0.317 C 
ATOM     14  O   UNL A   1      31.026  27.397  26.879  1.00  0.00    -0.249 OA
ATOM     15  N   UNL A   1      31.193  25.260  26.749  1.00  0.00    -0.334 N 
ATOM     16  H   UNL A   1      31.194  25.409  27.722  1.00  0.00     0.165 HD
BRANCH  15  17
ATOM     17  C   UNL A   1      31.304  23.849  26.469  1.00  0.00     0.153 C 
BRANCH  17  18
ATOM     18  C   UNL A   1      32.603  23.524  25.770  1.00  0.00    -0.029 A 
ATOM     19  C   UNL A   1      33.819  23.964  26.301  1.00  0.00     0.007 A 
ATOM     20  C   UNL A   1      32.633  22.791  24.577  1.00  0.00     0.007 A 
ATOM     21  C   UNL A   1      35.028  23.760  25.636  1.00  0.00     0.016 A 
ATOM     22  C   UNL A   1      33.843  22.574  23.904  1.00  0.00     0.016 A 
ATOM     23  C   UNL A   1      35.032  23.078  24.427  1.00  0.00     0.017 A 
ATOM     24  Br  UNL A   1      36.652  22.851  23.484  1.00  0.00    -0.051 Br
ENDBRANCH  17  18
ENDBRANCH  15  17
ENDBRANCH  10  13
ENDBRANCH   6   7
ENDBRANCH   4   6
ENDBRANCH   1   2
BRANCH   1  25
ATOM     25  C   UNL A   1      31.414  31.822  26.876  1.00  0.00     0.042 C 
BRANCH  25  26
ATOM     26  C   UNL A   1      32.622  32.761  26.876  1.00  0.00     0.118 C 
BRANCH  26  27
ATOM     27  N   UNL A   1      32.360  34.056  27.485  1.00  0.00    -0.352 N 
ATOM     28  C   UNL A   1      33.016  34.700  28.505  1.00  0.00     0.251 C 
ATOM     29  H   UNL A   1      31.595  34.547  27.108  1.00  0.00     0.163 HD
ATOM     30  O   UNL A   1      32.584  35.782  28.905  1.00  0.00    -0.269 OA
BRANCH  28  31
ATOM     31  C   UNL A   1      34.215  34.122  29.162  1.00  0.00     0.039 A 
ATOM     32  C   UNL A   1      34.025  33.156  30.157  1.00  0.00     0.014 A 
ATOM     33  C   UNL A   1      35.508  34.564  28.875  1.00  0.00     0.014 A 
ATOM     34  C   UNL A   1      35.123  32.597  30.822  1.00  0.00     0.010 A 
ATOM     35  C   UNL A   1      36.609  33.984  29.521  1.00  0.00     0.010 A 
ATOM     36  C   UNL A   1      36.430  32.989  30.495  1.00  0.00    -0.014 A 
BRANCH  36  37
ATOM     37  C   UNL A   1      37.610  32.353  31.146  1.00  0.00     0.031 A 
ATOM     38  C   UNL A   1      38.363  31.244  30.465  1.00  0.00     0.074 A 
ATOM     39  C   UNL A   1      37.985  32.743  32.380  1.00  0.00     0.049 A 
ATOM     40  N   UNL A   1      39.364  30.526  30.911  1.00  0.00    -0.248 NA
ATOM     41  C   UNL A   1      37.927  30.887  29.107  1.00  0.00     0.031 C 
ATOM     42  C   UNL A   1      37.340  33.798  33.162  1.00  0.00     0.029 A 
ATOM     43  N   UNL A   1      38.991  32.289  33.198  1.00  0.00    -0.354 N 
ATOM     44  C   UNL A   1      39.674  29.629  29.896  1.00  0.00     0.074 A 
ATOM     45  C   UNL A   1      38.731  29.872  28.823  1.00  0.00     0.031 C 
ATOM     46  C   UNL A   1      37.970  33.914  34.343  1.00  0.00     0.029 A 
ATOM     47  C   UNL A   1      39.035  32.917  34.419  1.00  0.00     0.049 A 
ATOM     48  H   UNL A   1      39.621  31.578  32.935  1.00  0.00     0.167 HD
ATOM     49  C   UNL A   1      40.659  28.699  29.857  1.00  0.00     0.037 A 
ATOM     50  C   UNL A   1      39.830  32.706  35.487  1.00  0.00     0.037 A 
ATOM     51  C   UNL A   1      41.611  28.462  30.913  1.00  0.00     0.049 A 
ATOM     52  C   UNL A   1      40.892  31.641  35.431  1.00  0.00     0.074 A 
ATOM     53  C   UNL A   1      42.666  27.565  30.939  1.00  0.00     0.029 A 
ATOM     54  N   UNL A   1      41.624  29.124  32.132  1.00  0.00    -0.354 N 
ATOM     55  N   UNL A   1      41.201  30.830  34.450  1.00  0.00    -0.248 NA
ATOM     56  C   UNL A   1      41.719  31.462  36.636  1.00  0.00     0.031 C 
ATOM     57  C   UNL A   1      43.288  27.650  32.189  1.00  0.00     0.029 A 
ATOM     58  C   UNL A   1      42.654  28.637  32.923  1.00  0.00     0.049 A 
ATOM     59  H   UNL A   1      40.994  29.833  32.396  1.00  0.00     0.167 HD
ATOM     60  C   UNL A   1      42.276  30.076  34.900  1.00  0.00     0.074 A 
ATOM     61  C   UNL A   1      42.570  30.524  36.244  1.00  0.00     0.031 C 
ATOM     62  C   UNL A   1      42.958  29.102  34.252  1.00  0.00     0.037 A 
BRANCH  49  63
ATOM     63  C   UNL A   1      40.762  27.846  28.625  1.00  0.00     0.064 A 
ATOM     64  C   UNL A   1      40.035  26.654  28.495  1.00  0.00     0.173 A 
ATOM     65  C   UNL A   1      41.548  28.257  27.539  1.00  0.00     0.173 A 
ATOM     66  F   UNL A   1      39.274  26.213  29.508  1.00  0.00    -0.203 F 
ATOM     67  C   UNL A   1      40.111  25.892  27.332  1.00  0.00     0.198 A 
ATOM     68  C   UNL A   1      41.600  27.508  26.366  1.00  0.00     0.198 A 
ATOM     69  F   UNL A   1      42.255  29.396  27.608  1.00  0.00    -0.203 F 
ATOM     70  F   UNL A   1      39.440  24.736  27.244  1.00  0.00    -0.200 F 
ATOM     71  C   UNL A   1      40.887  26.324  26.266  1.00  0.00     0.200 A 
ATOM     72  F   UNL A   1      42.339  27.935  25.332  1.00  0.00    -0.200 F 
ATOM     73  F   UNL A   1      40.952  25.595  25.143  1.00  0.00    -0.200 F 
ENDBRANCH  49  63
BRANCH  50  74
ATOM     74  C   UNL A   1      39.655  33.531  36.711  1.00  0.00     0.064 A 
ATOM     75  C   UNL A   1      38.819  33.106  37.752  1.00  0.00     0.173 A 
ATOM     76  C   UNL A   1      40.308  34.764  36.858  1.00  0.00     0.173 A 
ATOM     77  F   UNL A   1      38.153  31.947  37.645  1.00  0.00    -0.203 F 
ATOM     78  C   UNL A   1      38.631  33.890  38.888  1.00  0.00     0.198 A 
ATOM     79  C   UNL A   1      40.140  35.533  38.006  1.00  0.00     0.198 A 
ATOM     80  F   UNL A   1      41.117  35.215  35.887  1.00  0.00    -0.203 F 
ATOM     81  F   UNL A   1      37.791  33.482  39.849  1.00  0.00    -0.200 F 
ATOM     82  C   UNL A   1      39.295  35.100  39.017  1.00  0.00     0.200 A 
ATOM     83  F   UNL A   1      40.792  36.697  38.131  1.00  0.00    -0.200 F 
ATOM     84  F   UNL A   1      39.116  35.852  40.111  1.00  0.00    -0.200 F 
ENDBRANCH  50  74
BRANCH  62  85
ATOM     85  C   UNL A   1      44.131  28.483  34.957  1.00  0.00     0.064 A 
ATOM     86  C   UNL A   1      43.993  27.337  35.753  1.00  0.00     0.173 A 
ATOM     87  C   UNL A   1      45.419  29.012  34.785  1.00  0.00     0.173 A 
ATOM     88  F   UNL A   1      42.782  26.800  35.961  1.00  0.00    -0.203 F 
ATOM     89  C   UNL A   1      45.102  26.753  36.365  1.00  0.00     0.198 A 
ATOM     90  C   UNL A   1      46.527  28.412  35.376  1.00  0.00     0.198 A 
ATOM     91  F   UNL A   1      45.604  30.105  34.029  1.00  0.00    -0.203 F 
ATOM     92  F   UNL A   1      44.943  25.679  37.150  1.00  0.00    -0.200 F 
ATOM     93  C   UNL A   1      46.367  27.286  36.168  1.00  0.00     0.200 A 
ATOM     94  F   UNL A   1      47.750  28.921  35.175  1.00  0.00    -0.200 F 
ATOM     95  F   UNL A   1      47.434  26.716  36.747  1.00  0.00    -0.200 F 
ENDBRANCH  62  85
ENDBRANCH  36  37
ENDBRANCH  28  31
ENDBRANCH  26  27
ENDBRANCH  25  26
ENDBRANCH   1  25
TORSDOF 14
ENDMDL
