MODEL 1
REMARK VINA RESULT:     -12.4      0.000      0.000
REMARK SMILES Cc1cc(C(=O)N[C@@H](C)C(=O)NCCCNC(=O)c2ccc(-c3c4nc(c(-c5c(F)c(F)c(F)c(F)c5F)c5ccc([nH]5)c(-c5c(F)c(F)c(F)c(F)c5F)c5nc(c(-c6c(F)c(F)c(F)c(F)c6F)c6ccc3[nH]6)C=C5)C=C4)cc2)cc(C)c1OC(F)F
REMARK SMILES IDX 13 1 12 2 10 3 11 4 8 6 9 7 7 8 5 9 6 10 4 12 1 13 2 14 3 15
REMARK SMILES IDX 85 16 83 17 82 18 84 19 86 20 87 21 88 22 89 23 14 24 15 25
REMARK SMILES IDX 16 26 17 27 18 29 19 30 20 31 81 32 21 33 80 34 22 35 23 36
REMARK SMILES IDX 24 37 74 38 25 39 79 40 73 41 75 42 26 43 78 44 72 45 71 46
REMARK SMILES IDX 27 48 59 49 39 50 58 51 40 52 43 53 57 54 76 55 41 56 42 57
REMARK SMILES IDX 56 59 77 60 44 61 28 62 29 63 37 64 30 65 31 66 35 67 38 68
REMARK SMILES IDX 32 69 33 70 36 71 34 72 60 73 61 74 69 75 62 76 63 77 67 78
REMARK SMILES IDX 70 79 64 80 65 81 68 82 66 83 45 84 46 85 54 86 47 87 48 88
REMARK SMILES IDX 52 89 55 90 49 91 50 92 53 93 51 94
REMARK H PARENT 12 5 7 11 16 28 75 47 43 58
REMARK Flexibility Score: inf
ROOT
ATOM      1  C   UNL A   1      31.789  30.690  25.984  1.00  0.00     0.117 C 
ENDROOT
BRANCH   1   2
ATOM      2  N   UNL A   1      31.472  29.557  26.835  1.00  0.00    -0.354 N 
ATOM      3  C   UNL A   1      32.262  28.554  27.315  1.00  0.00     0.242 C 
ATOM      4  O   UNL A   1      31.731  27.722  28.057  1.00  0.00    -0.273 OA
ATOM      5  H   UNL A   1      30.529  29.505  27.113  1.00  0.00     0.163 HD
BRANCH   3   6
ATOM      6  C   UNL A   1      33.746  28.424  26.917  1.00  0.00     0.168 C 
ATOM      7  C   UNL A   1      34.618  29.588  27.368  1.00  0.00     0.041 C 
BRANCH   6   8
ATOM      8  N   UNL A   1      33.816  28.123  25.486  1.00  0.00    -0.341 N 
ATOM      9  C   UNL A   1      33.708  26.948  24.776  1.00  0.00     0.251 C 
ATOM     10  O   UNL A   1      33.654  27.039  23.548  1.00  0.00    -0.269 OA
ATOM     11  H   UNL A   1      33.970  28.915  24.921  1.00  0.00     0.164 HD
BRANCH   9  12
ATOM     12  C   UNL A   1      33.766  25.593  25.400  1.00  0.00     0.040 A 
ATOM     13  C   UNL A   1      31.097  23.240  26.666  1.00  0.00     0.048 C 
ATOM     14  C   UNL A   1      32.483  23.653  26.254  1.00  0.00    -0.008 A 
ATOM     15  C   UNL A   1      32.563  24.994  25.787  1.00  0.00     0.021 A 
ATOM     16  C   UNL A   1      33.650  22.871  26.223  1.00  0.00     0.131 A 
ATOM     17  C   UNL A   1      34.880  23.502  25.908  1.00  0.00    -0.008 A 
ATOM     18  C   UNL A   1      34.929  24.871  25.599  1.00  0.00     0.021 A 
ATOM     19  C   UNL A   1      36.179  22.744  25.771  1.00  0.00     0.048 C 
BRANCH  16  20
ATOM     20  O   UNL A   1      33.798  21.527  26.380  1.00  0.00    -0.434 OA
BRANCH  20  21
ATOM     21  C   UNL A   1      33.390  20.570  25.429  1.00  0.00     0.542 C 
ATOM     22  F   UNL A   1      32.043  20.452  25.408  1.00  0.00    -0.167 F 
ATOM     23  F   UNL A   1      33.836  20.929  24.203  1.00  0.00    -0.167 F 
ENDBRANCH  20  21
ENDBRANCH  16  20
ENDBRANCH   9  12
ENDBRANCH   6   8
ENDBRANCH   3   6
ENDBRANCH   1   2
BRANCH   1  24
ATOM     24  C   UNL A   1      31.454  32.029  26.624  1.00  0.00     0.042 C 
BRANCH  24  25
ATOM     25  C   UNL A   1      32.623  32.702  27.328  1.00  0.00     0.118 C 
BRANCH  25  26
ATOM     26  N   UNL A   1      32.371  34.106  27.630  1.00  0.00    -0.352 N 
ATOM     27  C   UNL A   1      32.956  34.944  28.549  1.00  0.00     0.251 C 
ATOM     28  H   UNL A   1      31.664  34.522  27.085  1.00  0.00     0.163 HD
ATOM     29  O   UNL A   1      32.457  36.040  28.776  1.00  0.00    -0.269 OA
BRANCH  27  30
ATOM     30  C   UNL A   1      34.164  34.519  29.288  1.00  0.00     0.039 A 
ATOM     31  C   UNL A   1      34.017  33.976  30.568  1.00  0.00     0.014 A 
ATOM     32  C   UNL A   1      35.437  34.658  28.732  1.00  0.00     0.014 A 
ATOM     33  C   UNL A   1      35.135  33.479  31.242  1.00  0.00     0.010 A 
ATOM     34  C   UNL A   1      36.536  34.084  29.364  1.00  0.00     0.010 A 
ATOM     35  C   UNL A   1      36.394  33.475  30.620  1.00  0.00    -0.014 A 
BRANCH  35  36
ATOM     36  C   UNL A   1      37.564  32.804  31.242  1.00  0.00     0.031 A 
ATOM     37  C   UNL A   1      38.215  31.628  30.567  1.00  0.00     0.074 A 
ATOM     38  C   UNL A   1      37.980  33.200  32.462  1.00  0.00     0.049 A 
ATOM     39  N   UNL A   1      39.167  30.845  31.007  1.00  0.00    -0.248 NA
ATOM     40  C   UNL A   1      37.713  31.268  29.232  1.00  0.00     0.031 C 
ATOM     41  C   UNL A   1      37.398  34.297  33.240  1.00  0.00     0.029 A 
ATOM     42  N   UNL A   1      38.974  32.712  33.274  1.00  0.00    -0.354 N 
ATOM     43  C   UNL A   1      39.366  29.896  30.014  1.00  0.00     0.074 A 
ATOM     44  C   UNL A   1      38.408  30.171  28.966  1.00  0.00     0.031 C 
ATOM     45  C   UNL A   1      38.050  34.405  34.407  1.00  0.00     0.029 A 
ATOM     46  C   UNL A   1      39.061  33.355  34.486  1.00  0.00     0.049 A 
ATOM     47  H   UNL A   1      39.569  31.972  33.014  1.00  0.00     0.167 HD
ATOM     48  C   UNL A   1      40.278  28.895  29.976  1.00  0.00     0.037 A 
ATOM     49  C   UNL A   1      39.846  33.109  35.553  1.00  0.00     0.037 A 
ATOM     50  C   UNL A   1      41.246  28.641  31.012  1.00  0.00     0.049 A 
ATOM     51  C   UNL A   1      40.834  31.974  35.486  1.00  0.00     0.074 A 
ATOM     52  C   UNL A   1      42.259  27.698  31.030  1.00  0.00     0.029 A 
ATOM     53  N   UNL A   1      41.313  29.324  32.217  1.00  0.00    -0.354 N 
ATOM     54  N   UNL A   1      41.070  31.137  34.506  1.00  0.00    -0.248 NA
ATOM     55  C   UNL A   1      41.668  31.752  36.677  1.00  0.00     0.031 C 
ATOM     56  C   UNL A   1      42.901  27.769  32.270  1.00  0.00     0.029 A 
ATOM     57  C   UNL A   1      42.329  28.798  33.000  1.00  0.00     0.049 A 
ATOM     58  H   UNL A   1      40.728  30.072  32.477  1.00  0.00     0.167 HD
ATOM     59  C   UNL A   1      42.093  30.309  34.950  1.00  0.00     0.074 A 
ATOM     60  C   UNL A   1      42.450  30.761  36.277  1.00  0.00     0.031 C 
ATOM     61  C   UNL A   1      42.678  29.264  34.317  1.00  0.00     0.037 A 
BRANCH  48  62
ATOM     62  C   UNL A   1      40.285  27.991  28.778  1.00  0.00     0.064 A 
ATOM     63  C   UNL A   1      41.013  28.305  27.622  1.00  0.00     0.173 A 
ATOM     64  C   UNL A   1      39.624  26.753  28.821  1.00  0.00     0.173 A 
ATOM     65  F   UNL A   1      41.655  29.479  27.526  1.00  0.00    -0.203 F 
ATOM     66  C   UNL A   1      41.069  27.419  26.548  1.00  0.00     0.198 A 
ATOM     67  C   UNL A   1      39.707  25.858  27.758  1.00  0.00     0.198 A 
ATOM     68  F   UNL A   1      38.918  26.401  29.907  1.00  0.00    -0.203 F 
ATOM     69  F   UNL A   1      41.746  27.755  25.441  1.00  0.00    -0.200 F 
ATOM     70  C   UNL A   1      40.427  26.193  26.621  1.00  0.00     0.200 A 
ATOM     71  F   UNL A   1      39.098  24.666  27.838  1.00  0.00    -0.200 F 
ATOM     72  F   UNL A   1      40.500  25.334  25.596  1.00  0.00    -0.200 F 
ENDBRANCH  48  62
BRANCH  49  73
ATOM     73  C   UNL A   1      39.728  33.939  36.783  1.00  0.00     0.064 A 
ATOM     74  C   UNL A   1      38.913  33.539  37.851  1.00  0.00     0.173 A 
ATOM     75  C   UNL A   1      40.391  35.170  36.898  1.00  0.00     0.173 A 
ATOM     76  F   UNL A   1      38.240  32.380  37.781  1.00  0.00    -0.203 F 
ATOM     77  C   UNL A   1      38.736  34.352  38.968  1.00  0.00     0.198 A 
ATOM     78  C   UNL A   1      40.244  35.966  38.032  1.00  0.00     0.198 A 
ATOM     79  F   UNL A   1      41.188  35.601  35.909  1.00  0.00    -0.203 F 
ATOM     80  F   UNL A   1      37.897  33.975  39.942  1.00  0.00    -0.200 F 
ATOM     81  C   UNL A   1      39.404  35.563  39.059  1.00  0.00     0.200 A 
ATOM     82  F   UNL A   1      40.904  37.128  38.124  1.00  0.00    -0.200 F 
ATOM     83  F   UNL A   1      39.229  36.349  40.132  1.00  0.00    -0.200 F 
ENDBRANCH  49  73
BRANCH  61  84
ATOM     84  C   UNL A   1      43.789  28.556  35.039  1.00  0.00     0.064 A 
ATOM     85  C   UNL A   1      43.551  27.419  35.825  1.00  0.00     0.173 A 
ATOM     86  C   UNL A   1      45.114  29.001  34.916  1.00  0.00     0.173 A 
ATOM     87  F   UNL A   1      42.300  26.961  35.988  1.00  0.00    -0.203 F 
ATOM     88  C   UNL A   1      44.593  26.771  36.483  1.00  0.00     0.198 A 
ATOM     89  C   UNL A   1      46.158  28.330  35.545  1.00  0.00     0.198 A 
ATOM     90  F   UNL A   1      45.399  30.080  34.170  1.00  0.00    -0.203 F 
ATOM     91  F   UNL A   1      44.333  25.719  37.271  1.00  0.00    -0.200 F 
ATOM     92  C   UNL A   1      45.897  27.222  36.335  1.00  0.00     0.200 A 
ATOM     93  F   UNL A   1      47.419  28.758  35.387  1.00  0.00    -0.200 F 
ATOM     94  F   UNL A   1      46.900  26.591  36.962  1.00  0.00    -0.200 F 
ENDBRANCH  61  84
ENDBRANCH  35  36
ENDBRANCH  27  30
ENDBRANCH  25  26
ENDBRANCH  24  25
ENDBRANCH   1  24
TORSDOF 14
ENDMDL
MODEL 2
REMARK VINA RESULT:     -12.3      5.750     11.163
REMARK SMILES Cc1cc(C(=O)N[C@@H](C)C(=O)NCCCNC(=O)c2ccc(-c3c4nc(c(-c5c(F)c(F)c(F)c(F)c5F)c5ccc([nH]5)c(-c5c(F)c(F)c(F)c(F)c5F)c5nc(c(-c6c(F)c(F)c(F)c(F)c6F)c6ccc3[nH]6)C=C5)C=C4)cc2)cc(C)c1OC(F)F
REMARK SMILES IDX 13 1 12 2 10 3 11 4 8 6 9 7 7 8 5 9 6 10 4 12 1 13 2 14 3 15
REMARK SMILES IDX 85 16 83 17 82 18 84 19 86 20 87 21 88 22 89 23 14 24 15 25
REMARK SMILES IDX 16 26 17 27 18 29 19 30 20 31 81 32 21 33 80 34 22 35 23 36
REMARK SMILES IDX 24 37 74 38 25 39 79 40 73 41 75 42 26 43 78 44 72 45 71 46
REMARK SMILES IDX 27 48 59 49 39 50 58 51 40 52 43 53 57 54 76 55 41 56 42 57
REMARK SMILES IDX 56 59 77 60 44 61 28 62 29 63 37 64 30 65 31 66 35 67 38 68
REMARK SMILES IDX 32 69 33 70 36 71 34 72 60 73 61 74 69 75 62 76 63 77 67 78
REMARK SMILES IDX 70 79 64 80 65 81 68 82 66 83 45 84 46 85 54 86 47 87 48 88
REMARK SMILES IDX 52 89 55 90 49 91 50 92 53 93 51 94
REMARK H PARENT 12 5 7 11 16 28 75 47 43 58
REMARK Flexibility Score: inf
ROOT
ATOM      1  C   UNL A   1      36.894  20.693  25.121  1.00  0.00     0.117 C 
ENDROOT
BRANCH   1   2
ATOM      2  N   UNL A   1      36.748  21.621  24.014  1.00  0.00    -0.354 N 
ATOM      3  C   UNL A   1      36.716  22.985  23.992  1.00  0.00     0.242 C 
ATOM      4  O   UNL A   1      36.612  23.530  22.890  1.00  0.00    -0.273 OA
ATOM      5  H   UNL A   1      36.658  21.194  23.131  1.00  0.00     0.163 HD
BRANCH   3   6
ATOM      6  C   UNL A   1      36.758  23.822  25.286  1.00  0.00     0.168 C 
ATOM      7  C   UNL A   1      38.032  23.646  26.102  1.00  0.00     0.041 C 
BRANCH   6   8
ATOM      8  N   UNL A   1      35.517  23.590  26.027  1.00  0.00    -0.341 N 
ATOM      9  C   UNL A   1      34.275  24.181  25.971  1.00  0.00     0.251 C 
ATOM     10  O   UNL A   1      33.373  23.654  26.623  1.00  0.00    -0.269 OA
ATOM     11  H   UNL A   1      35.583  22.870  26.696  1.00  0.00     0.164 HD
BRANCH   9  12
ATOM     12  C   UNL A   1      34.000  25.467  25.264  1.00  0.00     0.040 A 
ATOM     13  C   UNL A   1      33.018  26.276  21.708  1.00  0.00     0.048 C 
ATOM     14  C   UNL A   1      33.256  26.556  23.166  1.00  0.00    -0.008 A 
ATOM     15  C   UNL A   1      33.678  25.416  23.903  1.00  0.00     0.021 A 
ATOM     16  C   UNL A   1      33.056  27.759  23.864  1.00  0.00     0.131 A 
ATOM     17  C   UNL A   1      33.458  27.828  25.221  1.00  0.00    -0.008 A 
ATOM     18  C   UNL A   1      34.014  26.712  25.867  1.00  0.00     0.021 A 
ATOM     19  C   UNL A   1      33.219  29.044  26.086  1.00  0.00     0.048 C 
BRANCH  16  20
ATOM     20  O   UNL A   1      32.442  28.904  23.460  1.00  0.00    -0.434 OA
BRANCH  20  21
ATOM     21  C   UNL A   1      31.051  29.030  23.267  1.00  0.00     0.542 C 
ATOM     22  F   UNL A   1      30.704  28.687  22.005  1.00  0.00    -0.167 F 
ATOM     23  F   UNL A   1      30.396  28.243  24.150  1.00  0.00    -0.167 F 
ENDBRANCH  20  21
ENDBRANCH  16  20
ENDBRANCH   9  12
ENDBRANCH   6   8
ENDBRANCH   3   6
ENDBRANCH   1   2
BRANCH   1  24
ATOM     24  C   UNL A   1      38.087  19.762  24.966  1.00  0.00     0.042 C 
BRANCH  24  25
ATOM     25  C   UNL A   1      39.281  20.114  25.841  1.00  0.00     0.118 C 
BRANCH  25  26
ATOM     26  N   UNL A   1      40.276  19.051  25.898  1.00  0.00    -0.352 N 
ATOM     27  C   UNL A   1      41.637  19.106  26.078  1.00  0.00     0.251 C 
ATOM     28  H   UNL A   1      39.912  18.142  25.788  1.00  0.00     0.163 HD
ATOM     29  O   UNL A   1      42.316  18.102  25.895  1.00  0.00    -0.269 OA
BRANCH  27  30
ATOM     30  C   UNL A   1      42.292  20.376  26.460  1.00  0.00     0.039 A 
ATOM     31  C   UNL A   1      42.948  21.120  25.475  1.00  0.00     0.014 A 
ATOM     32  C   UNL A   1      42.267  20.834  27.779  1.00  0.00     0.014 A 
ATOM     33  C   UNL A   1      43.488  22.368  25.795  1.00  0.00     0.010 A 
ATOM     34  C   UNL A   1      42.724  22.113  28.077  1.00  0.00     0.010 A 
ATOM     35  C   UNL A   1      43.327  22.901  27.085  1.00  0.00    -0.014 A 
BRANCH  35  36
ATOM     36  C   UNL A   1      43.741  24.290  27.407  1.00  0.00     0.031 A 
ATOM     37  C   UNL A   1      42.720  25.307  27.841  1.00  0.00     0.074 A 
ATOM     38  C   UNL A   1      45.025  24.657  27.218  1.00  0.00     0.049 A 
ATOM     39  N   UNL A   1      42.870  26.590  28.053  1.00  0.00    -0.248 NA
ATOM     40  C   UNL A   1      41.345  24.824  28.038  1.00  0.00     0.031 C 
ATOM     41  C   UNL A   1      46.097  23.774  26.754  1.00  0.00     0.029 A 
ATOM     42  N   UNL A   1      45.642  25.874  27.370  1.00  0.00    -0.354 N 
ATOM     43  C   UNL A   1      41.612  27.067  28.393  1.00  0.00     0.074 A 
ATOM     44  C   UNL A   1      40.699  25.948  28.317  1.00  0.00     0.031 C 
ATOM     45  C   UNL A   1      47.239  24.473  26.670  1.00  0.00     0.029 A 
ATOM     46  C   UNL A   1      46.973  25.864  27.023  1.00  0.00     0.049 A 
ATOM     47  H   UNL A   1      45.178  26.678  27.697  1.00  0.00     0.167 HD
ATOM     48  C   UNL A   1      41.256  28.324  28.750  1.00  0.00     0.037 A 
ATOM     49  C   UNL A   1      47.870  26.867  26.968  1.00  0.00     0.037 A 
ATOM     50  C   UNL A   1      42.174  29.430  28.847  1.00  0.00     0.049 A 
ATOM     51  C   UNL A   1      47.436  28.257  27.350  1.00  0.00     0.074 A 
ATOM     52  C   UNL A   1      41.922  30.722  29.274  1.00  0.00     0.029 A 
ATOM     53  N   UNL A   1      43.516  29.376  28.503  1.00  0.00    -0.354 N 
ATOM     54  N   UNL A   1      46.261  28.678  27.751  1.00  0.00    -0.248 NA
ATOM     55  C   UNL A   1      48.456  29.314  27.274  1.00  0.00     0.031 C 
ATOM     56  C   UNL A   1      43.096  31.467  29.129  1.00  0.00     0.029 A 
ATOM     57  C   UNL A   1      44.096  30.624  28.674  1.00  0.00     0.049 A 
ATOM     58  H   UNL A   1      43.988  28.572  28.186  1.00  0.00     0.167 HD
ATOM     59  C   UNL A   1      46.407  30.037  27.999  1.00  0.00     0.074 A 
ATOM     60  C   UNL A   1      47.790  30.365  27.728  1.00  0.00     0.031 C 
ATOM     61  C   UNL A   1      45.477  30.934  28.407  1.00  0.00     0.037 A 
BRANCH  48  62
ATOM     62  C   UNL A   1      39.812  28.586  29.067  1.00  0.00     0.064 A 
ATOM     63  C   UNL A   1      39.296  28.399  30.358  1.00  0.00     0.173 A 
ATOM     64  C   UNL A   1      38.956  29.114  28.088  1.00  0.00     0.173 A 
ATOM     65  F   UNL A   1      40.069  27.889  31.327  1.00  0.00    -0.203 F 
ATOM     66  C   UNL A   1      37.972  28.719  30.652  1.00  0.00     0.198 A 
ATOM     67  C   UNL A   1      37.643  29.460  28.394  1.00  0.00     0.198 A 
ATOM     68  F   UNL A   1      39.402  29.318  26.839  1.00  0.00    -0.203 F 
ATOM     69  F   UNL A   1      37.492  28.502  31.884  1.00  0.00    -0.200 F 
ATOM     70  C   UNL A   1      37.151  29.259  29.675  1.00  0.00     0.200 A 
ATOM     71  F   UNL A   1      36.856  29.998  27.451  1.00  0.00    -0.200 F 
ATOM     72  F   UNL A   1      35.885  29.586  29.966  1.00  0.00    -0.200 F 
ENDBRANCH  48  62
BRANCH  49  73
ATOM     73  C   UNL A   1      49.266  26.606  26.521  1.00  0.00     0.064 A 
ATOM     74  C   UNL A   1      50.258  26.220  27.434  1.00  0.00     0.173 A 
ATOM     75  C   UNL A   1      49.647  26.778  25.182  1.00  0.00     0.173 A 
ATOM     76  F   UNL A   1      49.950  26.062  28.730  1.00  0.00    -0.203 F 
ATOM     77  C   UNL A   1      51.582  26.055  27.033  1.00  0.00     0.198 A 
ATOM     78  C   UNL A   1      50.964  26.576  24.774  1.00  0.00     0.198 A 
ATOM     79  F   UNL A   1      48.738  27.141  24.265  1.00  0.00    -0.203 F 
ATOM     80  F   UNL A   1      52.521  25.754  27.940  1.00  0.00    -0.200 F 
ATOM     81  C   UNL A   1      51.933  26.229  25.704  1.00  0.00     0.200 A 
ATOM     82  F   UNL A   1      51.296  26.729  23.486  1.00  0.00    -0.200 F 
ATOM     83  F   UNL A   1      53.208  26.075  25.319  1.00  0.00    -0.200 F 
ENDBRANCH  49  73
BRANCH  61  84
ATOM     84  C   UNL A   1      45.931  32.350  28.618  1.00  0.00     0.064 A 
ATOM     85  C   UNL A   1      46.461  32.779  29.844  1.00  0.00     0.173 A 
ATOM     86  C   UNL A   1      45.867  33.281  27.570  1.00  0.00     0.173 A 
ATOM     87  F   UNL A   1      46.530  31.932  30.883  1.00  0.00    -0.203 F 
ATOM     88  C   UNL A   1      46.884  34.094  30.021  1.00  0.00     0.198 A 
ATOM     89  C   UNL A   1      46.323  34.584  27.740  1.00  0.00     0.198 A 
ATOM     90  F   UNL A   1      45.375  32.921  26.375  1.00  0.00    -0.203 F 
ATOM     91  F   UNL A   1      47.336  34.494  31.217  1.00  0.00    -0.200 F 
ATOM     92  C   UNL A   1      46.822  34.993  28.967  1.00  0.00     0.200 A 
ATOM     93  F   UNL A   1      46.279  35.446  26.714  1.00  0.00    -0.200 F 
ATOM     94  F   UNL A   1      47.238  36.255  29.137  1.00  0.00    -0.200 F 
ENDBRANCH  61  84
ENDBRANCH  35  36
ENDBRANCH  27  30
ENDBRANCH  25  26
ENDBRANCH  24  25
ENDBRANCH   1  24
TORSDOF 14
ENDMDL
MODEL 3
REMARK VINA RESULT:     -12.2      5.539     10.069
REMARK SMILES Cc1cc(C(=O)N[C@@H](C)C(=O)NCCCNC(=O)c2ccc(-c3c4nc(c(-c5c(F)c(F)c(F)c(F)c5F)c5ccc([nH]5)c(-c5c(F)c(F)c(F)c(F)c5F)c5nc(c(-c6c(F)c(F)c(F)c(F)c6F)c6ccc3[nH]6)C=C5)C=C4)cc2)cc(C)c1OC(F)F
REMARK SMILES IDX 13 1 12 2 10 3 11 4 8 6 9 7 7 8 5 9 6 10 4 12 1 13 2 14 3 15
REMARK SMILES IDX 85 16 83 17 82 18 84 19 86 20 87 21 88 22 89 23 14 24 15 25
REMARK SMILES IDX 16 26 17 27 18 29 19 30 20 31 81 32 21 33 80 34 22 35 23 36
REMARK SMILES IDX 24 37 74 38 25 39 79 40 73 41 75 42 26 43 78 44 72 45 71 46
REMARK SMILES IDX 27 48 59 49 39 50 58 51 40 52 43 53 57 54 76 55 41 56 42 57
REMARK SMILES IDX 56 59 77 60 44 61 28 62 29 63 37 64 30 65 31 66 35 67 38 68
REMARK SMILES IDX 32 69 33 70 36 71 34 72 60 73 61 74 69 75 62 76 63 77 67 78
REMARK SMILES IDX 70 79 64 80 65 81 68 82 66 83 45 84 46 85 54 86 47 87 48 88
REMARK SMILES IDX 52 89 55 90 49 91 50 92 53 93 51 94
REMARK H PARENT 12 5 7 11 16 28 75 47 43 58
REMARK Flexibility Score: inf
ROOT
ATOM      1  C   UNL A   1      36.873  20.574  25.095  1.00  0.00     0.117 C 
ENDROOT
BRANCH   1   2
ATOM      2  N   UNL A   1      36.767  21.497  23.980  1.00  0.00    -0.354 N 
ATOM      3  C   UNL A   1      36.742  22.861  23.951  1.00  0.00     0.242 C 
ATOM      4  O   UNL A   1      36.677  23.402  22.844  1.00  0.00    -0.273 OA
ATOM      5  H   UNL A   1      36.705  21.067  23.096  1.00  0.00     0.163 HD
BRANCH   3   6
ATOM      6  C   UNL A   1      36.744  23.704  25.242  1.00  0.00     0.168 C 
ATOM      7  C   UNL A   1      38.033  23.608  26.048  1.00  0.00     0.041 C 
BRANCH   6   8
ATOM      8  N   UNL A   1      35.526  23.399  25.995  1.00  0.00    -0.341 N 
ATOM      9  C   UNL A   1      34.284  23.993  26.036  1.00  0.00     0.251 C 
ATOM     10  O   UNL A   1      33.401  23.403  26.661  1.00  0.00    -0.269 OA
ATOM     11  H   UNL A   1      35.610  22.617  26.587  1.00  0.00     0.164 HD
BRANCH   9  12
ATOM     12  C   UNL A   1      33.991  25.342  25.468  1.00  0.00     0.040 A 
ATOM     13  C   UNL A   1      32.956  26.502  22.026  1.00  0.00     0.048 C 
ATOM     14  C   UNL A   1      33.212  26.633  23.502  1.00  0.00    -0.008 A 
ATOM     15  C   UNL A   1      33.651  25.428  24.113  1.00  0.00     0.021 A 
ATOM     16  C   UNL A   1      33.012  27.757  24.322  1.00  0.00     0.131 A 
ATOM     17  C   UNL A   1      33.432  27.690  25.674  1.00  0.00    -0.008 A 
ATOM     18  C   UNL A   1      34.003  26.518  26.195  1.00  0.00     0.021 A 
ATOM     19  C   UNL A   1      33.195  28.809  26.662  1.00  0.00     0.048 C 
BRANCH  16  20
ATOM     20  O   UNL A   1      32.385  28.932  24.045  1.00  0.00    -0.434 OA
BRANCH  20  21
ATOM     21  C   UNL A   1      30.994  29.060  23.850  1.00  0.00     0.542 C 
ATOM     22  F   UNL A   1      30.335  27.992  24.354  1.00  0.00    -0.167 F 
ATOM     23  F   UNL A   1      30.554  30.192  24.446  1.00  0.00    -0.167 F 
ENDBRANCH  20  21
ENDBRANCH  16  20
ENDBRANCH   9  12
ENDBRANCH   6   8
ENDBRANCH   3   6
ENDBRANCH   1   2
BRANCH   1  24
ATOM     24  C   UNL A   1      38.087  19.662  25.001  1.00  0.00     0.042 C 
BRANCH  24  25
ATOM     25  C   UNL A   1      39.294  20.133  25.798  1.00  0.00     0.118 C 
BRANCH  25  26
ATOM     26  N   UNL A   1      40.329  19.113  25.917  1.00  0.00    -0.352 N 
ATOM     27  C   UNL A   1      41.683  19.230  26.121  1.00  0.00     0.251 C 
ATOM     28  H   UNL A   1      40.003  18.187  25.839  1.00  0.00     0.163 HD
ATOM     29  O   UNL A   1      42.403  18.248  25.993  1.00  0.00    -0.269 OA
BRANCH  27  30
ATOM     30  C   UNL A   1      42.279  20.540  26.461  1.00  0.00     0.039 A 
ATOM     31  C   UNL A   1      42.893  21.286  25.451  1.00  0.00     0.014 A 
ATOM     32  C   UNL A   1      42.243  21.032  27.767  1.00  0.00     0.014 A 
ATOM     33  C   UNL A   1      43.375  22.567  25.732  1.00  0.00     0.010 A 
ATOM     34  C   UNL A   1      42.641  22.340  28.026  1.00  0.00     0.010 A 
ATOM     35  C   UNL A   1      43.199  23.127  27.007  1.00  0.00    -0.014 A 
BRANCH  35  36
ATOM     36  C   UNL A   1      43.549  24.543  27.288  1.00  0.00     0.031 A 
ATOM     37  C   UNL A   1      44.989  24.972  27.353  1.00  0.00     0.074 A 
ATOM     38  C   UNL A   1      42.567  25.421  27.576  1.00  0.00     0.049 A 
ATOM     39  N   UNL A   1      45.491  26.131  27.697  1.00  0.00    -0.248 NA
ATOM     40  C   UNL A   1      46.000  23.959  27.011  1.00  0.00     0.031 C 
ATOM     41  C   UNL A   1      41.135  25.112  27.593  1.00  0.00     0.029 A 
ATOM     42  N   UNL A   1      42.623  26.745  27.933  1.00  0.00    -0.354 N 
ATOM     43  C   UNL A   1      46.869  25.983  27.628  1.00  0.00     0.074 A 
ATOM     44  C   UNL A   1      47.130  24.610  27.251  1.00  0.00     0.031 C 
ATOM     45  C   UNL A   1      40.449  26.215  27.930  1.00  0.00     0.029 A 
ATOM     46  C   UNL A   1      41.392  27.295  28.204  1.00  0.00     0.049 A 
ATOM     47  H   UNL A   1      43.463  27.254  27.989  1.00  0.00     0.167 HD
ATOM     48  C   UNL A   1      47.829  26.913  27.844  1.00  0.00     0.037 A 
ATOM     49  C   UNL A   1      41.061  28.523  28.651  1.00  0.00     0.037 A 
ATOM     50  C   UNL A   1      47.563  28.285  28.195  1.00  0.00     0.049 A 
ATOM     51  C   UNL A   1      42.155  29.527  28.903  1.00  0.00     0.074 A 
ATOM     52  C   UNL A   1      48.466  29.320  28.360  1.00  0.00     0.029 A 
ATOM     53  N   UNL A   1      46.304  28.808  28.444  1.00  0.00    -0.354 N 
ATOM     54  N   UNL A   1      43.450  29.398  28.751  1.00  0.00    -0.248 NA
ATOM     55  C   UNL A   1      41.738  30.851  29.387  1.00  0.00     0.031 C 
ATOM     56  C   UNL A   1      47.760  30.455  28.770  1.00  0.00     0.029 A 
ATOM     57  C   UNL A   1      46.411  30.144  28.798  1.00  0.00     0.049 A 
ATOM     58  H   UNL A   1      45.460  28.306  28.379  1.00  0.00     0.167 HD
ATOM     59  C   UNL A   1      43.998  30.627  29.095  1.00  0.00     0.074 A 
ATOM     60  C   UNL A   1      42.894  31.496  29.438  1.00  0.00     0.031 C 
ATOM     61  C   UNL A   1      45.300  30.999  29.130  1.00  0.00     0.037 A 
BRANCH  48  62
ATOM     62  C   UNL A   1      49.264  26.493  27.709  1.00  0.00     0.064 A 
ATOM     63  C   UNL A   1      49.886  26.386  26.457  1.00  0.00     0.173 A 
ATOM     64  C   UNL A   1      50.050  26.280  28.852  1.00  0.00     0.173 A 
ATOM     65  F   UNL A   1      49.178  26.570  25.333  1.00  0.00    -0.203 F 
ATOM     66  C   UNL A   1      51.238  26.067  26.354  1.00  0.00     0.198 A 
ATOM     67  C   UNL A   1      51.408  25.991  28.746  1.00  0.00     0.198 A 
ATOM     68  F   UNL A   1      49.505  26.377  30.075  1.00  0.00    -0.203 F 
ATOM     69  F   UNL A   1      51.803  25.939  25.146  1.00  0.00    -0.200 F 
ATOM     70  C   UNL A   1      52.000  25.883  27.497  1.00  0.00     0.200 A 
ATOM     71  F   UNL A   1      52.146  25.829  29.853  1.00  0.00    -0.200 F 
ATOM     72  F   UNL A   1      53.305  25.598  27.396  1.00  0.00    -0.200 F 
ENDBRANCH  48  62
BRANCH  49  73
ATOM     73  C   UNL A   1      39.637  28.874  28.904  1.00  0.00     0.064 A 
ATOM     74  C   UNL A   1      39.065  28.707  30.173  1.00  0.00     0.173 A 
ATOM     75  C   UNL A   1      38.807  29.341  27.874  1.00  0.00     0.173 A 
ATOM     76  F   UNL A   1      39.811  28.242  31.188  1.00  0.00    -0.203 F 
ATOM     77  C   UNL A   1      37.712  28.956  30.394  1.00  0.00     0.198 A 
ATOM     78  C   UNL A   1      37.463  29.626  28.104  1.00  0.00     0.198 A 
ATOM     79  F   UNL A   1      39.303  29.524  26.641  1.00  0.00    -0.203 F 
ATOM     80  F   UNL A   1      37.178  28.722  31.599  1.00  0.00    -0.200 F 
ATOM     81  C   UNL A   1      36.913  29.419  29.360  1.00  0.00     0.200 A 
ATOM     82  F   UNL A   1      36.697  30.090  27.106  1.00  0.00    -0.200 F 
ATOM     83  F   UNL A   1      35.610  29.654  29.571  1.00  0.00    -0.200 F 
ENDBRANCH  49  73
BRANCH  61  84
ATOM     84  C   UNL A   1      45.601  32.418  29.522  1.00  0.00     0.064 A 
ATOM     85  C   UNL A   1      45.630  33.453  28.576  1.00  0.00     0.173 A 
ATOM     86  C   UNL A   1      45.829  32.751  30.866  1.00  0.00     0.173 A 
ATOM     87  F   UNL A   1      45.434  33.186  27.276  1.00  0.00    -0.203 F 
ATOM     88  C   UNL A   1      45.904  34.765  28.957  1.00  0.00     0.198 A 
ATOM     89  C   UNL A   1      46.068  34.068  31.248  1.00  0.00     0.198 A 
ATOM     90  F   UNL A   1      45.805  31.800  31.812  1.00  0.00    -0.203 F 
ATOM     91  F   UNL A   1      45.981  35.727  28.029  1.00  0.00    -0.200 F 
ATOM     92  C   UNL A   1      46.114  35.071  30.294  1.00  0.00     0.200 A 
ATOM     93  F   UNL A   1      46.252  34.365  32.542  1.00  0.00    -0.200 F 
ATOM     94  F   UNL A   1      46.369  36.335  30.659  1.00  0.00    -0.200 F 
ENDBRANCH  61  84
ENDBRANCH  35  36
ENDBRANCH  27  30
ENDBRANCH  25  26
ENDBRANCH  24  25
ENDBRANCH   1  24
TORSDOF 14
ENDMDL
