MODEL 1
REMARK VINA RESULT:     -11.2      0.000      0.000
REMARK SMILES C[N@H+](C[C@H]1CCC[N@H+]1C)C[C@]([NH3+])(C(=O)NCCCNC(=O)c1ccc(-c2c3nc(c(-c4c(F)c(F)c(F)c(F)c4F)c4ccc([nH]4)c(-c4c(F)c(F)c(F)c(F)c4F)c4nc(c(-c5c(F)c(F)c(F)c(F)c5F)c5ccc2[nH]5)C=C4)C=C3)cc1)c1ccccc1
REMARK SMILES IDX 16 1 15 2 13 3 14 4 11 6 10 7 2 8 1 9 3 11 4 12 5 13 8 14
REMARK SMILES IDX 6 15 7 16 9 17 85 19 86 20 90 21 87 22 89 23 88 24 12 25
REMARK SMILES IDX 17 29 18 30 19 31 20 32 21 34 22 35 23 36 84 37 24 38 83 39
REMARK SMILES IDX 25 40 26 41 27 42 77 43 28 44 82 45 76 46 78 47 29 48 81 49
REMARK SMILES IDX 75 50 74 51 30 53 62 54 42 55 61 56 43 57 46 58 60 59 79 60
REMARK SMILES IDX 44 61 45 62 59 64 80 65 47 66 31 67 32 68 40 69 33 70 34 71
REMARK SMILES IDX 38 72 41 73 35 74 36 75 39 76 37 77 63 78 64 79 72 80 65 81
REMARK SMILES IDX 66 82 70 83 73 84 67 85 68 86 71 87 69 88 48 89 49 90 57 91
REMARK SMILES IDX 50 92 51 93 55 94 58 95 52 96 53 97 56 98 54 99
REMARK H PARENT 15 5 2 10 8 18 12 26 12 27 12 28 19 33 78 52 46 63
REMARK Flexibility Score: inf
ROOT
ATOM      1  C   UNL A   1      34.859  23.057  26.349  1.00  0.00     0.118 C 
ENDROOT
BRANCH   1   2
ATOM      2  N   UNL A   1      33.622  23.610  26.880  1.00  0.00    -0.350 N 
ATOM      3  C   UNL A   1      32.327  23.658  26.405  1.00  0.00     0.292 C 
ATOM      4  O   UNL A   1      31.498  23.959  27.267  1.00  0.00    -0.267 OA
ATOM      5  H   UNL A   1      33.731  24.038  27.760  1.00  0.00     0.163 HD
BRANCH   3   6
ATOM      6  C   UNL A   1      31.991  23.455  24.856  1.00  0.00     0.248 C 
BRANCH   6   7
ATOM      7  C   UNL A   1      32.954  24.379  23.992  1.00  0.00     0.347 C 
BRANCH   7   8
ATOM      8  N   UNL A   1      32.417  25.659  23.470  1.00  0.00    -0.326 N 
ATOM      9  C   UNL A   1      32.042  25.611  22.064  1.00  0.00     0.333 C 
ATOM     10  H   UNL A   1      31.544  25.715  23.996  1.00  0.00     0.348 HD
BRANCH   8  11
ATOM     11  C   UNL A   1      33.002  26.928  23.928  1.00  0.00     0.327 C 
BRANCH  11  12
ATOM     12  C   UNL A   1      32.484  27.368  25.347  1.00  0.00     0.239 C 
ATOM     13  C   UNL A   1      33.605  27.301  26.399  1.00  0.00     0.077 C 
ATOM     14  N   UNL A   1      32.012  28.749  25.547  1.00  0.00    -0.330 N 
ATOM     15  C   UNL A   1      33.945  28.732  26.791  1.00  0.00     0.068 C 
ATOM     16  C   UNL A   1      33.165  29.588  25.819  1.00  0.00     0.262 C 
ATOM     17  C   UNL A   1      31.101  29.279  24.557  1.00  0.00     0.333 C 
ATOM     18  H   UNL A   1      31.391  28.741  26.357  1.00  0.00     0.348 HD
ENDBRANCH  11  12
ENDBRANCH   8  11
ENDBRANCH   7   8
ENDBRANCH   6   7
BRANCH   6  19
ATOM     19  C   UNL A   1      32.113  22.007  24.284  1.00  0.00     0.028 A 
ATOM     20  C   UNL A   1      31.977  21.830  22.885  1.00  0.00     0.011 A 
ATOM     21  C   UNL A   1      32.352  20.847  25.035  1.00  0.00     0.011 A 
ATOM     22  C   UNL A   1      32.090  20.584  22.268  1.00  0.00     0.001 A 
ATOM     23  C   UNL A   1      32.438  19.587  24.420  1.00  0.00     0.001 A 
ATOM     24  C   UNL A   1      32.315  19.457  23.040  1.00  0.00     0.000 A 
ENDBRANCH   6  19
BRANCH   6  25
ATOM     25  N   UNL A   1      30.545  23.783  24.756  1.00  0.00    -0.336 N 
ATOM     26  H   UNL A   1      30.188  24.031  25.679  1.00  0.00     0.345 HD
ATOM     27  H   UNL A   1      30.036  22.974  24.401  1.00  0.00     0.345 HD
ATOM     28  H   UNL A   1      30.418  24.571  24.120  1.00  0.00     0.345 HD
ENDBRANCH   6  25
ENDBRANCH   3   6
ENDBRANCH   1   2
BRANCH   1  29
ATOM     29  C   UNL A   1      35.931  24.087  26.016  1.00  0.00     0.042 C 
BRANCH  29  30
ATOM     30  C   UNL A   1      36.955  23.676  24.975  1.00  0.00     0.118 C 
BRANCH  30  31
ATOM     31  N   UNL A   1      37.913  22.700  25.469  1.00  0.00    -0.352 N 
ATOM     32  C   UNL A   1      39.043  22.847  26.230  1.00  0.00     0.251 C 
ATOM     33  H   UNL A   1      37.715  21.771  25.212  1.00  0.00     0.163 HD
ATOM     34  O   UNL A   1      39.776  21.867  26.393  1.00  0.00    -0.269 OA
BRANCH  32  35
ATOM     35  C   UNL A   1      39.424  24.144  26.840  1.00  0.00     0.039 A 
ATOM     36  C   UNL A   1      39.054  24.389  28.168  1.00  0.00     0.014 A 
ATOM     37  C   UNL A   1      40.086  25.142  26.122  1.00  0.00     0.014 A 
ATOM     38  C   UNL A   1      39.394  25.597  28.783  1.00  0.00     0.010 A 
ATOM     39  C   UNL A   1      40.513  26.304  26.764  1.00  0.00     0.010 A 
ATOM     40  C   UNL A   1      40.158  26.553  28.097  1.00  0.00    -0.014 A 
BRANCH  40  41
ATOM     41  C   UNL A   1      40.573  27.824  28.748  1.00  0.00     0.031 A 
ATOM     42  C   UNL A   1      41.988  28.007  29.226  1.00  0.00     0.074 A 
ATOM     43  C   UNL A   1      39.662  28.795  28.958  1.00  0.00     0.049 A 
ATOM     44  N   UNL A   1      42.525  29.016  29.867  1.00  0.00    -0.248 NA
ATOM     45  C   UNL A   1      42.921  26.896  28.975  1.00  0.00     0.031 C 
ATOM     46  C   UNL A   1      38.249  28.726  28.584  1.00  0.00     0.029 A 
ATOM     47  N   UNL A   1      39.789  30.030  29.546  1.00  0.00    -0.354 N 
ATOM     48  C   UNL A   1      43.844  28.653  30.111  1.00  0.00     0.074 A 
ATOM     49  C   UNL A   1      44.013  27.310  29.600  1.00  0.00     0.031 C 
ATOM     50  C   UNL A   1      37.647  29.877  28.925  1.00  0.00     0.029 A 
ATOM     51  C   UNL A   1      38.619  30.748  29.578  1.00  0.00     0.049 A 
ATOM     52  H   UNL A   1      40.638  30.369  29.911  1.00  0.00     0.167 HD
ATOM     53  C   UNL A   1      44.831  29.381  30.685  1.00  0.00     0.037 A 
ATOM     54  C   UNL A   1      38.356  31.969  30.083  1.00  0.00     0.037 A 
ATOM     55  C   UNL A   1      44.668  30.728  31.165  1.00  0.00     0.049 A 
ATOM     56  C   UNL A   1      39.469  32.754  30.723  1.00  0.00     0.074 A 
ATOM     57  C   UNL A   1      45.623  31.574  31.703  1.00  0.00     0.029 A 
ATOM     58  N   UNL A   1      43.469  31.426  31.168  1.00  0.00    -0.354 N 
ATOM     59  N   UNL A   1      40.729  32.429  30.881  1.00  0.00    -0.248 NA
ATOM     60  C   UNL A   1      39.123  34.082  31.247  1.00  0.00     0.031 C 
ATOM     61  C   UNL A   1      44.990  32.764  32.080  1.00  0.00     0.029 A 
ATOM     62  C   UNL A   1      43.654  32.682  31.724  1.00  0.00     0.049 A 
ATOM     63  H   UNL A   1      42.613  31.079  30.827  1.00  0.00     0.167 HD
ATOM     64  C   UNL A   1      41.332  33.519  31.493  1.00  0.00     0.074 A 
ATOM     65  C   UNL A   1      40.303  34.524  31.662  1.00  0.00     0.031 C 
ATOM     66  C   UNL A   1      42.623  33.676  31.878  1.00  0.00     0.037 A 
BRANCH  53  67
ATOM     67  C   UNL A   1      46.181  28.735  30.824  1.00  0.00     0.064 A 
ATOM     68  C   UNL A   1      46.504  27.930  31.928  1.00  0.00     0.173 A 
ATOM     69  C   UNL A   1      47.153  28.893  29.824  1.00  0.00     0.173 A 
ATOM     70  F   UNL A   1      45.616  27.753  32.918  1.00  0.00    -0.203 F 
ATOM     71  C   UNL A   1      47.760  27.338  32.043  1.00  0.00     0.198 A 
ATOM     72  C   UNL A   1      48.396  28.273  29.926  1.00  0.00     0.198 A 
ATOM     73  F   UNL A   1      46.895  29.645  28.744  1.00  0.00    -0.203 F 
ATOM     74  F   UNL A   1      48.063  26.621  33.133  1.00  0.00    -0.200 F 
ATOM     75  C   UNL A   1      48.702  27.503  31.039  1.00  0.00     0.200 A 
ATOM     76  F   UNL A   1      49.299  28.421  28.948  1.00  0.00    -0.200 F 
ATOM     77  F   UNL A   1      49.907  26.929  31.147  1.00  0.00    -0.200 F 
ENDBRANCH  53  67
BRANCH  54  78
ATOM     78  C   UNL A   1      36.986  32.539  29.978  1.00  0.00     0.064 A 
ATOM     79  C   UNL A   1      36.572  33.204  28.815  1.00  0.00     0.173 A 
ATOM     80  C   UNL A   1      36.070  32.440  31.035  1.00  0.00     0.173 A 
ATOM     81  F   UNL A   1      37.420  33.342  27.785  1.00  0.00    -0.203 F 
ATOM     82  C   UNL A   1      35.302  33.768  28.723  1.00  0.00     0.198 A 
ATOM     83  C   UNL A   1      34.789  32.979  30.929  1.00  0.00     0.198 A 
ATOM     84  F   UNL A   1      36.414  31.810  32.167  1.00  0.00    -0.203 F 
ATOM     85  F   UNL A   1      34.949  34.441  27.619  1.00  0.00    -0.200 F 
ATOM     86  C   UNL A   1      34.409  33.650  29.777  1.00  0.00     0.200 A 
ATOM     87  F   UNL A   1      33.924  32.849  31.944  1.00  0.00    -0.200 F 
ATOM     88  F   UNL A   1      33.186  34.191  29.685  1.00  0.00    -0.200 F 
ENDBRANCH  54  78
BRANCH  66  89
ATOM     89  C   UNL A   1      43.005  34.996  32.482  1.00  0.00     0.064 A 
ATOM     90  C   UNL A   1      43.539  36.037  31.708  1.00  0.00     0.173 A 
ATOM     91  C   UNL A   1      42.802  35.233  33.850  1.00  0.00     0.173 A 
ATOM     92  F   UNL A   1      43.767  35.857  30.398  1.00  0.00    -0.203 F 
ATOM     93  C   UNL A   1      43.884  37.255  32.288  1.00  0.00     0.198 A 
ATOM     94  C   UNL A   1      43.117  36.463  34.421  1.00  0.00     0.198 A 
ATOM     95  F   UNL A   1      42.287  34.274  34.635  1.00  0.00    -0.203 F 
ATOM     96  F   UNL A   1      44.444  38.217  31.539  1.00  0.00    -0.200 F 
ATOM     97  C   UNL A   1      43.666  37.470  33.641  1.00  0.00     0.200 A 
ATOM     98  F   UNL A   1      42.892  36.675  35.725  1.00  0.00    -0.200 F 
ATOM     99  F   UNL A   1      43.994  38.645  34.196  1.00  0.00    -0.200 F 
ENDBRANCH  66  89
ENDBRANCH  40  41
ENDBRANCH  32  35
ENDBRANCH  30  31
ENDBRANCH  29  30
ENDBRANCH   1  29
TORSDOF 16
ENDMDL
MODEL 2
REMARK VINA RESULT:     -11.2      3.688      8.861
REMARK SMILES C[N@H+](C[C@H]1CCC[N@H+]1C)C[C@]([NH3+])(C(=O)NCCCNC(=O)c1ccc(-c2c3nc(c(-c4c(F)c(F)c(F)c(F)c4F)c4ccc([nH]4)c(-c4c(F)c(F)c(F)c(F)c4F)c4nc(c(-c5c(F)c(F)c(F)c(F)c5F)c5ccc2[nH]5)C=C4)C=C3)cc1)c1ccccc1
REMARK SMILES IDX 16 1 15 2 13 3 14 4 11 6 10 7 2 8 1 9 3 11 4 12 5 13 8 14
REMARK SMILES IDX 6 15 7 16 9 17 85 19 86 20 90 21 87 22 89 23 88 24 12 25
REMARK SMILES IDX 17 29 18 30 19 31 20 32 21 34 22 35 23 36 84 37 24 38 83 39
REMARK SMILES IDX 25 40 26 41 27 42 77 43 28 44 82 45 76 46 78 47 29 48 81 49
REMARK SMILES IDX 75 50 74 51 30 53 62 54 42 55 61 56 43 57 46 58 60 59 79 60
REMARK SMILES IDX 44 61 45 62 59 64 80 65 47 66 31 67 32 68 40 69 33 70 34 71
REMARK SMILES IDX 38 72 41 73 35 74 36 75 39 76 37 77 63 78 64 79 72 80 65 81
REMARK SMILES IDX 66 82 70 83 73 84 67 85 68 86 71 87 69 88 48 89 49 90 57 91
REMARK SMILES IDX 50 92 51 93 55 94 58 95 52 96 53 97 56 98 54 99
REMARK H PARENT 15 5 2 10 8 18 12 26 12 27 12 28 19 33 78 52 46 63
REMARK Flexibility Score: inf
ROOT
ATOM      1  C   UNL A   1      31.119  30.288  25.641  1.00  0.00     0.118 C 
ENDROOT
BRANCH   1   2
ATOM      2  N   UNL A   1      32.332  29.831  24.980  1.00  0.00    -0.350 N 
ATOM      3  C   UNL A   1      32.566  29.051  23.866  1.00  0.00     0.292 C 
ATOM      4  O   UNL A   1      33.726  29.120  23.453  1.00  0.00    -0.267 OA
ATOM      5  H   UNL A   1      33.157  30.144  25.418  1.00  0.00     0.163 HD
BRANCH   3   6
ATOM      6  C   UNL A   1      31.449  28.076  23.272  1.00  0.00     0.248 C 
BRANCH   6   7
ATOM      7  C   UNL A   1      31.137  26.937  24.337  1.00  0.00     0.347 C 
BRANCH   7   8
ATOM      8  N   UNL A   1      31.433  25.531  23.968  1.00  0.00    -0.326 N 
ATOM      9  C   UNL A   1      30.272  24.788  23.500  1.00  0.00     0.333 C 
ATOM     10  H   UNL A   1      32.025  25.681  23.151  1.00  0.00     0.348 HD
BRANCH   8  11
ATOM     11  C   UNL A   1      32.398  24.762  24.768  1.00  0.00     0.327 C 
BRANCH  11  12
ATOM     12  C   UNL A   1      33.845  24.757  24.150  1.00  0.00     0.239 C 
ATOM     13  C   UNL A   1      34.923  24.838  25.245  1.00  0.00     0.077 C 
ATOM     14  N   UNL A   1      34.307  23.573  23.406  1.00  0.00    -0.330 N 
ATOM     15  C   UNL A   1      35.632  23.492  25.282  1.00  0.00     0.068 C 
ATOM     16  C   UNL A   1      34.821  22.608  24.361  1.00  0.00     0.262 C 
ATOM     17  C   UNL A   1      33.401  23.022  22.423  1.00  0.00     0.333 C 
ATOM     18  H   UNL A   1      35.058  23.881  22.787  1.00  0.00     0.348 HD
ENDBRANCH  11  12
ENDBRANCH   8  11
ENDBRANCH   7   8
ENDBRANCH   6   7
BRANCH   6  19
ATOM     19  C   UNL A   1      30.081  28.717  22.876  1.00  0.00     0.028 A 
ATOM     20  C   UNL A   1      30.100  29.866  22.046  1.00  0.00     0.011 A 
ATOM     21  C   UNL A   1      28.816  28.257  23.267  1.00  0.00     0.011 A 
ATOM     22  C   UNL A   1      28.937  30.504  21.616  1.00  0.00     0.001 A 
ATOM     23  C   UNL A   1      27.644  28.914  22.859  1.00  0.00     0.001 A 
ATOM     24  C   UNL A   1      27.704  30.030  22.030  1.00  0.00     0.000 A 
ENDBRANCH   6  19
BRANCH   6  25
ATOM     25  N   UNL A   1      32.032  27.599  21.991  1.00  0.00    -0.336 N 
ATOM     26  H   UNL A   1      32.913  28.084  21.817  1.00  0.00     0.345 HD
ATOM     27  H   UNL A   1      31.382  27.792  21.229  1.00  0.00     0.345 HD
ATOM     28  H   UNL A   1      32.201  26.595  22.048  1.00  0.00     0.345 HD
ENDBRANCH   6  25
ENDBRANCH   3   6
ENDBRANCH   1   2
BRANCH   1  29
ATOM     29  C   UNL A   1      31.154  31.734  26.119  1.00  0.00     0.042 C 
BRANCH  29  30
ATOM     30  C   UNL A   1      32.398  32.158  26.877  1.00  0.00     0.118 C 
BRANCH  30  31
ATOM     31  N   UNL A   1      32.361  33.547  27.305  1.00  0.00    -0.352 N 
ATOM     32  C   UNL A   1      33.113  34.230  28.225  1.00  0.00     0.251 C 
ATOM     33  H   UNL A   1      31.676  34.093  26.856  1.00  0.00     0.163 HD
ATOM     34  O   UNL A   1      32.783  35.383  28.517  1.00  0.00    -0.269 OA
BRANCH  32  35
ATOM     35  C   UNL A   1      34.290  33.624  28.893  1.00  0.00     0.039 A 
ATOM     36  C   UNL A   1      34.075  32.579  29.801  1.00  0.00     0.014 A 
ATOM     37  C   UNL A   1      35.589  34.093  28.690  1.00  0.00     0.014 A 
ATOM     38  C   UNL A   1      35.156  31.978  30.452  1.00  0.00     0.010 A 
ATOM     39  C   UNL A   1      36.674  33.429  29.262  1.00  0.00     0.010 A 
ATOM     40  C   UNL A   1      36.470  32.375  30.162  1.00  0.00    -0.014 A 
BRANCH  40  41
ATOM     41  C   UNL A   1      37.637  31.716  30.807  1.00  0.00     0.031 A 
ATOM     42  C   UNL A   1      38.067  32.119  32.192  1.00  0.00     0.074 A 
ATOM     43  C   UNL A   1      38.345  30.793  30.126  1.00  0.00     0.049 A 
ATOM     44  N   UNL A   1      39.090  31.704  32.898  1.00  0.00    -0.248 NA
ATOM     45  C   UNL A   1      37.254  33.144  32.866  1.00  0.00     0.031 C 
ATOM     46  C   UNL A   1      38.061  30.346  28.762  1.00  0.00     0.029 A 
ATOM     47  N   UNL A   1      39.455  30.069  30.487  1.00  0.00    -0.354 N 
ATOM     48  C   UNL A   1      39.054  32.430  34.082  1.00  0.00     0.074 A 
ATOM     49  C   UNL A   1      37.943  33.350  33.979  1.00  0.00     0.031 C 
ATOM     50  C   UNL A   1      38.953  29.406  28.412  1.00  0.00     0.029 A 
ATOM     51  C   UNL A   1      39.897  29.213  29.509  1.00  0.00     0.049 A 
ATOM     52  H   UNL A   1      39.892  30.156  31.365  1.00  0.00     0.167 HD
ATOM     53  C   UNL A   1      39.857  32.323  35.167  1.00  0.00     0.037 A 
ATOM     54  C   UNL A   1      40.947  28.371  29.494  1.00  0.00     0.037 A 
ATOM     55  C   UNL A   1      40.944  31.385  35.280  1.00  0.00     0.049 A 
ATOM     56  C   UNL A   1      41.830  28.277  30.710  1.00  0.00     0.074 A 
ATOM     57  C   UNL A   1      41.776  31.153  36.362  1.00  0.00     0.029 A 
ATOM     58  N   UNL A   1      41.353  30.526  34.270  1.00  0.00    -0.354 N 
ATOM     59  N   UNL A   1      41.741  28.915  31.851  1.00  0.00    -0.248 NA
ATOM     60  C   UNL A   1      42.956  27.335  30.637  1.00  0.00     0.031 C 
ATOM     61  C   UNL A   1      42.720  30.191  35.989  1.00  0.00     0.029 A 
ATOM     62  C   UNL A   1      42.442  29.781  34.696  1.00  0.00     0.049 A 
ATOM     63  H   UNL A   1      40.932  30.456  33.383  1.00  0.00     0.167 HD
ATOM     64  C   UNL A   1      42.775  28.433  32.641  1.00  0.00     0.074 A 
ATOM     65  C   UNL A   1      43.470  27.435  31.855  1.00  0.00     0.031 C 
ATOM     66  C   UNL A   1      43.118  28.783  33.905  1.00  0.00     0.037 A 
BRANCH  53  67
ATOM     67  C   UNL A   1      39.590  33.243  36.325  1.00  0.00     0.064 A 
ATOM     68  C   UNL A   1      38.692  32.903  37.348  1.00  0.00     0.173 A 
ATOM     69  C   UNL A   1      40.268  34.468  36.431  1.00  0.00     0.173 A 
ATOM     70  F   UNL A   1      38.010  31.749  37.291  1.00  0.00    -0.203 F 
ATOM     71  C   UNL A   1      38.455  33.768  38.413  1.00  0.00     0.198 A 
ATOM     72  C   UNL A   1      40.053  35.316  37.515  1.00  0.00     0.198 A 
ATOM     73  F   UNL A   1      41.143  34.841  35.485  1.00  0.00    -0.203 F 
ATOM     74  F   UNL A   1      37.550  33.445  39.348  1.00  0.00    -0.200 F 
ATOM     75  C   UNL A   1      39.141  34.970  38.501  1.00  0.00     0.200 A 
ATOM     76  F   UNL A   1      40.728  36.469  37.605  1.00  0.00    -0.200 F 
ATOM     77  F   UNL A   1      38.917  35.798  39.529  1.00  0.00    -0.200 F 
ENDBRANCH  53  67
BRANCH  54  78
ATOM     78  C   UNL A   1      41.209  27.528  28.297  1.00  0.00     0.064 A 
ATOM     79  C   UNL A   1      40.576  26.286  28.141  1.00  0.00     0.173 A 
ATOM     80  C   UNL A   1      42.100  27.936  27.294  1.00  0.00     0.173 A 
ATOM     81  F   UNL A   1      39.731  25.843  29.085  1.00  0.00    -0.203 F 
ATOM     82  C   UNL A   1      40.840  25.477  27.039  1.00  0.00     0.198 A 
ATOM     83  C   UNL A   1      42.340  27.138  26.177  1.00  0.00     0.198 A 
ATOM     84  F   UNL A   1      42.727  29.117  27.392  1.00  0.00    -0.203 F 
ATOM     85  F   UNL A   1      40.258  24.274  26.940  1.00  0.00    -0.200 F 
ATOM     86  C   UNL A   1      41.718  25.906  26.055  1.00  0.00     0.200 A 
ATOM     87  F   UNL A   1      43.176  27.564  25.220  1.00  0.00    -0.200 F 
ATOM     88  F   UNL A   1      41.969  25.127  24.994  1.00  0.00    -0.200 F 
ENDBRANCH  54  78
BRANCH  66  89
ATOM     89  C   UNL A   1      44.270  28.054  34.533  1.00  0.00     0.064 A 
ATOM     90  C   UNL A   1      44.099  26.825  35.189  1.00  0.00     0.173 A 
ATOM     91  C   UNL A   1      45.570  28.577  34.448  1.00  0.00     0.173 A 
ATOM     92  F   UNL A   1      42.875  26.290  35.312  1.00  0.00    -0.203 F 
ATOM     93  C   UNL A   1      45.182  26.164  35.762  1.00  0.00     0.198 A 
ATOM     94  C   UNL A   1      46.655  27.896  34.993  1.00  0.00     0.198 A 
ATOM     95  F   UNL A   1      45.790  29.745  33.825  1.00  0.00    -0.203 F 
ATOM     96  F   UNL A   1      44.987  25.018  36.431  1.00  0.00    -0.200 F 
ATOM     97  C   UNL A   1      46.459  26.695  35.657  1.00  0.00     0.200 A 
ATOM     98  F   UNL A   1      47.890  28.403  34.877  1.00  0.00    -0.200 F 
ATOM     99  F   UNL A   1      47.501  26.053  36.204  1.00  0.00    -0.200 F 
ENDBRANCH  66  89
ENDBRANCH  40  41
ENDBRANCH  32  35
ENDBRANCH  30  31
ENDBRANCH  29  30
ENDBRANCH   1  29
TORSDOF 16
ENDMDL
MODEL 3
REMARK VINA RESULT:     -11.1      3.833      7.892
REMARK SMILES C[N@H+](C[C@H]1CCC[N@H+]1C)C[C@]([NH3+])(C(=O)NCCCNC(=O)c1ccc(-c2c3nc(c(-c4c(F)c(F)c(F)c(F)c4F)c4ccc([nH]4)c(-c4c(F)c(F)c(F)c(F)c4F)c4nc(c(-c5c(F)c(F)c(F)c(F)c5F)c5ccc2[nH]5)C=C4)C=C3)cc1)c1ccccc1
REMARK SMILES IDX 16 1 15 2 13 3 14 4 11 6 10 7 2 8 1 9 3 11 4 12 5 13 8 14
REMARK SMILES IDX 6 15 7 16 9 17 85 19 86 20 90 21 87 22 89 23 88 24 12 25
REMARK SMILES IDX 17 29 18 30 19 31 20 32 21 34 22 35 23 36 84 37 24 38 83 39
REMARK SMILES IDX 25 40 26 41 27 42 77 43 28 44 82 45 76 46 78 47 29 48 81 49
REMARK SMILES IDX 75 50 74 51 30 53 62 54 42 55 61 56 43 57 46 58 60 59 79 60
REMARK SMILES IDX 44 61 45 62 59 64 80 65 47 66 31 67 32 68 40 69 33 70 34 71
REMARK SMILES IDX 38 72 41 73 35 74 36 75 39 76 37 77 63 78 64 79 72 80 65 81
REMARK SMILES IDX 66 82 70 83 73 84 67 85 68 86 71 87 69 88 48 89 49 90 57 91
REMARK SMILES IDX 50 92 51 93 55 94 58 95 52 96 53 97 56 98 54 99
REMARK H PARENT 15 5 2 10 8 18 12 26 12 27 12 28 19 33 78 52 46 63
REMARK Flexibility Score: inf
ROOT
ATOM      1  C   UNL A   1      31.397  30.197  25.775  1.00  0.00     0.118 C 
ENDROOT
BRANCH   1   2
ATOM      2  N   UNL A   1      32.502  29.843  24.896  1.00  0.00    -0.350 N 
ATOM      3  C   UNL A   1      32.580  29.138  23.713  1.00  0.00     0.292 C 
ATOM      4  O   UNL A   1      33.650  29.291  23.120  1.00  0.00    -0.267 OA
ATOM      5  H   UNL A   1      33.374  30.174  25.212  1.00  0.00     0.163 HD
BRANCH   3   6
ATOM      6  C   UNL A   1      31.422  28.138  23.251  1.00  0.00     0.248 C 
BRANCH   6   7
ATOM      7  C   UNL A   1      31.125  27.112  24.428  1.00  0.00     0.347 C 
BRANCH   7   8
ATOM      8  N   UNL A   1      31.582  25.710  24.268  1.00  0.00    -0.326 N 
ATOM      9  C   UNL A   1      30.591  24.832  23.661  1.00  0.00     0.333 C 
ATOM     10  H   UNL A   1      32.315  25.838  23.571  1.00  0.00     0.348 HD
BRANCH   8  11
ATOM     11  C   UNL A   1      32.414  25.098  25.315  1.00  0.00     0.327 C 
BRANCH  11  12
ATOM     12  C   UNL A   1      33.448  24.056  24.749  1.00  0.00     0.239 C 
ATOM     13  C   UNL A   1      34.896  24.524  24.971  1.00  0.00     0.077 C 
ATOM     14  N   UNL A   1      33.509  22.707  25.339  1.00  0.00    -0.330 N 
ATOM     15  C   UNL A   1      35.516  23.604  26.013  1.00  0.00     0.068 C 
ATOM     16  C   UNL A   1      34.362  22.763  26.512  1.00  0.00     0.262 C 
ATOM     17  C   UNL A   1      32.251  22.023  25.540  1.00  0.00     0.333 C 
ATOM     18  H   UNL A   1      33.924  22.091  24.638  1.00  0.00     0.348 HD
ENDBRANCH  11  12
ENDBRANCH   8  11
ENDBRANCH   7   8
ENDBRANCH   6   7
BRANCH   6  19
ATOM     19  C   UNL A   1      30.055  28.772  22.841  1.00  0.00     0.028 A 
ATOM     20  C   UNL A   1      30.077  29.957  22.063  1.00  0.00     0.011 A 
ATOM     21  C   UNL A   1      28.788  28.273  23.173  1.00  0.00     0.011 A 
ATOM     22  C   UNL A   1      28.916  30.593  21.626  1.00  0.00     0.001 A 
ATOM     23  C   UNL A   1      27.616  28.926  22.758  1.00  0.00     0.001 A 
ATOM     24  C   UNL A   1      27.680  30.079  21.980  1.00  0.00     0.000 A 
ENDBRANCH   6  19
BRANCH   6  25
ATOM     25  N   UNL A   1      31.950  27.530  22.002  1.00  0.00    -0.336 N 
ATOM     26  H   UNL A   1      31.801  28.171  21.222  1.00  0.00     0.345 HD
ATOM     27  H   UNL A   1      31.464  26.653  21.818  1.00  0.00     0.345 HD
ATOM     28  H   UNL A   1      32.949  27.350  22.107  1.00  0.00     0.345 HD
ENDBRANCH   6  25
ENDBRANCH   3   6
ENDBRANCH   1   2
BRANCH   1  29
ATOM     29  C   UNL A   1      31.345  31.665  26.180  1.00  0.00     0.042 C 
BRANCH  29  30
ATOM     30  C   UNL A   1      32.596  32.223  26.833  1.00  0.00     0.118 C 
BRANCH  30  31
ATOM     31  N   UNL A   1      32.427  33.581  27.326  1.00  0.00    -0.352 N 
ATOM     32  C   UNL A   1      33.071  34.268  28.321  1.00  0.00     0.251 C 
ATOM     33  H   UNL A   1      31.728  34.096  26.864  1.00  0.00     0.163 HD
ATOM     34  O   UNL A   1      32.636  35.376  28.649  1.00  0.00    -0.269 OA
BRANCH  32  35
ATOM     35  C   UNL A   1      34.252  33.717  29.028  1.00  0.00     0.039 A 
ATOM     36  C   UNL A   1      34.050  32.702  29.971  1.00  0.00     0.014 A 
ATOM     37  C   UNL A   1      35.542  34.211  28.825  1.00  0.00     0.014 A 
ATOM     38  C   UNL A   1      35.135  32.153  30.660  1.00  0.00     0.010 A 
ATOM     39  C   UNL A   1      36.635  33.596  29.437  1.00  0.00     0.010 A 
ATOM     40  C   UNL A   1      36.443  32.571  30.373  1.00  0.00    -0.014 A 
BRANCH  40  41
ATOM     41  C   UNL A   1      37.617  31.967  31.059  1.00  0.00     0.031 A 
ATOM     42  C   UNL A   1      38.448  30.922  30.364  1.00  0.00     0.074 A 
ATOM     43  C   UNL A   1      37.903  32.317  32.328  1.00  0.00     0.049 A 
ATOM     44  N   UNL A   1      39.471  30.238  30.815  1.00  0.00    -0.248 NA
ATOM     45  C   UNL A   1      38.064  30.580  28.985  1.00  0.00     0.031 C 
ATOM     46  C   UNL A   1      37.150  33.283  33.130  1.00  0.00     0.029 A 
ATOM     47  N   UNL A   1      38.902  31.895  33.171  1.00  0.00    -0.354 N 
ATOM     48  C   UNL A   1      39.835  29.377  29.788  1.00  0.00     0.074 A 
ATOM     49  C   UNL A   1      38.892  29.583  28.710  1.00  0.00     0.031 C 
ATOM     50  C   UNL A   1      37.729  33.401  34.335  1.00  0.00     0.029 A 
ATOM     51  C   UNL A   1      38.868  32.490  34.408  1.00  0.00     0.049 A 
ATOM     52  H   UNL A   1      39.579  31.228  32.913  1.00  0.00     0.167 HD
ATOM     53  C   UNL A   1      40.875  28.511  29.736  1.00  0.00     0.037 A 
ATOM     54  C   UNL A   1      39.660  32.317  35.483  1.00  0.00     0.037 A 
ATOM     55  C   UNL A   1      41.830  28.329  30.798  1.00  0.00     0.049 A 
ATOM     56  C   UNL A   1      40.805  31.342  35.402  1.00  0.00     0.074 A 
ATOM     57  C   UNL A   1      42.957  27.525  30.818  1.00  0.00     0.029 A 
ATOM     58  N   UNL A   1      41.768  28.960  32.032  1.00  0.00    -0.354 N 
ATOM     59  N   UNL A   1      41.183  30.588  34.400  1.00  0.00    -0.248 NA
ATOM     60  C   UNL A   1      41.639  31.204  36.604  1.00  0.00     0.031 C 
ATOM     61  C   UNL A   1      43.546  27.630  32.082  1.00  0.00     0.029 A 
ATOM     62  C   UNL A   1      42.822  28.543  32.830  1.00  0.00     0.049 A 
ATOM     63  H   UNL A   1      41.078  29.608  32.301  1.00  0.00     0.167 HD
ATOM     64  C   UNL A   1      42.313  29.910  34.835  1.00  0.00     0.074 A 
ATOM     65  C   UNL A   1      42.570  30.355  36.189  1.00  0.00     0.031 C 
ATOM     66  C   UNL A   1      43.071  29.001  34.173  1.00  0.00     0.037 A 
BRANCH  53  67
ATOM     67  C   UNL A   1      41.037  27.692  28.486  1.00  0.00     0.064 A 
ATOM     68  C   UNL A   1      40.362  26.474  28.308  1.00  0.00     0.173 A 
ATOM     69  C   UNL A   1      41.851  28.147  27.437  1.00  0.00     0.173 A 
ATOM     70  F   UNL A   1      39.578  25.988  29.283  1.00  0.00    -0.203 F 
ATOM     71  C   UNL A   1      40.523  25.727  27.144  1.00  0.00     0.198 A 
ATOM     72  C   UNL A   1      41.984  27.413  26.261  1.00  0.00     0.198 A 
ATOM     73  F   UNL A   1      42.515  29.307  27.551  1.00  0.00    -0.203 F 
ATOM     74  F   UNL A   1      39.911  24.541  27.022  1.00  0.00    -0.200 F 
ATOM     75  C   UNL A   1      41.327  26.200  26.119  1.00  0.00     0.200 A 
ATOM     76  F   UNL A   1      42.750  27.879  25.266  1.00  0.00    -0.200 F 
ATOM     77  F   UNL A   1      41.477  25.483  24.997  1.00  0.00    -0.200 F 
ENDBRANCH  53  67
BRANCH  54  78
ATOM     78  C   UNL A   1      39.419  33.105  36.721  1.00  0.00     0.064 A 
ATOM     79  C   UNL A   1      38.496  32.667  37.682  1.00  0.00     0.173 A 
ATOM     80  C   UNL A   1      40.093  34.309  36.966  1.00  0.00     0.173 A 
ATOM     81  F   UNL A   1      37.810  31.531  37.482  1.00  0.00    -0.203 F 
ATOM     82  C   UNL A   1      38.241  33.415  38.829  1.00  0.00     0.198 A 
ATOM     83  C   UNL A   1      39.859  35.041  38.129  1.00  0.00     0.198 A 
ATOM     84  F   UNL A   1      40.990  34.769  36.082  1.00  0.00    -0.203 F 
ATOM     85  F   UNL A   1      37.318  32.999  39.706  1.00  0.00    -0.200 F 
ATOM     86  C   UNL A   1      38.927  34.599  39.054  1.00  0.00     0.200 A 
ATOM     87  F   UNL A   1      40.536  36.176  38.350  1.00  0.00    -0.200 F 
ATOM     88  F   UNL A   1      38.683  35.316  40.160  1.00  0.00    -0.200 F 
ENDBRANCH  54  78
BRANCH  66  89
ATOM     89  C   UNL A   1      44.275  28.459  34.887  1.00  0.00     0.064 A 
ATOM     90  C   UNL A   1      45.519  29.105  34.838  1.00  0.00     0.173 A 
ATOM     91  C   UNL A   1      44.173  27.291  35.660  1.00  0.00     0.173 A 
ATOM     92  F   UNL A   1      45.673  30.216  34.101  1.00  0.00    -0.203 F 
ATOM     93  C   UNL A   1      46.622  28.587  35.510  1.00  0.00     0.198 A 
ATOM     94  C   UNL A   1      45.269  26.794  36.358  1.00  0.00     0.198 A 
ATOM     95  F   UNL A   1      43.004  26.637  35.747  1.00  0.00    -0.203 F 
ATOM     96  F   UNL A   1      47.814  29.192  35.404  1.00  0.00    -0.200 F 
ATOM     97  C   UNL A   1      46.495  27.436  36.275  1.00  0.00     0.200 A 
ATOM     98  F   UNL A   1      45.142  25.691  37.109  1.00  0.00    -0.200 F 
ATOM     99  F   UNL A   1      47.557  26.943  36.926  1.00  0.00    -0.200 F 
ENDBRANCH  66  89
ENDBRANCH  40  41
ENDBRANCH  32  35
ENDBRANCH  30  31
ENDBRANCH  29  30
ENDBRANCH   1  29
TORSDOF 16
ENDMDL
