MODEL 1
REMARK VINA RESULT:     -14.2      0.000      0.000
REMARK SMILES NS(=O)(=O)c1ccc(C#Cc2cc(Cl)cc3c2O[C@H](C(F)(F)F)C(C(=O)NCCCNC(=O)c2ccc(-c4c5nc(c(-c6c(F)c(F)c(F)c(F)c6F)c6ccc([nH]6)c(-c6c(F)c(F)c(F)c(F)c6F)c6nc(c(-c7c(F)c(F)c(F)c(F)c7F)c7ccc4[nH]7)C=C6)C=C5)cc2)=C3)cc1
REMARK SMILES IDX 28 1 27 2 25 3 26 4 24 6 11 7 12 8 17 9 13 10 16 11 18 12
REMARK SMILES IDX 14 13 15 14 97 15 19 16 10 17 9 18 8 19 5 20 6 21 99 22 7 23
REMARK SMILES IDX 98 24 2 25 3 26 4 27 1 28 20 31 21 32 22 33 23 34 29 35
REMARK SMILES IDX 30 36 31 37 32 38 33 40 34 41 35 42 96 43 36 44 95 45 37 46
REMARK SMILES IDX 38 47 39 48 89 49 40 50 94 51 88 52 90 53 41 54 93 55 87 56
REMARK SMILES IDX 86 57 42 59 74 60 54 61 73 62 55 63 58 64 72 65 91 66 56 67
REMARK SMILES IDX 57 68 71 70 92 71 59 72 43 73 44 74 52 75 45 76 46 77 50 78
REMARK SMILES IDX 53 79 47 80 48 81 51 82 49 83 75 84 76 85 84 86 77 87 78 88
REMARK SMILES IDX 82 89 85 90 79 91 80 92 83 93 81 94 60 95 61 96 69 97 62 98
REMARK SMILES IDX 63 99 67 100 70 101 64 102 65 103 68 104 66 105
REMARK H PARENT 27 5 1 29 1 30 31 39 90 58 58 69
REMARK Flexibility Score: inf
ROOT
ATOM      1  C   UNL A   1      31.735  30.667  26.414  1.00  0.00     0.118 C 
ENDROOT
BRANCH   1   2
ATOM      2  N   UNL A   1      31.508  30.302  25.025  1.00  0.00    -0.352 N 
ATOM      3  C   UNL A   1      31.523  29.169  24.284  1.00  0.00     0.251 C 
ATOM      4  O   UNL A   1      31.246  29.310  23.090  1.00  0.00    -0.270 OA
ATOM      5  H   UNL A   1      31.283  31.089  24.476  1.00  0.00     0.163 HD
BRANCH   3   6
ATOM      6  C   UNL A   1      31.852  27.815  24.814  1.00  0.00     0.067 C 
ATOM      7  C   UNL A   1      32.674  23.872  26.013  1.00  0.00     0.069 A 
ATOM      8  C   UNL A   1      31.653  23.087  26.549  1.00  0.00     0.041 A 
ATOM      9  C   UNL A   1      32.388  25.173  25.579  1.00  0.00     0.143 A 
ATOM     10  C   UNL A   1      30.358  23.602  26.631  1.00  0.00     0.043 A 
ATOM     11  C   UNL A   1      31.087  25.686  25.653  1.00  0.00     0.020 A 
ATOM     12  O   UNL A   1      33.415  25.895  25.040  1.00  0.00    -0.474 OA
ATOM     13  Cl  UNL A   1      29.099  22.627  27.284  1.00  0.00    -0.084 Cl
ATOM     14  C   UNL A   1      30.068  24.892  26.182  1.00  0.00     0.032 A 
ATOM     15  C   UNL A   1      30.812  27.022  25.130  1.00  0.00     0.025 C 
ATOM     16  C   UNL A   1      33.255  27.332  25.025  1.00  0.00     0.314 C 
BRANCH   7  17
ATOM     17  C   UNL A   1      34.004  23.347  25.918  1.00  0.00    -0.058 C 
ATOM     18  C   UNL A   1      35.130  22.922  25.870  1.00  0.00    -0.062 C 
BRANCH  18  19
ATOM     19  C   UNL A   1      36.460  22.398  25.842  1.00  0.00     0.025 A 
ATOM     20  C   UNL A   1      39.031  21.319  25.898  1.00  0.00     0.082 A 
ATOM     21  C   UNL A   1      38.830  22.651  26.278  1.00  0.00     0.023 A 
ATOM     22  C   UNL A   1      37.960  20.532  25.465  1.00  0.00     0.023 A 
ATOM     23  C   UNL A   1      37.541  23.189  26.247  1.00  0.00     0.018 A 
ATOM     24  C   UNL A   1      36.674  21.075  25.440  1.00  0.00     0.018 A 
BRANCH  20  25
ATOM     25  S   UNL A   1      40.644  20.607  26.031  1.00  0.00     0.238 S 
ATOM     26  O   UNL A   1      41.623  21.551  25.545  1.00  0.00    -0.207 OA
ATOM     27  O   UNL A   1      40.584  19.238  25.579  1.00  0.00    -0.207 OA
BRANCH  25  28
ATOM     28  N   UNL A   1      40.884  20.548  27.695  1.00  0.00    -0.225 NA
ATOM     29  H   UNL A   1      40.817  19.581  28.014  1.00  0.00     0.137 HD
ATOM     30  H   UNL A   1      40.172  21.109  28.162  1.00  0.00     0.137 HD
ENDBRANCH  25  28
ENDBRANCH  20  25
ENDBRANCH  18  19
ENDBRANCH   7  17
BRANCH  16  31
ATOM     31  C   UNL A   1      33.902  27.944  26.285  1.00  0.00     0.429 C 
ATOM     32  F   UNL A   1      34.944  27.179  26.698  1.00  0.00    -0.167 F 
ATOM     33  F   UNL A   1      34.403  29.184  26.064  1.00  0.00    -0.167 F 
ATOM     34  F   UNL A   1      33.038  28.053  27.316  1.00  0.00    -0.167 F 
ENDBRANCH  16  31
ENDBRANCH   3   6
ENDBRANCH   1   2
BRANCH   1  35
ATOM     35  C   UNL A   1      31.474  32.141  26.660  1.00  0.00     0.042 C 
BRANCH  35  36
ATOM     36  C   UNL A   1      32.620  32.787  27.418  1.00  0.00     0.118 C 
BRANCH  36  37
ATOM     37  N   UNL A   1      32.403  34.220  27.629  1.00  0.00    -0.352 N 
ATOM     38  C   UNL A   1      32.920  35.075  28.571  1.00  0.00     0.251 C 
ATOM     39  H   UNL A   1      31.780  34.640  26.991  1.00  0.00     0.163 HD
ATOM     40  O   UNL A   1      32.429  36.188  28.732  1.00  0.00    -0.269 OA
BRANCH  38  41
ATOM     41  C   UNL A   1      34.052  34.633  29.405  1.00  0.00     0.039 A 
ATOM     42  C   UNL A   1      35.332  34.591  28.861  1.00  0.00     0.014 A 
ATOM     43  C   UNL A   1      33.827  34.216  30.717  1.00  0.00     0.014 A 
ATOM     44  C   UNL A   1      36.328  33.896  29.524  1.00  0.00     0.010 A 
ATOM     45  C   UNL A   1      34.877  33.654  31.446  1.00  0.00     0.010 A 
ATOM     46  C   UNL A   1      36.118  33.428  30.829  1.00  0.00    -0.014 A 
BRANCH  46  47
ATOM     47  C   UNL A   1      37.216  32.708  31.519  1.00  0.00     0.031 A 
ATOM     48  C   UNL A   1      37.978  31.616  30.824  1.00  0.00     0.074 A 
ATOM     49  C   UNL A   1      37.564  33.095  32.760  1.00  0.00     0.049 A 
ATOM     50  N   UNL A   1      38.973  30.890  31.271  1.00  0.00    -0.248 NA
ATOM     51  C   UNL A   1      37.571  31.287  29.448  1.00  0.00     0.031 C 
ATOM     52  C   UNL A   1      36.914  34.164  33.521  1.00  0.00     0.029 A 
ATOM     53  N   UNL A   1      38.569  32.664  33.587  1.00  0.00    -0.354 N 
ATOM     54  C   UNL A   1      39.297  30.015  30.244  1.00  0.00     0.074 A 
ATOM     55  C   UNL A   1      38.361  30.260  29.169  1.00  0.00     0.031 C 
ATOM     56  C   UNL A   1      37.579  34.355  34.667  1.00  0.00     0.029 A 
ATOM     57  C   UNL A   1      38.642  33.362  34.765  1.00  0.00     0.049 A 
ATOM     58  H   UNL A   1      39.177  31.925  33.357  1.00  0.00     0.167 HD
ATOM     59  C   UNL A   1      40.300  29.104  30.195  1.00  0.00     0.037 A 
ATOM     60  C   UNL A   1      39.461  33.211  35.821  1.00  0.00     0.037 A 
ATOM     61  C   UNL A   1      41.227  28.871  31.273  1.00  0.00     0.049 A 
ATOM     62  C   UNL A   1      40.502  32.132  35.783  1.00  0.00     0.074 A 
ATOM     63  C   UNL A   1      42.275  27.970  31.328  1.00  0.00     0.029 A 
ATOM     64  N   UNL A   1      41.213  29.541  32.490  1.00  0.00    -0.354 N 
ATOM     65  N   UNL A   1      40.802  31.310  34.807  1.00  0.00    -0.248 NA
ATOM     66  C   UNL A   1      41.310  31.953  36.994  1.00  0.00     0.031 C 
ATOM     67  C   UNL A   1      42.854  28.050  32.598  1.00  0.00     0.029 A 
ATOM     68  C   UNL A   1      42.215  29.050  33.314  1.00  0.00     0.049 A 
ATOM     69  H   UNL A   1      40.585  30.259  32.732  1.00  0.00     0.167 HD
ATOM     70  C   UNL A   1      41.846  30.527  35.277  1.00  0.00     0.074 A 
ATOM     71  C   UNL A   1      42.138  30.988  36.619  1.00  0.00     0.031 C 
ATOM     72  C   UNL A   1      42.497  29.516  34.650  1.00  0.00     0.037 A 
BRANCH  59  73
ATOM     73  C   UNL A   1      40.433  28.282  28.943  1.00  0.00     0.064 A 
ATOM     74  C   UNL A   1      41.218  28.709  27.859  1.00  0.00     0.173 A 
ATOM     75  C   UNL A   1      39.787  27.041  28.829  1.00  0.00     0.173 A 
ATOM     76  F   UNL A   1      41.850  29.891  27.907  1.00  0.00    -0.203 F 
ATOM     77  C   UNL A   1      41.320  27.944  26.699  1.00  0.00     0.198 A 
ATOM     78  C   UNL A   1      39.923  26.260  27.683  1.00  0.00     0.198 A 
ATOM     79  F   UNL A   1      39.029  26.577  29.835  1.00  0.00    -0.203 F 
ATOM     80  F   UNL A   1      42.024  28.404  25.656  1.00  0.00    -0.200 F 
ATOM     81  C   UNL A   1      40.679  26.717  26.615  1.00  0.00     0.200 A 
ATOM     82  F   UNL A   1      39.319  25.066  27.611  1.00  0.00    -0.200 F 
ATOM     83  F   UNL A   1      40.783  25.980  25.501  1.00  0.00    -0.200 F 
ENDBRANCH  59  73
BRANCH  60  84
ATOM     84  C   UNL A   1      39.325  34.133  36.978  1.00  0.00     0.064 A 
ATOM     85  C   UNL A   1      38.637  33.733  38.131  1.00  0.00     0.173 A 
ATOM     86  C   UNL A   1      39.946  35.391  36.990  1.00  0.00     0.173 A 
ATOM     87  F   UNL A   1      38.016  32.544  38.160  1.00  0.00    -0.203 F 
ATOM     88  C   UNL A   1      38.582  34.553  39.255  1.00  0.00     0.198 A 
ATOM     89  C   UNL A   1      39.918  36.196  38.126  1.00  0.00     0.198 A 
ATOM     90  F   UNL A   1      40.627  35.814  35.914  1.00  0.00    -0.203 F 
ATOM     91  F   UNL A   1      37.905  34.152  40.340  1.00  0.00    -0.200 F 
ATOM     92  C   UNL A   1      39.234  35.777  39.257  1.00  0.00     0.200 A 
ATOM     93  F   UNL A   1      40.571  37.366  38.131  1.00  0.00    -0.200 F 
ATOM     94  F   UNL A   1      39.208  36.551  40.350  1.00  0.00    -0.200 F 
ENDBRANCH  60  84
BRANCH  72  95
ATOM     95  C   UNL A   1      43.611  28.840  35.398  1.00  0.00     0.064 A 
ATOM     96  C   UNL A   1      44.943  29.266  35.274  1.00  0.00     0.173 A 
ATOM     97  C   UNL A   1      43.333  27.807  36.306  1.00  0.00     0.173 A 
ATOM     98  F   UNL A   1      45.263  30.239  34.409  1.00  0.00    -0.203 F 
ATOM     99  C   UNL A   1      45.955  28.672  36.023  1.00  0.00     0.198 A 
ATOM    100  C   UNL A   1      44.344  27.241  37.079  1.00  0.00     0.198 A 
ATOM    101  F   UNL A   1      42.077  27.366  36.467  1.00  0.00    -0.203 F 
ATOM    102  F   UNL A   1      47.225  29.066  35.859  1.00  0.00    -0.200 F 
ATOM    103  C   UNL A   1      45.653  27.670  36.933  1.00  0.00     0.200 A 
ATOM    104  F   UNL A   1      44.046  26.287  37.972  1.00  0.00    -0.200 F 
ATOM    105  F   UNL A   1      46.626  27.116  37.669  1.00  0.00    -0.200 F 
ENDBRANCH  72  95
ENDBRANCH  46  47
ENDBRANCH  38  41
ENDBRANCH  36  37
ENDBRANCH  35  36
ENDBRANCH   1  35
TORSDOF 15
ENDMDL
MODEL 2
REMARK VINA RESULT:     -14.2      0.487      7.035
REMARK SMILES NS(=O)(=O)c1ccc(C#Cc2cc(Cl)cc3c2O[C@H](C(F)(F)F)C(C(=O)NCCCNC(=O)c2ccc(-c4c5nc(c(-c6c(F)c(F)c(F)c(F)c6F)c6ccc([nH]6)c(-c6c(F)c(F)c(F)c(F)c6F)c6nc(c(-c7c(F)c(F)c(F)c(F)c7F)c7ccc4[nH]7)C=C6)C=C5)cc2)=C3)cc1
REMARK SMILES IDX 28 1 27 2 25 3 26 4 24 6 11 7 12 8 17 9 13 10 16 11 18 12
REMARK SMILES IDX 14 13 15 14 97 15 19 16 10 17 9 18 8 19 5 20 6 21 99 22 7 23
REMARK SMILES IDX 98 24 2 25 3 26 4 27 1 28 20 31 21 32 22 33 23 34 29 35
REMARK SMILES IDX 30 36 31 37 32 38 33 40 34 41 35 42 96 43 36 44 95 45 37 46
REMARK SMILES IDX 38 47 39 48 89 49 40 50 94 51 88 52 90 53 41 54 93 55 87 56
REMARK SMILES IDX 86 57 42 59 74 60 54 61 73 62 55 63 58 64 72 65 91 66 56 67
REMARK SMILES IDX 57 68 71 70 92 71 59 72 43 73 44 74 52 75 45 76 46 77 50 78
REMARK SMILES IDX 53 79 47 80 48 81 51 82 49 83 75 84 76 85 84 86 77 87 78 88
REMARK SMILES IDX 82 89 85 90 79 91 80 92 83 93 81 94 60 95 61 96 69 97 62 98
REMARK SMILES IDX 63 99 67 100 70 101 64 102 65 103 68 104 66 105
REMARK H PARENT 27 5 1 29 1 30 31 39 90 58 58 69
REMARK Flexibility Score: inf
ROOT
ATOM      1  C   UNL A   1      31.760  30.670  26.389  1.00  0.00     0.118 C 
ENDROOT
BRANCH   1   2
ATOM      2  N   UNL A   1      31.483  30.294  25.012  1.00  0.00    -0.352 N 
ATOM      3  C   UNL A   1      31.466  29.154  24.281  1.00  0.00     0.251 C 
ATOM      4  O   UNL A   1      31.149  29.287  23.096  1.00  0.00    -0.270 OA
ATOM      5  H   UNL A   1      31.245  31.077  24.464  1.00  0.00     0.163 HD
BRANCH   3   6
ATOM      6  C   UNL A   1      31.804  27.803  24.812  1.00  0.00     0.067 C 
ATOM      7  C   UNL A   1      32.651  23.866  26.013  1.00  0.00     0.069 A 
ATOM      8  C   UNL A   1      31.636  23.076  26.552  1.00  0.00     0.041 A 
ATOM      9  C   UNL A   1      32.356  25.165  25.579  1.00  0.00     0.143 A 
ATOM     10  C   UNL A   1      30.339  23.584  26.638  1.00  0.00     0.043 A 
ATOM     11  C   UNL A   1      31.053  25.670  25.655  1.00  0.00     0.020 A 
ATOM     12  O   UNL A   1      33.378  25.892  25.036  1.00  0.00    -0.474 OA
ATOM     13  Cl  UNL A   1      29.087  22.602  27.294  1.00  0.00    -0.084 Cl
ATOM     14  C   UNL A   1      30.040  24.871  26.188  1.00  0.00     0.032 A 
ATOM     15  C   UNL A   1      30.769  27.004  25.131  1.00  0.00     0.025 C 
ATOM     16  C   UNL A   1      33.210  27.328  25.020  1.00  0.00     0.314 C 
BRANCH   7  17
ATOM     17  C   UNL A   1      33.984  23.348  25.916  1.00  0.00    -0.058 C 
ATOM     18  C   UNL A   1      35.110  22.924  25.869  1.00  0.00    -0.062 C 
BRANCH  18  19
ATOM     19  C   UNL A   1      36.438  22.396  25.836  1.00  0.00     0.025 A 
ATOM     20  C   UNL A   1      39.009  21.315  25.888  1.00  0.00     0.082 A 
ATOM     21  C   UNL A   1      38.818  22.662  26.214  1.00  0.00     0.023 A 
ATOM     22  C   UNL A   1      37.928  20.513  25.511  1.00  0.00     0.023 A 
ATOM     23  C   UNL A   1      37.528  23.201  26.186  1.00  0.00     0.018 A 
ATOM     24  C   UNL A   1      36.643  21.057  25.488  1.00  0.00     0.018 A 
BRANCH  20  25
ATOM     25  S   UNL A   1      40.623  20.605  26.020  1.00  0.00     0.238 S 
ATOM     26  O   UNL A   1      41.603  21.562  25.559  1.00  0.00    -0.207 OA
ATOM     27  O   UNL A   1      40.571  19.245  25.541  1.00  0.00    -0.207 OA
BRANCH  25  28
ATOM     28  N   UNL A   1      40.851  20.515  27.684  1.00  0.00    -0.225 NA
ATOM     29  H   UNL A   1      41.790  20.169  27.880  1.00  0.00     0.137 HD
ATOM     30  H   UNL A   1      40.164  19.878  28.088  1.00  0.00     0.137 HD
ENDBRANCH  25  28
ENDBRANCH  20  25
ENDBRANCH  18  19
ENDBRANCH   7  17
BRANCH  16  31
ATOM     31  C   UNL A   1      33.857  27.945  26.277  1.00  0.00     0.429 C 
ATOM     32  F   UNL A   1      34.896  27.180  26.696  1.00  0.00    -0.167 F 
ATOM     33  F   UNL A   1      34.361  29.182  26.051  1.00  0.00    -0.167 F 
ATOM     34  F   UNL A   1      32.991  28.061  27.307  1.00  0.00    -0.167 F 
ENDBRANCH  16  31
ENDBRANCH   3   6
ENDBRANCH   1   2
BRANCH   1  35
ATOM     35  C   UNL A   1      31.497  32.143  26.636  1.00  0.00     0.042 C 
BRANCH  35  36
ATOM     36  C   UNL A   1      32.607  32.774  27.458  1.00  0.00     0.118 C 
BRANCH  36  37
ATOM     37  N   UNL A   1      32.379  34.202  27.688  1.00  0.00    -0.352 N 
ATOM     38  C   UNL A   1      32.929  35.060  28.608  1.00  0.00     0.251 C 
ATOM     39  H   UNL A   1      31.720  34.616  27.083  1.00  0.00     0.163 HD
ATOM     40  O   UNL A   1      32.431  36.164  28.799  1.00  0.00    -0.269 OA
BRANCH  38  41
ATOM     41  C   UNL A   1      34.107  34.631  29.382  1.00  0.00     0.039 A 
ATOM     42  C   UNL A   1      35.378  34.749  28.825  1.00  0.00     0.014 A 
ATOM     43  C   UNL A   1      33.940  34.068  30.648  1.00  0.00     0.014 A 
ATOM     44  C   UNL A   1      36.437  34.075  29.406  1.00  0.00     0.010 A 
ATOM     45  C   UNL A   1      35.044  33.523  31.306  1.00  0.00     0.010 A 
ATOM     46  C   UNL A   1      36.288  33.463  30.658  1.00  0.00    -0.014 A 
BRANCH  46  47
ATOM     47  C   UNL A   1      37.452  32.769  31.262  1.00  0.00     0.031 A 
ATOM     48  C   UNL A   1      37.915  33.106  32.651  1.00  0.00     0.074 A 
ATOM     49  C   UNL A   1      38.049  31.783  30.568  1.00  0.00     0.049 A 
ATOM     50  N   UNL A   1      38.906  32.593  33.338  1.00  0.00    -0.248 NA
ATOM     51  C   UNL A   1      37.177  34.160  33.365  1.00  0.00     0.031 C 
ATOM     52  C   UNL A   1      37.665  31.350  29.222  1.00  0.00     0.029 A 
ATOM     53  N   UNL A   1      39.078  30.942  30.905  1.00  0.00    -0.354 N 
ATOM     54  C   UNL A   1      38.919  33.268  34.550  1.00  0.00     0.074 A 
ATOM     55  C   UNL A   1      37.872  34.265  34.488  1.00  0.00     0.031 C 
ATOM     56  C   UNL A   1      38.394  30.281  28.879  1.00  0.00     0.029 A 
ATOM     57  C   UNL A   1      39.360  30.011  29.938  1.00  0.00     0.049 A 
ATOM     58  H   UNL A   1      39.566  31.001  31.758  1.00  0.00     0.167 HD
ATOM     59  C   UNL A   1      39.717  33.059  35.625  1.00  0.00     0.037 A 
ATOM     60  C   UNL A   1      40.305  29.055  29.894  1.00  0.00     0.037 A 
ATOM     61  C   UNL A   1      40.754  32.060  35.674  1.00  0.00     0.049 A 
ATOM     62  C   UNL A   1      41.239  28.906  31.057  1.00  0.00     0.074 A 
ATOM     63  C   UNL A   1      41.622  31.769  36.712  1.00  0.00     0.029 A 
ATOM     64  N   UNL A   1      41.068  31.192  34.636  1.00  0.00    -0.354 N 
ATOM     65  N   UNL A   1      41.243  29.548  32.200  1.00  0.00    -0.248 NA
ATOM     66  C   UNL A   1      42.306  27.907  30.921  1.00  0.00     0.031 C 
ATOM     67  C   UNL A   1      42.500  30.771  36.280  1.00  0.00     0.029 A 
ATOM     68  C   UNL A   1      42.138  30.387  34.999  1.00  0.00     0.049 A 
ATOM     69  H   UNL A   1      40.600  31.153  33.771  1.00  0.00     0.167 HD
ATOM     70  C   UNL A   1      42.298  29.021  32.929  1.00  0.00     0.074 A 
ATOM     71  C   UNL A   1      42.899  27.992  32.104  1.00  0.00     0.031 C 
ATOM     72  C   UNL A   1      42.729  29.365  34.168  1.00  0.00     0.037 A 
BRANCH  59  73
ATOM     73  C   UNL A   1      39.509  33.938  36.827  1.00  0.00     0.064 A 
ATOM     74  C   UNL A   1      40.041  35.236  36.895  1.00  0.00     0.173 A 
ATOM     75  C   UNL A   1      38.750  33.490  37.919  1.00  0.00     0.173 A 
ATOM     76  F   UNL A   1      40.784  35.715  35.885  1.00  0.00    -0.203 F 
ATOM     77  C   UNL A   1      39.854  36.034  38.021  1.00  0.00     0.198 A 
ATOM     78  C   UNL A   1      38.531  34.305  39.029  1.00  0.00     0.198 A 
ATOM     79  F   UNL A   1      38.210  32.261  37.910  1.00  0.00    -0.203 F 
ATOM     80  F   UNL A   1      40.426  37.244  38.085  1.00  0.00    -0.200 F 
ATOM     81  C   UNL A   1      39.093  35.571  39.084  1.00  0.00     0.200 A 
ATOM     82  F   UNL A   1      37.780  33.862  40.046  1.00  0.00    -0.200 F 
ATOM     83  F   UNL A   1      38.909  36.341  40.164  1.00  0.00    -0.200 F 
ENDBRANCH  59  73
BRANCH  60  84
ATOM     84  C   UNL A   1      40.376  28.163  28.708  1.00  0.00     0.064 A 
ATOM     85  C   UNL A   1      41.081  28.555  27.563  1.00  0.00     0.173 A 
ATOM     86  C   UNL A   1      39.816  26.877  28.724  1.00  0.00     0.173 A 
ATOM     87  F   UNL A   1      41.622  29.780  27.497  1.00  0.00    -0.203 F 
ATOM     88  C   UNL A   1      41.232  27.690  26.482  1.00  0.00     0.198 A 
ATOM     89  C   UNL A   1      39.994  26.002  27.656  1.00  0.00     0.198 A 
ATOM     90  F   UNL A   1      39.140  26.451  29.802  1.00  0.00    -0.203 F 
ATOM     91  F   UNL A   1      41.899  28.094  25.393  1.00  0.00    -0.200 F 
ATOM     92  C   UNL A   1      40.700  26.410  26.534  1.00  0.00     0.200 A 
ATOM     93  F   UNL A   1      39.501  24.758  27.723  1.00  0.00    -0.200 F 
ATOM     94  F   UNL A   1      40.873  25.568  25.508  1.00  0.00    -0.200 F 
ENDBRANCH  60  84
BRANCH  72  95
ATOM     95  C   UNL A   1      43.902  28.611  34.728  1.00  0.00     0.064 A 
ATOM     96  C   UNL A   1      43.736  27.400  35.416  1.00  0.00     0.173 A 
ATOM     97  C   UNL A   1      45.211  29.067  34.507  1.00  0.00     0.173 A 
ATOM     98  F   UNL A   1      42.505  26.928  35.667  1.00  0.00    -0.203 F 
ATOM     99  C   UNL A   1      44.837  26.681  35.873  1.00  0.00     0.198 A 
ATOM    100  C   UNL A   1      46.310  28.326  34.934  1.00  0.00     0.198 A 
ATOM    101  F   UNL A   1      45.426  30.216  33.850  1.00  0.00    -0.203 F 
ATOM    102  F   UNL A   1      44.653  25.546  36.563  1.00  0.00    -0.200 F 
ATOM    103  C   UNL A   1      46.121  27.137  35.620  1.00  0.00     0.200 A 
ATOM    104  F   UNL A   1      47.550  28.759  34.670  1.00  0.00    -0.200 F 
ATOM    105  F   UNL A   1      47.180  26.430  36.041  1.00  0.00    -0.200 F 
ENDBRANCH  72  95
ENDBRANCH  46  47
ENDBRANCH  38  41
ENDBRANCH  36  37
ENDBRANCH  35  36
ENDBRANCH   1  35
TORSDOF 15
ENDMDL
MODEL 3
REMARK VINA RESULT:     -13.4      5.064     13.049
REMARK SMILES NS(=O)(=O)c1ccc(C#Cc2cc(Cl)cc3c2O[C@H](C(F)(F)F)C(C(=O)NCCCNC(=O)c2ccc(-c4c5nc(c(-c6c(F)c(F)c(F)c(F)c6F)c6ccc([nH]6)c(-c6c(F)c(F)c(F)c(F)c6F)c6nc(c(-c7c(F)c(F)c(F)c(F)c7F)c7ccc4[nH]7)C=C6)C=C5)cc2)=C3)cc1
REMARK SMILES IDX 28 1 27 2 25 3 26 4 24 6 11 7 12 8 17 9 13 10 16 11 18 12
REMARK SMILES IDX 14 13 15 14 97 15 19 16 10 17 9 18 8 19 5 20 6 21 99 22 7 23
REMARK SMILES IDX 98 24 2 25 3 26 4 27 1 28 20 31 21 32 22 33 23 34 29 35
REMARK SMILES IDX 30 36 31 37 32 38 33 40 34 41 35 42 96 43 36 44 95 45 37 46
REMARK SMILES IDX 38 47 39 48 89 49 40 50 94 51 88 52 90 53 41 54 93 55 87 56
REMARK SMILES IDX 86 57 42 59 74 60 54 61 73 62 55 63 58 64 72 65 91 66 56 67
REMARK SMILES IDX 57 68 71 70 92 71 59 72 43 73 44 74 52 75 45 76 46 77 50 78
REMARK SMILES IDX 53 79 47 80 48 81 51 82 49 83 75 84 76 85 84 86 77 87 78 88
REMARK SMILES IDX 82 89 85 90 79 91 80 92 83 93 81 94 60 95 61 96 69 97 62 98
REMARK SMILES IDX 63 99 67 100 70 101 64 102 65 103 68 104 66 105
REMARK H PARENT 27 5 1 29 1 30 31 39 90 58 58 69
REMARK Flexibility Score: inf
ROOT
ATOM      1  C   UNL A   1      49.316  25.981  31.655  1.00  0.00     0.118 C 
ENDROOT
BRANCH   1   2
ATOM      2  N   UNL A   1      49.935  27.154  31.058  1.00  0.00    -0.352 N 
ATOM      3  C   UNL A   1      50.001  27.722  29.831  1.00  0.00     0.251 C 
ATOM      4  O   UNL A   1      50.651  28.768  29.764  1.00  0.00    -0.270 OA
ATOM      5  H   UNL A   1      50.442  27.673  31.724  1.00  0.00     0.163 HD
BRANCH   3   6
ATOM      6  C   UNL A   1      49.360  27.166  28.605  1.00  0.00     0.067 C 
ATOM      7  C   UNL A   1      47.824  25.398  25.116  1.00  0.00     0.069 A 
ATOM      8  C   UNL A   1      48.211  25.885  23.868  1.00  0.00     0.041 A 
ATOM      9  C   UNL A   1      48.367  25.965  26.276  1.00  0.00     0.143 A 
ATOM     10  C   UNL A   1      49.145  26.919  23.791  1.00  0.00     0.043 A 
ATOM     11  C   UNL A   1      49.312  26.995  26.199  1.00  0.00     0.020 A 
ATOM     12  O   UNL A   1      47.975  25.439  27.475  1.00  0.00    -0.474 OA
ATOM     13  Cl  UNL A   1      49.629  27.511  22.249  1.00  0.00    -0.084 Cl
ATOM     14  C   UNL A   1      49.702  27.472  24.947  1.00  0.00     0.032 A 
ATOM     15  C   UNL A   1      49.907  27.517  27.427  1.00  0.00     0.025 C 
ATOM     16  C   UNL A   1      48.152  26.280  28.638  1.00  0.00     0.314 C 
BRANCH   7  17
ATOM     17  C   UNL A   1      46.870  24.331  25.202  1.00  0.00    -0.058 C 
ATOM     18  C   UNL A   1      46.079  23.430  25.309  1.00  0.00    -0.062 C 
BRANCH  18  19
ATOM     19  C   UNL A   1      45.119  22.381  25.459  1.00  0.00     0.025 A 
ATOM     20  C   UNL A   1      43.300  20.305  25.861  1.00  0.00     0.082 A 
ATOM     21  C   UNL A   1      44.411  20.102  25.037  1.00  0.00     0.023 A 
ATOM     22  C   UNL A   1      43.078  21.547  26.464  1.00  0.00     0.023 A 
ATOM     23  C   UNL A   1      45.320  21.144  24.836  1.00  0.00     0.018 A 
ATOM     24  C   UNL A   1      43.992  22.583  26.261  1.00  0.00     0.018 A 
BRANCH  20  25
ATOM     25  S   UNL A   1      42.203  18.959  26.198  1.00  0.00     0.238 S 
ATOM     26  O   UNL A   1      42.825  17.724  25.781  1.00  0.00    -0.207 OA
ATOM     27  O   UNL A   1      40.869  19.338  25.801  1.00  0.00    -0.207 OA
BRANCH  25  28
ATOM     28  N   UNL A   1      42.200  18.899  27.879  1.00  0.00    -0.225 NA
ATOM     29  H   UNL A   1      42.530  19.790  28.252  1.00  0.00     0.137 HD
ATOM     30  H   UNL A   1      42.816  18.150  28.195  1.00  0.00     0.137 HD
ENDBRANCH  25  28
ENDBRANCH  20  25
ENDBRANCH  18  19
ENDBRANCH   7  17
BRANCH  16  31
ATOM     31  C   UNL A   1      46.855  27.067  28.916  1.00  0.00     0.429 C 
ATOM     32  F   UNL A   1      45.830  26.560  28.185  1.00  0.00    -0.167 F 
ATOM     33  F   UNL A   1      46.470  26.997  30.213  1.00  0.00    -0.167 F 
ATOM     34  F   UNL A   1      46.965  28.379  28.614  1.00  0.00    -0.167 F 
ENDBRANCH  16  31
ENDBRANCH   3   6
ENDBRANCH   1   2
BRANCH   1  35
ATOM     35  C   UNL A   1      49.048  26.176  33.135  1.00  0.00     0.042 C 
BRANCH  35  36
ATOM     36  C   UNL A   1      48.116  25.105  33.675  1.00  0.00     0.118 C 
BRANCH  36  37
ATOM     37  N   UNL A   1      48.111  25.066  35.139  1.00  0.00    -0.352 N 
ATOM     38  C   UNL A   1      47.345  25.749  36.051  1.00  0.00     0.251 C 
ATOM     39  H   UNL A   1      48.768  24.448  35.536  1.00  0.00     0.163 HD
ATOM     40  O   UNL A   1      47.656  25.759  37.237  1.00  0.00    -0.269 OA
BRANCH  38  41
ATOM     41  C   UNL A   1      46.161  26.494  35.586  1.00  0.00     0.039 A 
ATOM     42  C   UNL A   1      44.909  25.887  35.620  1.00  0.00     0.014 A 
ATOM     43  C   UNL A   1      46.308  27.783  35.073  1.00  0.00     0.014 A 
ATOM     44  C   UNL A   1      43.863  26.450  34.911  1.00  0.00     0.010 A 
ATOM     45  C   UNL A   1      45.208  28.418  34.493  1.00  0.00     0.010 A 
ATOM     46  C   UNL A   1      43.995  27.727  34.348  1.00  0.00    -0.014 A 
BRANCH  46  47
ATOM     47  C   UNL A   1      42.844  28.311  33.615  1.00  0.00     0.031 A 
ATOM     48  C   UNL A   1      41.926  29.297  34.279  1.00  0.00     0.074 A 
ATOM     49  C   UNL A   1      42.674  27.992  32.318  1.00  0.00     0.049 A 
ATOM     50  N   UNL A   1      40.880  29.913  33.786  1.00  0.00    -0.248 NA
ATOM     51  C   UNL A   1      42.209  29.633  35.683  1.00  0.00     0.031 C 
ATOM     52  C   UNL A   1      43.523  27.070  31.560  1.00  0.00     0.029 A 
ATOM     53  N   UNL A   1      41.759  28.432  31.397  1.00  0.00    -0.354 N 
ATOM     54  C   UNL A   1      40.377  30.693  34.817  1.00  0.00     0.074 A 
ATOM     55  C   UNL A   1      41.196  30.434  35.981  1.00  0.00     0.031 C 
ATOM     56  C   UNL A   1      43.137  27.068  30.279  1.00  0.00     0.029 A 
ATOM     57  C   UNL A   1      41.958  27.914  30.142  1.00  0.00     0.049 A 
ATOM     58  H   UNL A   1      41.031  29.057  31.616  1.00  0.00     0.167 HD
ATOM     59  C   UNL A   1      39.338  31.563  34.788  1.00  0.00     0.037 A 
ATOM     60  C   UNL A   1      41.257  28.083  29.007  1.00  0.00     0.037 A 
ATOM     61  C   UNL A   1      38.531  31.813  33.621  1.00  0.00     0.049 A 
ATOM     62  C   UNL A   1      40.054  28.978  29.023  1.00  0.00     0.074 A 
ATOM     63  C   UNL A   1      37.453  32.670  33.486  1.00  0.00     0.029 A 
ATOM     64  N   UNL A   1      38.710  31.200  32.388  1.00  0.00    -0.354 N 
ATOM     65  N   UNL A   1      39.586  29.712  30.003  1.00  0.00    -0.248 NA
ATOM     66  C   UNL A   1      39.276  29.059  27.782  1.00  0.00     0.031 C 
ATOM     67  C   UNL A   1      36.942  32.530  32.193  1.00  0.00     0.029 A 
ATOM     68  C   UNL A   1      37.742  31.638  31.496  1.00  0.00     0.049 A 
ATOM     69  H   UNL A   1      39.420  30.551  32.177  1.00  0.00     0.167 HD
ATOM     70  C   UNL A   1      38.469  30.359  29.494  1.00  0.00     0.074 A 
ATOM     71  C   UNL A   1      38.344  29.942  28.112  1.00  0.00     0.031 C 
ATOM     72  C   UNL A   1      37.626  31.216  30.121  1.00  0.00     0.037 A 
BRANCH  59  73
ATOM     73  C   UNL A   1      39.007  32.294  36.061  1.00  0.00     0.064 A 
ATOM     74  C   UNL A   1      38.186  31.725  37.048  1.00  0.00     0.173 A 
ATOM     75  C   UNL A   1      39.534  33.571  36.310  1.00  0.00     0.173 A 
ATOM     76  F   UNL A   1      37.646  30.511  36.860  1.00  0.00    -0.203 F 
ATOM     77  C   UNL A   1      37.876  32.419  38.215  1.00  0.00     0.198 A 
ATOM     78  C   UNL A   1      39.253  34.247  37.496  1.00  0.00     0.198 A 
ATOM     79  F   UNL A   1      40.330  34.163  35.407  1.00  0.00    -0.203 F 
ATOM     80  F   UNL A   1      37.039  31.879  39.111  1.00  0.00    -0.200 F 
ATOM     81  C   UNL A   1      38.415  33.677  38.441  1.00  0.00     0.200 A 
ATOM     82  F   UNL A   1      39.791  35.454  37.720  1.00  0.00    -0.200 F 
ATOM     83  F   UNL A   1      38.120  34.341  39.566  1.00  0.00    -0.200 F 
ENDBRANCH  59  73
BRANCH  60  84
ATOM     84  C   UNL A   1      41.713  27.401  27.768  1.00  0.00     0.064 A 
ATOM     85  C   UNL A   1      42.765  27.930  27.010  1.00  0.00     0.173 A 
ATOM     86  C   UNL A   1      41.169  26.172  27.366  1.00  0.00     0.173 A 
ATOM     87  F   UNL A   1      43.307  29.109  27.349  1.00  0.00    -0.203 F 
ATOM     88  C   UNL A   1      43.261  27.251  25.899  1.00  0.00     0.198 A 
ATOM     89  C   UNL A   1      41.687  25.479  26.274  1.00  0.00     0.198 A 
ATOM     90  F   UNL A   1      40.168  25.618  28.066  1.00  0.00    -0.203 F 
ATOM     91  F   UNL A   1      44.259  27.786  25.182  1.00  0.00    -0.200 F 
ATOM     92  C   UNL A   1      42.732  26.021  25.541  1.00  0.00     0.200 A 
ATOM     93  F   UNL A   1      41.190  24.279  25.949  1.00  0.00    -0.200 F 
ATOM     94  F   UNL A   1      43.231  25.353  24.492  1.00  0.00    -0.200 F 
ENDBRANCH  60  84
BRANCH  72  95
ATOM     95  C   UNL A   1      36.492  31.784  29.316  1.00  0.00     0.064 A 
ATOM     96  C   UNL A   1      35.390  30.999  28.942  1.00  0.00     0.173 A 
ATOM     97  C   UNL A   1      36.470  33.147  28.982  1.00  0.00     0.173 A 
ATOM     98  F   UNL A   1      35.368  29.688  29.223  1.00  0.00    -0.203 F 
ATOM     99  C   UNL A   1      34.317  31.556  28.252  1.00  0.00     0.198 A 
ATOM    100  C   UNL A   1      35.378  33.708  28.324  1.00  0.00     0.198 A 
ATOM    101  F   UNL A   1      37.495  33.944  29.321  1.00  0.00    -0.203 F 
ATOM    102  F   UNL A   1      33.294  30.779  27.870  1.00  0.00    -0.200 F 
ATOM    103  C   UNL A   1      34.306  32.911  27.956  1.00  0.00     0.200 A 
ATOM    104  F   UNL A   1      35.361  35.021  28.058  1.00  0.00    -0.200 F 
ATOM    105  F   UNL A   1      33.261  33.449  27.313  1.00  0.00    -0.200 F 
ENDBRANCH  72  95
ENDBRANCH  46  47
ENDBRANCH  38  41
ENDBRANCH  36  37
ENDBRANCH  35  36
ENDBRANCH   1  35
TORSDOF 15
ENDMDL
