MODEL 1
REMARK VINA RESULT:     -12.5      0.000      0.000
REMARK SMILES Cc1ncnc(N2CCCC[C@@H]2C(=O)NCCCNC(=O)c2ccc(-c3c4nc(c(-c5c(F)c(F)c(F)c(F)c5F)c5ccc([nH]5)c(-c5c(F)c(F)c(F)c(F)c5F)c5nc(c(-c6c(F)c(F)c(F)c(F)c6F)c6ccc3[nH]6)C=C5)C=C4)cc2)c1C
REMARK SMILES IDX 17 1 16 2 15 3 13 4 14 5 12 7 7 8 8 9 9 10 11 11 10 12 6 13
REMARK SMILES IDX 1 14 2 15 3 16 85 17 4 18 86 19 5 20 18 21 19 22 20 23 21 25
REMARK SMILES IDX 22 26 23 27 84 28 24 29 83 30 25 31 26 32 27 33 77 34 28 35
REMARK SMILES IDX 82 36 76 37 78 38 29 39 81 40 75 41 74 42 30 44 62 45 42 46
REMARK SMILES IDX 61 47 43 48 46 49 60 50 79 51 44 52 45 53 59 55 80 56 47 57
REMARK SMILES IDX 31 58 32 59 40 60 33 61 34 62 38 63 41 64 35 65 36 66 39 67
REMARK SMILES IDX 37 68 63 69 64 70 72 71 65 72 66 73 70 74 73 75 67 76 68 77
REMARK SMILES IDX 71 78 69 79 48 80 49 81 57 82 50 83 51 84 55 85 58 86 52 87
REMARK SMILES IDX 53 88 56 89 54 90
REMARK H PARENT 15 6 19 24 78 43 46 54
REMARK Flexibility Score: inf
ROOT
ATOM      1  C   UNL A   1      31.482  31.799  26.501  1.00  0.00     0.042 C 
ENDROOT
BRANCH   1   2
ATOM      2  C   UNL A   1      31.798  30.486  25.807  1.00  0.00     0.117 C 
BRANCH   2   3
ATOM      3  N   UNL A   1      31.403  29.350  26.619  1.00  0.00    -0.354 N 
ATOM      4  C   UNL A   1      31.709  28.032  26.477  1.00  0.00     0.242 C 
ATOM      5  O   UNL A   1      31.157  27.244  27.253  1.00  0.00    -0.273 OA
ATOM      6  H   UNL A   1      30.828  29.565  27.388  1.00  0.00     0.163 HD
BRANCH   4   7
ATOM      7  C   UNL A   1      32.648  27.516  25.366  1.00  0.00     0.173 C 
ATOM      8  N   UNL A   1      31.992  27.060  24.115  1.00  0.00    -0.344 N 
ATOM      9  C   UNL A   1      32.802  26.327  23.147  1.00  0.00     0.119 C 
ATOM     10  C   UNL A   1      33.511  25.162  23.823  1.00  0.00     0.022 C 
ATOM     11  C   UNL A   1      33.548  26.425  25.984  1.00  0.00     0.035 C 
ATOM     12  C   UNL A   1      34.384  25.665  24.964  1.00  0.00     0.004 C 
BRANCH   8  13
ATOM     13  C   UNL A   1      30.662  27.225  23.790  1.00  0.00     0.135 A 
ATOM     14  C   UNL A   1      28.016  29.572  22.424  1.00  0.00     0.067 C 
ATOM     15  C   UNL A   1      28.758  28.404  23.008  1.00  0.00     0.046 A 
ATOM     16  N   UNL A   1      27.945  27.445  23.501  1.00  0.00    -0.241 NA
ATOM     17  C   UNL A   1      30.152  28.330  23.101  1.00  0.00     0.013 A 
ATOM     18  C   UNL A   1      28.538  26.388  24.050  1.00  0.00     0.224 A 
ATOM     19  C   UNL A   1      31.061  29.333  22.455  1.00  0.00     0.050 C 
ATOM     20  N   UNL A   1      29.852  26.231  24.215  1.00  0.00    -0.219 NA
ENDBRANCH   8  13
ENDBRANCH   4   7
ENDBRANCH   2   3
ENDBRANCH   1   2
BRANCH   1  21
ATOM     21  C   UNL A   1      32.699  32.416  27.166  1.00  0.00     0.118 C 
BRANCH  21  22
ATOM     22  N   UNL A   1      32.502  33.823  27.494  1.00  0.00    -0.352 N 
ATOM     23  C   UNL A   1      33.092  34.577  28.475  1.00  0.00     0.251 C 
ATOM     24  H   UNL A   1      31.853  34.300  26.928  1.00  0.00     0.163 HD
ATOM     25  O   UNL A   1      32.660  35.693  28.751  1.00  0.00    -0.269 OA
BRANCH  23  26
ATOM     26  C   UNL A   1      34.242  34.027  29.215  1.00  0.00     0.039 A 
ATOM     27  C   UNL A   1      34.012  33.211  30.324  1.00  0.00     0.014 A 
ATOM     28  C   UNL A   1      35.546  34.309  28.800  1.00  0.00     0.014 A 
ATOM     29  C   UNL A   1      35.094  32.627  30.980  1.00  0.00     0.010 A 
ATOM     30  C   UNL A   1      36.612  33.643  29.385  1.00  0.00     0.010 A 
ATOM     31  C   UNL A   1      36.398  32.815  30.495  1.00  0.00    -0.014 A 
BRANCH  31  32
ATOM     32  C   UNL A   1      37.566  32.199  31.166  1.00  0.00     0.031 A 
ATOM     33  C   UNL A   1      38.322  31.101  30.475  1.00  0.00     0.074 A 
ATOM     34  C   UNL A   1      37.911  32.591  32.407  1.00  0.00     0.049 A 
ATOM     35  N   UNL A   1      39.331  30.391  30.908  1.00  0.00    -0.248 NA
ATOM     36  C   UNL A   1      37.861  30.729  29.127  1.00  0.00     0.031 C 
ATOM     37  C   UNL A   1      37.226  33.622  33.187  1.00  0.00     0.029 A 
ATOM     38  N   UNL A   1      38.923  32.166  33.228  1.00  0.00    -0.354 N 
ATOM     39  C   UNL A   1      39.617  29.489  29.893  1.00  0.00     0.074 A 
ATOM     40  C   UNL A   1      38.631  29.688  28.855  1.00  0.00     0.031 C 
ATOM     41  C   UNL A   1      37.861  33.776  34.360  1.00  0.00     0.029 A 
ATOM     42  C   UNL A   1      38.969  32.827  34.430  1.00  0.00     0.049 A 
ATOM     43  H   UNL A   1      39.556  31.455  32.979  1.00  0.00     0.167 HD
ATOM     44  C   UNL A   1      40.634  28.600  29.817  1.00  0.00     0.037 A 
ATOM     45  C   UNL A   1      39.812  32.683  35.469  1.00  0.00     0.037 A 
ATOM     46  C   UNL A   1      41.623  28.425  30.846  1.00  0.00     0.049 A 
ATOM     47  C   UNL A   1      40.916  31.665  35.379  1.00  0.00     0.074 A 
ATOM     48  C   UNL A   1      42.723  27.587  30.850  1.00  0.00     0.029 A 
ATOM     49  N   UNL A   1      41.628  29.101  32.059  1.00  0.00    -0.354 N 
ATOM     50  N   UNL A   1      41.216  30.856  34.391  1.00  0.00    -0.248 NA
ATOM     51  C   UNL A   1      41.800  31.540  36.546  1.00  0.00     0.031 C 
ATOM     52  C   UNL A   1      43.362  27.714  32.087  1.00  0.00     0.029 A 
ATOM     53  C   UNL A   1      42.695  28.674  32.833  1.00  0.00     0.049 A 
ATOM     54  H   UNL A   1      40.970  29.782  32.328  1.00  0.00     0.167 HD
ATOM     55  C   UNL A   1      42.328  30.138  34.807  1.00  0.00     0.074 A 
ATOM     56  C   UNL A   1      42.663  30.623  36.131  1.00  0.00     0.031 C 
ATOM     57  C   UNL A   1      43.007  29.162  34.154  1.00  0.00     0.037 A 
BRANCH  44  58
ATOM     58  C   UNL A   1      40.727  27.759  28.577  1.00  0.00     0.064 A 
ATOM     59  C   UNL A   1      40.055  26.531  28.469  1.00  0.00     0.173 A 
ATOM     60  C   UNL A   1      41.476  28.193  27.474  1.00  0.00     0.173 A 
ATOM     61  F   UNL A   1      39.335  26.061  29.500  1.00  0.00    -0.203 F 
ATOM     62  C   UNL A   1      40.157  25.755  27.317  1.00  0.00     0.198 A 
ATOM     63  C   UNL A   1      41.547  27.431  26.311  1.00  0.00     0.198 A 
ATOM     64  F   UNL A   1      42.137  29.359  27.522  1.00  0.00    -0.203 F 
ATOM     65  F   UNL A   1      39.553  24.560  27.260  1.00  0.00    -0.200 F 
ATOM     66  C   UNL A   1      40.896  26.210  26.236  1.00  0.00     0.200 A 
ATOM     67  F   UNL A   1      42.251  27.879  25.261  1.00  0.00    -0.200 F 
ATOM     68  F   UNL A   1      40.986  25.467  25.125  1.00  0.00    -0.200 F 
ENDBRANCH  44  58
BRANCH  45  69
ATOM     69  C   UNL A   1      39.661  33.560  36.658  1.00  0.00     0.064 A 
ATOM     70  C   UNL A   1      40.314  34.800  36.720  1.00  0.00     0.173 A 
ATOM     71  C   UNL A   1      38.822  33.211  37.726  1.00  0.00     0.173 A 
ATOM     72  F   UNL A   1      41.141  35.170  35.731  1.00  0.00    -0.203 F 
ATOM     73  C   UNL A   1      40.132  35.656  37.803  1.00  0.00     0.198 A 
ATOM     74  C   UNL A   1      38.621  34.080  38.797  1.00  0.00     0.198 A 
ATOM     75  F   UNL A   1      38.171  32.039  37.713  1.00  0.00    -0.203 F 
ATOM     76  F   UNL A   1      40.784  36.825  37.847  1.00  0.00    -0.200 F 
ATOM     77  C   UNL A   1      39.277  35.301  38.835  1.00  0.00     0.200 A 
ATOM     78  F   UNL A   1      37.779  33.740  39.784  1.00  0.00    -0.200 F 
ATOM     79  F   UNL A   1      39.084  36.135  39.866  1.00  0.00    -0.200 F 
ENDBRANCH  45  69
BRANCH  57  80
ATOM     80  C   UNL A   1      44.183  28.547  34.855  1.00  0.00     0.064 A 
ATOM     81  C   UNL A   1      44.047  27.381  35.625  1.00  0.00     0.173 A 
ATOM     82  C   UNL A   1      45.470  29.082  34.695  1.00  0.00     0.173 A 
ATOM     83  F   UNL A   1      42.836  26.837  35.818  1.00  0.00    -0.203 F 
ATOM     84  C   UNL A   1      45.155  26.785  36.221  1.00  0.00     0.198 A 
ATOM     85  C   UNL A   1      46.579  28.463  35.265  1.00  0.00     0.198 A 
ATOM     86  F   UNL A   1      45.656  30.189  33.962  1.00  0.00    -0.203 F 
ATOM     87  F   UNL A   1      44.996  25.694  36.983  1.00  0.00    -0.200 F 
ATOM     88  C   UNL A   1      46.421  27.319  36.031  1.00  0.00     0.200 A 
ATOM     89  F   UNL A   1      47.804  28.970  35.065  1.00  0.00    -0.200 F 
ATOM     90  F   UNL A   1      47.487  26.732  36.590  1.00  0.00    -0.200 F 
ENDBRANCH  57  80
ENDBRANCH  31  32
ENDBRANCH  23  26
ENDBRANCH  21  22
ENDBRANCH   1  21
TORSDOF 11
ENDMDL
MODEL 2
REMARK VINA RESULT:     -12.5      0.207      1.164
REMARK SMILES Cc1ncnc(N2CCCC[C@@H]2C(=O)NCCCNC(=O)c2ccc(-c3c4nc(c(-c5c(F)c(F)c(F)c(F)c5F)c5ccc([nH]5)c(-c5c(F)c(F)c(F)c(F)c5F)c5nc(c(-c6c(F)c(F)c(F)c(F)c6F)c6ccc3[nH]6)C=C5)C=C4)cc2)c1C
REMARK SMILES IDX 17 1 16 2 15 3 13 4 14 5 12 7 7 8 8 9 9 10 11 11 10 12 6 13
REMARK SMILES IDX 1 14 2 15 3 16 85 17 4 18 86 19 5 20 18 21 19 22 20 23 21 25
REMARK SMILES IDX 22 26 23 27 84 28 24 29 83 30 25 31 26 32 27 33 77 34 28 35
REMARK SMILES IDX 82 36 76 37 78 38 29 39 81 40 75 41 74 42 30 44 62 45 42 46
REMARK SMILES IDX 61 47 43 48 46 49 60 50 79 51 44 52 45 53 59 55 80 56 47 57
REMARK SMILES IDX 31 58 32 59 40 60 33 61 34 62 38 63 41 64 35 65 36 66 39 67
REMARK SMILES IDX 37 68 63 69 64 70 72 71 65 72 66 73 70 74 73 75 67 76 68 77
REMARK SMILES IDX 71 78 69 79 48 80 49 81 57 82 50 83 51 84 55 85 58 86 52 87
REMARK SMILES IDX 53 88 56 89 54 90
REMARK H PARENT 15 6 19 24 78 43 46 54
REMARK Flexibility Score: inf
ROOT
ATOM      1  C   UNL A   1      31.503  31.756  26.493  1.00  0.00     0.042 C 
ENDROOT
BRANCH   1   2
ATOM      2  C   UNL A   1      31.851  30.444  25.815  1.00  0.00     0.117 C 
BRANCH   2   3
ATOM      3  N   UNL A   1      31.426  29.307  26.612  1.00  0.00    -0.354 N 
ATOM      4  C   UNL A   1      31.690  27.983  26.446  1.00  0.00     0.242 C 
ATOM      5  O   UNL A   1      31.118  27.201  27.214  1.00  0.00    -0.273 OA
ATOM      6  H   UNL A   1      30.864  29.528  27.389  1.00  0.00     0.163 HD
BRANCH   4   7
ATOM      7  C   UNL A   1      32.602  27.456  25.319  1.00  0.00     0.173 C 
ATOM      8  N   UNL A   1      31.921  27.021  24.074  1.00  0.00    -0.344 N 
ATOM      9  C   UNL A   1      32.703  26.278  23.091  1.00  0.00     0.119 C 
ATOM     10  C   UNL A   1      33.399  25.095  23.751  1.00  0.00     0.022 C 
ATOM     11  C   UNL A   1      33.489  26.344  25.918  1.00  0.00     0.035 C 
ATOM     12  C   UNL A   1      34.297  25.574  24.882  1.00  0.00     0.004 C 
BRANCH   8  13
ATOM     13  C   UNL A   1      30.590  27.213  23.769  1.00  0.00     0.135 A 
ATOM     14  C   UNL A   1      27.973  29.617  22.445  1.00  0.00     0.067 C 
ATOM     15  C   UNL A   1      28.699  28.433  23.017  1.00  0.00     0.046 A 
ATOM     16  N   UNL A   1      27.874  27.489  23.519  1.00  0.00    -0.241 NA
ATOM     17  C   UNL A   1      30.093  28.330  23.090  1.00  0.00     0.013 A 
ATOM     18  C   UNL A   1      28.453  26.419  24.058  1.00  0.00     0.224 A 
ATOM     19  C   UNL A   1      31.013  29.316  22.432  1.00  0.00     0.050 C 
ATOM     20  N   UNL A   1      29.766  26.236  24.204  1.00  0.00    -0.219 NA
ENDBRANCH   8  13
ENDBRANCH   4   7
ENDBRANCH   2   3
ENDBRANCH   1   2
BRANCH   1  21
ATOM     21  C   UNL A   1      32.687  32.373  27.217  1.00  0.00     0.118 C 
BRANCH  21  22
ATOM     22  N   UNL A   1      32.480  33.783  27.524  1.00  0.00    -0.352 N 
ATOM     23  C   UNL A   1      33.072  34.558  28.487  1.00  0.00     0.251 C 
ATOM     24  H   UNL A   1      31.822  34.245  26.957  1.00  0.00     0.163 HD
ATOM     25  O   UNL A   1      32.633  35.674  28.749  1.00  0.00    -0.269 OA
BRANCH  23  26
ATOM     26  C   UNL A   1      34.234  34.030  29.226  1.00  0.00     0.039 A 
ATOM     27  C   UNL A   1      34.023  33.149  30.288  1.00  0.00     0.014 A 
ATOM     28  C   UNL A   1      35.530  34.396  28.855  1.00  0.00     0.014 A 
ATOM     29  C   UNL A   1      35.120  32.588  30.940  1.00  0.00     0.010 A 
ATOM     30  C   UNL A   1      36.616  33.756  29.431  1.00  0.00     0.010 A 
ATOM     31  C   UNL A   1      36.422  32.864  30.495  1.00  0.00    -0.014 A 
BRANCH  31  32
ATOM     32  C   UNL A   1      37.606  32.275  31.162  1.00  0.00     0.031 A 
ATOM     33  C   UNL A   1      38.389  31.199  30.464  1.00  0.00     0.074 A 
ATOM     34  C   UNL A   1      37.942  32.669  32.404  1.00  0.00     0.049 A 
ATOM     35  N   UNL A   1      39.416  30.513  30.892  1.00  0.00    -0.248 NA
ATOM     36  C   UNL A   1      37.936  30.823  29.115  1.00  0.00     0.031 C 
ATOM     37  C   UNL A   1      37.232  33.678  33.190  1.00  0.00     0.029 A 
ATOM     38  N   UNL A   1      38.965  32.265  33.222  1.00  0.00    -0.354 N 
ATOM     39  C   UNL A   1      39.723  29.624  29.872  1.00  0.00     0.074 A 
ATOM     40  C   UNL A   1      38.732  29.803  28.836  1.00  0.00     0.031 C 
ATOM     41  C   UNL A   1      37.864  33.841  34.363  1.00  0.00     0.029 A 
ATOM     42  C   UNL A   1      38.996  32.921  34.427  1.00  0.00     0.049 A 
ATOM     43  H   UNL A   1      39.616  31.571  32.969  1.00  0.00     0.167 HD
ATOM     44  C   UNL A   1      40.762  28.761  29.791  1.00  0.00     0.037 A 
ATOM     45  C   UNL A   1      39.843  32.792  35.465  1.00  0.00     0.037 A 
ATOM     46  C   UNL A   1      41.756  28.606  30.818  1.00  0.00     0.049 A 
ATOM     47  C   UNL A   1      40.972  31.803  35.368  1.00  0.00     0.074 A 
ATOM     48  C   UNL A   1      42.877  27.796  30.817  1.00  0.00     0.029 A 
ATOM     49  N   UNL A   1      41.746  29.276  32.034  1.00  0.00    -0.354 N 
ATOM     50  N   UNL A   1      41.292  31.008  34.376  1.00  0.00    -0.248 NA
ATOM     51  C   UNL A   1      41.860  31.695  36.533  1.00  0.00     0.031 C 
ATOM     52  C   UNL A   1      43.514  27.933  32.053  1.00  0.00     0.029 A 
ATOM     53  C   UNL A   1      42.824  28.872  32.805  1.00  0.00     0.049 A 
ATOM     54  H   UNL A   1      41.071  29.939  32.308  1.00  0.00     0.167 HD
ATOM     55  C   UNL A   1      42.422  30.316  34.787  1.00  0.00     0.074 A 
ATOM     56  C   UNL A   1      42.746  30.802  36.113  1.00  0.00     0.031 C 
ATOM     57  C   UNL A   1      43.125  29.361  34.128  1.00  0.00     0.037 A 
BRANCH  44  58
ATOM     58  C   UNL A   1      40.875  27.929  28.546  1.00  0.00     0.064 A 
ATOM     59  C   UNL A   1      40.228  26.688  28.429  1.00  0.00     0.173 A 
ATOM     60  C   UNL A   1      41.618  28.384  27.448  1.00  0.00     0.173 A 
ATOM     61  F   UNL A   1      39.516  26.198  29.457  1.00  0.00    -0.203 F 
ATOM     62  C   UNL A   1      40.349  25.921  27.274  1.00  0.00     0.198 A 
ATOM     63  C   UNL A   1      41.707  27.631  26.280  1.00  0.00     0.198 A 
ATOM     64  F   UNL A   1      42.255  29.563  27.503  1.00  0.00    -0.203 F 
ATOM     65  F   UNL A   1      39.770  24.714  27.209  1.00  0.00    -0.200 F 
ATOM     66  C   UNL A   1      41.081  26.397  26.197  1.00  0.00     0.200 A 
ATOM     67  F   UNL A   1      42.405  28.099  25.235  1.00  0.00    -0.200 F 
ATOM     68  F   UNL A   1      41.189  25.662  25.082  1.00  0.00    -0.200 F 
ENDBRANCH  44  58
BRANCH  45  69
ATOM     69  C   UNL A   1      39.671  33.660  36.658  1.00  0.00     0.064 A 
ATOM     70  C   UNL A   1      40.261  34.931  36.710  1.00  0.00     0.173 A 
ATOM     71  C   UNL A   1      38.873  33.266  37.742  1.00  0.00     0.173 A 
ATOM     72  F   UNL A   1      41.047  35.344  35.705  1.00  0.00    -0.203 F 
ATOM     73  C   UNL A   1      40.057  35.775  37.798  1.00  0.00     0.198 A 
ATOM     74  C   UNL A   1      38.649  34.123  38.819  1.00  0.00     0.198 A 
ATOM     75  F   UNL A   1      38.283  32.063  37.740  1.00  0.00    -0.203 F 
ATOM     76  F   UNL A   1      40.648  36.977  37.831  1.00  0.00    -0.200 F 
ATOM     77  C   UNL A   1      39.242  35.376  38.847  1.00  0.00     0.200 A 
ATOM     78  F   UNL A   1      37.846  33.739  39.822  1.00  0.00    -0.200 F 
ATOM     79  F   UNL A   1      39.028  36.197  39.883  1.00  0.00    -0.200 F 
ENDBRANCH  45  69
BRANCH  57  80
ATOM     80  C   UNL A   1      44.317  28.771  34.826  1.00  0.00     0.064 A 
ATOM     81  C   UNL A   1      45.582  29.372  34.744  1.00  0.00     0.173 A 
ATOM     82  C   UNL A   1      44.178  27.641  35.645  1.00  0.00     0.173 A 
ATOM     83  F   UNL A   1      45.770  30.448  33.964  1.00  0.00    -0.203 F 
ATOM     84  C   UNL A   1      46.667  28.851  35.443  1.00  0.00     0.198 A 
ATOM     85  C   UNL A   1      45.258  27.144  36.369  1.00  0.00     0.198 A 
ATOM     86  F   UNL A   1      42.988  27.035  35.765  1.00  0.00    -0.203 F 
ATOM     87  F   UNL A   1      47.875  29.419  35.320  1.00  0.00    -0.200 F 
ATOM     88  C   UNL A   1      46.503  27.745  36.264  1.00  0.00     0.200 A 
ATOM     89  F   UNL A   1      45.092  26.086  37.176  1.00  0.00    -0.200 F 
ATOM     90  F   UNL A   1      47.544  27.258  36.951  1.00  0.00    -0.200 F 
ENDBRANCH  57  80
ENDBRANCH  31  32
ENDBRANCH  23  26
ENDBRANCH  21  22
ENDBRANCH   1  21
TORSDOF 11
ENDMDL
MODEL 3
REMARK VINA RESULT:     -12.4      1.103      2.394
REMARK SMILES Cc1ncnc(N2CCCC[C@@H]2C(=O)NCCCNC(=O)c2ccc(-c3c4nc(c(-c5c(F)c(F)c(F)c(F)c5F)c5ccc([nH]5)c(-c5c(F)c(F)c(F)c(F)c5F)c5nc(c(-c6c(F)c(F)c(F)c(F)c6F)c6ccc3[nH]6)C=C5)C=C4)cc2)c1C
REMARK SMILES IDX 17 1 16 2 15 3 13 4 14 5 12 7 7 8 8 9 9 10 11 11 10 12 6 13
REMARK SMILES IDX 1 14 2 15 3 16 85 17 4 18 86 19 5 20 18 21 19 22 20 23 21 25
REMARK SMILES IDX 22 26 23 27 84 28 24 29 83 30 25 31 26 32 27 33 77 34 28 35
REMARK SMILES IDX 82 36 76 37 78 38 29 39 81 40 75 41 74 42 30 44 62 45 42 46
REMARK SMILES IDX 61 47 43 48 46 49 60 50 79 51 44 52 45 53 59 55 80 56 47 57
REMARK SMILES IDX 31 58 32 59 40 60 33 61 34 62 38 63 41 64 35 65 36 66 39 67
REMARK SMILES IDX 37 68 63 69 64 70 72 71 65 72 66 73 70 74 73 75 67 76 68 77
REMARK SMILES IDX 71 78 69 79 48 80 49 81 57 82 50 83 51 84 55 85 58 86 52 87
REMARK SMILES IDX 53 88 56 89 54 90
REMARK H PARENT 15 6 19 24 78 43 46 54
REMARK Flexibility Score: inf
ROOT
ATOM      1  C   UNL A   1      31.367  31.952  26.880  1.00  0.00     0.042 C 
ENDROOT
BRANCH   1   2
ATOM      2  C   UNL A   1      31.547  30.788  25.923  1.00  0.00     0.117 C 
BRANCH   2   3
ATOM      3  N   UNL A   1      32.573  29.873  26.390  1.00  0.00    -0.354 N 
ATOM      4  C   UNL A   1      33.169  28.833  25.745  1.00  0.00     0.242 C 
ATOM      5  O   UNL A   1      33.950  28.141  26.408  1.00  0.00    -0.273 OA
ATOM      6  H   UNL A   1      32.885  30.029  27.310  1.00  0.00     0.163 HD
BRANCH   4   7
ATOM      7  C   UNL A   1      32.851  28.478  24.278  1.00  0.00     0.173 C 
ATOM      8  N   UNL A   1      32.245  27.144  24.044  1.00  0.00    -0.344 N 
ATOM      9  C   UNL A   1      32.169  26.658  22.670  1.00  0.00     0.119 C 
ATOM     10  C   UNL A   1      33.536  26.740  22.003  1.00  0.00     0.022 C 
ATOM     11  C   UNL A   1      34.141  28.686  23.457  1.00  0.00     0.035 C 
ATOM     12  C   UNL A   1      34.050  28.172  22.027  1.00  0.00     0.004 C 
BRANCH   8  13
ATOM     13  C   UNL A   1      31.779  26.283  25.016  1.00  0.00     0.135 A 
ATOM     14  C   UNL A   1      32.436  23.124  27.009  1.00  0.00     0.067 C 
ATOM     15  C   UNL A   1      31.841  24.371  26.420  1.00  0.00     0.046 A 
ATOM     16  N   UNL A   1      30.539  24.545  26.736  1.00  0.00    -0.241 NA
ATOM     17  C   UNL A   1      32.532  25.242  25.570  1.00  0.00     0.013 A 
ATOM     18  C   UNL A   1      29.944  25.623  26.231  1.00  0.00     0.224 A 
ATOM     19  C   UNL A   1      34.004  25.119  25.309  1.00  0.00     0.050 C 
ATOM     20  N   UNL A   1      30.500  26.498  25.392  1.00  0.00    -0.219 NA
ENDBRANCH   8  13
ENDBRANCH   4   7
ENDBRANCH   2   3
ENDBRANCH   1   2
BRANCH   1  21
ATOM     21  C   UNL A   1      32.671  32.669  27.180  1.00  0.00     0.118 C 
BRANCH  21  22
ATOM     22  N   UNL A   1      32.469  34.067  27.541  1.00  0.00    -0.352 N 
ATOM     23  C   UNL A   1      33.048  34.797  28.546  1.00  0.00     0.251 C 
ATOM     24  H   UNL A   1      31.824  34.557  26.982  1.00  0.00     0.163 HD
ATOM     25  O   UNL A   1      32.612  35.906  28.846  1.00  0.00    -0.269 OA
BRANCH  23  26
ATOM     26  C   UNL A   1      34.192  34.230  29.284  1.00  0.00     0.039 A 
ATOM     27  C   UNL A   1      33.951  33.370  30.357  1.00  0.00     0.014 A 
ATOM     28  C   UNL A   1      35.499  34.540  28.902  1.00  0.00     0.014 A 
ATOM     29  C   UNL A   1      35.029  32.772  31.009  1.00  0.00     0.010 A 
ATOM     30  C   UNL A   1      36.562  33.861  29.478  1.00  0.00     0.010 A 
ATOM     31  C   UNL A   1      36.339  32.991  30.553  1.00  0.00    -0.014 A 
BRANCH  31  32
ATOM     32  C   UNL A   1      37.502  32.360  31.219  1.00  0.00     0.031 A 
ATOM     33  C   UNL A   1      38.247  31.259  30.521  1.00  0.00     0.074 A 
ATOM     34  C   UNL A   1      37.851  32.742  32.462  1.00  0.00     0.049 A 
ATOM     35  N   UNL A   1      39.250  30.538  30.949  1.00  0.00    -0.248 NA
ATOM     36  C   UNL A   1      37.782  30.900  29.171  1.00  0.00     0.031 C 
ATOM     37  C   UNL A   1      37.176  33.774  33.248  1.00  0.00     0.029 A 
ATOM     38  N   UNL A   1      38.860  32.303  33.279  1.00  0.00    -0.354 N 
ATOM     39  C   UNL A   1      39.527  29.640  29.928  1.00  0.00     0.074 A 
ATOM     40  C   UNL A   1      38.543  29.853  28.892  1.00  0.00     0.031 C 
ATOM     41  C   UNL A   1      37.813  33.915  34.422  1.00  0.00     0.029 A 
ATOM     42  C   UNL A   1      38.913  32.957  34.485  1.00  0.00     0.049 A 
ATOM     43  H   UNL A   1      39.487  31.587  33.026  1.00  0.00     0.167 HD
ATOM     44  C   UNL A   1      40.536  28.742  29.846  1.00  0.00     0.037 A 
ATOM     45  C   UNL A   1      39.756  32.798  35.523  1.00  0.00     0.037 A 
ATOM     46  C   UNL A   1      41.525  28.553  30.873  1.00  0.00     0.049 A 
ATOM     47  C   UNL A   1      40.850  31.772  35.426  1.00  0.00     0.074 A 
ATOM     48  C   UNL A   1      42.617  27.705  30.871  1.00  0.00     0.029 A 
ATOM     49  N   UNL A   1      41.537  29.221  32.089  1.00  0.00    -0.354 N 
ATOM     50  N   UNL A   1      41.142  30.966  34.432  1.00  0.00    -0.248 NA
ATOM     51  C   UNL A   1      41.734  31.632  36.590  1.00  0.00     0.031 C 
ATOM     52  C   UNL A   1      43.258  27.819  32.108  1.00  0.00     0.029 A 
ATOM     53  C   UNL A   1      42.601  28.781  32.860  1.00  0.00     0.049 A 
ATOM     54  H   UNL A   1      40.885  29.907  32.364  1.00  0.00     0.167 HD
ATOM     55  C   UNL A   1      42.249  30.235  34.843  1.00  0.00     0.074 A 
ATOM     56  C   UNL A   1      42.589  30.710  36.170  1.00  0.00     0.031 C 
ATOM     57  C   UNL A   1      42.918  29.258  34.184  1.00  0.00     0.037 A 
BRANCH  44  58
ATOM     58  C   UNL A   1      40.621  27.907  28.601  1.00  0.00     0.064 A 
ATOM     59  C   UNL A   1      41.362  28.325  27.483  1.00  0.00     0.173 A 
ATOM     60  C   UNL A   1      39.974  26.665  28.529  1.00  0.00     0.173 A 
ATOM     61  F   UNL A   1      41.987  29.513  27.493  1.00  0.00    -0.203 F 
ATOM     62  C   UNL A   1      41.424  27.546  26.331  1.00  0.00     0.198 A 
ATOM     63  C   UNL A   1      40.069  25.873  27.388  1.00  0.00     0.198 A 
ATOM     64  F   UNL A   1      39.255  26.215  29.567  1.00  0.00    -0.203 F 
ATOM     65  F   UNL A   1      42.090  27.994  25.257  1.00  0.00    -0.200 F 
ATOM     66  C   UNL A   1      40.784  26.317  26.287  1.00  0.00     0.200 A 
ATOM     67  F   UNL A   1      39.460  24.678  27.352  1.00  0.00    -0.200 F 
ATOM     68  F   UNL A   1      40.853  25.565  25.181  1.00  0.00    -0.200 F 
ENDBRANCH  44  58
BRANCH  45  69
ATOM     69  C   UNL A   1      39.613  33.670  36.717  1.00  0.00     0.064 A 
ATOM     70  C   UNL A   1      40.214  34.937  36.754  1.00  0.00     0.173 A 
ATOM     71  C   UNL A   1      38.832  33.286  37.817  1.00  0.00     0.173 A 
ATOM     72  F   UNL A   1      40.985  35.340  35.733  1.00  0.00    -0.203 F 
ATOM     73  C   UNL A   1      40.038  35.785  37.843  1.00  0.00     0.198 A 
ATOM     74  C   UNL A   1      38.636  34.147  38.895  1.00  0.00     0.198 A 
ATOM     75  F   UNL A   1      38.232  32.088  37.828  1.00  0.00    -0.203 F 
ATOM     76  F   UNL A   1      40.640  36.982  37.862  1.00  0.00    -0.200 F 
ATOM     77  C   UNL A   1      39.240  35.395  38.908  1.00  0.00     0.200 A 
ATOM     78  F   UNL A   1      37.849  33.773  39.913  1.00  0.00    -0.200 F 
ATOM     79  F   UNL A   1      39.052  36.222  39.946  1.00  0.00    -0.200 F 
ENDBRANCH  45  69
BRANCH  57  80
ATOM     80  C   UNL A   1      44.089  28.628  34.880  1.00  0.00     0.064 A 
ATOM     81  C   UNL A   1      45.373  29.190  34.807  1.00  0.00     0.173 A 
ATOM     82  C   UNL A   1      43.913  27.496  35.691  1.00  0.00     0.173 A 
ATOM     83  F   UNL A   1      45.596  30.265  34.036  1.00  0.00    -0.203 F 
ATOM     84  C   UNL A   1      46.439  28.631  35.506  1.00  0.00     0.198 A 
ATOM     85  C   UNL A   1      44.975  26.961  36.415  1.00  0.00     0.198 A 
ATOM     86  F   UNL A   1      42.705  26.925  35.803  1.00  0.00    -0.203 F 
ATOM     87  F   UNL A   1      47.664  29.163  35.390  1.00  0.00    -0.200 F 
ATOM     88  C   UNL A   1      46.238  27.525  36.318  1.00  0.00     0.200 A 
ATOM     89  F   UNL A   1      44.774  25.903  37.214  1.00  0.00    -0.200 F 
ATOM     90  F   UNL A   1      47.261  27.002  37.005  1.00  0.00    -0.200 F 
ENDBRANCH  57  80
ENDBRANCH  31  32
ENDBRANCH  23  26
ENDBRANCH  21  22
ENDBRANCH   1  21
TORSDOF 11
ENDMDL
