MODEL 1
REMARK VINA RESULT:     -12.8      0.000      0.000
REMARK SMILES O=C(NCCCNC(=O)c1ccc(-c2ccc(F)c(C(F)(F)F)c2)cc1[N+](=O)[O-])c1ccc(-c2c3nc(c(-c4c(F)c(F)c(F)c(F)c4F)c4ccc([nH]4)c(-c4c(F)c(F)c(F)c(F)c4F)c4nc(c(-c5c(F)c(F)c(F)c(F)c5F)c5ccc2[nH]5)C=C4)C=C3)cc1
REMARK SMILES IDX 5 1 4 2 3 3 1 4 2 5 30 7 31 8 92 9 32 10 91 11 33 12 34 13
REMARK SMILES IDX 35 14 85 15 36 16 90 17 84 18 86 19 37 20 89 21 83 22 82 23
REMARK SMILES IDX 38 25 70 26 50 27 69 28 51 29 54 30 68 31 87 32 52 33 53 34
REMARK SMILES IDX 67 36 88 37 55 38 39 39 40 40 48 41 41 42 42 43 46 44 49 45
REMARK SMILES IDX 43 46 44 47 47 48 45 49 71 50 72 51 80 52 73 53 74 54 78 55
REMARK SMILES IDX 81 56 75 57 76 58 79 59 77 60 56 61 57 62 65 63 58 64 59 65
REMARK SMILES IDX 63 66 66 67 60 68 61 69 64 70 62 71 6 72 7 73 8 74 9 76
REMARK SMILES IDX 10 77 11 78 26 79 12 80 25 81 13 82 27 83 28 84 29 85 14 86
REMARK SMILES IDX 15 87 24 88 16 89 19 90 17 91 18 92 20 93 21 94 22 95 23 96
REMARK H PARENT 3 6 86 24 54 35 7 75
REMARK Flexibility Score: inf
ROOT
ATOM      1  C   UNL A   1      32.306  28.301  25.455  1.00  0.00     0.042 C 
ENDROOT
BRANCH   1   2
ATOM      2  C   UNL A   1      33.479  29.226  25.746  1.00  0.00     0.118 C 
BRANCH   2   3
ATOM      3  N   UNL A   1      33.077  30.532  26.252  1.00  0.00    -0.352 N 
ATOM      4  O   UNL A   1      33.063  32.340  27.598  1.00  0.00    -0.269 OA
ATOM      5  C   UNL A   1      33.642  31.329  27.221  1.00  0.00     0.251 C 
ATOM      6  H   UNL A   1      32.269  30.905  25.832  1.00  0.00     0.163 HD
BRANCH   5   7
ATOM      7  C   UNL A   1      34.931  30.948  27.839  1.00  0.00     0.039 A 
ATOM      8  C   UNL A   1      35.161  29.641  28.265  1.00  0.00     0.014 A 
ATOM      9  C   UNL A   1      35.922  31.920  28.001  1.00  0.00     0.014 A 
ATOM     10  C   UNL A   1      36.280  29.356  29.035  1.00  0.00     0.010 A 
ATOM     11  C   UNL A   1      37.106  31.600  28.673  1.00  0.00     0.010 A 
ATOM     12  C   UNL A   1      37.270  30.329  29.244  1.00  0.00    -0.014 A 
BRANCH  12  13
ATOM     13  C   UNL A   1      38.476  29.975  30.037  1.00  0.00     0.031 A 
ATOM     14  C   UNL A   1      38.630  30.427  31.463  1.00  0.00     0.074 A 
ATOM     15  C   UNL A   1      39.415  29.191  29.474  1.00  0.00     0.049 A 
ATOM     16  N   UNL A   1      39.598  30.176  32.309  1.00  0.00    -0.248 NA
ATOM     17  C   UNL A   1      37.566  31.282  32.012  1.00  0.00     0.031 C 
ATOM     18  C   UNL A   1      39.378  28.695  28.096  1.00  0.00     0.029 A 
ATOM     19  N   UNL A   1      40.561  28.647  29.991  1.00  0.00    -0.354 N 
ATOM     20  C   UNL A   1      39.280  30.866  33.472  1.00  0.00     0.074 A 
ATOM     21  C   UNL A   1      38.037  31.563  33.219  1.00  0.00     0.031 C 
ATOM     22  C   UNL A   1      40.411  27.865  27.899  1.00  0.00     0.029 A 
ATOM     23  C   UNL A   1      41.223  27.827  29.110  1.00  0.00     0.049 A 
ATOM     24  H   UNL A   1      40.880  28.827  30.904  1.00  0.00     0.167 HD
ATOM     25  C   UNL A   1      39.960  30.909  34.642  1.00  0.00     0.037 A 
ATOM     26  C   UNL A   1      42.361  27.126  29.256  1.00  0.00     0.037 A 
ATOM     27  C   UNL A   1      41.181  30.186  34.899  1.00  0.00     0.049 A 
ATOM     28  C   UNL A   1      43.095  27.193  30.563  1.00  0.00     0.074 A 
ATOM     29  C   UNL A   1      41.922  30.129  36.066  1.00  0.00     0.029 A 
ATOM     30  N   UNL A   1      41.839  29.394  33.969  1.00  0.00    -0.354 N 
ATOM     31  N   UNL A   1      42.770  27.830  31.661  1.00  0.00    -0.248 NA
ATOM     32  C   UNL A   1      44.359  26.451  30.646  1.00  0.00     0.031 C 
ATOM     33  C   UNL A   1      43.053  29.338  35.830  1.00  0.00     0.029 A 
ATOM     34  C   UNL A   1      42.990  28.860  34.530  1.00  0.00     0.049 A 
ATOM     35  H   UNL A   1      41.534  29.233  33.046  1.00  0.00     0.167 HD
ATOM     36  C   UNL A   1      43.777  27.551  32.573  1.00  0.00     0.074 A 
ATOM     37  C   UNL A   1      44.716  26.673  31.903  1.00  0.00     0.031 C 
ATOM     38  C   UNL A   1      43.911  27.985  33.851  1.00  0.00     0.037 A 
BRANCH  25  39
ATOM     39  C   UNL A   1      39.416  31.788  35.732  1.00  0.00     0.064 A 
ATOM     40  C   UNL A   1      38.466  31.326  36.655  1.00  0.00     0.173 A 
ATOM     41  C   UNL A   1      39.874  33.107  35.871  1.00  0.00     0.173 A 
ATOM     42  F   UNL A   1      37.984  30.077  36.560  1.00  0.00    -0.203 F 
ATOM     43  C   UNL A   1      37.974  32.160  37.656  1.00  0.00     0.198 A 
ATOM     44  C   UNL A   1      39.402  33.930  36.890  1.00  0.00     0.198 A 
ATOM     45  F   UNL A   1      40.788  33.600  35.020  1.00  0.00    -0.203 F 
ATOM     46  F   UNL A   1      37.029  31.711  38.495  1.00  0.00    -0.200 F 
ATOM     47  C   UNL A   1      38.445  33.458  37.776  1.00  0.00     0.200 A 
ATOM     48  F   UNL A   1      39.867  35.181  37.012  1.00  0.00    -0.200 F 
ATOM     49  F   UNL A   1      37.971  34.258  38.741  1.00  0.00    -0.200 F 
ENDBRANCH  25  39
BRANCH  26  50
ATOM     50  C   UNL A   1      42.856  26.292  28.134  1.00  0.00     0.064 A 
ATOM     51  C   UNL A   1      43.557  26.866  27.065  1.00  0.00     0.173 A 
ATOM     52  C   UNL A   1      42.672  24.900  28.123  1.00  0.00     0.173 A 
ATOM     53  F   UNL A   1      43.743  28.194  27.024  1.00  0.00    -0.203 F 
ATOM     54  C   UNL A   1      44.051  26.083  26.025  1.00  0.00     0.198 A 
ATOM     55  C   UNL A   1      43.190  24.115  27.096  1.00  0.00     0.198 A 
ATOM     56  F   UNL A   1      42.013  24.303  29.126  1.00  0.00    -0.203 F 
ATOM     57  F   UNL A   1      44.693  26.659  25.001  1.00  0.00    -0.200 F 
ATOM     58  C   UNL A   1      43.875  24.707  26.046  1.00  0.00     0.200 A 
ATOM     59  F   UNL A   1      43.034  22.785  27.130  1.00  0.00    -0.200 F 
ATOM     60  F   UNL A   1      44.363  23.951  25.054  1.00  0.00    -0.200 F 
ENDBRANCH  26  50
BRANCH  38  61
ATOM     61  C   UNL A   1      45.101  27.486  34.615  1.00  0.00     0.064 A 
ATOM     62  C   UNL A   1      46.311  28.194  34.640  1.00  0.00     0.173 A 
ATOM     63  C   UNL A   1      45.020  26.292  35.347  1.00  0.00     0.173 A 
ATOM     64  F   UNL A   1      46.441  29.332  33.940  1.00  0.00    -0.203 F 
ATOM     65  C   UNL A   1      47.407  27.710  35.348  1.00  0.00     0.198 A 
ATOM     66  C   UNL A   1      46.111  25.826  36.076  1.00  0.00     0.198 A 
ATOM     67  F   UNL A   1      43.884  25.580  35.359  1.00  0.00    -0.203 F 
ATOM     68  F   UNL A   1      48.570  28.376  35.316  1.00  0.00    -0.200 F 
ATOM     69  C   UNL A   1      47.304  26.530  36.070  1.00  0.00     0.200 A 
ATOM     70  F   UNL A   1      46.007  24.690  36.781  1.00  0.00    -0.200 F 
ATOM     71  F   UNL A   1      48.361  26.067  36.751  1.00  0.00    -0.200 F 
ENDBRANCH  38  61
ENDBRANCH  12  13
ENDBRANCH   5   7
ENDBRANCH   2   3
ENDBRANCH   1   2
BRANCH   1  72
ATOM     72  C   UNL A   1      32.072  28.039  23.977  1.00  0.00     0.118 C 
BRANCH  72  73
ATOM     73  N   UNL A   1      31.042  27.037  23.743  1.00  0.00    -0.352 N 
ATOM     74  C   UNL A   1      31.129  25.676  23.656  1.00  0.00     0.258 C 
ATOM     75  H   UNL A   1      30.135  27.400  23.629  1.00  0.00     0.163 HD
ATOM     76  O   UNL A   1      30.159  25.016  23.299  1.00  0.00    -0.269 OA
BRANCH  74  77
ATOM     77  C   UNL A   1      32.397  24.988  23.938  1.00  0.00     0.117 A 
ATOM     78  C   UNL A   1      32.612  24.552  25.250  1.00  0.00     0.022 A 
ATOM     79  C   UNL A   1      33.400  24.789  22.993  1.00  0.00     0.282 A 
ATOM     80  C   UNL A   1      33.802  23.898  25.588  1.00  0.00     0.010 A 
ATOM     81  C   UNL A   1      34.579  24.103  23.316  1.00  0.00     0.095 A 
ATOM     82  C   UNL A   1      34.804  23.659  24.630  1.00  0.00    -0.012 A 
BRANCH  79  83
ATOM     83  N   UNL A   1      33.278  25.315  21.649  1.00  0.00     0.063 N 
ATOM     84  O   UNL A   1      32.902  24.522  20.775  1.00  0.00    -0.258 OA
ATOM     85  O   UNL A   1      33.569  26.502  21.466  1.00  0.00    -0.258 OA
ENDBRANCH  79  83
BRANCH  82  86
ATOM     86  C   UNL A   1      36.079  23.015  24.996  1.00  0.00    -0.017 A 
ATOM     87  C   UNL A   1      36.375  21.695  24.623  1.00  0.00     0.012 A 
ATOM     88  C   UNL A   1      37.037  23.718  25.754  1.00  0.00     0.025 A 
ATOM     89  C   UNL A   1      37.582  21.098  24.999  1.00  0.00     0.040 A 
ATOM     90  C   UNL A   1      38.257  23.131  26.126  1.00  0.00     0.092 A 
ATOM     91  C   UNL A   1      38.508  21.819  25.746  1.00  0.00     0.135 A 
ATOM     92  F   UNL A   1      39.654  21.225  26.101  1.00  0.00    -0.206 F 
BRANCH  90  93
ATOM     93  C   UNL A   1      39.274  23.879  26.934  1.00  0.00     0.419 C 
ATOM     94  F   UNL A   1      40.035  23.062  27.712  1.00  0.00    -0.166 F 
ATOM     95  F   UNL A   1      40.137  24.603  26.172  1.00  0.00    -0.166 F 
ATOM     96  F   UNL A   1      38.707  24.777  27.792  1.00  0.00    -0.166 F 
ENDBRANCH  90  93
ENDBRANCH  82  86
ENDBRANCH  74  77
ENDBRANCH  72  73
ENDBRANCH   1  72
TORSDOF 13
ENDMDL
MODEL 2
REMARK VINA RESULT:     -12.7      2.292      3.148
REMARK SMILES O=C(NCCCNC(=O)c1ccc(-c2ccc(F)c(C(F)(F)F)c2)cc1[N+](=O)[O-])c1ccc(-c2c3nc(c(-c4c(F)c(F)c(F)c(F)c4F)c4ccc([nH]4)c(-c4c(F)c(F)c(F)c(F)c4F)c4nc(c(-c5c(F)c(F)c(F)c(F)c5F)c5ccc2[nH]5)C=C4)C=C3)cc1
REMARK SMILES IDX 5 1 4 2 3 3 1 4 2 5 30 7 31 8 92 9 32 10 91 11 33 12 34 13
REMARK SMILES IDX 35 14 85 15 36 16 90 17 84 18 86 19 37 20 89 21 83 22 82 23
REMARK SMILES IDX 38 25 70 26 50 27 69 28 51 29 54 30 68 31 87 32 52 33 53 34
REMARK SMILES IDX 67 36 88 37 55 38 39 39 40 40 48 41 41 42 42 43 46 44 49 45
REMARK SMILES IDX 43 46 44 47 47 48 45 49 71 50 72 51 80 52 73 53 74 54 78 55
REMARK SMILES IDX 81 56 75 57 76 58 79 59 77 60 56 61 57 62 65 63 58 64 59 65
REMARK SMILES IDX 63 66 66 67 60 68 61 69 64 70 62 71 6 72 7 73 8 74 9 76
REMARK SMILES IDX 10 77 11 78 26 79 12 80 25 81 13 82 27 83 28 84 29 85 14 86
REMARK SMILES IDX 15 87 24 88 16 89 19 90 17 91 18 92 20 93 21 94 22 95 23 96
REMARK H PARENT 3 6 86 24 54 35 7 75
REMARK Flexibility Score: inf
ROOT
ATOM      1  C   UNL A   1      33.382  29.353  24.983  1.00  0.00     0.042 C 
ENDROOT
BRANCH   1   2
ATOM      2  C   UNL A   1      32.653  29.643  26.287  1.00  0.00     0.118 C 
BRANCH   2   3
ATOM      3  N   UNL A   1      32.503  31.065  26.565  1.00  0.00    -0.352 N 
ATOM      4  O   UNL A   1      32.902  33.061  27.535  1.00  0.00    -0.269 OA
ATOM      5  C   UNL A   1      33.283  31.919  27.312  1.00  0.00     0.251 C 
ATOM      6  H   UNL A   1      31.715  31.484  26.151  1.00  0.00     0.163 HD
BRANCH   5   7
ATOM      7  C   UNL A   1      34.565  31.448  27.881  1.00  0.00     0.039 A 
ATOM      8  C   UNL A   1      34.726  30.124  28.284  1.00  0.00     0.014 A 
ATOM      9  C   UNL A   1      35.621  32.354  28.019  1.00  0.00     0.014 A 
ATOM     10  C   UNL A   1      35.849  29.759  29.012  1.00  0.00     0.010 A 
ATOM     11  C   UNL A   1      36.803  31.950  28.646  1.00  0.00     0.010 A 
ATOM     12  C   UNL A   1      36.906  30.665  29.197  1.00  0.00    -0.014 A 
BRANCH  12  13
ATOM     13  C   UNL A   1      38.112  30.224  29.945  1.00  0.00     0.031 A 
ATOM     14  C   UNL A   1      38.325  30.618  31.381  1.00  0.00     0.074 A 
ATOM     15  C   UNL A   1      38.997  29.416  29.329  1.00  0.00     0.049 A 
ATOM     16  N   UNL A   1      39.301  30.291  32.191  1.00  0.00    -0.248 NA
ATOM     17  C   UNL A   1      37.319  31.503  31.987  1.00  0.00     0.031 C 
ATOM     18  C   UNL A   1      38.900  28.972  27.937  1.00  0.00     0.029 A 
ATOM     19  N   UNL A   1      40.128  28.799  29.796  1.00  0.00    -0.354 N 
ATOM     20  C   UNL A   1      39.047  30.953  33.385  1.00  0.00     0.074 A 
ATOM     21  C   UNL A   1      37.834  31.719  33.190  1.00  0.00     0.031 C 
ATOM     22  C   UNL A   1      39.886  28.101  27.684  1.00  0.00     0.029 A 
ATOM     23  C   UNL A   1      40.725  27.980  28.871  1.00  0.00     0.049 A 
ATOM     24  H   UNL A   1      40.478  28.931  30.706  1.00  0.00     0.167 HD
ATOM     25  C   UNL A   1      39.758  30.922  34.537  1.00  0.00     0.037 A 
ATOM     26  C   UNL A   1      41.831  27.220  28.961  1.00  0.00     0.037 A 
ATOM     27  C   UNL A   1      40.948  30.132  34.735  1.00  0.00     0.049 A 
ATOM     28  C   UNL A   1      42.600  27.205  30.249  1.00  0.00     0.074 A 
ATOM     29  C   UNL A   1      41.715  29.997  35.879  1.00  0.00     0.029 A 
ATOM     30  N   UNL A   1      41.543  29.342  33.762  1.00  0.00    -0.354 N 
ATOM     31  N   UNL A   1      42.335  27.818  31.377  1.00  0.00    -0.248 NA
ATOM     32  C   UNL A   1      43.828  26.400  30.272  1.00  0.00     0.031 C 
ATOM     33  C   UNL A   1      42.799  29.161  35.585  1.00  0.00     0.029 A 
ATOM     34  C   UNL A   1      42.679  28.734  34.272  1.00  0.00     0.049 A 
ATOM     35  H   UNL A   1      41.207  29.229  32.842  1.00  0.00     0.167 HD
ATOM     36  C   UNL A   1      43.350  27.458  32.251  1.00  0.00     0.074 A 
ATOM     37  C   UNL A   1      44.227  26.560  31.526  1.00  0.00     0.031 C 
ATOM     38  C   UNL A   1      43.538  27.840  33.538  1.00  0.00     0.037 A 
BRANCH  25  39
ATOM     39  C   UNL A   1      39.287  31.787  35.670  1.00  0.00     0.064 A 
ATOM     40  C   UNL A   1      38.375  31.322  36.630  1.00  0.00     0.173 A 
ATOM     41  C   UNL A   1      39.777  33.094  35.813  1.00  0.00     0.173 A 
ATOM     42  F   UNL A   1      37.866  30.085  36.535  1.00  0.00    -0.203 F 
ATOM     43  C   UNL A   1      37.950  32.143  37.672  1.00  0.00     0.198 A 
ATOM     44  C   UNL A   1      39.371  33.903  36.872  1.00  0.00     0.198 A 
ATOM     45  F   UNL A   1      40.655  33.588  34.927  1.00  0.00    -0.203 F 
ATOM     46  F   UNL A   1      37.040  31.694  38.548  1.00  0.00    -0.200 F 
ATOM     47  C   UNL A   1      38.451  33.430  37.795  1.00  0.00     0.200 A 
ATOM     48  F   UNL A   1      39.866  35.143  36.995  1.00  0.00    -0.200 F 
ATOM     49  F   UNL A   1      38.042  34.218  38.799  1.00  0.00    -0.200 F 
ENDBRANCH  25  39
BRANCH  26  50
ATOM     50  C   UNL A   1      42.255  26.403  27.798  1.00  0.00     0.064 A 
ATOM     51  C   UNL A   1      43.243  26.864  26.917  1.00  0.00     0.173 A 
ATOM     52  C   UNL A   1      41.711  25.131  27.563  1.00  0.00     0.173 A 
ATOM     53  F   UNL A   1      43.780  28.081  27.092  1.00  0.00    -0.203 F 
ATOM     54  C   UNL A   1      43.666  26.087  25.842  1.00  0.00     0.198 A 
ATOM     55  C   UNL A   1      42.156  24.344  26.504  1.00  0.00     0.198 A 
ATOM     56  F   UNL A   1      40.768  24.643  28.382  1.00  0.00    -0.203 F 
ATOM     57  F   UNL A   1      44.591  26.562  24.997  1.00  0.00    -0.200 F 
ATOM     58  C   UNL A   1      43.129  24.824  25.641  1.00  0.00     0.200 A 
ATOM     59  F   UNL A   1      41.647  23.117  26.325  1.00  0.00    -0.200 F 
ATOM     60  F   UNL A   1      43.547  24.070  24.616  1.00  0.00    -0.200 F 
ENDBRANCH  26  50
BRANCH  38  61
ATOM     61  C   UNL A   1      44.721  27.257  34.252  1.00  0.00     0.064 A 
ATOM     62  C   UNL A   1      44.629  26.057  34.972  1.00  0.00     0.173 A 
ATOM     63  C   UNL A   1      45.967  27.900  34.198  1.00  0.00     0.173 A 
ATOM     64  F   UNL A   1      43.455  25.416  35.068  1.00  0.00    -0.203 F 
ATOM     65  C   UNL A   1      45.736  25.536  35.636  1.00  0.00     0.198 A 
ATOM     66  C   UNL A   1      47.078  27.361  34.841  1.00  0.00     0.198 A 
ATOM     67  F   UNL A   1      46.108  29.048  33.520  1.00  0.00    -0.203 F 
ATOM     68  F   UNL A   1      45.614  24.415  36.361  1.00  0.00    -0.200 F 
ATOM     69  C   UNL A   1      46.961  26.185  35.565  1.00  0.00     0.200 A 
ATOM     70  F   UNL A   1      48.263  27.984  34.764  1.00  0.00    -0.200 F 
ATOM     71  F   UNL A   1      48.024  25.681  36.205  1.00  0.00    -0.200 F 
ENDBRANCH  38  61
ENDBRANCH  12  13
ENDBRANCH   5   7
ENDBRANCH   2   3
ENDBRANCH   1   2
BRANCH   1  72
ATOM     72  C   UNL A   1      33.031  28.015  24.357  1.00  0.00     0.118 C 
BRANCH  72  73
ATOM     73  N   UNL A   1      31.879  28.097  23.471  1.00  0.00    -0.352 N 
ATOM     74  C   UNL A   1      31.177  27.113  22.832  1.00  0.00     0.258 C 
ATOM     75  H   UNL A   1      31.552  29.009  23.306  1.00  0.00     0.163 HD
ATOM     76  O   UNL A   1      30.323  27.403  22.000  1.00  0.00    -0.269 OA
BRANCH  74  77
ATOM     77  C   UNL A   1      31.470  25.696  23.092  1.00  0.00     0.117 A 
ATOM     78  C   UNL A   1      30.822  25.095  24.176  1.00  0.00     0.022 A 
ATOM     79  C   UNL A   1      32.379  24.942  22.353  1.00  0.00     0.282 A 
ATOM     80  C   UNL A   1      31.063  23.752  24.484  1.00  0.00     0.010 A 
ATOM     81  C   UNL A   1      32.598  23.587  22.634  1.00  0.00     0.095 A 
ATOM     82  C   UNL A   1      31.951  22.973  23.719  1.00  0.00    -0.012 A 
BRANCH  79  83
ATOM     83  N   UNL A   1      33.159  25.540  21.289  1.00  0.00     0.063 N 
ATOM     84  O   UNL A   1      34.018  26.366  21.628  1.00  0.00    -0.258 OA
ATOM     85  O   UNL A   1      32.905  25.203  20.128  1.00  0.00    -0.258 OA
ENDBRANCH  79  83
BRANCH  82  86
ATOM     86  C   UNL A   1      32.243  21.572  24.073  1.00  0.00    -0.017 A 
ATOM     87  C   UNL A   1      32.538  21.188  25.391  1.00  0.00     0.012 A 
ATOM     88  C   UNL A   1      32.246  20.574  23.079  1.00  0.00     0.025 A 
ATOM     89  C   UNL A   1      32.831  19.857  25.701  1.00  0.00     0.040 A 
ATOM     90  C   UNL A   1      32.528  19.232  23.382  1.00  0.00     0.092 A 
ATOM     91  C   UNL A   1      32.825  18.895  24.696  1.00  0.00     0.135 A 
ATOM     92  F   UNL A   1      33.116  17.628  25.014  1.00  0.00    -0.206 F 
BRANCH  90  93
ATOM     93  C   UNL A   1      32.534  18.173  22.322  1.00  0.00     0.419 C 
ATOM     94  F   UNL A   1      32.483  18.684  21.062  1.00  0.00    -0.166 F 
ATOM     95  F   UNL A   1      33.633  17.372  22.371  1.00  0.00    -0.166 F 
ATOM     96  F   UNL A   1      31.467  17.328  22.417  1.00  0.00    -0.166 F 
ENDBRANCH  90  93
ENDBRANCH  82  86
ENDBRANCH  74  77
ENDBRANCH  72  73
ENDBRANCH   1  72
TORSDOF 13
ENDMDL
MODEL 3
REMARK VINA RESULT:     -12.7      4.478      9.620
REMARK SMILES O=C(NCCCNC(=O)c1ccc(-c2ccc(F)c(C(F)(F)F)c2)cc1[N+](=O)[O-])c1ccc(-c2c3nc(c(-c4c(F)c(F)c(F)c(F)c4F)c4ccc([nH]4)c(-c4c(F)c(F)c(F)c(F)c4F)c4nc(c(-c5c(F)c(F)c(F)c(F)c5F)c5ccc2[nH]5)C=C4)C=C3)cc1
REMARK SMILES IDX 5 1 4 2 3 3 1 4 2 5 30 7 31 8 92 9 32 10 91 11 33 12 34 13
REMARK SMILES IDX 35 14 85 15 36 16 90 17 84 18 86 19 37 20 89 21 83 22 82 23
REMARK SMILES IDX 38 25 70 26 50 27 69 28 51 29 54 30 68 31 87 32 52 33 53 34
REMARK SMILES IDX 67 36 88 37 55 38 39 39 40 40 48 41 41 42 42 43 46 44 49 45
REMARK SMILES IDX 43 46 44 47 47 48 45 49 71 50 72 51 80 52 73 53 74 54 78 55
REMARK SMILES IDX 81 56 75 57 76 58 79 59 77 60 56 61 57 62 65 63 58 64 59 65
REMARK SMILES IDX 63 66 66 67 60 68 61 69 64 70 62 71 6 72 7 73 8 74 9 76
REMARK SMILES IDX 10 77 11 78 26 79 12 80 25 81 13 82 27 83 28 84 29 85 14 86
REMARK SMILES IDX 15 87 24 88 16 89 19 90 17 91 18 92 20 93 21 94 22 95 23 96
REMARK H PARENT 3 6 86 24 54 35 7 75
REMARK Flexibility Score: inf
ROOT
ATOM      1  C   UNL A   1      35.576  22.365  24.685  1.00  0.00     0.042 C 
ENDROOT
BRANCH   1   2
ATOM      2  C   UNL A   1      36.626  22.596  25.763  1.00  0.00     0.118 C 
BRANCH   2   3
ATOM      3  N   UNL A   1      37.638  21.550  25.821  1.00  0.00    -0.352 N 
ATOM      4  O   UNL A   1      39.689  20.632  26.001  1.00  0.00    -0.269 OA
ATOM      5  C   UNL A   1      38.973  21.614  26.150  1.00  0.00     0.251 C 
ATOM      6  H   UNL A   1      37.315  20.651  25.586  1.00  0.00     0.163 HD
BRANCH   5   7
ATOM      7  C   UNL A   1      39.557  22.879  26.646  1.00  0.00     0.039 A 
ATOM      8  C   UNL A   1      39.132  24.108  26.145  1.00  0.00     0.014 A 
ATOM      9  C   UNL A   1      40.552  22.831  27.627  1.00  0.00     0.014 A 
ATOM     10  C   UNL A   1      39.839  25.260  26.460  1.00  0.00     0.010 A 
ATOM     11  C   UNL A   1      41.183  24.010  28.034  1.00  0.00     0.010 A 
ATOM     12  C   UNL A   1      40.869  25.228  27.413  1.00  0.00    -0.014 A 
BRANCH  12  13
ATOM     13  C   UNL A   1      41.575  26.490  27.757  1.00  0.00     0.031 A 
ATOM     14  C   UNL A   1      42.965  26.766  27.253  1.00  0.00     0.074 A 
ATOM     15  C   UNL A   1      40.928  27.416  28.491  1.00  0.00     0.049 A 
ATOM     16  N   UNL A   1      43.710  27.830  27.427  1.00  0.00    -0.248 NA
ATOM     17  C   UNL A   1      43.611  25.710  26.459  1.00  0.00     0.031 C 
ATOM     18  C   UNL A   1      39.579  27.257  29.040  1.00  0.00     0.029 A 
ATOM     19  N   UNL A   1      41.296  28.678  28.873  1.00  0.00    -0.354 N 
ATOM     20  C   UNL A   1      44.918  27.559  26.797  1.00  0.00     0.074 A 
ATOM     21  C   UNL A   1      44.816  26.222  26.252  1.00  0.00     0.031 C 
ATOM     22  C   UNL A   1      39.207  28.403  29.627  1.00  0.00     0.029 A 
ATOM     23  C   UNL A   1      40.314  29.350  29.559  1.00  0.00     0.049 A 
ATOM     24  H   UNL A   1      42.178  29.067  28.676  1.00  0.00     0.167 HD
ATOM     25  C   UNL A   1      46.009  28.354  26.682  1.00  0.00     0.037 A 
ATOM     26  C   UNL A   1      40.305  30.588  30.083  1.00  0.00     0.037 A 
ATOM     27  C   UNL A   1      46.092  29.697  27.199  1.00  0.00     0.049 A 
ATOM     28  C   UNL A   1      41.527  31.447  29.942  1.00  0.00     0.074 A 
ATOM     29  C   UNL A   1      47.136  30.600  27.096  1.00  0.00     0.029 A 
ATOM     30  N   UNL A   1      45.089  30.330  27.920  1.00  0.00    -0.354 N 
ATOM     31  N   UNL A   1      42.653  31.187  29.324  1.00  0.00    -0.248 NA
ATOM     32  C   UNL A   1      41.479  32.768  30.580  1.00  0.00     0.031 C 
ATOM     33  C   UNL A   1      46.782  31.762  27.791  1.00  0.00     0.029 A 
ATOM     34  C   UNL A   1      45.497  31.603  28.285  1.00  0.00     0.049 A 
ATOM     35  H   UNL A   1      44.214  29.932  28.139  1.00  0.00     0.167 HD
ATOM     36  C   UNL A   1      43.441  32.317  29.480  1.00  0.00     0.074 A 
ATOM     37  C   UNL A   1      42.657  33.271  30.238  1.00  0.00     0.031 C 
ATOM     38  C   UNL A   1      44.702  32.542  29.036  1.00  0.00     0.037 A 
BRANCH  25  39
ATOM     39  C   UNL A   1      47.215  27.786  25.992  1.00  0.00     0.064 A 
ATOM     40  C   UNL A   1      47.362  27.830  24.597  1.00  0.00     0.173 A 
ATOM     41  C   UNL A   1      48.254  27.212  26.741  1.00  0.00     0.173 A 
ATOM     42  F   UNL A   1      46.394  28.356  23.832  1.00  0.00    -0.203 F 
ATOM     43  C   UNL A   1      48.489  27.295  23.978  1.00  0.00     0.198 A 
ATOM     44  C   UNL A   1      49.392  26.702  26.121  1.00  0.00     0.198 A 
ATOM     45  F   UNL A   1      48.168  27.148  28.079  1.00  0.00    -0.203 F 
ATOM     46  F   UNL A   1      48.585  27.303  22.641  1.00  0.00    -0.200 F 
ATOM     47  C   UNL A   1      49.505  26.736  24.739  1.00  0.00     0.200 A 
ATOM     48  F   UNL A   1      50.377  26.174  26.860  1.00  0.00    -0.200 F 
ATOM     49  F   UNL A   1      50.589  26.223  24.142  1.00  0.00    -0.200 F 
ENDBRANCH  25  39
BRANCH  26  50
ATOM     50  C   UNL A   1      39.087  31.084  30.771  1.00  0.00     0.064 A 
ATOM     51  C   UNL A   1      38.144  31.864  30.090  1.00  0.00     0.173 A 
ATOM     52  C   UNL A   1      38.823  30.758  32.111  1.00  0.00     0.173 A 
ATOM     53  F   UNL A   1      38.362  32.215  28.813  1.00  0.00    -0.203 F 
ATOM     54  C   UNL A   1      36.985  32.306  30.722  1.00  0.00     0.198 A 
ATOM     55  C   UNL A   1      37.650  31.177  32.733  1.00  0.00     0.198 A 
ATOM     56  F   UNL A   1      39.693  30.008  32.803  1.00  0.00    -0.203 F 
ATOM     57  F   UNL A   1      36.112  33.075  30.058  1.00  0.00    -0.200 F 
ATOM     58  C   UNL A   1      36.735  31.954  32.041  1.00  0.00     0.200 A 
ATOM     59  F   UNL A   1      37.404  30.819  34.001  1.00  0.00    -0.200 F 
ATOM     60  F   UNL A   1      35.612  32.366  32.645  1.00  0.00    -0.200 F 
ENDBRANCH  26  50
BRANCH  38  61
ATOM     61  C   UNL A   1      45.296  33.887  29.332  1.00  0.00     0.064 A 
ATOM     62  C   UNL A   1      45.127  34.974  28.463  1.00  0.00     0.173 A 
ATOM     63  C   UNL A   1      46.027  34.093  30.511  1.00  0.00     0.173 A 
ATOM     64  F   UNL A   1      44.451  34.820  27.314  1.00  0.00    -0.203 F 
ATOM     65  C   UNL A   1      45.693  36.213  28.750  1.00  0.00     0.198 A 
ATOM     66  C   UNL A   1      46.568  35.341  30.808  1.00  0.00     0.198 A 
ATOM     67  F   UNL A   1      46.214  33.086  31.377  1.00  0.00    -0.203 F 
ATOM     68  F   UNL A   1      45.562  37.225  27.880  1.00  0.00    -0.200 F 
ATOM     69  C   UNL A   1      46.407  36.397  29.925  1.00  0.00     0.200 A 
ATOM     70  F   UNL A   1      47.251  35.520  31.948  1.00  0.00    -0.200 F 
ATOM     71  F   UNL A   1      46.950  37.591  30.198  1.00  0.00    -0.200 F 
ENDBRANCH  38  61
ENDBRANCH  12  13
ENDBRANCH   5   7
ENDBRANCH   2   3
ENDBRANCH   1   2
BRANCH   1  72
ATOM     72  C   UNL A   1      34.316  21.676  25.181  1.00  0.00     0.118 C 
BRANCH  72  73
ATOM     73  N   UNL A   1      33.241  21.702  24.199  1.00  0.00    -0.352 N 
ATOM     74  C   UNL A   1      32.342  22.684  23.892  1.00  0.00     0.258 C 
ATOM     75  H   UNL A   1      33.147  20.877  23.671  1.00  0.00     0.163 HD
ATOM     76  O   UNL A   1      31.408  22.452  23.130  1.00  0.00    -0.269 OA
BRANCH  74  77
ATOM     77  C   UNL A   1      32.448  24.015  24.507  1.00  0.00     0.117 A 
ATOM     78  C   UNL A   1      33.114  25.007  23.779  1.00  0.00     0.022 A 
ATOM     79  C   UNL A   1      31.967  24.325  25.776  1.00  0.00     0.282 A 
ATOM     80  C   UNL A   1      33.259  26.293  24.311  1.00  0.00     0.010 A 
ATOM     81  C   UNL A   1      32.076  25.620  26.300  1.00  0.00     0.095 A 
ATOM     82  C   UNL A   1      32.741  26.624  25.577  1.00  0.00    -0.012 A 
BRANCH  79  83
ATOM     83  N   UNL A   1      31.366  23.311  26.618  1.00  0.00     0.063 N 
ATOM     84  O   UNL A   1      32.019  22.952  27.608  1.00  0.00    -0.258 OA
ATOM     85  O   UNL A   1      30.262  22.865  26.286  1.00  0.00    -0.258 OA
ENDBRANCH  79  83
BRANCH  82  86
ATOM     86  C   UNL A   1      32.937  27.964  26.159  1.00  0.00    -0.017 A 
ATOM     87  C   UNL A   1      31.919  28.931  26.149  1.00  0.00     0.012 A 
ATOM     88  C   UNL A   1      34.174  28.315  26.734  1.00  0.00     0.025 A 
ATOM     89  C   UNL A   1      32.133  30.202  26.689  1.00  0.00     0.040 A 
ATOM     90  C   UNL A   1      34.396  29.585  27.290  1.00  0.00     0.092 A 
ATOM     91  C   UNL A   1      33.366  30.517  27.251  1.00  0.00     0.135 A 
ATOM     92  F   UNL A   1      33.552  31.743  27.756  1.00  0.00    -0.206 F 
BRANCH  90  93
ATOM     93  C   UNL A   1      35.713  29.958  27.898  1.00  0.00     0.419 C 
ATOM     94  F   UNL A   1      36.732  29.154  27.487  1.00  0.00    -0.166 F 
ATOM     95  F   UNL A   1      36.091  31.235  27.619  1.00  0.00    -0.166 F 
ATOM     96  F   UNL A   1      35.707  29.872  29.260  1.00  0.00    -0.166 F 
ENDBRANCH  90  93
ENDBRANCH  82  86
ENDBRANCH  74  77
ENDBRANCH  72  73
ENDBRANCH   1  72
TORSDOF 13
ENDMDL
