MODEL 1
REMARK VINA RESULT:     -13.4      0.000      0.000
REMARK SMILES CCC(=O)Nc1cc(NC(=O)/C=C/C(=O)NCCCNC(=O)c2ccc(-c3c4nc(c(-c5c(F)c(F)c(F)c(F)c5F)c5ccc([nH]5)c(-c5c(F)c(F)c(F)c(F)c5F)c5nc(c(-c6c(F)c(F)c(F)c(F)c6F)c6ccc3[nH]6)C=C5)C=C4)cc2)ccc1C
REMARK SMILES IDX 17 1 16 2 14 3 15 4 13 6 12 7 10 8 9 9 11 11 8 12 6 13 7 14
REMARK SMILES IDX 88 15 87 16 89 17 86 18 5 19 3 20 4 21 2 23 1 24 18 25 19 26
REMARK SMILES IDX 20 27 21 28 22 30 23 31 24 32 85 33 25 34 84 35 26 36 27 37
REMARK SMILES IDX 28 38 78 39 29 40 83 41 77 42 79 43 30 44 82 45 76 46 75 47
REMARK SMILES IDX 31 49 63 50 43 51 62 52 44 53 47 54 61 55 80 56 45 57 46 58
REMARK SMILES IDX 60 60 81 61 48 62 32 63 33 64 41 65 34 66 35 67 39 68 42 69
REMARK SMILES IDX 36 70 37 71 40 72 38 73 64 74 65 75 73 76 66 77 67 78 71 79
REMARK SMILES IDX 74 80 68 81 69 82 72 83 70 84 49 85 50 86 58 87 51 88 52 89
REMARK SMILES IDX 56 90 59 91 53 92 54 93 57 94 55 95
REMARK H PARENT 16 5 9 10 5 22 20 29 79 48 47 59
REMARK Flexibility Score: inf
ROOT
ATOM      1  C   UNL A   1      37.281  21.868  25.144  1.00  0.00     0.118 C 
ENDROOT
BRANCH   1   2
ATOM      2  N   UNL A   1      36.325  21.912  26.242  1.00  0.00    -0.352 N 
ATOM      3  C   UNL A   1      35.057  21.423  26.300  1.00  0.00     0.244 C 
ATOM      4  O   UNL A   1      34.355  21.604  27.292  1.00  0.00    -0.270 OA
ATOM      5  H   UNL A   1      36.643  22.359  27.060  1.00  0.00     0.163 HD
BRANCH   3   6
ATOM      6  C   UNL A   1      34.506  20.663  25.160  1.00  0.00     0.077 C 
ATOM      7  C   UNL A   1      33.177  20.571  25.015  1.00  0.00     0.077 C 
BRANCH   7   8
ATOM      8  C   UNL A   1      32.594  20.133  23.739  1.00  0.00     0.248 C 
ATOM      9  N   UNL A   1      32.162  21.061  22.830  1.00  0.00    -0.322 N 
ATOM     10  H   UNL A   1      31.720  20.676  22.039  1.00  0.00     0.170 HD
ATOM     11  O   UNL A   1      32.499  18.930  23.509  1.00  0.00    -0.270 OA
BRANCH   9  12
ATOM     12  C   UNL A   1      32.235  22.471  22.823  1.00  0.00     0.043 A 
ATOM     13  C   UNL A   1      31.571  24.658  23.666  1.00  0.00     0.046 A 
ATOM     14  C   UNL A   1      31.289  23.317  23.399  1.00  0.00     0.052 A 
ATOM     15  C   UNL A   1      32.810  25.189  23.291  1.00  0.00    -0.027 A 
ATOM     16  C   UNL A   1      33.678  24.389  22.526  1.00  0.00     0.008 A 
ATOM     17  C   UNL A   1      33.349  26.491  23.816  1.00  0.00     0.046 C 
ATOM     18  C   UNL A   1      33.392  23.041  22.294  1.00  0.00     0.026 A 
BRANCH  13  19
ATOM     19  N   UNL A   1      30.701  25.315  24.546  1.00  0.00    -0.326 N 
ATOM     20  C   UNL A   1      30.515  25.127  25.885  1.00  0.00     0.224 C 
ATOM     21  O   UNL A   1      29.552  25.662  26.442  1.00  0.00    -0.275 OA
ATOM     22  H   UNL A   1      30.142  26.016  24.138  1.00  0.00     0.169 HD
BRANCH  20  23
ATOM     23  C   UNL A   1      31.568  24.404  26.703  1.00  0.00     0.097 C 
ATOM     24  C   UNL A   1      31.237  22.987  27.113  1.00  0.00     0.014 C 
ENDBRANCH  20  23
ENDBRANCH  13  19
ENDBRANCH   9  12
ENDBRANCH   7   8
ENDBRANCH   3   6
ENDBRANCH   1   2
BRANCH   1  25
ATOM     25  C   UNL A   1      38.706  21.598  25.617  1.00  0.00     0.042 C 
BRANCH  25  26
ATOM     26  C   UNL A   1      39.218  22.689  26.543  1.00  0.00     0.118 C 
BRANCH  26  27
ATOM     27  N   UNL A   1      40.632  22.992  26.358  1.00  0.00    -0.352 N 
ATOM     28  C   UNL A   1      41.273  24.216  26.385  1.00  0.00     0.251 C 
ATOM     29  H   UNL A   1      41.213  22.213  26.190  1.00  0.00     0.163 HD
ATOM     30  O   UNL A   1      42.470  24.299  26.161  1.00  0.00    -0.269 OA
BRANCH  28  31
ATOM     31  C   UNL A   1      40.511  25.405  26.826  1.00  0.00     0.039 A 
ATOM     32  C   UNL A   1      40.835  26.634  26.241  1.00  0.00     0.014 A 
ATOM     33  C   UNL A   1      39.678  25.346  27.942  1.00  0.00     0.014 A 
ATOM     34  C   UNL A   1      40.527  27.809  26.920  1.00  0.00     0.010 A 
ATOM     35  C   UNL A   1      39.454  26.501  28.663  1.00  0.00     0.010 A 
ATOM     36  C   UNL A   1      39.939  27.721  28.184  1.00  0.00    -0.014 A 
BRANCH  36  37
ATOM     37  C   UNL A   1      39.899  28.848  29.105  1.00  0.00     0.031 A 
ATOM     38  C   UNL A   1      38.851  29.876  28.975  1.00  0.00     0.074 A 
ATOM     39  C   UNL A   1      40.822  28.935  30.087  1.00  0.00     0.049 A 
ATOM     40  N   UNL A   1      39.010  31.117  29.292  1.00  0.00    -0.248 NA
ATOM     41  C   UNL A   1      37.534  29.580  28.426  1.00  0.00     0.031 C 
ATOM     42  C   UNL A   1      40.838  29.870  31.210  1.00  0.00     0.029 A 
ATOM     43  N   UNL A   1      42.070  28.290  30.150  1.00  0.00    -0.354 N 
ATOM     44  C   UNL A   1      37.775  31.724  29.231  1.00  0.00     0.074 A 
ATOM     45  C   UNL A   1      36.903  30.740  28.631  1.00  0.00     0.031 C 
ATOM     46  C   UNL A   1      42.096  29.973  31.666  1.00  0.00     0.029 A 
ATOM     47  C   UNL A   1      42.946  29.217  30.760  1.00  0.00     0.049 A 
ATOM     48  H   UNL A   1      42.288  27.383  29.835  1.00  0.00     0.167 HD
ATOM     49  C   UNL A   1      37.594  32.942  29.820  1.00  0.00     0.037 A 
ATOM     50  C   UNL A   1      44.030  29.717  30.101  1.00  0.00     0.037 A 
ATOM     51  C   UNL A   1      38.830  33.425  30.425  1.00  0.00     0.049 A 
ATOM     52  C   UNL A   1      44.030  31.221  29.980  1.00  0.00     0.074 A 
ATOM     53  C   UNL A   1      39.317  33.336  31.718  1.00  0.00     0.029 A 
ATOM     54  N   UNL A   1      39.901  33.804  29.624  1.00  0.00    -0.354 N 
ATOM     55  N   UNL A   1      42.959  31.955  30.086  1.00  0.00    -0.248 NA
ATOM     56  C   UNL A   1      45.222  32.003  29.664  1.00  0.00     0.031 C 
ATOM     57  C   UNL A   1      40.704  33.612  31.686  1.00  0.00     0.029 A 
ATOM     58  C   UNL A   1      41.056  33.890  30.377  1.00  0.00     0.049 A 
ATOM     59  H   UNL A   1      39.844  33.985  28.657  1.00  0.00     0.167 HD
ATOM     60  C   UNL A   1      43.279  33.259  29.812  1.00  0.00     0.074 A 
ATOM     61  C   UNL A   1      44.711  33.244  29.580  1.00  0.00     0.031 C 
ATOM     62  C   UNL A   1      42.330  34.238  29.772  1.00  0.00     0.037 A 
BRANCH  49  63
ATOM     63  C   UNL A   1      36.231  33.522  30.128  1.00  0.00     0.064 A 
ATOM     64  C   UNL A   1      35.416  34.048  29.102  1.00  0.00     0.173 A 
ATOM     65  C   UNL A   1      35.698  33.647  31.424  1.00  0.00     0.173 A 
ATOM     66  F   UNL A   1      35.725  33.888  27.808  1.00  0.00    -0.203 F 
ATOM     67  C   UNL A   1      34.246  34.766  29.364  1.00  0.00     0.198 A 
ATOM     68  C   UNL A   1      34.558  34.413  31.693  1.00  0.00     0.198 A 
ATOM     69  F   UNL A   1      36.238  32.991  32.459  1.00  0.00    -0.203 F 
ATOM     70  F   UNL A   1      33.524  35.257  28.347  1.00  0.00    -0.200 F 
ATOM     71  C   UNL A   1      33.842  34.988  30.664  1.00  0.00     0.200 A 
ATOM     72  F   UNL A   1      34.162  34.593  32.962  1.00  0.00    -0.200 F 
ATOM     73  F   UNL A   1      32.754  35.726  30.920  1.00  0.00    -0.200 F 
ENDBRANCH  49  63
BRANCH  50  74
ATOM     74  C   UNL A   1      44.578  28.802  29.066  1.00  0.00     0.064 A 
ATOM     75  C   UNL A   1      45.351  27.699  29.476  1.00  0.00     0.173 A 
ATOM     76  C   UNL A   1      44.078  28.792  27.758  1.00  0.00     0.173 A 
ATOM     77  F   UNL A   1      45.852  27.657  30.722  1.00  0.00    -0.203 F 
ATOM     78  C   UNL A   1      45.521  26.588  28.655  1.00  0.00     0.198 A 
ATOM     79  C   UNL A   1      44.265  27.682  26.932  1.00  0.00     0.198 A 
ATOM     80  F   UNL A   1      43.321  29.804  27.313  1.00  0.00    -0.203 F 
ATOM     81  F   UNL A   1      46.166  25.507  29.117  1.00  0.00    -0.200 F 
ATOM     82  C   UNL A   1      44.956  26.571  27.391  1.00  0.00     0.200 A 
ATOM     83  F   UNL A   1      43.694  27.654  25.718  1.00  0.00    -0.200 F 
ATOM     84  F   UNL A   1      45.044  25.469  26.632  1.00  0.00    -0.200 F 
ENDBRANCH  50  74
BRANCH  62  85
ATOM     85  C   UNL A   1      42.544  35.634  29.251  1.00  0.00     0.064 A 
ATOM     86  C   UNL A   1      41.944  36.126  28.081  1.00  0.00     0.173 A 
ATOM     87  C   UNL A   1      43.265  36.579  30.017  1.00  0.00     0.173 A 
ATOM     88  F   UNL A   1      41.140  35.356  27.335  1.00  0.00    -0.203 F 
ATOM     89  C   UNL A   1      42.109  37.452  27.670  1.00  0.00     0.198 A 
ATOM     90  C   UNL A   1      43.381  37.914  29.633  1.00  0.00     0.198 A 
ATOM     91  F   UNL A   1      43.856  36.238  31.172  1.00  0.00    -0.203 F 
ATOM     92  F   UNL A   1      41.550  37.864  26.523  1.00  0.00    -0.200 F 
ATOM     93  C   UNL A   1      42.817  38.347  28.450  1.00  0.00     0.200 A 
ATOM     94  F   UNL A   1      44.027  38.782  30.425  1.00  0.00    -0.200 F 
ATOM     95  F   UNL A   1      42.937  39.626  28.073  1.00  0.00    -0.200 F 
ENDBRANCH  62  85
ENDBRANCH  36  37
ENDBRANCH  28  31
ENDBRANCH  26  27
ENDBRANCH  25  26
ENDBRANCH   1  25
TORSDOF 14
ENDMDL
MODEL 2
REMARK VINA RESULT:     -13.3      3.834     10.106
REMARK SMILES CCC(=O)Nc1cc(NC(=O)/C=C/C(=O)NCCCNC(=O)c2ccc(-c3c4nc(c(-c5c(F)c(F)c(F)c(F)c5F)c5ccc([nH]5)c(-c5c(F)c(F)c(F)c(F)c5F)c5nc(c(-c6c(F)c(F)c(F)c(F)c6F)c6ccc3[nH]6)C=C5)C=C4)cc2)ccc1C
REMARK SMILES IDX 17 1 16 2 14 3 15 4 13 6 12 7 10 8 9 9 11 11 8 12 6 13 7 14
REMARK SMILES IDX 88 15 87 16 89 17 86 18 5 19 3 20 4 21 2 23 1 24 18 25 19 26
REMARK SMILES IDX 20 27 21 28 22 30 23 31 24 32 85 33 25 34 84 35 26 36 27 37
REMARK SMILES IDX 28 38 78 39 29 40 83 41 77 42 79 43 30 44 82 45 76 46 75 47
REMARK SMILES IDX 31 49 63 50 43 51 62 52 44 53 47 54 61 55 80 56 45 57 46 58
REMARK SMILES IDX 60 60 81 61 48 62 32 63 33 64 41 65 34 66 35 67 39 68 42 69
REMARK SMILES IDX 36 70 37 71 40 72 38 73 64 74 65 75 73 76 66 77 67 78 71 79
REMARK SMILES IDX 74 80 68 81 69 82 72 83 70 84 49 85 50 86 58 87 51 88 52 89
REMARK SMILES IDX 56 90 59 91 53 92 54 93 57 94 55 95
REMARK H PARENT 16 5 9 10 5 22 20 29 79 48 47 59
REMARK Flexibility Score: inf
ROOT
ATOM      1  C   UNL A   1      32.399  29.717  25.975  1.00  0.00     0.118 C 
ENDROOT
BRANCH   1   2
ATOM      2  N   UNL A   1      32.900  29.596  24.613  1.00  0.00    -0.352 N 
ATOM      3  C   UNL A   1      32.322  29.004  23.533  1.00  0.00     0.244 C 
ATOM      4  O   UNL A   1      32.916  28.931  22.459  1.00  0.00    -0.270 OA
ATOM      5  H   UNL A   1      33.783  30.001  24.450  1.00  0.00     0.163 HD
BRANCH   3   6
ATOM      6  C   UNL A   1      30.964  28.435  23.640  1.00  0.00     0.077 C 
ATOM      7  C   UNL A   1      30.807  27.104  23.621  1.00  0.00     0.077 C 
BRANCH   7   8
ATOM      8  C   UNL A   1      29.545  26.495  24.063  1.00  0.00     0.248 C 
ATOM      9  N   UNL A   1      29.563  25.455  24.952  1.00  0.00    -0.322 N 
ATOM     10  H   UNL A   1      28.679  25.063  25.134  1.00  0.00     0.170 HD
ATOM     11  O   UNL A   1      28.485  26.929  23.619  1.00  0.00    -0.270 OA
BRANCH   9  12
ATOM     12  C   UNL A   1      30.623  24.841  25.657  1.00  0.00     0.043 A 
ATOM     13  C   UNL A   1      31.956  22.892  26.255  1.00  0.00     0.046 A 
ATOM     14  C   UNL A   1      30.745  23.469  25.866  1.00  0.00     0.052 A 
ATOM     15  C   UNL A   1      33.061  23.714  26.504  1.00  0.00    -0.027 A 
ATOM     16  C   UNL A   1      32.876  25.107  26.493  1.00  0.00     0.008 A 
ATOM     17  C   UNL A   1      34.473  23.202  26.594  1.00  0.00     0.046 C 
ATOM     18  C   UNL A   1      31.666  25.666  26.073  1.00  0.00     0.026 A 
BRANCH  13  19
ATOM     19  N   UNL A   1      32.063  21.504  26.099  1.00  0.00    -0.326 N 
ATOM     20  C   UNL A   1      32.304  20.772  24.972  1.00  0.00     0.224 C 
ATOM     21  O   UNL A   1      32.155  19.548  25.004  1.00  0.00    -0.275 OA
ATOM     22  H   UNL A   1      31.950  20.979  26.925  1.00  0.00     0.169 HD
BRANCH  20  23
ATOM     23  C   UNL A   1      32.900  21.439  23.747  1.00  0.00     0.097 C 
ATOM     24  C   UNL A   1      32.152  21.242  22.449  1.00  0.00     0.014 C 
ENDBRANCH  20  23
ENDBRANCH  13  19
ENDBRANCH   9  12
ENDBRANCH   7   8
ENDBRANCH   3   6
ENDBRANCH   1   2
BRANCH   1  25
ATOM     25  C   UNL A   1      33.160  30.761  26.788  1.00  0.00     0.042 C 
BRANCH  25  26
ATOM     26  C   UNL A   1      34.260  30.137  27.631  1.00  0.00     0.118 C 
BRANCH  26  27
ATOM     27  N   UNL A   1      34.790  31.035  28.651  1.00  0.00    -0.352 N 
ATOM     28  C   UNL A   1      35.946  30.918  29.400  1.00  0.00     0.251 C 
ATOM     29  H   UNL A   1      34.248  31.838  28.830  1.00  0.00     0.163 HD
ATOM     30  O   UNL A   1      36.221  31.744  30.255  1.00  0.00    -0.269 OA
BRANCH  28  31
ATOM     31  C   UNL A   1      36.911  29.851  29.053  1.00  0.00     0.039 A 
ATOM     32  C   UNL A   1      37.269  28.951  30.062  1.00  0.00     0.014 A 
ATOM     33  C   UNL A   1      37.613  29.888  27.850  1.00  0.00     0.014 A 
ATOM     34  C   UNL A   1      38.475  28.265  29.960  1.00  0.00     0.010 A 
ATOM     35  C   UNL A   1      38.852  29.283  27.787  1.00  0.00     0.010 A 
ATOM     36  C   UNL A   1      39.309  28.529  28.871  1.00  0.00    -0.014 A 
BRANCH  36  37
ATOM     37  C   UNL A   1      40.711  28.138  28.852  1.00  0.00     0.031 A 
ATOM     38  C   UNL A   1      41.110  26.826  28.310  1.00  0.00     0.074 A 
ATOM     39  C   UNL A   1      41.645  28.995  29.320  1.00  0.00     0.049 A 
ATOM     40  N   UNL A   1      42.128  26.150  28.724  1.00  0.00    -0.248 NA
ATOM     41  C   UNL A   1      40.346  26.149  27.271  1.00  0.00     0.031 C 
ATOM     42  C   UNL A   1      43.097  28.870  29.214  1.00  0.00     0.029 A 
ATOM     43  N   UNL A   1      41.449  30.088  30.182  1.00  0.00    -0.354 N 
ATOM     44  C   UNL A   1      42.304  25.092  27.861  1.00  0.00     0.074 A 
ATOM     45  C   UNL A   1      41.135  25.103  27.011  1.00  0.00     0.031 C 
ATOM     46  C   UNL A   1      43.664  29.615  30.175  1.00  0.00     0.029 A 
ATOM     47  C   UNL A   1      42.592  30.126  31.014  1.00  0.00     0.049 A 
ATOM     48  H   UNL A   1      40.678  30.700  30.202  1.00  0.00     0.167 HD
ATOM     49  C   UNL A   1      43.483  24.405  27.870  1.00  0.00     0.037 A 
ATOM     50  C   UNL A   1      42.500  29.951  32.363  1.00  0.00     0.037 A 
ATOM     51  C   UNL A   1      44.396  24.935  28.878  1.00  0.00     0.049 A 
ATOM     52  C   UNL A   1      43.314  28.792  32.884  1.00  0.00     0.074 A 
ATOM     53  C   UNL A   1      45.418  25.866  28.795  1.00  0.00     0.029 A 
ATOM     54  N   UNL A   1      44.117  24.772  30.230  1.00  0.00    -0.354 N 
ATOM     55  N   UNL A   1      43.717  27.799  32.143  1.00  0.00    -0.248 NA
ATOM     56  C   UNL A   1      43.675  28.630  34.289  1.00  0.00     0.031 C 
ATOM     57  C   UNL A   1      45.719  26.306  30.105  1.00  0.00     0.029 A 
ATOM     58  C   UNL A   1      44.896  25.627  30.987  1.00  0.00     0.049 A 
ATOM     59  H   UNL A   1      43.458  24.138  30.597  1.00  0.00     0.167 HD
ATOM     60  C   UNL A   1      44.327  26.864  32.937  1.00  0.00     0.074 A 
ATOM     61  C   UNL A   1      44.301  27.440  34.267  1.00  0.00     0.031 C 
ATOM     62  C   UNL A   1      44.778  25.679  32.433  1.00  0.00     0.037 A 
BRANCH  49  63
ATOM     63  C   UNL A   1      43.919  23.486  26.750  1.00  0.00     0.064 A 
ATOM     64  C   UNL A   1      43.403  22.177  26.641  1.00  0.00     0.173 A 
ATOM     65  C   UNL A   1      44.893  23.816  25.789  1.00  0.00     0.173 A 
ATOM     66  F   UNL A   1      42.380  21.760  27.399  1.00  0.00    -0.203 F 
ATOM     67  C   UNL A   1      43.921  21.236  25.747  1.00  0.00     0.198 A 
ATOM     68  C   UNL A   1      45.452  22.861  24.932  1.00  0.00     0.198 A 
ATOM     69  F   UNL A   1      45.295  25.082  25.619  1.00  0.00    -0.203 F 
ATOM     70  F   UNL A   1      43.399  20.002  25.703  1.00  0.00    -0.200 F 
ATOM     71  C   UNL A   1      44.977  21.565  24.924  1.00  0.00     0.200 A 
ATOM     72  F   UNL A   1      46.458  23.207  24.116  1.00  0.00    -0.200 F 
ATOM     73  F   UNL A   1      45.514  20.648  24.109  1.00  0.00    -0.200 F 
ENDBRANCH  49  63
BRANCH  50  74
ATOM     74  C   UNL A   1      41.194  30.370  32.936  1.00  0.00     0.064 A 
ATOM     75  C   UNL A   1      40.891  31.744  32.996  1.00  0.00     0.173 A 
ATOM     76  C   UNL A   1      40.137  29.466  33.091  1.00  0.00     0.173 A 
ATOM     77  F   UNL A   1      41.867  32.655  32.850  1.00  0.00    -0.203 F 
ATOM     78  C   UNL A   1      39.576  32.191  33.093  1.00  0.00     0.198 A 
ATOM     79  C   UNL A   1      38.821  29.919  33.204  1.00  0.00     0.198 A 
ATOM     80  F   UNL A   1      40.358  28.146  33.026  1.00  0.00    -0.203 F 
ATOM     81  F   UNL A   1      39.310  33.504  33.033  1.00  0.00    -0.200 F 
ATOM     82  C   UNL A   1      38.539  31.277  33.172  1.00  0.00     0.200 A 
ATOM     83  F   UNL A   1      37.815  29.034  33.253  1.00  0.00    -0.200 F 
ATOM     84  F   UNL A   1      37.268  31.702  33.177  1.00  0.00    -0.200 F 
ENDBRANCH  50  74
BRANCH  62  85
ATOM     85  C   UNL A   1      45.236  24.504  33.255  1.00  0.00     0.064 A 
ATOM     86  C   UNL A   1      44.456  23.357  33.472  1.00  0.00     0.173 A 
ATOM     87  C   UNL A   1      46.564  24.446  33.738  1.00  0.00     0.173 A 
ATOM     88  F   UNL A   1      43.222  23.248  32.960  1.00  0.00    -0.203 F 
ATOM     89  C   UNL A   1      44.945  22.256  34.180  1.00  0.00     0.198 A 
ATOM     90  C   UNL A   1      47.066  23.324  34.395  1.00  0.00     0.198 A 
ATOM     91  F   UNL A   1      47.417  25.466  33.564  1.00  0.00    -0.203 F 
ATOM     92  F   UNL A   1      44.149  21.200  34.397  1.00  0.00    -0.200 F 
ATOM     93  C   UNL A   1      46.252  22.235  34.632  1.00  0.00     0.200 A 
ATOM     94  F   UNL A   1      48.350  23.297  34.782  1.00  0.00    -0.200 F 
ATOM     95  F   UNL A   1      46.730  21.161  35.273  1.00  0.00    -0.200 F 
ENDBRANCH  62  85
ENDBRANCH  36  37
ENDBRANCH  28  31
ENDBRANCH  26  27
ENDBRANCH  25  26
ENDBRANCH   1  25
TORSDOF 14
ENDMDL
MODEL 3
REMARK VINA RESULT:     -13.3      3.609      9.850
REMARK SMILES CCC(=O)Nc1cc(NC(=O)/C=C/C(=O)NCCCNC(=O)c2ccc(-c3c4nc(c(-c5c(F)c(F)c(F)c(F)c5F)c5ccc([nH]5)c(-c5c(F)c(F)c(F)c(F)c5F)c5nc(c(-c6c(F)c(F)c(F)c(F)c6F)c6ccc3[nH]6)C=C5)C=C4)cc2)ccc1C
REMARK SMILES IDX 17 1 16 2 14 3 15 4 13 6 12 7 10 8 9 9 11 11 8 12 6 13 7 14
REMARK SMILES IDX 88 15 87 16 89 17 86 18 5 19 3 20 4 21 2 23 1 24 18 25 19 26
REMARK SMILES IDX 20 27 21 28 22 30 23 31 24 32 85 33 25 34 84 35 26 36 27 37
REMARK SMILES IDX 28 38 78 39 29 40 83 41 77 42 79 43 30 44 82 45 76 46 75 47
REMARK SMILES IDX 31 49 63 50 43 51 62 52 44 53 47 54 61 55 80 56 45 57 46 58
REMARK SMILES IDX 60 60 81 61 48 62 32 63 33 64 41 65 34 66 35 67 39 68 42 69
REMARK SMILES IDX 36 70 37 71 40 72 38 73 64 74 65 75 73 76 66 77 67 78 71 79
REMARK SMILES IDX 74 80 68 81 69 82 72 83 70 84 49 85 50 86 58 87 51 88 52 89
REMARK SMILES IDX 56 90 59 91 53 92 54 93 57 94 55 95
REMARK H PARENT 16 5 9 10 5 22 20 29 79 48 47 59
REMARK Flexibility Score: inf
ROOT
ATOM      1  C   UNL A   1      31.902  29.397  25.915  1.00  0.00     0.118 C 
ENDROOT
BRANCH   1   2
ATOM      2  N   UNL A   1      31.520  28.206  26.660  1.00  0.00    -0.352 N 
ATOM      3  C   UNL A   1      31.432  26.916  26.235  1.00  0.00     0.244 C 
ATOM      4  O   UNL A   1      31.025  26.030  26.984  1.00  0.00    -0.270 OA
ATOM      5  H   UNL A   1      31.294  28.355  27.607  1.00  0.00     0.163 HD
BRANCH   3   6
ATOM      6  C   UNL A   1      31.825  26.564  24.856  1.00  0.00     0.077 C 
ATOM      7  C   UNL A   1      32.281  25.330  24.599  1.00  0.00     0.077 C 
BRANCH   7   8
ATOM      8  C   UNL A   1      32.354  24.835  23.217  1.00  0.00     0.248 C 
ATOM      9  N   UNL A   1      33.172  23.779  22.913  1.00  0.00    -0.322 N 
ATOM     10  H   UNL A   1      33.213  23.564  21.954  1.00  0.00     0.170 HD
ATOM     11  O   UNL A   1      31.681  25.383  22.350  1.00  0.00    -0.270 OA
BRANCH   9  12
ATOM     12  C   UNL A   1      33.966  22.943  23.728  1.00  0.00     0.043 A 
ATOM     13  C   UNL A   1      34.278  20.955  25.101  1.00  0.00     0.046 A 
ATOM     14  C   UNL A   1      33.465  21.969  24.590  1.00  0.00     0.052 A 
ATOM     15  C   UNL A   1      35.644  20.947  24.795  1.00  0.00    -0.027 A 
ATOM     16  C   UNL A   1      36.180  22.044  24.098  1.00  0.00     0.008 A 
ATOM     17  C   UNL A   1      36.533  19.751  24.998  1.00  0.00     0.046 C 
ATOM     18  C   UNL A   1      35.348  23.034  23.569  1.00  0.00     0.026 A 
BRANCH  13  19
ATOM     19  N   UNL A   1      33.621  19.852  25.660  1.00  0.00    -0.326 N 
ATOM     20  C   UNL A   1      32.957  18.831  25.042  1.00  0.00     0.224 C 
ATOM     21  O   UNL A   1      32.266  18.064  25.717  1.00  0.00    -0.275 OA
ATOM     22  H   UNL A   1      33.641  19.805  26.643  1.00  0.00     0.169 HD
BRANCH  20  23
ATOM     23  C   UNL A   1      33.198  18.551  23.571  1.00  0.00     0.097 C 
ATOM     24  C   UNL A   1      34.006  17.315  23.250  1.00  0.00     0.014 C 
ENDBRANCH  20  23
ENDBRANCH  13  19
ENDBRANCH   9  12
ENDBRANCH   7   8
ENDBRANCH   3   6
ENDBRANCH   1   2
BRANCH   1  25
ATOM     25  C   UNL A   1      32.394  30.522  26.821  1.00  0.00     0.042 C 
BRANCH  25  26
ATOM     26  C   UNL A   1      33.842  30.326  27.242  1.00  0.00     0.118 C 
BRANCH  26  27
ATOM     27  N   UNL A   1      34.269  31.237  28.297  1.00  0.00    -0.352 N 
ATOM     28  C   UNL A   1      35.359  31.145  29.141  1.00  0.00     0.251 C 
ATOM     29  H   UNL A   1      33.700  32.032  28.424  1.00  0.00     0.163 HD
ATOM     30  O   UNL A   1      35.547  31.979  30.011  1.00  0.00    -0.269 OA
BRANCH  28  31
ATOM     31  C   UNL A   1      36.368  30.093  28.884  1.00  0.00     0.039 A 
ATOM     32  C   UNL A   1      36.780  29.313  29.969  1.00  0.00     0.014 A 
ATOM     33  C   UNL A   1      37.051  30.042  27.670  1.00  0.00     0.014 A 
ATOM     34  C   UNL A   1      38.015  28.675  29.914  1.00  0.00     0.010 A 
ATOM     35  C   UNL A   1      38.316  29.489  27.645  1.00  0.00     0.010 A 
ATOM     36  C   UNL A   1      38.821  28.867  28.790  1.00  0.00    -0.014 A 
BRANCH  36  37
ATOM     37  C   UNL A   1      40.240  28.539  28.783  1.00  0.00     0.031 A 
ATOM     38  C   UNL A   1      40.699  27.235  28.274  1.00  0.00     0.074 A 
ATOM     39  C   UNL A   1      41.133  29.447  29.235  1.00  0.00     0.049 A 
ATOM     40  N   UNL A   1      41.745  26.615  28.707  1.00  0.00    -0.248 NA
ATOM     41  C   UNL A   1      39.971  26.501  27.248  1.00  0.00     0.031 C 
ATOM     42  C   UNL A   1      42.589  29.386  29.136  1.00  0.00     0.029 A 
ATOM     43  N   UNL A   1      40.884  30.551  30.071  1.00  0.00    -0.354 N 
ATOM     44  C   UNL A   1      41.972  25.546  27.869  1.00  0.00     0.074 A 
ATOM     45  C   UNL A   1      40.807  25.485  27.015  1.00  0.00     0.031 C 
ATOM     46  C   UNL A   1      43.118  30.177  30.082  1.00  0.00     0.029 A 
ATOM     47  C   UNL A   1      42.020  30.658  30.905  1.00  0.00     0.049 A 
ATOM     48  H   UNL A   1      40.086  31.127  30.074  1.00  0.00     0.167 HD
ATOM     49  C   UNL A   1      43.181  24.913  27.897  1.00  0.00     0.037 A 
ATOM     50  C   UNL A   1      41.931  30.510  32.258  1.00  0.00     0.037 A 
ATOM     51  C   UNL A   1      44.064  25.506  28.896  1.00  0.00     0.049 A 
ATOM     52  C   UNL A   1      42.794  29.401  32.808  1.00  0.00     0.074 A 
ATOM     53  C   UNL A   1      45.044  26.480  28.795  1.00  0.00     0.029 A 
ATOM     54  N   UNL A   1      43.787  25.362  30.250  1.00  0.00    -0.354 N 
ATOM     55  N   UNL A   1      43.244  28.411  32.092  1.00  0.00    -0.248 NA
ATOM     56  C   UNL A   1      43.156  29.287  34.218  1.00  0.00     0.031 C 
ATOM     57  C   UNL A   1      45.320  26.962  30.095  1.00  0.00     0.029 A 
ATOM     58  C   UNL A   1      44.524  26.267  30.989  1.00  0.00     0.049 A 
ATOM     59  H   UNL A   1      43.156  24.707  30.629  1.00  0.00     0.167 HD
ATOM     60  C   UNL A   1      43.891  27.523  32.908  1.00  0.00     0.074 A 
ATOM     61  C   UNL A   1      43.834  28.127  34.226  1.00  0.00     0.031 C 
ATOM     62  C   UNL A   1      44.397  26.347  32.434  1.00  0.00     0.037 A 
BRANCH  49  63
ATOM     63  C   UNL A   1      43.662  23.989  26.799  1.00  0.00     0.064 A 
ATOM     64  C   UNL A   1      43.187  22.663  26.705  1.00  0.00     0.173 A 
ATOM     65  C   UNL A   1      44.641  24.332  25.849  1.00  0.00     0.173 A 
ATOM     66  F   UNL A   1      42.165  22.228  27.454  1.00  0.00    -0.203 F 
ATOM     67  C   UNL A   1      43.748  21.724  25.836  1.00  0.00     0.198 A 
ATOM     68  C   UNL A   1      45.242  23.381  25.017  1.00  0.00     0.198 A 
ATOM     69  F   UNL A   1      45.007  25.608  25.663  1.00  0.00    -0.203 F 
ATOM     70  F   UNL A   1      43.264  20.474  25.805  1.00  0.00    -0.200 F 
ATOM     71  C   UNL A   1      44.807  22.071  25.024  1.00  0.00     0.200 A 
ATOM     72  F   UNL A   1      46.250  23.744  24.211  1.00  0.00    -0.200 F 
ATOM     73  F   UNL A   1      45.384  21.157  24.233  1.00  0.00    -0.200 F 
ENDBRANCH  49  63
BRANCH  50  74
ATOM     74  C   UNL A   1      40.605  30.883  32.817  1.00  0.00     0.064 A 
ATOM     75  C   UNL A   1      40.215  32.236  32.790  1.00  0.00     0.173 A 
ATOM     76  C   UNL A   1      39.609  29.927  33.043  1.00  0.00     0.173 A 
ATOM     77  F   UNL A   1      41.130  33.195  32.573  1.00  0.00    -0.203 F 
ATOM     78  C   UNL A   1      38.875  32.605  32.872  1.00  0.00     0.198 A 
ATOM     79  C   UNL A   1      38.267  30.302  33.141  1.00  0.00     0.198 A 
ATOM     80  F   UNL A   1      39.913  28.622  33.064  1.00  0.00    -0.203 F 
ATOM     81  F   UNL A   1      38.526  33.892  32.728  1.00  0.00    -0.200 F 
ATOM     82  C   UNL A   1      37.899  31.635  33.023  1.00  0.00     0.200 A 
ATOM     83  F   UNL A   1      37.320  29.360  33.260  1.00  0.00    -0.200 F 
ATOM     84  F   UNL A   1      36.604  31.978  33.015  1.00  0.00    -0.200 F 
ENDBRANCH  50  74
BRANCH  62  85
ATOM     85  C   UNL A   1      44.904  25.213  33.284  1.00  0.00     0.064 A 
ATOM     86  C   UNL A   1      46.262  24.878  33.400  1.00  0.00     0.173 A 
ATOM     87  C   UNL A   1      44.022  24.510  34.136  1.00  0.00     0.173 A 
ATOM     88  F   UNL A   1      47.206  25.555  32.731  1.00  0.00    -0.203 F 
ATOM     89  C   UNL A   1      46.701  23.865  34.257  1.00  0.00     0.198 A 
ATOM     90  C   UNL A   1      44.469  23.539  35.031  1.00  0.00     0.198 A 
ATOM     91  F   UNL A   1      42.705  24.764  34.142  1.00  0.00    -0.203 F 
ATOM     92  F   UNL A   1      48.004  23.553  34.303  1.00  0.00    -0.200 F 
ATOM     93  C   UNL A   1      45.807  23.204  35.079  1.00  0.00     0.200 A 
ATOM     94  F   UNL A   1      43.598  22.943  35.858  1.00  0.00    -0.200 F 
ATOM     95  F   UNL A   1      46.237  22.263  35.930  1.00  0.00    -0.200 F 
ENDBRANCH  62  85
ENDBRANCH  36  37
ENDBRANCH  28  31
ENDBRANCH  26  27
ENDBRANCH  25  26
ENDBRANCH   1  25
TORSDOF 14
ENDMDL
