MODEL 1
REMARK VINA RESULT:     -12.7      0.000      0.000
REMARK SMILES [NH3+][C@]1(C(=O)NCCCNC(=O)c2ccc(-c3c4nc(c(-c5c(F)c(F)c(F)c(F)c5F)c5ccc([nH]5)c(-c5c(F)c(F)c(F)c(F)c5F)c5nc(c(-c6c(F)c(F)c(F)c(F)c6F)c6ccc3[nH]6)C=C5)C=C4)cc2)CC[C@@H](Sc2ccc(Cl)c(Cl)c2)C1
REMARK SMILES IDX 7 1 6 2 5 3 3 4 4 5 2 7 75 8 87 9 76 10 77 11 1 12 78 16
REMARK SMILES IDX 79 17 80 18 86 19 81 20 84 21 82 22 85 23 83 24 8 25 9 26
REMARK SMILES IDX 10 27 11 29 12 30 13 31 74 32 14 33 73 34 15 35 16 36 17 37
REMARK SMILES IDX 67 38 18 39 72 40 66 41 68 42 19 43 71 44 65 45 64 46 20 48
REMARK SMILES IDX 52 49 32 50 51 51 33 52 36 53 50 54 69 55 34 56 35 57 49 59
REMARK SMILES IDX 70 60 37 61 21 62 22 63 30 64 23 65 24 66 28 67 31 68 25 69
REMARK SMILES IDX 26 70 29 71 27 72 53 73 54 74 62 75 55 76 56 77 60 78 63 79
REMARK SMILES IDX 57 80 58 81 61 82 59 83 38 84 39 85 47 86 40 87 41 88 45 89
REMARK SMILES IDX 48 90 42 91 43 92 46 93 44 94
REMARK H PARENT 5 6 1 13 1 14 1 15 9 28 68 47 36 58
REMARK Flexibility Score: inf
ROOT
ATOM      1  C   UNL A   1      31.517  31.928  26.863  1.00  0.00     0.042 C 
ENDROOT
BRANCH   1   2
ATOM      2  C   UNL A   1      31.759  30.457  26.565  1.00  0.00     0.118 C 
BRANCH   2   3
ATOM      3  N   UNL A   1      32.388  30.235  25.278  1.00  0.00    -0.351 N 
ATOM      4  C   UNL A   1      33.059  29.168  24.768  1.00  0.00     0.281 C 
ATOM      5  O   UNL A   1      33.542  29.326  23.641  1.00  0.00    -0.268 OA
ATOM      6  H   UNL A   1      32.316  30.997  24.659  1.00  0.00     0.163 HD
BRANCH   4   7
ATOM      7  C   UNL A   1      33.319  27.855  25.572  1.00  0.00     0.175 C 
ATOM      8  C   UNL A   1      32.109  27.269  26.314  1.00  0.00     0.080 C 
ATOM      9  C   UNL A   1      33.750  26.719  24.596  1.00  0.00     0.094 C 
ATOM     10  C   UNL A   1      32.270  25.761  26.273  1.00  0.00     0.022 C 
ATOM     11  C   UNL A   1      32.915  25.479  24.929  1.00  0.00     0.058 C 
BRANCH   7  12
ATOM     12  N   UNL A   1      34.411  28.134  26.535  1.00  0.00    -0.345 N 
ATOM     13  H   UNL A   1      34.246  29.035  26.984  1.00  0.00     0.345 HD
ATOM     14  H   UNL A   1      35.303  28.159  26.040  1.00  0.00     0.345 HD
ATOM     15  H   UNL A   1      34.436  27.400  27.243  1.00  0.00     0.345 HD
ENDBRANCH   7  12
BRANCH  11  16
ATOM     16  S   UNL A   1      31.751  24.915  23.615  1.00  0.00    -0.122 SA
BRANCH  16  17
ATOM     17  C   UNL A   1      30.503  26.182  23.512  1.00  0.00     0.009 A 
ATOM     18  C   UNL A   1      29.225  25.927  24.021  1.00  0.00     0.017 A 
ATOM     19  C   UNL A   1      30.725  27.368  22.805  1.00  0.00     0.037 A 
ATOM     20  C   UNL A   1      28.189  26.852  23.844  1.00  0.00     0.023 A 
ATOM     21  C   UNL A   1      29.698  28.306  22.643  1.00  0.00     0.060 A 
ATOM     22  C   UNL A   1      28.424  28.045  23.156  1.00  0.00     0.059 A 
ATOM     23  Cl  UNL A   1      30.066  29.761  21.787  1.00  0.00    -0.083 Cl
ATOM     24  Cl  UNL A   1      27.101  29.136  22.957  1.00  0.00    -0.083 Cl
ENDBRANCH  16  17
ENDBRANCH  11  16
ENDBRANCH   4   7
ENDBRANCH   2   3
ENDBRANCH   1   2
BRANCH   1  25
ATOM     25  C   UNL A   1      32.755  32.670  27.351  1.00  0.00     0.118 C 
BRANCH  25  26
ATOM     26  N   UNL A   1      32.491  34.073  27.650  1.00  0.00    -0.352 N 
ATOM     27  C   UNL A   1      33.031  34.908  28.597  1.00  0.00     0.251 C 
ATOM     28  H   UNL A   1      31.810  34.493  27.077  1.00  0.00     0.163 HD
ATOM     29  O   UNL A   1      32.508  36.000  28.817  1.00  0.00    -0.269 OA
BRANCH  27  30
ATOM     30  C   UNL A   1      34.220  34.500  29.374  1.00  0.00     0.039 A 
ATOM     31  C   UNL A   1      34.043  33.977  30.659  1.00  0.00     0.014 A 
ATOM     32  C   UNL A   1      35.506  34.639  28.849  1.00  0.00     0.014 A 
ATOM     33  C   UNL A   1      35.145  33.498  31.369  1.00  0.00     0.010 A 
ATOM     34  C   UNL A   1      36.590  34.079  29.517  1.00  0.00     0.010 A 
ATOM     35  C   UNL A   1      36.419  33.488  30.778  1.00  0.00    -0.014 A 
BRANCH  35  36
ATOM     36  C   UNL A   1      37.574  32.823  31.431  1.00  0.00     0.031 A 
ATOM     37  C   UNL A   1      38.238  31.640  30.786  1.00  0.00     0.074 A 
ATOM     38  C   UNL A   1      37.959  33.230  32.657  1.00  0.00     0.049 A 
ATOM     39  N   UNL A   1      39.180  30.863  31.254  1.00  0.00    -0.248 NA
ATOM     40  C   UNL A   1      37.760  31.264  29.446  1.00  0.00     0.031 C 
ATOM     41  C   UNL A   1      37.361  34.336  33.406  1.00  0.00     0.029 A 
ATOM     42  N   UNL A   1      38.931  32.748  33.499  1.00  0.00    -0.354 N 
ATOM     43  C   UNL A   1      39.399  29.902  30.277  1.00  0.00     0.074 A 
ATOM     44  C   UNL A   1      38.455  30.162  29.211  1.00  0.00     0.031 C 
ATOM     45  C   UNL A   1      37.988  34.460  34.586  1.00  0.00     0.029 A 
ATOM     46  C   UNL A   1      38.995  33.411  34.701  1.00  0.00     0.049 A 
ATOM     47  H   UNL A   1      39.525  31.999  33.264  1.00  0.00     0.167 HD
ATOM     48  C   UNL A   1      40.317  28.906  30.264  1.00  0.00     0.037 A 
ATOM     49  C   UNL A   1      39.761  33.184  35.785  1.00  0.00     0.037 A 
ATOM     50  C   UNL A   1      41.262  28.665  31.324  1.00  0.00     0.049 A 
ATOM     51  C   UNL A   1      40.745  32.046  35.760  1.00  0.00     0.074 A 
ATOM     52  C   UNL A   1      42.278  27.728  31.375  1.00  0.00     0.029 A 
ATOM     53  N   UNL A   1      41.296  29.356  32.526  1.00  0.00    -0.354 N 
ATOM     54  N   UNL A   1      41.000  31.195  34.797  1.00  0.00    -0.248 NA
ATOM     55  C   UNL A   1      41.546  31.835  36.974  1.00  0.00     0.031 C 
ATOM     56  C   UNL A   1      42.886  27.808  32.631  1.00  0.00     0.029 A 
ATOM     57  C   UNL A   1      42.289  28.837  33.342  1.00  0.00     0.049 A 
ATOM     58  H   UNL A   1      40.703  30.106  32.764  1.00  0.00     0.167 HD
ATOM     59  C   UNL A   1      42.001  30.362  35.278  1.00  0.00     0.074 A 
ATOM     60  C   UNL A   1      42.322  30.823  36.612  1.00  0.00     0.031 C 
ATOM     61  C   UNL A   1      42.595  29.306  34.670  1.00  0.00     0.037 A 
BRANCH  48  62
ATOM     62  C   UNL A   1      40.345  27.997  29.069  1.00  0.00     0.064 A 
ATOM     63  C   UNL A   1      39.596  26.810  29.026  1.00  0.00     0.173 A 
ATOM     64  C   UNL A   1      41.094  28.338  27.933  1.00  0.00     0.173 A 
ATOM     65  F   UNL A   1      38.867  26.432  30.088  1.00  0.00    -0.203 F 
ATOM     66  C   UNL A   1      39.621  25.987  27.904  1.00  0.00     0.198 A 
ATOM     67  C   UNL A   1      41.089  27.530  26.799  1.00  0.00     0.198 A 
ATOM     68  F   UNL A   1      41.822  29.465  27.916  1.00  0.00    -0.203 F 
ATOM     69  F   UNL A   1      38.936  24.834  27.906  1.00  0.00    -0.200 F 
ATOM     70  C   UNL A   1      40.360  26.350  26.788  1.00  0.00     0.200 A 
ATOM     71  F   UNL A   1      41.792  27.891  25.717  1.00  0.00    -0.200 F 
ATOM     72  F   UNL A   1      40.374  25.561  25.705  1.00  0.00    -0.200 F 
ENDBRANCH  48  62
BRANCH  49  73
ATOM     73  C   UNL A   1      39.625  34.051  36.985  1.00  0.00     0.064 A 
ATOM     74  C   UNL A   1      38.818  33.666  38.065  1.00  0.00     0.173 A 
ATOM     75  C   UNL A   1      40.294  35.280  37.079  1.00  0.00     0.173 A 
ATOM     76  F   UNL A   1      38.140  32.509  38.015  1.00  0.00    -0.203 F 
ATOM     77  C   UNL A   1      38.671  34.485  39.184  1.00  0.00     0.198 A 
ATOM     78  C   UNL A   1      40.173  36.083  38.211  1.00  0.00     0.198 A 
ATOM     79  F   UNL A   1      41.082  35.695  36.076  1.00  0.00    -0.203 F 
ATOM     80  F   UNL A   1      37.858  34.113  40.180  1.00  0.00    -0.200 F 
ATOM     81  C   UNL A   1      39.354  35.689  39.259  1.00  0.00     0.200 A 
ATOM     82  F   UNL A   1      40.849  37.237  38.287  1.00  0.00    -0.200 F 
ATOM     83  F   UNL A   1      39.219  36.472  40.337  1.00  0.00    -0.200 F 
ENDBRANCH  49  73
BRANCH  61  84
ATOM     84  C   UNL A   1      43.666  28.582  35.435  1.00  0.00     0.064 A 
ATOM     85  C   UNL A   1      43.359  27.533  36.312  1.00  0.00     0.173 A 
ATOM     86  C   UNL A   1      45.019  28.903  35.242  1.00  0.00     0.173 A 
ATOM     87  F   UNL A   1      42.081  27.199  36.544  1.00  0.00    -0.203 F 
ATOM     88  C   UNL A   1      44.365  26.842  36.981  1.00  0.00     0.198 A 
ATOM     89  C   UNL A   1      46.024  28.189  35.888  1.00  0.00     0.198 A 
ATOM     90  F   UNL A   1      45.367  29.895  34.409  1.00  0.00    -0.203 F 
ATOM     91  F   UNL A   1      44.046  25.870  37.848  1.00  0.00    -0.200 F 
ATOM     92  C   UNL A   1      45.697  27.163  36.761  1.00  0.00     0.200 A 
ATOM     93  F   UNL A   1      47.310  28.490  35.661  1.00  0.00    -0.200 F 
ATOM     94  F   UNL A   1      46.664  26.486  37.395  1.00  0.00    -0.200 F 
ENDBRANCH  61  84
ENDBRANCH  35  36
ENDBRANCH  27  30
ENDBRANCH  25  26
ENDBRANCH   1  25
TORSDOF 13
ENDMDL
MODEL 2
REMARK VINA RESULT:     -12.5      2.120      3.081
REMARK SMILES [NH3+][C@]1(C(=O)NCCCNC(=O)c2ccc(-c3c4nc(c(-c5c(F)c(F)c(F)c(F)c5F)c5ccc([nH]5)c(-c5c(F)c(F)c(F)c(F)c5F)c5nc(c(-c6c(F)c(F)c(F)c(F)c6F)c6ccc3[nH]6)C=C5)C=C4)cc2)CC[C@@H](Sc2ccc(Cl)c(Cl)c2)C1
REMARK SMILES IDX 7 1 6 2 5 3 3 4 4 5 2 7 75 8 87 9 76 10 77 11 1 12 78 16
REMARK SMILES IDX 79 17 80 18 86 19 81 20 84 21 82 22 85 23 83 24 8 25 9 26
REMARK SMILES IDX 10 27 11 29 12 30 13 31 74 32 14 33 73 34 15 35 16 36 17 37
REMARK SMILES IDX 67 38 18 39 72 40 66 41 68 42 19 43 71 44 65 45 64 46 20 48
REMARK SMILES IDX 52 49 32 50 51 51 33 52 36 53 50 54 69 55 34 56 35 57 49 59
REMARK SMILES IDX 70 60 37 61 21 62 22 63 30 64 23 65 24 66 28 67 31 68 25 69
REMARK SMILES IDX 26 70 29 71 27 72 53 73 54 74 62 75 55 76 56 77 60 78 63 79
REMARK SMILES IDX 57 80 58 81 61 82 59 83 38 84 39 85 47 86 40 87 41 88 45 89
REMARK SMILES IDX 48 90 42 91 43 92 46 93 44 94
REMARK H PARENT 5 6 1 13 1 14 1 15 9 28 68 47 36 58
REMARK Flexibility Score: inf
ROOT
ATOM      1  C   UNL A   1      31.519  31.994  26.704  1.00  0.00     0.042 C 
ENDROOT
BRANCH   1   2
ATOM      2  C   UNL A   1      31.726  30.505  26.476  1.00  0.00     0.118 C 
BRANCH   2   3
ATOM      3  N   UNL A   1      31.627  30.126  25.081  1.00  0.00    -0.351 N 
ATOM      4  C   UNL A   1      32.195  29.113  24.374  1.00  0.00     0.281 C 
ATOM      5  O   UNL A   1      31.959  29.106  23.160  1.00  0.00    -0.268 OA
ATOM      6  H   UNL A   1      31.041  30.709  24.547  1.00  0.00     0.163 HD
BRANCH   4   7
ATOM      7  C   UNL A   1      33.179  28.076  25.001  1.00  0.00     0.175 C 
ATOM      8  C   UNL A   1      32.592  27.161  26.086  1.00  0.00     0.080 C 
ATOM      9  C   UNL A   1      33.673  27.089  23.901  1.00  0.00     0.094 C 
ATOM     10  C   UNL A   1      33.294  25.824  25.945  1.00  0.00     0.022 C 
ATOM     11  C   UNL A   1      33.528  25.668  24.455  1.00  0.00     0.058 C 
BRANCH   7  12
ATOM     12  N   UNL A   1      34.329  28.833  25.552  1.00  0.00    -0.345 N 
ATOM     13  H   UNL A   1      34.015  29.404  26.337  1.00  0.00     0.345 HD
ATOM     14  H   UNL A   1      34.718  29.436  24.827  1.00  0.00     0.345 HD
ATOM     15  H   UNL A   1      35.044  28.179  25.871  1.00  0.00     0.345 HD
ENDBRANCH   7  12
BRANCH  11  16
ATOM     16  S   UNL A   1      32.312  24.586  23.587  1.00  0.00    -0.122 SA
BRANCH  16  17
ATOM     17  C   UNL A   1      32.921  22.925  23.797  1.00  0.00     0.009 A 
ATOM     18  C   UNL A   1      32.105  21.846  23.439  1.00  0.00     0.017 A 
ATOM     19  C   UNL A   1      34.134  22.670  24.445  1.00  0.00     0.037 A 
ATOM     20  C   UNL A   1      32.504  20.531  23.707  1.00  0.00     0.023 A 
ATOM     21  C   UNL A   1      34.546  21.356  24.697  1.00  0.00     0.060 A 
ATOM     22  C   UNL A   1      33.726  20.283  24.334  1.00  0.00     0.059 A 
ATOM     23  Cl  UNL A   1      36.074  21.127  25.471  1.00  0.00    -0.083 Cl
ATOM     24  Cl  UNL A   1      34.152  18.640  24.652  1.00  0.00    -0.083 Cl
ENDBRANCH  16  17
ENDBRANCH  11  16
ENDBRANCH   4   7
ENDBRANCH   2   3
ENDBRANCH   1   2
BRANCH   1  25
ATOM     25  C   UNL A   1      32.717  32.693  27.333  1.00  0.00     0.118 C 
BRANCH  25  26
ATOM     26  N   UNL A   1      32.454  34.094  27.646  1.00  0.00    -0.352 N 
ATOM     27  C   UNL A   1      33.005  34.924  28.590  1.00  0.00     0.251 C 
ATOM     28  H   UNL A   1      31.764  34.516  27.085  1.00  0.00     0.163 HD
ATOM     29  O   UNL A   1      32.482  36.012  28.825  1.00  0.00    -0.269 OA
BRANCH  27  30
ATOM     30  C   UNL A   1      34.205  34.514  29.348  1.00  0.00     0.039 A 
ATOM     31  C   UNL A   1      34.049  33.998  30.638  1.00  0.00     0.014 A 
ATOM     32  C   UNL A   1      35.482  34.644  28.799  1.00  0.00     0.014 A 
ATOM     33  C   UNL A   1      35.162  33.517  31.331  1.00  0.00     0.010 A 
ATOM     34  C   UNL A   1      36.576  34.083  29.451  1.00  0.00     0.010 A 
ATOM     35  C   UNL A   1      36.424  33.498  30.717  1.00  0.00    -0.014 A 
BRANCH  35  36
ATOM     36  C   UNL A   1      37.588  32.831  31.354  1.00  0.00     0.031 A 
ATOM     37  C   UNL A   1      38.237  31.644  30.700  1.00  0.00     0.074 A 
ATOM     38  C   UNL A   1      37.994  33.239  32.572  1.00  0.00     0.049 A 
ATOM     39  N   UNL A   1      39.185  30.865  31.155  1.00  0.00    -0.248 NA
ATOM     40  C   UNL A   1      37.737  31.267  29.369  1.00  0.00     0.031 C 
ATOM     41  C   UNL A   1      37.412  34.349  33.328  1.00  0.00     0.029 A 
ATOM     42  N   UNL A   1      38.978  32.756  33.399  1.00  0.00    -0.354 N 
ATOM     43  C   UNL A   1      39.385  29.901  30.176  1.00  0.00     0.074 A 
ATOM     44  C   UNL A   1      38.424  30.162  29.125  1.00  0.00     0.031 C 
ATOM     45  C   UNL A   1      38.059  34.473  34.498  1.00  0.00     0.029 A 
ATOM     46  C   UNL A   1      39.064  33.421  34.599  1.00  0.00     0.049 A 
ATOM     47  H   UNL A   1      39.566  32.005  33.156  1.00  0.00     0.167 HD
ATOM     48  C   UNL A   1      40.299  28.902  30.151  1.00  0.00     0.037 A 
ATOM     49  C   UNL A   1      39.846  33.194  35.670  1.00  0.00     0.037 A 
ATOM     50  C   UNL A   1      41.260  28.660  31.195  1.00  0.00     0.049 A 
ATOM     51  C   UNL A   1      40.826  32.053  35.631  1.00  0.00     0.074 A 
ATOM     52  C   UNL A   1      42.274  27.720  31.232  1.00  0.00     0.029 A 
ATOM     53  N   UNL A   1      41.316  29.354  32.395  1.00  0.00    -0.354 N 
ATOM     54  N   UNL A   1      41.063  31.199  34.667  1.00  0.00    -0.248 NA
ATOM     55  C   UNL A   1      41.646  31.842  36.833  1.00  0.00     0.031 C 
ATOM     56  C   UNL A   1      42.903  27.802  32.478  1.00  0.00     0.029 A 
ATOM     57  C   UNL A   1      42.320  28.834  33.196  1.00  0.00     0.049 A 
ATOM     58  H   UNL A   1      40.729  30.106  32.642  1.00  0.00     0.167 HD
ATOM     59  C   UNL A   1      42.069  30.363  35.133  1.00  0.00     0.074 A 
ATOM     60  C   UNL A   1      42.413  30.827  36.461  1.00  0.00     0.031 C 
ATOM     61  C   UNL A   1      42.650  29.305  34.518  1.00  0.00     0.037 A 
BRANCH  48  62
ATOM     62  C   UNL A   1      40.304  27.990  28.957  1.00  0.00     0.064 A 
ATOM     63  C   UNL A   1      41.037  28.293  27.800  1.00  0.00     0.173 A 
ATOM     64  C   UNL A   1      39.604  26.774  28.988  1.00  0.00     0.173 A 
ATOM     65  F   UNL A   1      41.719  29.446  27.714  1.00  0.00    -0.203 F 
ATOM     66  C   UNL A   1      41.044  27.429  26.708  1.00  0.00     0.198 A 
ATOM     67  C   UNL A   1      39.641  25.897  27.908  1.00  0.00     0.198 A 
ATOM     68  F   UNL A   1      38.893  26.431  30.072  1.00  0.00    -0.203 F 
ATOM     69  F   UNL A   1      41.713  27.763  25.595  1.00  0.00    -0.200 F 
ATOM     70  C   UNL A   1      40.354  26.228  26.766  1.00  0.00     0.200 A 
ATOM     71  F   UNL A   1      38.986  24.730  27.972  1.00  0.00    -0.200 F 
ATOM     72  F   UNL A   1      40.371  25.392  25.718  1.00  0.00    -0.200 F 
ENDBRANCH  48  62
BRANCH  49  73
ATOM     73  C   UNL A   1      39.732  34.064  36.871  1.00  0.00     0.064 A 
ATOM     74  C   UNL A   1      40.452  35.263  36.962  1.00  0.00     0.173 A 
ATOM     75  C   UNL A   1      38.906  33.717  37.950  1.00  0.00     0.173 A 
ATOM     76  F   UNL A   1      41.272  35.629  35.965  1.00  0.00    -0.203 F 
ATOM     77  C   UNL A   1      40.365  36.073  38.094  1.00  0.00     0.198 A 
ATOM     78  C   UNL A   1      38.794  34.542  39.067  1.00  0.00     0.198 A 
ATOM     79  F   UNL A   1      38.192  32.582  37.913  1.00  0.00    -0.203 F 
ATOM     80  F   UNL A   1      41.099  37.190  38.173  1.00  0.00    -0.200 F 
ATOM     81  C   UNL A   1      39.530  35.715  39.142  1.00  0.00     0.200 A 
ATOM     82  F   UNL A   1      37.973  34.202  40.069  1.00  0.00    -0.200 F 
ATOM     83  F   UNL A   1      39.441  36.497  40.226  1.00  0.00    -0.200 F 
ENDBRANCH  49  73
BRANCH  61  84
ATOM     84  C   UNL A   1      43.731  28.579  35.267  1.00  0.00     0.064 A 
ATOM     85  C   UNL A   1      43.442  27.480  36.088  1.00  0.00     0.173 A 
ATOM     86  C   UNL A   1      45.076  28.950  35.114  1.00  0.00     0.173 A 
ATOM     87  F   UNL A   1      42.172  27.096  36.281  1.00  0.00    -0.203 F 
ATOM     88  C   UNL A   1      44.460  26.789  36.742  1.00  0.00     0.198 A 
ATOM     89  C   UNL A   1      46.092  28.238  35.743  1.00  0.00     0.198 A 
ATOM     90  F   UNL A   1      45.405  29.991  34.335  1.00  0.00    -0.203 F 
ATOM     91  F   UNL A   1      44.157  25.769  37.556  1.00  0.00    -0.200 F 
ATOM     92  C   UNL A   1      45.784  27.162  36.561  1.00  0.00     0.200 A 
ATOM     93  F   UNL A   1      47.372  28.589  35.553  1.00  0.00    -0.200 F 
ATOM     94  F   UNL A   1      46.761  26.486  37.179  1.00  0.00    -0.200 F 
ENDBRANCH  61  84
ENDBRANCH  35  36
ENDBRANCH  27  30
ENDBRANCH  25  26
ENDBRANCH   1  25
TORSDOF 13
ENDMDL
MODEL 3
REMARK VINA RESULT:     -12.5      2.127      2.643
REMARK SMILES [NH3+][C@]1(C(=O)NCCCNC(=O)c2ccc(-c3c4nc(c(-c5c(F)c(F)c(F)c(F)c5F)c5ccc([nH]5)c(-c5c(F)c(F)c(F)c(F)c5F)c5nc(c(-c6c(F)c(F)c(F)c(F)c6F)c6ccc3[nH]6)C=C5)C=C4)cc2)CC[C@@H](Sc2ccc(Cl)c(Cl)c2)C1
REMARK SMILES IDX 7 1 6 2 5 3 3 4 4 5 2 7 75 8 87 9 76 10 77 11 1 12 78 16
REMARK SMILES IDX 79 17 80 18 86 19 81 20 84 21 82 22 85 23 83 24 8 25 9 26
REMARK SMILES IDX 10 27 11 29 12 30 13 31 74 32 14 33 73 34 15 35 16 36 17 37
REMARK SMILES IDX 67 38 18 39 72 40 66 41 68 42 19 43 71 44 65 45 64 46 20 48
REMARK SMILES IDX 52 49 32 50 51 51 33 52 36 53 50 54 69 55 34 56 35 57 49 59
REMARK SMILES IDX 70 60 37 61 21 62 22 63 30 64 23 65 24 66 28 67 31 68 25 69
REMARK SMILES IDX 26 70 29 71 27 72 53 73 54 74 62 75 55 76 56 77 60 78 63 79
REMARK SMILES IDX 57 80 58 81 61 82 59 83 38 84 39 85 47 86 40 87 41 88 45 89
REMARK SMILES IDX 48 90 42 91 43 92 46 93 44 94
REMARK H PARENT 5 6 1 13 1 14 1 15 9 28 68 47 36 58
REMARK Flexibility Score: inf
ROOT
ATOM      1  C   UNL A   1      31.573  31.953  26.657  1.00  0.00     0.042 C 
ENDROOT
BRANCH   1   2
ATOM      2  C   UNL A   1      31.784  30.465  26.428  1.00  0.00     0.118 C 
BRANCH   2   3
ATOM      3  N   UNL A   1      31.561  30.066  25.053  1.00  0.00    -0.351 N 
ATOM      4  C   UNL A   1      32.094  29.066  24.300  1.00  0.00     0.281 C 
ATOM      5  O   UNL A   1      31.739  29.036  23.116  1.00  0.00    -0.268 OA
ATOM      6  H   UNL A   1      30.903  30.621  24.575  1.00  0.00     0.163 HD
BRANCH   4   7
ATOM      7  C   UNL A   1      33.173  28.073  24.835  1.00  0.00     0.175 C 
ATOM      8  C   UNL A   1      32.727  27.142  25.972  1.00  0.00     0.080 C 
ATOM      9  C   UNL A   1      33.601  27.100  23.696  1.00  0.00     0.094 C 
ATOM     10  C   UNL A   1      33.466  25.833  25.770  1.00  0.00     0.022 C 
ATOM     11  C   UNL A   1      33.567  25.678  24.264  1.00  0.00     0.058 C 
BRANCH   7  12
ATOM     12  N   UNL A   1      34.338  28.879  25.275  1.00  0.00    -0.345 N 
ATOM     13  H   UNL A   1      34.010  29.739  25.714  1.00  0.00     0.345 HD
ATOM     14  H   UNL A   1      34.916  29.110  24.466  1.00  0.00     0.345 HD
ATOM     15  H   UNL A   1      34.889  28.342  25.944  1.00  0.00     0.345 HD
ENDBRANCH   7  12
BRANCH  11  16
ATOM     16  S   UNL A   1      32.320  24.543  23.517  1.00  0.00    -0.122 SA
BRANCH  16  17
ATOM     17  C   UNL A   1      32.979  22.903  23.737  1.00  0.00     0.009 A 
ATOM     18  C   UNL A   1      32.142  21.797  23.549  1.00  0.00     0.017 A 
ATOM     19  C   UNL A   1      34.269  22.697  24.235  1.00  0.00     0.037 A 
ATOM     20  C   UNL A   1      32.595  20.504  23.835  1.00  0.00     0.023 A 
ATOM     21  C   UNL A   1      34.734  21.403  24.503  1.00  0.00     0.060 A 
ATOM     22  C   UNL A   1      33.892  20.304  24.311  1.00  0.00     0.059 A 
ATOM     23  Cl  UNL A   1      36.352  21.235  25.084  1.00  0.00    -0.083 Cl
ATOM     24  Cl  UNL A   1      34.383  18.686  24.661  1.00  0.00    -0.083 Cl
ENDBRANCH  16  17
ENDBRANCH  11  16
ENDBRANCH   4   7
ENDBRANCH   2   3
ENDBRANCH   1   2
BRANCH   1  25
ATOM     25  C   UNL A   1      32.764  32.651  27.301  1.00  0.00     0.118 C 
BRANCH  25  26
ATOM     26  N   UNL A   1      32.504  34.057  27.595  1.00  0.00    -0.352 N 
ATOM     27  C   UNL A   1      33.040  34.892  28.543  1.00  0.00     0.251 C 
ATOM     28  H   UNL A   1      31.830  34.478  27.015  1.00  0.00     0.163 HD
ATOM     29  O   UNL A   1      32.520  35.986  28.757  1.00  0.00    -0.269 OA
BRANCH  27  30
ATOM     30  C   UNL A   1      34.221  34.481  29.331  1.00  0.00     0.039 A 
ATOM     31  C   UNL A   1      34.030  33.941  30.607  1.00  0.00     0.014 A 
ATOM     32  C   UNL A   1      35.513  34.632  28.825  1.00  0.00     0.014 A 
ATOM     33  C   UNL A   1      35.125  33.459  31.327  1.00  0.00     0.010 A 
ATOM     34  C   UNL A   1      36.591  34.070  29.501  1.00  0.00     0.010 A 
ATOM     35  C   UNL A   1      36.406  33.463  30.752  1.00  0.00    -0.014 A 
BRANCH  35  36
ATOM     36  C   UNL A   1      37.557  32.796  31.413  1.00  0.00     0.031 A 
ATOM     37  C   UNL A   1      38.226  31.615  30.769  1.00  0.00     0.074 A 
ATOM     38  C   UNL A   1      37.932  33.200  32.643  1.00  0.00     0.049 A 
ATOM     39  N   UNL A   1      39.165  30.837  31.243  1.00  0.00    -0.248 NA
ATOM     40  C   UNL A   1      37.759  31.243  29.425  1.00  0.00     0.031 C 
ATOM     41  C   UNL A   1      37.327  34.303  33.391  1.00  0.00     0.029 A 
ATOM     42  N   UNL A   1      38.897  32.715  33.491  1.00  0.00    -0.354 N 
ATOM     43  C   UNL A   1      39.392  29.879  30.264  1.00  0.00     0.074 A 
ATOM     44  C   UNL A   1      38.456  30.142  29.191  1.00  0.00     0.031 C 
ATOM     45  C   UNL A   1      37.945  34.424  34.576  1.00  0.00     0.029 A 
ATOM     46  C   UNL A   1      38.951  33.374  34.696  1.00  0.00     0.049 A 
ATOM     47  H   UNL A   1      39.493  31.967  33.259  1.00  0.00     0.167 HD
ATOM     48  C   UNL A   1      40.309  28.883  30.256  1.00  0.00     0.037 A 
ATOM     49  C   UNL A   1      39.708  33.144  35.785  1.00  0.00     0.037 A 
ATOM     50  C   UNL A   1      41.246  28.639  31.322  1.00  0.00     0.049 A 
ATOM     51  C   UNL A   1      40.693  32.007  35.764  1.00  0.00     0.074 A 
ATOM     52  C   UNL A   1      42.262  27.702  31.379  1.00  0.00     0.029 A 
ATOM     53  N   UNL A   1      41.271  29.326  32.527  1.00  0.00    -0.354 N 
ATOM     54  N   UNL A   1      40.956  31.158  34.801  1.00  0.00    -0.248 NA
ATOM     55  C   UNL A   1      41.484  31.792  36.985  1.00  0.00     0.031 C 
ATOM     56  C   UNL A   1      42.860  27.779  32.640  1.00  0.00     0.029 A 
ATOM     57  C   UNL A   1      42.257  28.805  33.349  1.00  0.00     0.049 A 
ATOM     58  H   UNL A   1      40.675  30.075  32.763  1.00  0.00     0.167 HD
ATOM     59  C   UNL A   1      41.953  30.324  35.288  1.00  0.00     0.074 A 
ATOM     60  C   UNL A   1      42.263  30.781  36.626  1.00  0.00     0.031 C 
ATOM     61  C   UNL A   1      42.552  29.270  34.681  1.00  0.00     0.037 A 
BRANCH  48  62
ATOM     62  C   UNL A   1      40.347  27.977  29.058  1.00  0.00     0.064 A 
ATOM     63  C   UNL A   1      39.621  26.777  29.017  1.00  0.00     0.173 A 
ATOM     64  C   UNL A   1      41.082  28.336  27.918  1.00  0.00     0.173 A 
ATOM     65  F   UNL A   1      38.907  26.383  30.082  1.00  0.00    -0.203 F 
ATOM     66  C   UNL A   1      39.655  25.957  27.892  1.00  0.00     0.198 A 
ATOM     67  C   UNL A   1      41.086  27.530  26.783  1.00  0.00     0.198 A 
ATOM     68  F   UNL A   1      41.789  29.477  27.900  1.00  0.00    -0.203 F 
ATOM     69  F   UNL A   1      38.992  24.792  27.896  1.00  0.00    -0.200 F 
ATOM     70  C   UNL A   1      40.380  26.337  26.773  1.00  0.00     0.200 A 
ATOM     71  F   UNL A   1      41.775  27.907  25.697  1.00  0.00    -0.200 F 
ATOM     72  F   UNL A   1      40.402  25.552  25.688  1.00  0.00    -0.200 F 
ENDBRANCH  48  62
BRANCH  49  73
ATOM     73  C   UNL A   1      39.562  34.007  36.987  1.00  0.00     0.064 A 
ATOM     74  C   UNL A   1      38.758  33.612  38.065  1.00  0.00     0.173 A 
ATOM     75  C   UNL A   1      40.219  35.243  37.084  1.00  0.00     0.173 A 
ATOM     76  F   UNL A   1      38.092  32.449  38.013  1.00  0.00    -0.203 F 
ATOM     77  C   UNL A   1      38.602  34.427  39.185  1.00  0.00     0.198 A 
ATOM     78  C   UNL A   1      40.089  36.043  38.217  1.00  0.00     0.198 A 
ATOM     79  F   UNL A   1      41.004  35.668  36.082  1.00  0.00    -0.203 F 
ATOM     80  F   UNL A   1      37.792  34.046  40.180  1.00  0.00    -0.200 F 
ATOM     81  C   UNL A   1      39.273  35.638  39.263  1.00  0.00     0.200 A 
ATOM     82  F   UNL A   1      40.753  37.203  38.296  1.00  0.00    -0.200 F 
ATOM     83  F   UNL A   1      39.129  36.418  40.343  1.00  0.00    -0.200 F 
ENDBRANCH  49  73
BRANCH  61  84
ATOM     84  C   UNL A   1      43.617  28.544  35.453  1.00  0.00     0.064 A 
ATOM     85  C   UNL A   1      43.301  27.506  36.340  1.00  0.00     0.173 A 
ATOM     86  C   UNL A   1      44.973  28.851  35.256  1.00  0.00     0.173 A 
ATOM     87  F   UNL A   1      42.020  27.186  36.576  1.00  0.00    -0.203 F 
ATOM     88  C   UNL A   1      44.301  26.812  37.016  1.00  0.00     0.198 A 
ATOM     89  C   UNL A   1      45.971  28.134  35.909  1.00  0.00     0.198 A 
ATOM     90  F   UNL A   1      45.329  29.832  34.414  1.00  0.00    -0.203 F 
ATOM     91  F   UNL A   1      43.974  25.852  37.891  1.00  0.00    -0.200 F 
ATOM     92  C   UNL A   1      45.636  27.119  36.791  1.00  0.00     0.200 A 
ATOM     93  F   UNL A   1      47.260  28.421  35.678  1.00  0.00    -0.200 F 
ATOM     94  F   UNL A   1      46.597  26.440  37.431  1.00  0.00    -0.200 F 
ENDBRANCH  61  84
ENDBRANCH  35  36
ENDBRANCH  27  30
ENDBRANCH  25  26
ENDBRANCH   1  25
TORSDOF 13
ENDMDL
