MODEL 1
REMARK VINA RESULT:     -12.6      0.000      0.000
REMARK SMILES [NH3+][C@@]1(C(=O)NCCCNC(=O)c2ccc(-c3c4nc(c(-c5c(F)c(F)c(F)c(F)c5F)c5ccc([nH]5)c(-c5c(F)c(F)c(F)c(F)c5F)c5nc(c(-c6c(F)c(F)c(F)c(F)c6F)c6ccc3[nH]6)C=C5)C=C4)cc2)CCC[C@@H](Oc2ccccc2[N+](=O)[O-])C1
REMARK SMILES IDX 6 1 5 2 3 3 4 4 2 6 75 7 89 8 76 9 78 10 77 11 1 12 79 16
REMARK SMILES IDX 80 17 81 18 85 19 82 20 84 21 83 22 86 23 87 24 88 25 7 26
REMARK SMILES IDX 8 27 9 28 10 29 11 31 12 32 13 33 74 34 14 35 73 36 15 37
REMARK SMILES IDX 16 38 17 39 67 40 18 41 72 42 66 43 68 44 19 45 71 46 65 47
REMARK SMILES IDX 64 48 20 50 52 51 32 52 51 53 33 54 36 55 50 56 69 57 34 58
REMARK SMILES IDX 35 59 49 61 70 62 37 63 21 64 22 65 30 66 23 67 24 68 28 69
REMARK SMILES IDX 31 70 25 71 26 72 29 73 27 74 53 75 54 76 62 77 55 78 56 79
REMARK SMILES IDX 60 80 63 81 57 82 58 83 61 84 59 85 38 86 39 87 47 88 40 89
REMARK SMILES IDX 41 90 45 91 48 92 42 93 43 94 46 95 44 96
REMARK H PARENT 5 5 1 13 1 14 1 15 9 30 68 49 36 60
REMARK Flexibility Score: inf
ROOT
ATOM      1  C   UNL A   1      31.696  30.551  25.889  1.00  0.00     0.118 C 
ENDROOT
BRANCH   1   2
ATOM      2  N   UNL A   1      30.956  30.338  24.660  1.00  0.00    -0.351 N 
ATOM      3  C   UNL A   1      30.739  29.219  23.905  1.00  0.00     0.281 C 
ATOM      4  O   UNL A   1      29.991  29.365  22.931  1.00  0.00    -0.268 OA
ATOM      5  H   UNL A   1      30.530  31.151  24.303  1.00  0.00     0.163 HD
BRANCH   3   6
ATOM      6  C   UNL A   1      31.300  27.797  24.285  1.00  0.00     0.177 C 
ATOM      7  C   UNL A   1      32.835  27.804  24.116  1.00  0.00     0.079 C 
ATOM      8  C   UNL A   1      30.695  26.768  23.301  1.00  0.00     0.124 C 
ATOM      9  C   UNL A   1      33.470  26.429  24.333  1.00  0.00     0.011 C 
ATOM     10  C   UNL A   1      31.368  25.381  23.228  1.00  0.00     0.180 C 
ATOM     11  C   UNL A   1      32.896  25.368  23.399  1.00  0.00     0.046 C 
BRANCH   6  12
ATOM     12  N   UNL A   1      31.031  27.515  25.704  1.00  0.00    -0.345 N 
ATOM     13  H   UNL A   1      31.628  26.749  26.017  1.00  0.00     0.345 HD
ATOM     14  H   UNL A   1      30.052  27.254  25.819  1.00  0.00     0.345 HD
ATOM     15  H   UNL A   1      31.229  28.349  26.259  1.00  0.00     0.345 HD
ENDBRANCH   6  12
BRANCH  10  16
ATOM     16  O   UNL A   1      30.689  24.288  23.891  1.00  0.00    -0.483 OA
BRANCH  16  17
ATOM     17  C   UNL A   1      31.438  23.234  24.310  1.00  0.00     0.197 A 
ATOM     18  C   UNL A   1      31.915  22.332  23.357  1.00  0.00     0.054 A 
ATOM     19  C   UNL A   1      31.697  22.984  25.663  1.00  0.00     0.310 A 
ATOM     20  C   UNL A   1      32.775  21.297  23.735  1.00  0.00     0.004 A 
ATOM     21  C   UNL A   1      32.582  21.965  26.048  1.00  0.00     0.090 A 
ATOM     22  C   UNL A   1      33.139  21.138  25.072  1.00  0.00     0.007 A 
BRANCH  19  23
ATOM     23  N   UNL A   1      31.107  23.810  26.710  1.00  0.00     0.066 N 
ATOM     24  O   UNL A   1      30.153  23.319  27.334  1.00  0.00    -0.258 OA
ATOM     25  O   UNL A   1      31.573  24.938  26.905  1.00  0.00    -0.258 OA
ENDBRANCH  19  23
ENDBRANCH  16  17
ENDBRANCH  10  16
ENDBRANCH   3   6
ENDBRANCH   1   2
BRANCH   1  26
ATOM     26  C   UNL A   1      31.399  31.902  26.545  1.00  0.00     0.042 C 
BRANCH  26  27
ATOM     27  C   UNL A   1      32.619  32.559  27.175  1.00  0.00     0.118 C 
BRANCH  27  28
ATOM     28  N   UNL A   1      32.373  33.941  27.572  1.00  0.00    -0.352 N 
ATOM     29  C   UNL A   1      33.006  34.722  28.509  1.00  0.00     0.251 C 
ATOM     30  H   UNL A   1      31.636  34.385  27.093  1.00  0.00     0.163 HD
ATOM     31  O   UNL A   1      32.553  35.833  28.775  1.00  0.00    -0.269 OA
BRANCH  29  32
ATOM     32  C   UNL A   1      34.201  34.229  29.229  1.00  0.00     0.039 A 
ATOM     33  C   UNL A   1      34.022  33.519  30.420  1.00  0.00     0.014 A 
ATOM     34  C   UNL A   1      35.491  34.469  28.752  1.00  0.00     0.014 A 
ATOM     35  C   UNL A   1      35.128  32.994  31.094  1.00  0.00     0.010 A 
ATOM     36  C   UNL A   1      36.582  33.866  29.368  1.00  0.00     0.010 A 
ATOM     37  C   UNL A   1      36.415  33.129  30.551  1.00  0.00    -0.014 A 
BRANCH  37  38
ATOM     38  C   UNL A   1      37.606  32.532  31.208  1.00  0.00     0.031 A 
ATOM     39  C   UNL A   1      38.346  31.408  30.535  1.00  0.00     0.074 A 
ATOM     40  C   UNL A   1      37.970  32.945  32.439  1.00  0.00     0.049 A 
ATOM     41  N   UNL A   1      39.327  30.670  30.990  1.00  0.00    -0.248 NA
ATOM     42  C   UNL A   1      37.897  31.039  29.183  1.00  0.00     0.031 C 
ATOM     43  C   UNL A   1      37.303  33.992  33.213  1.00  0.00     0.029 A 
ATOM     44  N   UNL A   1      38.984  32.520  33.262  1.00  0.00    -0.354 N 
ATOM     45  C   UNL A   1      39.594  29.742  29.991  1.00  0.00     0.074 A 
ATOM     46  C   UNL A   1      38.631  29.966  28.935  1.00  0.00     0.031 C 
ATOM     47  C   UNL A   1      37.933  34.141  34.389  1.00  0.00     0.029 A 
ATOM     48  C   UNL A   1      39.020  33.172  34.472  1.00  0.00     0.049 A 
ATOM     49  H   UNL A   1      39.623  31.815  33.010  1.00  0.00     0.167 HD
ATOM     50  C   UNL A   1      40.573  28.809  29.946  1.00  0.00     0.037 A 
ATOM     51  C   UNL A   1      39.831  32.994  35.532  1.00  0.00     0.037 A 
ATOM     52  C   UNL A   1      41.547  28.613  30.987  1.00  0.00     0.049 A 
ATOM     53  C   UNL A   1      40.911  31.947  35.457  1.00  0.00     0.074 A 
ATOM     54  C   UNL A   1      42.611  27.730  31.018  1.00  0.00     0.029 A 
ATOM     55  N   UNL A   1      41.574  29.318  32.181  1.00  0.00    -0.354 N 
ATOM     56  N   UNL A   1      41.192  31.116  34.482  1.00  0.00    -0.248 NA
ATOM     57  C   UNL A   1      41.792  31.818  36.625  1.00  0.00     0.031 C 
ATOM     58  C   UNL A   1      43.255  27.867  32.253  1.00  0.00     0.029 A 
ATOM     59  C   UNL A   1      42.628  28.879  32.965  1.00  0.00     0.049 A 
ATOM     60  H   UNL A   1      40.939  30.026  32.435  1.00  0.00     0.167 HD
ATOM     61  C   UNL A   1      42.300  30.393  34.903  1.00  0.00     0.074 A 
ATOM     62  C   UNL A   1      42.647  30.892  36.217  1.00  0.00     0.031 C 
ATOM     63  C   UNL A   1      42.969  29.403  34.263  1.00  0.00     0.037 A 
BRANCH  50  64
ATOM     64  C   UNL A   1      40.647  27.936  28.724  1.00  0.00     0.064 A 
ATOM     65  C   UNL A   1      39.941  26.725  28.641  1.00  0.00     0.173 A 
ATOM     66  C   UNL A   1      41.405  28.329  27.610  1.00  0.00     0.173 A 
ATOM     67  F   UNL A   1      39.211  26.296  29.682  1.00  0.00    -0.203 F 
ATOM     68  C   UNL A   1      40.015  25.927  27.502  1.00  0.00     0.198 A 
ATOM     69  C   UNL A   1      41.448  27.546  26.459  1.00  0.00     0.198 A 
ATOM     70  F   UNL A   1      42.094  29.479  27.632  1.00  0.00    -0.203 F 
ATOM     71  F   UNL A   1      39.375  24.751  27.468  1.00  0.00    -0.200 F 
ATOM     72  C   UNL A   1      40.762  26.342  26.409  1.00  0.00     0.200 A 
ATOM     73  F   UNL A   1      42.158  27.955  25.398  1.00  0.00    -0.200 F 
ATOM     74  F   UNL A   1      40.824  25.578  25.310  1.00  0.00    -0.200 F 
ENDBRANCH  50  64
BRANCH  51  75
ATOM     75  C   UNL A   1      39.668  33.835  36.748  1.00  0.00     0.064 A 
ATOM     76  C   UNL A   1      38.887  33.399  37.829  1.00  0.00     0.173 A 
ATOM     77  C   UNL A   1      40.272  35.097  36.851  1.00  0.00     0.173 A 
ATOM     78  F   UNL A   1      38.273  32.208  37.772  1.00  0.00    -0.203 F 
ATOM     79  C   UNL A   1      38.692  34.203  38.950  1.00  0.00     0.198 A 
ATOM     80  C   UNL A   1      40.104  35.886  37.988  1.00  0.00     0.198 A 
ATOM     81  F   UNL A   1      41.037  35.560  35.852  1.00  0.00    -0.203 F 
ATOM     82  F   UNL A   1      37.895  33.783  39.941  1.00  0.00    -0.200 F 
ATOM     83  C   UNL A   1      39.305  35.444  39.031  1.00  0.00     0.200 A 
ATOM     84  F   UNL A   1      40.713  37.077  38.070  1.00  0.00    -0.200 F 
ATOM     85  F   UNL A   1      39.118  36.216  40.110  1.00  0.00    -0.200 F 
ENDBRANCH  51  75
BRANCH  63  86
ATOM     86  C   UNL A   1      44.176  28.829  34.947  1.00  0.00     0.064 A 
ATOM     87  C   UNL A   1      44.087  27.710  35.788  1.00  0.00     0.173 A 
ATOM     88  C   UNL A   1      45.446  29.381  34.718  1.00  0.00     0.173 A 
ATOM     89  F   UNL A   1      42.894  27.155  36.050  1.00  0.00    -0.203 F 
ATOM     90  C   UNL A   1      45.222  27.182  36.395  1.00  0.00     0.198 A 
ATOM     91  C   UNL A   1      46.582  28.828  35.299  1.00  0.00     0.198 A 
ATOM     92  F   UNL A   1      45.585  30.447  33.915  1.00  0.00    -0.203 F 
ATOM     93  F   UNL A   1      45.108  26.143  37.235  1.00  0.00    -0.200 F 
ATOM     94  C   UNL A   1      46.469  27.735  36.143  1.00  0.00     0.200 A 
ATOM     95  F   UNL A   1      47.788  29.354  35.041  1.00  0.00    -0.200 F 
ATOM     96  F   UNL A   1      47.562  27.217  36.720  1.00  0.00    -0.200 F 
ENDBRANCH  63  86
ENDBRANCH  37  38
ENDBRANCH  29  32
ENDBRANCH  27  28
ENDBRANCH  26  27
ENDBRANCH   1  26
TORSDOF 14
ENDMDL
MODEL 2
REMARK VINA RESULT:     -12.6      5.546     11.021
REMARK SMILES [NH3+][C@@]1(C(=O)NCCCNC(=O)c2ccc(-c3c4nc(c(-c5c(F)c(F)c(F)c(F)c5F)c5ccc([nH]5)c(-c5c(F)c(F)c(F)c(F)c5F)c5nc(c(-c6c(F)c(F)c(F)c(F)c6F)c6ccc3[nH]6)C=C5)C=C4)cc2)CCC[C@@H](Oc2ccccc2[N+](=O)[O-])C1
REMARK SMILES IDX 6 1 5 2 3 3 4 4 2 6 75 7 89 8 76 9 78 10 77 11 1 12 79 16
REMARK SMILES IDX 80 17 81 18 85 19 82 20 84 21 83 22 86 23 87 24 88 25 7 26
REMARK SMILES IDX 8 27 9 28 10 29 11 31 12 32 13 33 74 34 14 35 73 36 15 37
REMARK SMILES IDX 16 38 17 39 67 40 18 41 72 42 66 43 68 44 19 45 71 46 65 47
REMARK SMILES IDX 64 48 20 50 52 51 32 52 51 53 33 54 36 55 50 56 69 57 34 58
REMARK SMILES IDX 35 59 49 61 70 62 37 63 21 64 22 65 30 66 23 67 24 68 28 69
REMARK SMILES IDX 31 70 25 71 26 72 29 73 27 74 53 75 54 76 62 77 55 78 56 79
REMARK SMILES IDX 60 80 63 81 57 82 58 83 61 84 59 85 38 86 39 87 47 88 40 89
REMARK SMILES IDX 41 90 45 91 48 92 42 93 43 94 46 95 44 96
REMARK H PARENT 5 5 1 13 1 14 1 15 9 30 68 49 36 60
REMARK Flexibility Score: inf
ROOT
ATOM      1  C   UNL A   1      36.751  20.585  25.000  1.00  0.00     0.118 C 
ENDROOT
BRANCH   1   2
ATOM      2  N   UNL A   1      35.475  19.903  25.111  1.00  0.00    -0.351 N 
ATOM      3  C   UNL A   1      34.187  20.350  25.003  1.00  0.00     0.281 C 
ATOM      4  O   UNL A   1      33.310  19.482  25.084  1.00  0.00    -0.268 OA
ATOM      5  H   UNL A   1      35.551  18.940  25.299  1.00  0.00     0.163 HD
BRANCH   3   6
ATOM      6  C   UNL A   1      33.814  21.846  24.684  1.00  0.00     0.177 C 
ATOM      7  C   UNL A   1      34.189  22.724  25.898  1.00  0.00     0.079 C 
ATOM      8  C   UNL A   1      32.284  21.920  24.469  1.00  0.00     0.124 C 
ATOM      9  C   UNL A   1      33.747  24.180  25.746  1.00  0.00     0.011 C 
ATOM     10  C   UNL A   1      31.632  23.319  24.513  1.00  0.00     0.180 C 
ATOM     11  C   UNL A   1      32.245  24.313  25.513  1.00  0.00     0.046 C 
BRANCH   6  12
ATOM     12  N   UNL A   1      34.614  22.331  23.548  1.00  0.00    -0.345 N 
ATOM     13  H   UNL A   1      34.761  21.568  22.886  1.00  0.00     0.345 HD
ATOM     14  H   UNL A   1      35.515  22.667  23.885  1.00  0.00     0.345 HD
ATOM     15  H   UNL A   1      34.118  23.092  23.084  1.00  0.00     0.345 HD
ENDBRANCH   6  12
BRANCH  10  16
ATOM     16  O   UNL A   1      31.261  23.908  23.244  1.00  0.00    -0.483 OA
BRANCH  16  17
ATOM     17  C   UNL A   1      31.086  25.255  23.195  1.00  0.00     0.197 A 
ATOM     18  C   UNL A   1      29.948  25.804  23.790  1.00  0.00     0.054 A 
ATOM     19  C   UNL A   1      31.969  26.106  22.519  1.00  0.00     0.310 A 
ATOM     20  C   UNL A   1      29.784  27.190  23.854  1.00  0.00     0.004 A 
ATOM     21  C   UNL A   1      31.827  27.500  22.603  1.00  0.00     0.090 A 
ATOM     22  C   UNL A   1      30.742  28.037  23.296  1.00  0.00     0.007 A 
BRANCH  19  23
ATOM     23  N   UNL A   1      33.095  25.577  21.759  1.00  0.00     0.066 N 
ATOM     24  O   UNL A   1      33.033  25.684  20.525  1.00  0.00    -0.258 OA
ATOM     25  O   UNL A   1      34.026  25.048  22.377  1.00  0.00    -0.258 OA
ENDBRANCH  19  23
ENDBRANCH  16  17
ENDBRANCH  10  16
ENDBRANCH   3   6
ENDBRANCH   1   2
BRANCH   1  26
ATOM     26  C   UNL A   1      37.945  19.627  24.968  1.00  0.00     0.042 C 
BRANCH  26  27
ATOM     27  C   UNL A   1      39.151  20.126  25.752  1.00  0.00     0.118 C 
BRANCH  27  28
ATOM     28  N   UNL A   1      40.199  19.119  25.874  1.00  0.00    -0.352 N 
ATOM     29  C   UNL A   1      41.542  19.261  26.126  1.00  0.00     0.251 C 
ATOM     30  H   UNL A   1      39.896  18.190  25.757  1.00  0.00     0.163 HD
ATOM     31  O   UNL A   1      42.276  18.277  26.064  1.00  0.00    -0.269 OA
BRANCH  29  32
ATOM     32  C   UNL A   1      42.123  20.587  26.433  1.00  0.00     0.039 A 
ATOM     33  C   UNL A   1      42.531  21.403  25.373  1.00  0.00     0.014 A 
ATOM     34  C   UNL A   1      42.283  21.028  27.748  1.00  0.00     0.014 A 
ATOM     35  C   UNL A   1      43.032  22.683  25.629  1.00  0.00     0.010 A 
ATOM     36  C   UNL A   1      42.690  22.333  27.998  1.00  0.00     0.010 A 
ATOM     37  C   UNL A   1      43.078  23.173  26.943  1.00  0.00    -0.014 A 
BRANCH  37  38
ATOM     38  C   UNL A   1      43.548  24.549  27.246  1.00  0.00     0.031 A 
ATOM     39  C   UNL A   1      42.581  25.568  27.785  1.00  0.00     0.074 A 
ATOM     40  C   UNL A   1      44.818  24.902  26.962  1.00  0.00     0.049 A 
ATOM     41  N   UNL A   1      42.755  26.848  27.998  1.00  0.00    -0.248 NA
ATOM     42  C   UNL A   1      41.222  25.091  28.090  1.00  0.00     0.031 C 
ATOM     43  C   UNL A   1      45.836  24.018  26.393  1.00  0.00     0.029 A 
ATOM     44  N   UNL A   1      45.465  26.105  27.100  1.00  0.00    -0.354 N 
ATOM     45  C   UNL A   1      41.528  27.326  28.438  1.00  0.00     0.074 A 
ATOM     46  C   UNL A   1      40.600  26.217  28.400  1.00  0.00     0.031 C 
ATOM     47  C   UNL A   1      46.982  24.701  26.246  1.00  0.00     0.029 A 
ATOM     48  C   UNL A   1      46.770  26.081  26.668  1.00  0.00     0.049 A 
ATOM     49  H   UNL A   1      45.035  26.908  27.471  1.00  0.00     0.167 HD
ATOM     50  C   UNL A   1      41.210  28.571  28.865  1.00  0.00     0.037 A 
ATOM     51  C   UNL A   1      47.685  27.067  26.606  1.00  0.00     0.037 A 
ATOM     52  C   UNL A   1      42.146  29.662  28.929  1.00  0.00     0.049 A 
ATOM     53  C   UNL A   1      47.306  28.444  27.085  1.00  0.00     0.074 A 
ATOM     54  C   UNL A   1      41.942  30.949  29.393  1.00  0.00     0.029 A 
ATOM     55  N   UNL A   1      43.470  29.589  28.518  1.00  0.00    -0.354 N 
ATOM     56  N   UNL A   1      46.159  28.870  27.557  1.00  0.00    -0.248 NA
ATOM     57  C   UNL A   1      48.350  29.476  27.031  1.00  0.00     0.031 C 
ATOM     58  C   UNL A   1      43.129  31.669  29.219  1.00  0.00     0.029 A 
ATOM     59  C   UNL A   1      44.090  30.813  28.703  1.00  0.00     0.049 A 
ATOM     60  H   UNL A   1      43.904  28.786  28.150  1.00  0.00     0.167 HD
ATOM     61  C   UNL A   1      46.353  30.205  27.888  1.00  0.00     0.074 A 
ATOM     62  C   UNL A   1      47.732  30.514  27.575  1.00  0.00     0.031 C 
ATOM     63  C   UNL A   1      45.470  31.095  28.402  1.00  0.00     0.037 A 
BRANCH  50  64
ATOM     64  C   UNL A   1      39.795  28.817  29.308  1.00  0.00     0.064 A 
ATOM     65  C   UNL A   1      39.401  28.636  30.644  1.00  0.00     0.173 A 
ATOM     66  C   UNL A   1      38.830  29.272  28.397  1.00  0.00     0.173 A 
ATOM     67  F   UNL A   1      40.281  28.191  31.554  1.00  0.00    -0.203 F 
ATOM     68  C   UNL A   1      38.087  28.871  31.042  1.00  0.00     0.198 A 
ATOM     69  C   UNL A   1      37.526  29.539  28.807  1.00  0.00     0.198 A 
ATOM     70  F   UNL A   1      39.153  29.468  27.111  1.00  0.00    -0.203 F 
ATOM     71  F   UNL A   1      37.723  28.639  32.310  1.00  0.00    -0.200 F 
ATOM     72  C   UNL A   1      37.154  29.330  30.126  1.00  0.00     0.200 A 
ATOM     73  F   UNL A   1      36.629  29.998  27.923  1.00  0.00    -0.200 F 
ATOM     74  F   UNL A   1      35.892  29.565  30.513  1.00  0.00    -0.200 F 
ENDBRANCH  50  64
BRANCH  51  75
ATOM     75  C   UNL A   1      49.052  26.789  26.088  1.00  0.00     0.064 A 
ATOM     76  C   UNL A   1      49.371  27.007  24.740  1.00  0.00     0.173 A 
ATOM     77  C   UNL A   1      50.061  26.285  26.922  1.00  0.00     0.173 A 
ATOM     78  F   UNL A   1      48.436  27.471  23.898  1.00  0.00    -0.203 F 
ATOM     79  C   UNL A   1      50.636  26.703  24.240  1.00  0.00     0.198 A 
ATOM     80  C   UNL A   1      51.335  26.014  26.428  1.00  0.00     0.198 A 
ATOM     81  F   UNL A   1      49.813  26.066  28.221  1.00  0.00    -0.203 F 
ATOM     82  F   UNL A   1      50.895  26.869  22.936  1.00  0.00    -0.200 F 
ATOM     83  C   UNL A   1      51.618  26.212  25.085  1.00  0.00     0.200 A 
ATOM     84  F   UNL A   1      52.287  25.555  27.252  1.00  0.00    -0.200 F 
ATOM     85  F   UNL A   1      52.835  25.921  24.604  1.00  0.00    -0.200 F 
ENDBRANCH  51  75
BRANCH  63  86
ATOM     86  C   UNL A   1      45.979  32.474  28.710  1.00  0.00     0.064 A 
ATOM     87  C   UNL A   1      46.567  32.788  29.944  1.00  0.00     0.173 A 
ATOM     88  C   UNL A   1      45.919  33.482  27.735  1.00  0.00     0.173 A 
ATOM     89  F   UNL A   1      46.635  31.863  30.914  1.00  0.00    -0.203 F 
ATOM     90  C   UNL A   1      47.052  34.067  30.199  1.00  0.00     0.198 A 
ATOM     91  C   UNL A   1      46.437  34.749  27.982  1.00  0.00     0.198 A 
ATOM     92  F   UNL A   1      45.374  33.230  26.535  1.00  0.00    -0.203 F 
ATOM     93  F   UNL A   1      47.565  34.359  31.403  1.00  0.00    -0.200 F 
ATOM     94  C   UNL A   1      46.995  35.043  29.216  1.00  0.00     0.200 A 
ATOM     95  F   UNL A   1      46.396  35.686  27.024  1.00  0.00    -0.200 F 
ATOM     96  F   UNL A   1      47.473  36.271  29.461  1.00  0.00    -0.200 F 
ENDBRANCH  63  86
ENDBRANCH  37  38
ENDBRANCH  29  32
ENDBRANCH  27  28
ENDBRANCH  26  27
ENDBRANCH   1  26
TORSDOF 14
ENDMDL
MODEL 3
REMARK VINA RESULT:     -12.6      0.110      1.629
REMARK SMILES [NH3+][C@@]1(C(=O)NCCCNC(=O)c2ccc(-c3c4nc(c(-c5c(F)c(F)c(F)c(F)c5F)c5ccc([nH]5)c(-c5c(F)c(F)c(F)c(F)c5F)c5nc(c(-c6c(F)c(F)c(F)c(F)c6F)c6ccc3[nH]6)C=C5)C=C4)cc2)CCC[C@@H](Oc2ccccc2[N+](=O)[O-])C1
REMARK SMILES IDX 6 1 5 2 3 3 4 4 2 6 75 7 89 8 76 9 78 10 77 11 1 12 79 16
REMARK SMILES IDX 80 17 81 18 85 19 82 20 84 21 83 22 86 23 87 24 88 25 7 26
REMARK SMILES IDX 8 27 9 28 10 29 11 31 12 32 13 33 74 34 14 35 73 36 15 37
REMARK SMILES IDX 16 38 17 39 67 40 18 41 72 42 66 43 68 44 19 45 71 46 65 47
REMARK SMILES IDX 64 48 20 50 52 51 32 52 51 53 33 54 36 55 50 56 69 57 34 58
REMARK SMILES IDX 35 59 49 61 70 62 37 63 21 64 22 65 30 66 23 67 24 68 28 69
REMARK SMILES IDX 31 70 25 71 26 72 29 73 27 74 53 75 54 76 62 77 55 78 56 79
REMARK SMILES IDX 60 80 63 81 57 82 58 83 61 84 59 85 38 86 39 87 47 88 40 89
REMARK SMILES IDX 41 90 45 91 48 92 42 93 43 94 46 95 44 96
REMARK H PARENT 5 5 1 13 1 14 1 15 9 30 68 49 36 60
REMARK Flexibility Score: inf
ROOT
ATOM      1  C   UNL A   1      31.641  30.593  25.920  1.00  0.00     0.118 C 
ENDROOT
BRANCH   1   2
ATOM      2  N   UNL A   1      30.952  30.378  24.662  1.00  0.00    -0.351 N 
ATOM      3  C   UNL A   1      30.768  29.259  23.899  1.00  0.00     0.281 C 
ATOM      4  O   UNL A   1      30.060  29.404  22.895  1.00  0.00    -0.268 OA
ATOM      5  H   UNL A   1      30.539  31.190  24.288  1.00  0.00     0.163 HD
BRANCH   3   6
ATOM      6  C   UNL A   1      31.316  27.838  24.301  1.00  0.00     0.177 C 
ATOM      7  C   UNL A   1      32.855  27.841  24.174  1.00  0.00     0.079 C 
ATOM      8  C   UNL A   1      30.736  26.805  23.307  1.00  0.00     0.124 C 
ATOM      9  C   UNL A   1      33.481  26.467  24.415  1.00  0.00     0.011 C 
ATOM     10  C   UNL A   1      31.408  25.416  23.259  1.00  0.00     0.180 C 
ATOM     11  C   UNL A   1      32.931  25.402  23.471  1.00  0.00     0.046 C 
BRANCH   6  12
ATOM     12  N   UNL A   1      31.008  27.564  25.714  1.00  0.00    -0.345 N 
ATOM     13  H   UNL A   1      30.036  27.267  25.798  1.00  0.00     0.345 HD
ATOM     14  H   UNL A   1      31.155  28.410  26.264  1.00  0.00     0.345 HD
ATOM     15  H   UNL A   1      31.621  26.824  26.057  1.00  0.00     0.345 HD
ENDBRANCH   6  12
BRANCH  10  16
ATOM     16  O   UNL A   1      30.709  24.328  23.909  1.00  0.00    -0.483 OA
BRANCH  16  17
ATOM     17  C   UNL A   1      31.440  23.259  24.322  1.00  0.00     0.197 A 
ATOM     18  C   UNL A   1      31.933  22.374  23.362  1.00  0.00     0.054 A 
ATOM     19  C   UNL A   1      31.664  22.978  25.675  1.00  0.00     0.310 A 
ATOM     20  C   UNL A   1      32.777  21.324  23.737  1.00  0.00     0.004 A 
ATOM     21  C   UNL A   1      32.532  21.943  26.058  1.00  0.00     0.090 A 
ATOM     22  C   UNL A   1      33.107  21.133  25.078  1.00  0.00     0.007 A 
BRANCH  19  23
ATOM     23  N   UNL A   1      31.055  23.784  26.726  1.00  0.00     0.066 N 
ATOM     24  O   UNL A   1      31.561  24.897  26.938  1.00  0.00    -0.258 OA
ATOM     25  O   UNL A   1      30.092  23.316  27.345  1.00  0.00    -0.258 OA
ENDBRANCH  19  23
ENDBRANCH  16  17
ENDBRANCH  10  16
ENDBRANCH   3   6
ENDBRANCH   1   2
BRANCH   1  26
ATOM     26  C   UNL A   1      31.351  31.962  26.540  1.00  0.00     0.042 C 
BRANCH  26  27
ATOM     27  C   UNL A   1      32.563  32.605  27.199  1.00  0.00     0.118 C 
BRANCH  27  28
ATOM     28  N   UNL A   1      32.328  33.994  27.576  1.00  0.00    -0.352 N 
ATOM     29  C   UNL A   1      32.968  34.784  28.500  1.00  0.00     0.251 C 
ATOM     30  H   UNL A   1      31.595  34.437  27.091  1.00  0.00     0.163 HD
ATOM     31  O   UNL A   1      32.525  35.902  28.751  1.00  0.00    -0.269 OA
BRANCH  29  32
ATOM     32  C   UNL A   1      34.161  34.293  29.226  1.00  0.00     0.039 A 
ATOM     33  C   UNL A   1      33.976  33.569  30.408  1.00  0.00     0.014 A 
ATOM     34  C   UNL A   1      35.454  34.548  28.764  1.00  0.00     0.014 A 
ATOM     35  C   UNL A   1      35.081  33.045  31.086  1.00  0.00     0.010 A 
ATOM     36  C   UNL A   1      36.543  33.946  29.384  1.00  0.00     0.010 A 
ATOM     37  C   UNL A   1      36.371  33.196  30.557  1.00  0.00    -0.014 A 
BRANCH  37  38
ATOM     38  C   UNL A   1      37.560  32.601  31.219  1.00  0.00     0.031 A 
ATOM     39  C   UNL A   1      38.303  31.476  30.550  1.00  0.00     0.074 A 
ATOM     40  C   UNL A   1      37.921  33.016  32.450  1.00  0.00     0.049 A 
ATOM     41  N   UNL A   1      39.284  30.740  31.009  1.00  0.00    -0.248 NA
ATOM     42  C   UNL A   1      37.859  31.104  29.197  1.00  0.00     0.031 C 
ATOM     43  C   UNL A   1      37.250  34.064  33.221  1.00  0.00     0.029 A 
ATOM     44  N   UNL A   1      38.932  32.593  33.277  1.00  0.00    -0.354 N 
ATOM     45  C   UNL A   1      39.554  29.811  30.013  1.00  0.00     0.074 A 
ATOM     46  C   UNL A   1      38.594  30.032  28.953  1.00  0.00     0.031 C 
ATOM     47  C   UNL A   1      37.877  34.215  34.398  1.00  0.00     0.029 A 
ATOM     48  C   UNL A   1      38.964  33.247  34.485  1.00  0.00     0.049 A 
ATOM     49  H   UNL A   1      39.572  31.889  33.028  1.00  0.00     0.167 HD
ATOM     50  C   UNL A   1      40.534  28.877  29.971  1.00  0.00     0.037 A 
ATOM     51  C   UNL A   1      39.772  33.072  35.548  1.00  0.00     0.037 A 
ATOM     52  C   UNL A   1      41.505  28.684  31.016  1.00  0.00     0.049 A 
ATOM     53  C   UNL A   1      40.853  32.026  35.478  1.00  0.00     0.074 A 
ATOM     54  C   UNL A   1      42.570  27.802  31.052  1.00  0.00     0.029 A 
ATOM     55  N   UNL A   1      41.528  29.392  32.209  1.00  0.00    -0.354 N 
ATOM     56  N   UNL A   1      41.138  31.193  34.505  1.00  0.00    -0.248 NA
ATOM     57  C   UNL A   1      41.730  31.899  36.650  1.00  0.00     0.031 C 
ATOM     58  C   UNL A   1      43.210  27.942  32.288  1.00  0.00     0.029 A 
ATOM     59  C   UNL A   1      42.580  28.954  32.996  1.00  0.00     0.049 A 
ATOM     60  H   UNL A   1      40.891  30.100  32.460  1.00  0.00     0.167 HD
ATOM     61  C   UNL A   1      42.245  30.471  34.932  1.00  0.00     0.074 A 
ATOM     62  C   UNL A   1      42.588  30.973  36.246  1.00  0.00     0.031 C 
ATOM     63  C   UNL A   1      42.917  29.481  34.295  1.00  0.00     0.037 A 
BRANCH  50  64
ATOM     64  C   UNL A   1      40.613  28.002  28.752  1.00  0.00     0.064 A 
ATOM     65  C   UNL A   1      39.907  26.792  28.668  1.00  0.00     0.173 A 
ATOM     66  C   UNL A   1      41.374  28.394  27.640  1.00  0.00     0.173 A 
ATOM     67  F   UNL A   1      39.174  26.364  29.707  1.00  0.00    -0.203 F 
ATOM     68  C   UNL A   1      39.985  25.992  27.531  1.00  0.00     0.198 A 
ATOM     69  C   UNL A   1      41.422  27.609  26.490  1.00  0.00     0.198 A 
ATOM     70  F   UNL A   1      42.064  29.544  27.662  1.00  0.00    -0.203 F 
ATOM     71  F   UNL A   1      39.346  24.816  27.497  1.00  0.00    -0.200 F 
ATOM     72  C   UNL A   1      40.735  26.405  26.440  1.00  0.00     0.200 A 
ATOM     73  F   UNL A   1      42.135  28.017  25.431  1.00  0.00    -0.200 F 
ATOM     74  F   UNL A   1      40.801  25.639  25.342  1.00  0.00    -0.200 F 
ENDBRANCH  50  64
BRANCH  51  75
ATOM     75  C   UNL A   1      39.605  33.915  36.763  1.00  0.00     0.064 A 
ATOM     76  C   UNL A   1      40.238  35.162  36.870  1.00  0.00     0.173 A 
ATOM     77  C   UNL A   1      38.826  33.487  37.848  1.00  0.00     0.173 A 
ATOM     78  F   UNL A   1      41.009  35.609  35.867  1.00  0.00    -0.203 F 
ATOM     79  C   UNL A   1      40.123  35.933  38.025  1.00  0.00     0.198 A 
ATOM     80  C   UNL A   1      38.684  34.275  38.989  1.00  0.00     0.198 A 
ATOM     81  F   UNL A   1      38.191  32.308  37.796  1.00  0.00    -0.203 F 
ATOM     82  F   UNL A   1      40.784  37.094  38.119  1.00  0.00    -0.200 F 
ATOM     83  C   UNL A   1      39.342  35.492  39.081  1.00  0.00     0.200 A 
ATOM     84  F   UNL A   1      37.914  33.852  40.001  1.00  0.00    -0.200 F 
ATOM     85  F   UNL A   1      39.230  36.234  40.191  1.00  0.00    -0.200 F 
ENDBRANCH  51  75
BRANCH  63  86
ATOM     86  C   UNL A   1      44.122  28.909  34.984  1.00  0.00     0.064 A 
ATOM     87  C   UNL A   1      45.399  29.467  34.826  1.00  0.00     0.173 A 
ATOM     88  C   UNL A   1      43.985  27.816  35.853  1.00  0.00     0.173 A 
ATOM     89  F   UNL A   1      45.585  30.505  33.996  1.00  0.00    -0.203 F 
ATOM     90  C   UNL A   1      46.498  28.934  35.492  1.00  0.00     0.198 A 
ATOM     91  C   UNL A   1      45.080  27.308  36.543  1.00  0.00     0.198 A 
ATOM     92  F   UNL A   1      42.783  27.251  36.044  1.00  0.00    -0.203 F 
ATOM     93  F   UNL A   1      47.718  29.452  35.288  1.00  0.00    -0.200 F 
ATOM     94  C   UNL A   1      46.337  27.862  36.356  1.00  0.00     0.200 A 
ATOM     95  F   UNL A   1      44.919  26.282  37.391  1.00  0.00    -0.200 F 
ATOM     96  F   UNL A   1      47.396  27.358  37.005  1.00  0.00    -0.200 F 
ENDBRANCH  63  86
ENDBRANCH  37  38
ENDBRANCH  29  32
ENDBRANCH  27  28
ENDBRANCH  26  27
ENDBRANCH   1  26
TORSDOF 14
ENDMDL
