MODEL 1
REMARK VINA RESULT:     -12.3      0.000      0.000
REMARK SMILES C[C@H]([NH2+][C@@H](C)[C@]12C[C@H]3C[C@H](C[C@H](C3)C1)C2)[C@@H](C)C(=O)NCCCNC(=O)c1ccc(-c2c3nc(c(-c4c(F)c(F)c(F)c(F)c4F)c4ccc([nH]4)c(-c4c(F)c(F)c(F)c(F)c4F)c4nc(c(-c5c(F)c(F)c(F)c(F)c5F)c5ccc2[nH]5)C=C4)C=C3)cc1
REMARK SMILES IDX 21 1 20 2 18 3 19 4 16 6 17 7 2 8 1 9 3 10 4 13 5 14 6 15
REMARK SMILES IDX 7 16 14 17 15 18 8 19 12 20 10 21 9 22 13 23 11 24 22 25
REMARK SMILES IDX 23 26 24 27 25 28 26 30 27 31 28 32 89 33 29 34 88 35 30 36
REMARK SMILES IDX 31 37 32 38 82 39 33 40 87 41 81 42 83 43 34 44 86 45 80 46
REMARK SMILES IDX 79 47 35 49 67 50 47 51 66 52 48 53 51 54 65 55 84 56 49 57
REMARK SMILES IDX 50 58 64 60 85 61 52 62 36 63 37 64 45 65 38 66 39 67 43 68
REMARK SMILES IDX 46 69 40 70 41 71 44 72 42 73 68 74 69 75 77 76 70 77 71 78
REMARK SMILES IDX 75 79 78 80 72 81 73 82 76 83 74 84 53 85 54 86 62 87 55 88
REMARK SMILES IDX 56 89 60 90 63 91 57 92 58 93 61 94 59 95
REMARK H PARENT 20 5 3 11 3 12 24 29 83 48 51 59
REMARK Flexibility Score: inf
ROOT
ATOM      1  C   UNL A   1      31.377  30.902  26.401  1.00  0.00     0.117 C 
ENDROOT
BRANCH   1   2
ATOM      2  N   UNL A   1      32.355  30.363  25.473  1.00  0.00    -0.356 N 
ATOM      3  C   UNL A   1      32.460  29.139  24.895  1.00  0.00     0.228 C 
ATOM      4  O   UNL A   1      33.465  28.914  24.217  1.00  0.00    -0.275 OA
ATOM      5  H   UNL A   1      33.066  30.995  25.219  1.00  0.00     0.163 HD
BRANCH   3   6
ATOM      6  C   UNL A   1      31.368  28.088  25.042  1.00  0.00     0.133 C 
ATOM      7  C   UNL A   1      31.769  27.133  26.185  1.00  0.00     0.024 C 
BRANCH   6   8
ATOM      8  C   UNL A   1      30.951  27.434  23.695  1.00  0.00     0.191 C 
ATOM      9  C   UNL A   1      29.753  26.483  23.858  1.00  0.00     0.076 C 
BRANCH   8  10
ATOM     10  N   UNL A   1      32.052  26.860  22.914  1.00  0.00    -0.341 N 
ATOM     11  H   UNL A   1      32.901  27.060  23.444  1.00  0.00     0.346 HD
ATOM     12  H   UNL A   1      31.893  27.292  22.004  1.00  0.00     0.346 HD
BRANCH  10  13
ATOM     13  C   UNL A   1      32.137  25.445  22.542  1.00  0.00     0.185 C 
ATOM     14  C   UNL A   1      32.600  25.471  21.074  1.00  0.00     0.076 C 
BRANCH  13  15
ATOM     15  C   UNL A   1      33.015  24.510  23.477  1.00  0.00     0.023 C 
ATOM     16  C   UNL A   1      32.192  23.800  24.596  1.00  0.00     0.016 C 
ATOM     17  C   UNL A   1      34.084  25.391  24.188  1.00  0.00     0.016 C 
ATOM     18  C   UNL A   1      33.747  23.376  22.713  1.00  0.00     0.016 C 
ATOM     19  C   UNL A   1      33.093  22.953  25.518  1.00  0.00    -0.010 C 
ATOM     20  C   UNL A   1      34.984  24.559  25.112  1.00  0.00    -0.010 C 
ATOM     21  C   UNL A   1      34.675  22.558  23.620  1.00  0.00    -0.010 C 
ATOM     22  C   UNL A   1      33.828  21.882  24.697  1.00  0.00     0.007 C 
ATOM     23  C   UNL A   1      34.127  23.872  26.184  1.00  0.00     0.007 C 
ATOM     24  C   UNL A   1      35.705  23.496  24.273  1.00  0.00     0.007 C 
ENDBRANCH  13  15
ENDBRANCH  10  13
ENDBRANCH   8  10
ENDBRANCH   6   8
ENDBRANCH   3   6
ENDBRANCH   1   2
BRANCH   1  25
ATOM     25  C   UNL A   1      31.456  32.418  26.477  1.00  0.00     0.042 C 
BRANCH  25  26
ATOM     26  C   UNL A   1      32.534  32.908  27.429  1.00  0.00     0.118 C 
BRANCH  26  27
ATOM     27  N   UNL A   1      32.412  34.334  27.708  1.00  0.00    -0.352 N 
ATOM     28  C   UNL A   1      33.029  35.091  28.668  1.00  0.00     0.251 C 
ATOM     29  H   UNL A   1      31.797  34.825  27.117  1.00  0.00     0.163 HD
ATOM     30  O   UNL A   1      32.618  36.224  28.917  1.00  0.00    -0.269 OA
BRANCH  28  31
ATOM     31  C   UNL A   1      34.176  34.540  29.412  1.00  0.00     0.039 A 
ATOM     32  C   UNL A   1      33.952  33.871  30.616  1.00  0.00     0.014 A 
ATOM     33  C   UNL A   1      35.475  34.691  28.921  1.00  0.00     0.014 A 
ATOM     34  C   UNL A   1      35.027  33.297  31.295  1.00  0.00     0.010 A 
ATOM     35  C   UNL A   1      36.528  34.032  29.540  1.00  0.00     0.010 A 
ATOM     36  C   UNL A   1      36.318  33.342  30.742  1.00  0.00    -0.014 A 
BRANCH  36  37
ATOM     37  C   UNL A   1      37.470  32.697  31.415  1.00  0.00     0.031 A 
ATOM     38  C   UNL A   1      38.182  31.554  30.748  1.00  0.00     0.074 A 
ATOM     39  C   UNL A   1      37.828  33.095  32.652  1.00  0.00     0.049 A 
ATOM     40  N   UNL A   1      39.156  30.805  31.200  1.00  0.00    -0.248 NA
ATOM     41  C   UNL A   1      37.716  31.180  29.402  1.00  0.00     0.031 C 
ATOM     42  C   UNL A   1      37.180  34.158  33.420  1.00  0.00     0.029 A 
ATOM     43  N   UNL A   1      38.820  32.641  33.483  1.00  0.00    -0.354 N 
ATOM     44  C   UNL A   1      39.404  29.869  30.206  1.00  0.00     0.074 A 
ATOM     45  C   UNL A   1      38.439  30.099  29.154  1.00  0.00     0.031 C 
ATOM     46  C   UNL A   1      37.809  34.296  34.598  1.00  0.00     0.029 A 
ATOM     47  C   UNL A   1      38.874  33.303  34.687  1.00  0.00     0.049 A 
ATOM     48  H   UNL A   1      39.436  31.912  33.241  1.00  0.00     0.167 HD
ATOM     49  C   UNL A   1      40.370  28.921  30.161  1.00  0.00     0.037 A 
ATOM     50  C   UNL A   1      39.687  33.119  35.744  1.00  0.00     0.037 A 
ATOM     51  C   UNL A   1      41.343  28.714  31.201  1.00  0.00     0.049 A 
ATOM     52  C   UNL A   1      40.743  32.049  35.673  1.00  0.00     0.074 A 
ATOM     53  C   UNL A   1      42.397  27.820  31.231  1.00  0.00     0.029 A 
ATOM     54  N   UNL A   1      41.375  29.414  32.399  1.00  0.00    -0.354 N 
ATOM     55  N   UNL A   1      41.016  31.215  34.699  1.00  0.00    -0.248 NA
ATOM     56  C   UNL A   1      41.611  31.899  36.850  1.00  0.00     0.031 C 
ATOM     57  C   UNL A   1      43.037  27.942  32.469  1.00  0.00     0.029 A 
ATOM     58  C   UNL A   1      42.419  28.955  33.186  1.00  0.00     0.049 A 
ATOM     59  H   UNL A   1      40.751  30.131  32.652  1.00  0.00     0.167 HD
ATOM     60  C   UNL A   1      42.103  30.465  35.129  1.00  0.00     0.074 A 
ATOM     61  C   UNL A   1      42.450  30.955  36.448  1.00  0.00     0.031 C 
ATOM     62  C   UNL A   1      42.756  29.463  34.492  1.00  0.00     0.037 A 
BRANCH  49  63
ATOM     63  C   UNL A   1      40.424  28.041  28.945  1.00  0.00     0.064 A 
ATOM     64  C   UNL A   1      39.719  26.828  28.882  1.00  0.00     0.173 A 
ATOM     65  C   UNL A   1      41.163  28.427  27.817  1.00  0.00     0.173 A 
ATOM     66  F   UNL A   1      39.007  26.405  29.937  1.00  0.00    -0.203 F 
ATOM     67  C   UNL A   1      39.779  26.021  27.748  1.00  0.00     0.198 A 
ATOM     68  C   UNL A   1      41.193  27.634  26.672  1.00  0.00     0.198 A 
ATOM     69  F   UNL A   1      41.850  29.578  27.820  1.00  0.00    -0.203 F 
ATOM     70  F   UNL A   1      39.144  24.841  27.734  1.00  0.00    -0.200 F 
ATOM     71  C   UNL A   1      40.510  26.428  26.642  1.00  0.00     0.200 A 
ATOM     72  F   UNL A   1      41.886  28.036  25.598  1.00  0.00    -0.200 F 
ATOM     73  F   UNL A   1      40.559  25.654  25.549  1.00  0.00    -0.200 F 
ENDBRANCH  49  63
BRANCH  50  74
ATOM     74  C   UNL A   1      39.554  33.982  36.946  1.00  0.00     0.064 A 
ATOM     75  C   UNL A   1      38.790  33.569  38.047  1.00  0.00     0.173 A 
ATOM     76  C   UNL A   1      40.174  35.238  37.018  1.00  0.00     0.173 A 
ATOM     77  F   UNL A   1      38.162  32.385  38.018  1.00  0.00    -0.203 F 
ATOM     78  C   UNL A   1      38.629  34.389  39.161  1.00  0.00     0.198 A 
ATOM     79  C   UNL A   1      40.039  36.044  38.147  1.00  0.00     0.198 A 
ATOM     80  F   UNL A   1      40.922  35.678  35.996  1.00  0.00    -0.203 F 
ATOM     81  F   UNL A   1      37.851  33.991  40.177  1.00  0.00    -0.200 F 
ATOM     82  C   UNL A   1      39.259  35.624  39.213  1.00  0.00     0.200 A 
ATOM     83  F   UNL A   1      40.662  37.229  38.200  1.00  0.00    -0.200 F 
ATOM     84  F   UNL A   1      39.106  36.412  40.286  1.00  0.00    -0.200 F 
ENDBRANCH  50  74
BRANCH  62  85
ATOM     85  C   UNL A   1      43.938  28.858  35.192  1.00  0.00     0.064 A 
ATOM     86  C   UNL A   1      45.232  29.374  35.035  1.00  0.00     0.173 A 
ATOM     87  C   UNL A   1      43.764  27.773  36.064  1.00  0.00     0.173 A 
ATOM     88  F   UNL A   1      45.454  30.401  34.200  1.00  0.00    -0.203 F 
ATOM     89  C   UNL A   1      46.314  28.807  35.704  1.00  0.00     0.198 A 
ATOM     90  C   UNL A   1      44.841  27.231  36.758  1.00  0.00     0.198 A 
ATOM     91  F   UNL A   1      42.544  27.247  36.257  1.00  0.00    -0.203 F 
ATOM     92  F   UNL A   1      47.550  29.282  35.499  1.00  0.00    -0.200 F 
ATOM     93  C   UNL A   1      46.117  27.742  36.570  1.00  0.00     0.200 A 
ATOM     94  F   UNL A   1      44.646  26.214  37.608  1.00  0.00    -0.200 F 
ATOM     95  F   UNL A   1      47.157  27.204  37.220  1.00  0.00    -0.200 F 
ENDBRANCH  62  85
ENDBRANCH  36  37
ENDBRANCH  28  31
ENDBRANCH  26  27
ENDBRANCH  25  26
ENDBRANCH   1  25
TORSDOF 14
ENDMDL
MODEL 2
REMARK VINA RESULT:     -12.3      5.602     10.667
REMARK SMILES C[C@H]([NH2+][C@@H](C)[C@]12C[C@H]3C[C@H](C[C@H](C3)C1)C2)[C@@H](C)C(=O)NCCCNC(=O)c1ccc(-c2c3nc(c(-c4c(F)c(F)c(F)c(F)c4F)c4ccc([nH]4)c(-c4c(F)c(F)c(F)c(F)c4F)c4nc(c(-c5c(F)c(F)c(F)c(F)c5F)c5ccc2[nH]5)C=C4)C=C3)cc1
REMARK SMILES IDX 21 1 20 2 18 3 19 4 16 6 17 7 2 8 1 9 3 10 4 13 5 14 6 15
REMARK SMILES IDX 7 16 14 17 15 18 8 19 12 20 10 21 9 22 13 23 11 24 22 25
REMARK SMILES IDX 23 26 24 27 25 28 26 30 27 31 28 32 89 33 29 34 88 35 30 36
REMARK SMILES IDX 31 37 32 38 82 39 33 40 87 41 81 42 83 43 34 44 86 45 80 46
REMARK SMILES IDX 79 47 35 49 67 50 47 51 66 52 48 53 51 54 65 55 84 56 49 57
REMARK SMILES IDX 50 58 64 60 85 61 52 62 36 63 37 64 45 65 38 66 39 67 43 68
REMARK SMILES IDX 46 69 40 70 41 71 44 72 42 73 68 74 69 75 77 76 70 77 71 78
REMARK SMILES IDX 75 79 78 80 72 81 73 82 76 83 74 84 53 85 54 86 62 87 55 88
REMARK SMILES IDX 56 89 60 90 63 91 57 92 58 93 61 94 59 95
REMARK H PARENT 20 5 3 11 3 12 24 29 83 48 51 59
REMARK Flexibility Score: inf
ROOT
ATOM      1  C   UNL A   1      36.928  20.859  24.796  1.00  0.00     0.117 C 
ENDROOT
BRANCH   1   2
ATOM      2  N   UNL A   1      35.629  20.480  25.323  1.00  0.00    -0.356 N 
ATOM      3  C   UNL A   1      34.483  21.192  25.478  1.00  0.00     0.228 C 
ATOM      4  O   UNL A   1      33.545  20.642  26.058  1.00  0.00    -0.275 OA
ATOM      5  H   UNL A   1      35.568  19.543  25.620  1.00  0.00     0.163 HD
BRANCH   3   6
ATOM      6  C   UNL A   1      34.339  22.606  24.929  1.00  0.00     0.133 C 
ATOM      7  C   UNL A   1      34.604  23.598  26.079  1.00  0.00     0.024 C 
BRANCH   6   8
ATOM      8  C   UNL A   1      33.041  22.820  24.102  1.00  0.00     0.191 C 
ATOM      9  C   UNL A   1      33.329  22.969  22.598  1.00  0.00     0.076 C 
BRANCH   8  10
ATOM     10  N   UNL A   1      32.128  23.840  24.628  1.00  0.00    -0.341 N 
ATOM     11  H   UNL A   1      32.513  24.115  25.532  1.00  0.00     0.346 HD
ATOM     12  H   UNL A   1      31.235  23.354  24.568  1.00  0.00     0.346 HD
BRANCH  10  13
ATOM     13  C   UNL A   1      31.815  25.091  23.931  1.00  0.00     0.185 C 
ATOM     14  C   UNL A   1      30.331  24.944  23.547  1.00  0.00     0.076 C 
BRANCH  13  15
ATOM     15  C   UNL A   1      32.153  26.441  24.694  1.00  0.00     0.023 C 
ATOM     16  C   UNL A   1      31.124  27.582  24.426  1.00  0.00     0.016 C 
ATOM     17  C   UNL A   1      33.538  26.951  24.199  1.00  0.00     0.016 C 
ATOM     18  C   UNL A   1      32.213  26.286  26.236  1.00  0.00     0.016 C 
ATOM     19  C   UNL A   1      31.525  28.891  25.135  1.00  0.00    -0.010 C 
ATOM     20  C   UNL A   1      33.946  28.257  24.896  1.00  0.00    -0.010 C 
ATOM     21  C   UNL A   1      32.651  27.575  26.942  1.00  0.00    -0.010 C 
ATOM     22  C   UNL A   1      31.616  28.662  26.652  1.00  0.00     0.007 C 
ATOM     23  C   UNL A   1      32.896  29.341  24.613  1.00  0.00     0.007 C 
ATOM     24  C   UNL A   1      34.029  28.005  26.407  1.00  0.00     0.007 C 
ENDBRANCH  13  15
ENDBRANCH  10  13
ENDBRANCH   8  10
ENDBRANCH   6   8
ENDBRANCH   3   6
ENDBRANCH   1   2
BRANCH   1  25
ATOM     25  C   UNL A   1      37.958  19.761  25.007  1.00  0.00     0.042 C 
BRANCH  25  26
ATOM     26  C   UNL A   1      39.137  20.209  25.853  1.00  0.00     0.118 C 
BRANCH  26  27
ATOM     27  N   UNL A   1      40.179  19.192  25.924  1.00  0.00    -0.352 N 
ATOM     28  C   UNL A   1      41.533  19.338  26.064  1.00  0.00     0.251 C 
ATOM     29  H   UNL A   1      39.861  18.262  25.863  1.00  0.00     0.163 HD
ATOM     30  O   UNL A   1      42.281  18.383  25.853  1.00  0.00    -0.269 OA
BRANCH  28  31
ATOM     31  C   UNL A   1      42.094  20.644  26.455  1.00  0.00     0.039 A 
ATOM     32  C   UNL A   1      42.483  21.545  25.463  1.00  0.00     0.014 A 
ATOM     33  C   UNL A   1      42.239  20.976  27.805  1.00  0.00     0.014 A 
ATOM     34  C   UNL A   1      42.959  22.805  25.827  1.00  0.00     0.010 A 
ATOM     35  C   UNL A   1      42.613  22.263  28.163  1.00  0.00     0.010 A 
ATOM     36  C   UNL A   1      42.993  23.186  27.179  1.00  0.00    -0.014 A 
BRANCH  36  37
ATOM     37  C   UNL A   1      43.446  24.536  27.591  1.00  0.00     0.031 A 
ATOM     38  C   UNL A   1      42.433  25.590  27.939  1.00  0.00     0.074 A 
ATOM     39  C   UNL A   1      44.761  24.829  27.584  1.00  0.00     0.049 A 
ATOM     40  N   UNL A   1      42.618  26.849  28.244  1.00  0.00    -0.248 NA
ATOM     41  C   UNL A   1      41.018  25.183  27.908  1.00  0.00     0.031 C 
ATOM     42  C   UNL A   1      45.833  23.903  27.217  1.00  0.00     0.029 A 
ATOM     43  N   UNL A   1      45.417  25.994  27.887  1.00  0.00    -0.354 N 
ATOM     44  C   UNL A   1      41.349  27.384  28.425  1.00  0.00     0.074 A 
ATOM     45  C   UNL A   1      40.400  26.333  28.132  1.00  0.00     0.031 C 
ATOM     46  C   UNL A   1      47.015  24.526  27.343  1.00  0.00     0.029 A 
ATOM     47  C   UNL A   1      46.783  25.906  27.757  1.00  0.00     0.049 A 
ATOM     48  H   UNL A   1      44.955  26.816  28.171  1.00  0.00     0.167 HD
ATOM     49  C   UNL A   1      41.007  28.630  28.827  1.00  0.00     0.037 A 
ATOM     50  C   UNL A   1      47.735  26.839  27.943  1.00  0.00     0.037 A 
ATOM     51  C   UNL A   1      41.959  29.663  29.140  1.00  0.00     0.049 A 
ATOM     52  C   UNL A   1      47.327  28.221  28.377  1.00  0.00     0.074 A 
ATOM     53  C   UNL A   1      41.721  30.942  29.610  1.00  0.00     0.029 A 
ATOM     54  N   UNL A   1      43.334  29.532  29.011  1.00  0.00    -0.354 N 
ATOM     55  N   UNL A   1      46.128  28.696  28.613  1.00  0.00    -0.248 NA
ATOM     56  C   UNL A   1      48.408  29.197  28.577  1.00  0.00     0.031 C 
ATOM     57  C   UNL A   1      42.950  31.603  29.716  1.00  0.00     0.029 A 
ATOM     58  C   UNL A   1      43.957  30.717  29.371  1.00  0.00     0.049 A 
ATOM     59  H   UNL A   1      43.799  28.718  28.710  1.00  0.00     0.167 HD
ATOM     60  C   UNL A   1      46.310  30.011  29.020  1.00  0.00     0.074 A 
ATOM     61  C   UNL A   1      47.739  30.255  29.012  1.00  0.00     0.031 C 
ATOM     62  C   UNL A   1      45.381  30.935  29.367  1.00  0.00     0.037 A 
BRANCH  49  63
ATOM     63  C   UNL A   1      39.544  28.942  28.956  1.00  0.00     0.064 A 
ATOM     64  C   UNL A   1      38.774  29.338  27.851  1.00  0.00     0.173 A 
ATOM     65  C   UNL A   1      38.894  28.814  30.193  1.00  0.00     0.173 A 
ATOM     66  F   UNL A   1      39.348  29.488  26.647  1.00  0.00    -0.203 F 
ATOM     67  C   UNL A   1      37.418  29.625  27.986  1.00  0.00     0.198 A 
ATOM     68  C   UNL A   1      37.530  29.069  30.317  1.00  0.00     0.198 A 
ATOM     69  F   UNL A   1      39.579  28.434  31.281  1.00  0.00    -0.203 F 
ATOM     70  F   UNL A   1      36.718  30.055  26.927  1.00  0.00    -0.200 F 
ATOM     71  C   UNL A   1      36.796  29.483  29.217  1.00  0.00     0.200 A 
ATOM     72  F   UNL A   1      36.927  28.917  31.504  1.00  0.00    -0.200 F 
ATOM     73  F   UNL A   1      35.489  29.752  29.343  1.00  0.00    -0.200 F 
ENDBRANCH  49  63
BRANCH  50  74
ATOM     74  C   UNL A   1      49.166  26.492  27.746  1.00  0.00     0.064 A 
ATOM     75  C   UNL A   1      50.012  26.274  28.843  1.00  0.00     0.173 A 
ATOM     76  C   UNL A   1      49.723  26.380  26.464  1.00  0.00     0.173 A 
ATOM     77  F   UNL A   1      49.531  26.388  30.090  1.00  0.00    -0.203 F 
ATOM     78  C   UNL A   1      51.363  25.985  28.667  1.00  0.00     0.198 A 
ATOM     79  C   UNL A   1      51.068  26.060  26.287  1.00  0.00     0.198 A 
ATOM     80  F   UNL A   1      48.957  26.571  25.379  1.00  0.00    -0.203 F 
ATOM     81  F   UNL A   1      52.158  25.834  29.734  1.00  0.00    -0.200 F 
ATOM     82  C   UNL A   1      51.889  25.872  27.388  1.00  0.00     0.200 A 
ATOM     83  F   UNL A   1      51.568  25.935  25.050  1.00  0.00    -0.200 F 
ATOM     84  F   UNL A   1      53.189  25.593  27.219  1.00  0.00    -0.200 F 
ENDBRANCH  50  74
BRANCH  62  85
ATOM     85  C   UNL A   1      45.881  32.280  29.811  1.00  0.00     0.064 A 
ATOM     86  C   UNL A   1      46.042  33.342  28.910  1.00  0.00     0.173 A 
ATOM     87  C   UNL A   1      46.161  32.518  31.165  1.00  0.00     0.173 A 
ATOM     88  F   UNL A   1      45.801  33.161  27.603  1.00  0.00    -0.203 F 
ATOM     89  C   UNL A   1      46.493  34.586  29.345  1.00  0.00     0.198 A 
ATOM     90  C   UNL A   1      46.579  33.772  31.601  1.00  0.00     0.198 A 
ATOM     91  F   UNL A   1      46.015  31.538  32.070  1.00  0.00    -0.203 F 
ATOM     92  F   UNL A   1      46.690  35.571  28.458  1.00  0.00    -0.200 F 
ATOM     93  C   UNL A   1      46.754  34.802  30.689  1.00  0.00     0.200 A 
ATOM     94  F   UNL A   1      46.813  33.983  32.904  1.00  0.00    -0.200 F 
ATOM     95  F   UNL A   1      47.179  36.001  31.107  1.00  0.00    -0.200 F 
ENDBRANCH  62  85
ENDBRANCH  36  37
ENDBRANCH  28  31
ENDBRANCH  26  27
ENDBRANCH  25  26
ENDBRANCH   1  25
TORSDOF 14
ENDMDL
MODEL 3
REMARK VINA RESULT:     -12.2      0.355      1.798
REMARK SMILES C[C@H]([NH2+][C@@H](C)[C@]12C[C@H]3C[C@H](C[C@H](C3)C1)C2)[C@@H](C)C(=O)NCCCNC(=O)c1ccc(-c2c3nc(c(-c4c(F)c(F)c(F)c(F)c4F)c4ccc([nH]4)c(-c4c(F)c(F)c(F)c(F)c4F)c4nc(c(-c5c(F)c(F)c(F)c(F)c5F)c5ccc2[nH]5)C=C4)C=C3)cc1
REMARK SMILES IDX 21 1 20 2 18 3 19 4 16 6 17 7 2 8 1 9 3 10 4 13 5 14 6 15
REMARK SMILES IDX 7 16 14 17 15 18 8 19 12 20 10 21 9 22 13 23 11 24 22 25
REMARK SMILES IDX 23 26 24 27 25 28 26 30 27 31 28 32 89 33 29 34 88 35 30 36
REMARK SMILES IDX 31 37 32 38 82 39 33 40 87 41 81 42 83 43 34 44 86 45 80 46
REMARK SMILES IDX 79 47 35 49 67 50 47 51 66 52 48 53 51 54 65 55 84 56 49 57
REMARK SMILES IDX 50 58 64 60 85 61 52 62 36 63 37 64 45 65 38 66 39 67 43 68
REMARK SMILES IDX 46 69 40 70 41 71 44 72 42 73 68 74 69 75 77 76 70 77 71 78
REMARK SMILES IDX 75 79 78 80 72 81 73 82 76 83 74 84 53 85 54 86 62 87 55 88
REMARK SMILES IDX 56 89 60 90 63 91 57 92 58 93 61 94 59 95
REMARK H PARENT 20 5 3 11 3 12 24 29 83 48 51 59
REMARK Flexibility Score: inf
ROOT
ATOM      1  C   UNL A   1      31.346  31.175  25.763  1.00  0.00     0.117 C 
ENDROOT
BRANCH   1   2
ATOM      2  N   UNL A   1      32.550  30.365  25.724  1.00  0.00    -0.356 N 
ATOM      3  C   UNL A   1      32.724  29.019  25.756  1.00  0.00     0.228 C 
ATOM      4  O   UNL A   1      33.880  28.595  25.815  1.00  0.00    -0.275 OA
ATOM      5  H   UNL A   1      33.387  30.881  25.663  1.00  0.00     0.163 HD
BRANCH   3   6
ATOM      6  C   UNL A   1      31.544  28.057  25.686  1.00  0.00     0.133 C 
ATOM      7  C   UNL A   1      31.752  26.963  26.752  1.00  0.00     0.024 C 
BRANCH   6   8
ATOM      8  C   UNL A   1      31.219  27.579  24.243  1.00  0.00     0.191 C 
ATOM      9  C   UNL A   1      29.915  26.765  24.183  1.00  0.00     0.076 C 
BRANCH   8  10
ATOM     10  N   UNL A   1      32.335  26.954  23.527  1.00  0.00    -0.341 N 
ATOM     11  H   UNL A   1      33.150  27.069  24.131  1.00  0.00     0.346 HD
ATOM     12  H   UNL A   1      32.282  27.430  22.627  1.00  0.00     0.346 HD
BRANCH  10  13
ATOM     13  C   UNL A   1      32.347  25.551  23.103  1.00  0.00     0.185 C 
ATOM     14  C   UNL A   1      32.650  25.619  21.595  1.00  0.00     0.076 C 
BRANCH  13  15
ATOM     15  C   UNL A   1      33.298  24.568  23.907  1.00  0.00     0.023 C 
ATOM     16  C   UNL A   1      34.360  25.304  24.781  1.00  0.00     0.016 C 
ATOM     17  C   UNL A   1      34.079  23.693  22.882  1.00  0.00     0.016 C 
ATOM     18  C   UNL A   1      32.541  23.624  24.877  1.00  0.00     0.016 C 
ATOM     19  C   UNL A   1      35.302  24.311  25.493  1.00  0.00    -0.010 C 
ATOM     20  C   UNL A   1      35.023  22.703  23.581  1.00  0.00    -0.010 C 
ATOM     21  C   UNL A   1      33.469  22.609  25.557  1.00  0.00    -0.010 C 
ATOM     22  C   UNL A   1      34.489  23.373  26.400  1.00  0.00     0.007 C 
ATOM     23  C   UNL A   1      36.037  23.476  24.437  1.00  0.00     0.007 C 
ATOM     24  C   UNL A   1      34.191  21.779  24.481  1.00  0.00     0.007 C 
ENDBRANCH  13  15
ENDBRANCH  10  13
ENDBRANCH   8  10
ENDBRANCH   6   8
ENDBRANCH   3   6
ENDBRANCH   1   2
BRANCH   1  25
ATOM     25  C   UNL A   1      31.331  32.094  26.974  1.00  0.00     0.042 C 
BRANCH  25  26
ATOM     26  C   UNL A   1      32.645  32.832  27.174  1.00  0.00     0.118 C 
BRANCH  26  27
ATOM     27  N   UNL A   1      32.439  34.229  27.536  1.00  0.00    -0.352 N 
ATOM     28  C   UNL A   1      32.986  34.954  28.560  1.00  0.00     0.251 C 
ATOM     29  H   UNL A   1      31.816  34.724  26.956  1.00  0.00     0.163 HD
ATOM     30  O   UNL A   1      32.508  36.048  28.864  1.00  0.00    -0.269 OA
BRANCH  28  31
ATOM     31  C   UNL A   1      34.138  34.417  29.307  1.00  0.00     0.039 A 
ATOM     32  C   UNL A   1      33.920  33.752  30.513  1.00  0.00     0.014 A 
ATOM     33  C   UNL A   1      35.436  34.577  28.814  1.00  0.00     0.014 A 
ATOM     34  C   UNL A   1      35.001  33.190  31.194  1.00  0.00     0.010 A 
ATOM     35  C   UNL A   1      36.494  33.930  29.436  1.00  0.00     0.010 A 
ATOM     36  C   UNL A   1      36.291  33.245  30.641  1.00  0.00    -0.014 A 
BRANCH  36  37
ATOM     37  C   UNL A   1      37.449  32.613  31.317  1.00  0.00     0.031 A 
ATOM     38  C   UNL A   1      38.177  31.480  30.650  1.00  0.00     0.074 A 
ATOM     39  C   UNL A   1      37.798  33.013  32.555  1.00  0.00     0.049 A 
ATOM     40  N   UNL A   1      39.158  30.742  31.105  1.00  0.00    -0.248 NA
ATOM     41  C   UNL A   1      37.719  31.102  29.302  1.00  0.00     0.031 C 
ATOM     42  C   UNL A   1      37.135  34.068  33.323  1.00  0.00     0.029 A 
ATOM     43  N   UNL A   1      38.794  32.572  33.389  1.00  0.00    -0.354 N 
ATOM     44  C   UNL A   1      39.421  29.810  30.110  1.00  0.00     0.074 A 
ATOM     45  C   UNL A   1      38.457  30.029  29.056  1.00  0.00     0.031 C 
ATOM     46  C   UNL A   1      37.759  34.212  34.502  1.00  0.00     0.029 A 
ATOM     47  C   UNL A   1      38.836  33.232  34.593  1.00  0.00     0.049 A 
ATOM     48  H   UNL A   1      39.419  31.850  33.148  1.00  0.00     0.167 HD
ATOM     49  C   UNL A   1      40.398  28.874  30.067  1.00  0.00     0.037 A 
ATOM     50  C   UNL A   1      39.648  33.057  35.652  1.00  0.00     0.037 A 
ATOM     51  C   UNL A   1      41.371  28.678  31.110  1.00  0.00     0.049 A 
ATOM     52  C   UNL A   1      40.718  32.000  35.584  1.00  0.00     0.074 A 
ATOM     53  C   UNL A   1      42.436  27.797  31.142  1.00  0.00     0.029 A 
ATOM     54  N   UNL A   1      41.391  29.377  32.308  1.00  0.00    -0.354 N 
ATOM     55  N   UNL A   1      41.003  31.171  34.610  1.00  0.00    -0.248 NA
ATOM     56  C   UNL A   1      41.584  31.860  36.762  1.00  0.00     0.031 C 
ATOM     57  C   UNL A   1      43.070  27.925  32.382  1.00  0.00     0.029 A 
ATOM     58  C   UNL A   1      42.439  28.929  33.098  1.00  0.00     0.049 A 
ATOM     59  H   UNL A   1      40.757  30.086  32.560  1.00  0.00     0.167 HD
ATOM     60  C   UNL A   1      42.098  30.434  35.042  1.00  0.00     0.074 A 
ATOM     61  C   UNL A   1      42.435  30.926  36.362  1.00  0.00     0.031 C 
ATOM     62  C   UNL A   1      42.765  29.440  34.405  1.00  0.00     0.037 A 
BRANCH  49  63
ATOM     63  C   UNL A   1      40.466  27.996  28.850  1.00  0.00     0.064 A 
ATOM     64  C   UNL A   1      39.757  26.786  28.774  1.00  0.00     0.173 A 
ATOM     65  C   UNL A   1      41.225  28.381  27.734  1.00  0.00     0.173 A 
ATOM     66  F   UNL A   1      39.027  26.365  29.817  1.00  0.00    -0.203 F 
ATOM     67  C   UNL A   1      39.831  25.981  27.640  1.00  0.00     0.198 A 
ATOM     68  C   UNL A   1      41.268  27.590  26.589  1.00  0.00     0.198 A 
ATOM     69  F   UNL A   1      41.917  29.529  27.750  1.00  0.00    -0.203 F 
ATOM     70  F   UNL A   1      39.190  24.805  27.613  1.00  0.00    -0.200 F 
ATOM     71  C   UNL A   1      40.580  26.387  26.546  1.00  0.00     0.200 A 
ATOM     72  F   UNL A   1      41.980  27.991  25.526  1.00  0.00    -0.200 F 
ATOM     73  F   UNL A   1      40.642  25.615  25.452  1.00  0.00    -0.200 F 
ENDBRANCH  49  63
BRANCH  50  74
ATOM     74  C   UNL A   1      39.501  33.917  36.855  1.00  0.00     0.064 A 
ATOM     75  C   UNL A   1      40.142  35.162  36.933  1.00  0.00     0.173 A 
ATOM     76  C   UNL A   1      38.728  33.514  37.953  1.00  0.00     0.173 A 
ATOM     77  F   UNL A   1      40.908  35.584  35.916  1.00  0.00    -0.203 F 
ATOM     78  C   UNL A   1      40.039  35.956  38.072  1.00  0.00     0.198 A 
ATOM     79  C   UNL A   1      38.598  34.324  39.080  1.00  0.00     0.198 A 
ATOM     80  F   UNL A   1      38.087  32.336  37.928  1.00  0.00    -0.203 F 
ATOM     81  F   UNL A   1      40.705  37.117  38.139  1.00  0.00    -0.200 F 
ATOM     82  C   UNL A   1      39.262  35.540  39.143  1.00  0.00     0.200 A 
ATOM     83  F   UNL A   1      37.834  33.925  40.105  1.00  0.00    -0.200 F 
ATOM     84  F   UNL A   1      39.161  36.305  40.238  1.00  0.00    -0.200 F 
ENDBRANCH  50  74
BRANCH  62  85
ATOM     85  C   UNL A   1      43.952  28.849  35.108  1.00  0.00     0.064 A 
ATOM     86  C   UNL A   1      43.824  27.770  35.995  1.00  0.00     0.173 A 
ATOM     87  C   UNL A   1      45.241  29.342  34.855  1.00  0.00     0.173 A 
ATOM     88  F   UNL A   1      42.612  27.271  36.281  1.00  0.00    -0.203 F 
ATOM     89  C   UNL A   1      44.940  27.227  36.626  1.00  0.00     0.198 A 
ATOM     90  C   UNL A   1      46.358  28.775  35.461  1.00  0.00     0.198 A 
ATOM     91  F   UNL A   1      45.420  30.368  34.008  1.00  0.00    -0.203 F 
ATOM     92  F   UNL A   1      44.789  26.231  37.510  1.00  0.00    -0.200 F 
ATOM     93  C   UNL A   1      46.206  27.724  36.353  1.00  0.00     0.200 A 
ATOM     94  F   UNL A   1      47.582  29.245  35.182  1.00  0.00    -0.200 F 
ATOM     95  F   UNL A   1      47.280  27.194  36.953  1.00  0.00    -0.200 F 
ENDBRANCH  62  85
ENDBRANCH  36  37
ENDBRANCH  28  31
ENDBRANCH  26  27
ENDBRANCH  25  26
ENDBRANCH   1  25
TORSDOF 14
ENDMDL
