MODEL 1
REMARK VINA RESULT:     -11.3      0.000      0.000
REMARK SMILES NC(=O)CC[C@H](NC(=O)CC1CC1)C(=O)NCCCNC(=O)c1ccc(-c2c3nc(c(-c4c(F)c(F)c(F)c(F)c4F)c4ccc([nH]4)c(-c4c(F)c(F)c(F)c(F)c4F)c4nc(c(-c5c(F)c(F)c(F)c(F)c5F)c5ccc2[nH]5)C=C4)C=C3)cc1
REMARK SMILES IDX 17 1 16 2 14 3 15 4 6 6 5 7 4 8 2 9 1 10 3 13 7 14 8 15 9 17
REMARK SMILES IDX 10 18 11 19 12 20 13 21 18 22 19 23 20 24 21 25 22 27 23 28
REMARK SMILES IDX 24 29 85 30 25 31 84 32 26 33 27 34 28 35 78 36 29 37 83 38
REMARK SMILES IDX 77 39 79 40 30 41 82 42 76 43 75 44 31 46 63 47 43 48 62 49
REMARK SMILES IDX 44 50 47 51 61 52 80 53 45 54 46 55 60 57 81 58 48 59 32 60
REMARK SMILES IDX 33 61 41 62 34 63 35 64 39 65 42 66 36 67 37 68 40 69 38 70
REMARK SMILES IDX 64 71 65 72 73 73 66 74 67 75 71 76 74 77 68 78 69 79 72 80
REMARK SMILES IDX 70 81 49 82 50 83 58 84 51 85 52 86 56 87 59 88 53 89 54 90
REMARK SMILES IDX 57 91 55 92
REMARK H PARENT 16 5 1 11 1 12 7 16 20 26 79 45 47 56
REMARK Flexibility Score: inf
ROOT
ATOM      1  C   UNL A   1      32.034  27.539  27.135  1.00  0.00     0.117 C 
ENDROOT
BRANCH   1   2
ATOM      2  N   UNL A   1      30.912  26.839  26.538  1.00  0.00    -0.354 N 
ATOM      3  C   UNL A   1      30.590  26.632  25.236  1.00  0.00     0.242 C 
ATOM      4  O   UNL A   1      29.964  25.591  24.998  1.00  0.00    -0.273 OA
ATOM      5  H   UNL A   1      30.280  26.448  27.184  1.00  0.00     0.163 HD
BRANCH   3   6
ATOM      6  C   UNL A   1      31.120  27.481  24.069  1.00  0.00     0.171 C 
BRANCH   6   7
ATOM      7  C   UNL A   1      30.369  28.803  23.851  1.00  0.00     0.045 C 
BRANCH   7   8
ATOM      8  C   UNL A   1      29.142  28.770  22.950  1.00  0.00     0.102 C 
BRANCH   8   9
ATOM      9  C   UNL A   1      29.138  29.706  21.752  1.00  0.00     0.217 C 
ATOM     10  N   UNL A   1      30.286  30.334  21.392  1.00  0.00    -0.370 N 
ATOM     11  H   UNL A   1      30.293  30.941  20.618  1.00  0.00     0.159 HD
ATOM     12  H   UNL A   1      31.111  30.181  21.906  1.00  0.00     0.159 HD
ATOM     13  O   UNL A   1      28.099  29.962  21.148  1.00  0.00    -0.275 OA
ENDBRANCH   8   9
ENDBRANCH   7   8
ENDBRANCH   6   7
BRANCH   6  14
ATOM     14  N   UNL A   1      31.361  26.735  22.838  1.00  0.00    -0.344 N 
ATOM     15  C   UNL A   1      32.445  25.961  22.523  1.00  0.00     0.220 C 
ATOM     16  H   UNL A   1      30.659  26.796  22.150  1.00  0.00     0.164 HD
ATOM     17  O   UNL A   1      32.355  25.182  21.574  1.00  0.00    -0.275 OA
BRANCH  15  18
ATOM     18  C   UNL A   1      33.734  26.127  23.312  1.00  0.00     0.103 C 
BRANCH  18  19
ATOM     19  C   UNL A   1      34.141  24.839  23.978  1.00  0.00    -0.002 C 
ATOM     20  C   UNL A   1      34.772  24.844  25.344  1.00  0.00     0.004 C 
ATOM     21  C   UNL A   1      33.373  24.319  25.164  1.00  0.00     0.004 C 
ENDBRANCH  18  19
ENDBRANCH  15  18
ENDBRANCH   6  14
ENDBRANCH   3   6
ENDBRANCH   1   2
BRANCH   1  22
ATOM     22  C   UNL A   1      31.764  29.013  27.375  1.00  0.00     0.042 C 
BRANCH  22  23
ATOM     23  C   UNL A   1      32.629  29.944  26.540  1.00  0.00     0.118 C 
BRANCH  23  24
ATOM     24  N   UNL A   1      32.556  31.347  26.928  1.00  0.00    -0.352 N 
ATOM     25  C   UNL A   1      33.496  32.140  27.552  1.00  0.00     0.251 C 
ATOM     26  H   UNL A   1      31.707  31.796  26.713  1.00  0.00     0.163 HD
ATOM     27  O   UNL A   1      33.240  33.298  27.853  1.00  0.00    -0.269 OA
BRANCH  25  28
ATOM     28  C   UNL A   1      34.805  31.559  27.912  1.00  0.00     0.039 A 
ATOM     29  C   UNL A   1      35.887  32.413  28.136  1.00  0.00     0.014 A 
ATOM     30  C   UNL A   1      34.934  30.188  28.127  1.00  0.00     0.014 A 
ATOM     31  C   UNL A   1      37.057  31.903  28.702  1.00  0.00     0.010 A 
ATOM     32  C   UNL A   1      36.044  29.710  28.809  1.00  0.00     0.010 A 
ATOM     33  C   UNL A   1      37.116  30.562  29.113  1.00  0.00    -0.014 A 
BRANCH  33  34
ATOM     34  C   UNL A   1      38.272  30.025  29.878  1.00  0.00     0.031 A 
ATOM     35  C   UNL A   1      38.497  30.459  31.301  1.00  0.00     0.074 A 
ATOM     36  C   UNL A   1      39.182  29.245  29.261  1.00  0.00     0.049 A 
ATOM     37  N   UNL A   1      39.517  30.227  32.088  1.00  0.00    -0.248 NA
ATOM     38  C   UNL A   1      37.463  31.316  31.900  1.00  0.00     0.031 C 
ATOM     39  C   UNL A   1      39.131  28.823  27.860  1.00  0.00     0.029 A 
ATOM     40  N   UNL A   1      40.341  28.679  29.733  1.00  0.00    -0.354 N 
ATOM     41  C   UNL A   1      39.268  30.949  33.247  1.00  0.00     0.074 A 
ATOM     42  C   UNL A   1      38.032  31.671  33.041  1.00  0.00     0.031 C 
ATOM     43  C   UNL A   1      40.189  28.039  27.596  1.00  0.00     0.029 A 
ATOM     44  C   UNL A   1      41.013  27.934  28.795  1.00  0.00     0.049 A 
ATOM     45  H   UNL A   1      40.660  28.796  30.657  1.00  0.00     0.167 HD
ATOM     46  C   UNL A   1      39.988  30.986  34.392  1.00  0.00     0.037 A 
ATOM     47  C   UNL A   1      42.166  27.246  28.890  1.00  0.00     0.037 A 
ATOM     48  C   UNL A   1      41.174  30.205  34.622  1.00  0.00     0.049 A 
ATOM     49  C   UNL A   1      42.905  27.230  30.198  1.00  0.00     0.074 A 
ATOM     50  C   UNL A   1      41.915  30.081  35.783  1.00  0.00     0.029 A 
ATOM     51  N   UNL A   1      41.784  29.403  33.669  1.00  0.00    -0.354 N 
ATOM     52  N   UNL A   1      42.619  27.855  31.314  1.00  0.00    -0.248 NA
ATOM     53  C   UNL A   1      44.123  26.411  30.263  1.00  0.00     0.031 C 
ATOM     54  C   UNL A   1      42.991  29.226  35.526  1.00  0.00     0.029 A 
ATOM     55  C   UNL A   1      42.900  28.789  34.214  1.00  0.00     0.049 A 
ATOM     56  H   UNL A   1      41.471  29.287  32.743  1.00  0.00     0.167 HD
ATOM     57  C   UNL A   1      43.606  27.491  32.219  1.00  0.00     0.074 A 
ATOM     58  C   UNL A   1      44.492  26.578  31.525  1.00  0.00     0.031 C 
ATOM     59  C   UNL A   1      43.765  27.880  33.508  1.00  0.00     0.037 A 
BRANCH  46  60
ATOM     60  C   UNL A   1      39.499  31.888  35.487  1.00  0.00     0.064 A 
ATOM     61  C   UNL A   1      39.940  33.215  35.602  1.00  0.00     0.173 A 
ATOM     62  C   UNL A   1      38.574  31.420  36.432  1.00  0.00     0.173 A 
ATOM     63  F   UNL A   1      40.835  33.706  34.731  1.00  0.00    -0.203 F 
ATOM     64  C   UNL A   1      39.509  34.027  36.646  1.00  0.00     0.198 A 
ATOM     65  C   UNL A   1      38.119  32.246  37.457  1.00  0.00     0.198 A 
ATOM     66  F   UNL A   1      38.115  30.162  36.366  1.00  0.00    -0.203 F 
ATOM     67  F   UNL A   1      39.995  35.269  36.772  1.00  0.00    -0.200 F 
ATOM     68  C   UNL A   1      38.594  33.544  37.570  1.00  0.00     0.200 A 
ATOM     69  F   UNL A   1      37.228  31.781  38.345  1.00  0.00    -0.200 F 
ATOM     70  F   UNL A   1      38.181  34.325  38.577  1.00  0.00    -0.200 F 
ENDBRANCH  46  60
BRANCH  47  71
ATOM     71  C   UNL A   1      42.664  26.476  27.721  1.00  0.00     0.064 A 
ATOM     72  C   UNL A   1      42.194  25.180  27.466  1.00  0.00     0.173 A 
ATOM     73  C   UNL A   1      43.596  27.021  26.827  1.00  0.00     0.173 A 
ATOM     74  F   UNL A   1      41.316  24.610  28.305  1.00  0.00    -0.203 F 
ATOM     75  C   UNL A   1      42.646  24.453  26.367  1.00  0.00     0.198 A 
ATOM     76  C   UNL A   1      44.031  26.302  25.716  1.00  0.00     0.198 A 
ATOM     77  F   UNL A   1      44.070  28.260  27.025  1.00  0.00    -0.203 F 
ATOM     78  F   UNL A   1      42.205  23.205  26.165  1.00  0.00    -0.200 F 
ATOM     79  C   UNL A   1      43.560  25.017  25.490  1.00  0.00     0.200 A 
ATOM     80  F   UNL A   1      44.904  26.854  24.863  1.00  0.00    -0.200 F 
ATOM     81  F   UNL A   1      43.990  24.321  24.427  1.00  0.00    -0.200 F 
ENDBRANCH  47  71
BRANCH  59  82
ATOM     82  C   UNL A   1      44.926  27.302  34.260  1.00  0.00     0.064 A 
ATOM     83  C   UNL A   1      44.821  26.082  34.942  1.00  0.00     0.173 A 
ATOM     84  C   UNL A   1      46.168  27.953  34.257  1.00  0.00     0.173 A 
ATOM     85  F   UNL A   1      43.648  25.432  34.985  1.00  0.00    -0.203 F 
ATOM     86  C   UNL A   1      45.917  25.541  35.609  1.00  0.00     0.198 A 
ATOM     87  C   UNL A   1      47.268  27.396  34.903  1.00  0.00     0.198 A 
ATOM     88  F   UNL A   1      46.319  29.120  33.613  1.00  0.00    -0.203 F 
ATOM     89  F   UNL A   1      45.786  24.391  36.285  1.00  0.00    -0.200 F 
ATOM     90  C   UNL A   1      47.140  26.195  35.582  1.00  0.00     0.200 A 
ATOM     91  F   UNL A   1      48.452  28.023  34.869  1.00  0.00    -0.200 F 
ATOM     92  F   UNL A   1      48.195  25.668  36.218  1.00  0.00    -0.200 F 
ENDBRANCH  59  82
ENDBRANCH  33  34
ENDBRANCH  25  28
ENDBRANCH  23  24
ENDBRANCH  22  23
ENDBRANCH   1  22
TORSDOF 16
ENDMDL
MODEL 2
REMARK VINA RESULT:     -11.3      2.103      8.318
REMARK SMILES NC(=O)CC[C@H](NC(=O)CC1CC1)C(=O)NCCCNC(=O)c1ccc(-c2c3nc(c(-c4c(F)c(F)c(F)c(F)c4F)c4ccc([nH]4)c(-c4c(F)c(F)c(F)c(F)c4F)c4nc(c(-c5c(F)c(F)c(F)c(F)c5F)c5ccc2[nH]5)C=C4)C=C3)cc1
REMARK SMILES IDX 17 1 16 2 14 3 15 4 6 6 5 7 4 8 2 9 1 10 3 13 7 14 8 15 9 17
REMARK SMILES IDX 10 18 11 19 12 20 13 21 18 22 19 23 20 24 21 25 22 27 23 28
REMARK SMILES IDX 24 29 85 30 25 31 84 32 26 33 27 34 28 35 78 36 29 37 83 38
REMARK SMILES IDX 77 39 79 40 30 41 82 42 76 43 75 44 31 46 63 47 43 48 62 49
REMARK SMILES IDX 44 50 47 51 61 52 80 53 45 54 46 55 60 57 81 58 48 59 32 60
REMARK SMILES IDX 33 61 41 62 34 63 35 64 39 65 42 66 36 67 37 68 40 69 38 70
REMARK SMILES IDX 64 71 65 72 73 73 66 74 67 75 71 76 74 77 68 78 69 79 72 80
REMARK SMILES IDX 70 81 49 82 50 83 58 84 51 85 52 86 56 87 59 88 53 89 54 90
REMARK SMILES IDX 57 91 55 92
REMARK H PARENT 16 5 1 11 1 12 7 16 20 26 79 45 47 56
REMARK Flexibility Score: inf
ROOT
ATOM      1  C   UNL A   1      32.654  29.874  26.685  1.00  0.00     0.117 C 
ENDROOT
BRANCH   1   2
ATOM      2  N   UNL A   1      33.424  29.545  25.500  1.00  0.00    -0.354 N 
ATOM      3  C   UNL A   1      33.040  29.000  24.318  1.00  0.00     0.242 C 
ATOM      4  O   UNL A   1      33.707  29.335  23.332  1.00  0.00    -0.273 OA
ATOM      5  H   UNL A   1      34.385  29.753  25.562  1.00  0.00     0.163 HD
BRANCH   3   6
ATOM      6  C   UNL A   1      31.748  28.189  24.120  1.00  0.00     0.171 C 
BRANCH   6   7
ATOM      7  C   UNL A   1      31.853  26.714  24.536  1.00  0.00     0.045 C 
BRANCH   7   8
ATOM      8  C   UNL A   1      31.253  26.323  25.880  1.00  0.00     0.102 C 
BRANCH   8   9
ATOM      9  C   UNL A   1      31.014  24.841  26.126  1.00  0.00     0.217 C 
ATOM     10  N   UNL A   1      30.443  24.087  25.153  1.00  0.00    -0.370 N 
ATOM     11  H   UNL A   1      30.284  23.128  25.303  1.00  0.00     0.159 HD
ATOM     12  H   UNL A   1      30.186  24.501  24.297  1.00  0.00     0.159 HD
ATOM     13  O   UNL A   1      31.260  24.330  27.215  1.00  0.00    -0.275 OA
ENDBRANCH   8   9
ENDBRANCH   7   8
ENDBRANCH   6   7
BRANCH   6  14
ATOM     14  N   UNL A   1      31.101  28.388  22.826  1.00  0.00    -0.344 N 
ATOM     15  C   UNL A   1      30.195  29.353  22.480  1.00  0.00     0.220 C 
ATOM     16  H   UNL A   1      31.347  27.751  22.117  1.00  0.00     0.164 HD
ATOM     17  O   UNL A   1      29.973  29.548  21.286  1.00  0.00    -0.275 OA
BRANCH  15  18
ATOM     18  C   UNL A   1      29.454  30.107  23.573  1.00  0.00     0.103 C 
BRANCH  18  19
ATOM     19  C   UNL A   1      28.119  30.608  23.088  1.00  0.00    -0.002 C 
ATOM     20  C   UNL A   1      27.316  31.580  23.910  1.00  0.00     0.004 C 
ATOM     21  C   UNL A   1      27.962  32.032  22.628  1.00  0.00     0.004 C 
ENDBRANCH  18  19
ENDBRANCH  15  18
ENDBRANCH   6  14
ENDBRANCH   3   6
ENDBRANCH   1   2
BRANCH   1  22
ATOM     22  C   UNL A   1      32.182  31.316  26.714  1.00  0.00     0.042 C 
BRANCH  22  23
ATOM     23  C   UNL A   1      33.138  32.265  27.420  1.00  0.00     0.118 C 
BRANCH  23  24
ATOM     24  N   UNL A   1      32.617  33.612  27.616  1.00  0.00    -0.352 N 
ATOM     25  C   UNL A   1      33.050  34.612  28.462  1.00  0.00     0.251 C 
ATOM     26  H   UNL A   1      31.837  33.844  27.062  1.00  0.00     0.163 HD
ATOM     27  O   UNL A   1      32.451  35.676  28.535  1.00  0.00    -0.269 OA
BRANCH  25  28
ATOM     28  C   UNL A   1      34.217  34.364  29.333  1.00  0.00     0.039 A 
ATOM     29  C   UNL A   1      34.009  33.836  30.610  1.00  0.00     0.014 A 
ATOM     30  C   UNL A   1      35.511  34.555  28.852  1.00  0.00     0.014 A 
ATOM     31  C   UNL A   1      35.102  33.379  31.348  1.00  0.00     0.010 A 
ATOM     32  C   UNL A   1      36.578  33.981  29.529  1.00  0.00     0.010 A 
ATOM     33  C   UNL A   1      36.387  33.378  30.781  1.00  0.00    -0.014 A 
BRANCH  33  34
ATOM     34  C   UNL A   1      37.545  32.740  31.460  1.00  0.00     0.031 A 
ATOM     35  C   UNL A   1      38.261  31.592  30.802  1.00  0.00     0.074 A 
ATOM     36  C   UNL A   1      37.877  33.110  32.713  1.00  0.00     0.049 A 
ATOM     37  N   UNL A   1      39.191  30.807  31.285  1.00  0.00    -0.248 NA
ATOM     38  C   UNL A   1      37.835  31.244  29.438  1.00  0.00     0.031 C 
ATOM     39  C   UNL A   1      37.206  34.147  33.500  1.00  0.00     0.029 A 
ATOM     40  N   UNL A   1      38.856  32.641  33.554  1.00  0.00    -0.354 N 
ATOM     41  C   UNL A   1      39.419  29.850  30.307  1.00  0.00     0.074 A 
ATOM     42  C   UNL A   1      38.494  30.115  29.227  1.00  0.00     0.031 C 
ATOM     43  C   UNL A   1      37.814  34.259  34.693  1.00  0.00     0.029 A 
ATOM     44  C   UNL A   1      38.890  33.277  34.770  1.00  0.00     0.049 A 
ATOM     45  H   UNL A   1      39.475  31.916  33.308  1.00  0.00     0.167 HD
ATOM     46  C   UNL A   1      40.336  28.855  30.294  1.00  0.00     0.037 A 
ATOM     47  C   UNL A   1      39.697  33.090  35.831  1.00  0.00     0.037 A 
ATOM     48  C   UNL A   1      41.307  28.642  31.333  1.00  0.00     0.049 A 
ATOM     49  C   UNL A   1      40.766  32.036  35.762  1.00  0.00     0.074 A 
ATOM     50  C   UNL A   1      42.352  27.737  31.367  1.00  0.00     0.029 A 
ATOM     51  N   UNL A   1      41.358  29.358  32.520  1.00  0.00    -0.354 N 
ATOM     52  N   UNL A   1      41.025  31.186  34.797  1.00  0.00    -0.248 NA
ATOM     53  C   UNL A   1      41.660  31.918  36.922  1.00  0.00     0.031 C 
ATOM     54  C   UNL A   1      43.019  27.885  32.588  1.00  0.00     0.029 A 
ATOM     55  C   UNL A   1      42.410  28.906  33.299  1.00  0.00     0.049 A 
ATOM     56  H   UNL A   1      40.737  30.080  32.772  1.00  0.00     0.167 HD
ATOM     57  C   UNL A   1      42.119  30.446  35.224  1.00  0.00     0.074 A 
ATOM     58  C   UNL A   1      42.486  30.959  36.529  1.00  0.00     0.031 C 
ATOM     59  C   UNL A   1      42.761  29.433  34.593  1.00  0.00     0.037 A 
BRANCH  46  60
ATOM     60  C   UNL A   1      40.340  27.935  29.108  1.00  0.00     0.064 A 
ATOM     61  C   UNL A   1      39.576  26.758  29.085  1.00  0.00     0.173 A 
ATOM     62  C   UNL A   1      41.117  28.235  27.979  1.00  0.00     0.173 A 
ATOM     63  F   UNL A   1      38.829  26.418  30.146  1.00  0.00    -0.203 F 
ATOM     64  C   UNL A   1      39.623  25.894  27.995  1.00  0.00     0.198 A 
ATOM     65  C   UNL A   1      41.135  27.385  26.876  1.00  0.00     0.198 A 
ATOM     66  F   UNL A   1      41.862  29.350  27.946  1.00  0.00    -0.203 F 
ATOM     67  F   UNL A   1      38.936  24.745  28.024  1.00  0.00    -0.200 F 
ATOM     68  C   UNL A   1      40.397  26.210  26.889  1.00  0.00     0.200 A 
ATOM     69  F   UNL A   1      41.877  27.696  25.804  1.00  0.00    -0.200 F 
ATOM     70  F   UNL A   1      40.443  25.377  25.841  1.00  0.00    -0.200 F 
ENDBRANCH  46  60
BRANCH  47  71
ATOM     71  C   UNL A   1      39.553  33.954  37.031  1.00  0.00     0.064 A 
ATOM     72  C   UNL A   1      38.810  33.521  38.138  1.00  0.00     0.173 A 
ATOM     73  C   UNL A   1      40.165  35.213  37.105  1.00  0.00     0.173 A 
ATOM     74  F   UNL A   1      38.191  32.332  38.104  1.00  0.00    -0.203 F 
ATOM     75  C   UNL A   1      38.676  34.320  39.272  1.00  0.00     0.198 A 
ATOM     76  C   UNL A   1      40.048  36.001  38.248  1.00  0.00     0.198 A 
ATOM     77  F   UNL A   1      40.891  35.668  36.073  1.00  0.00    -0.203 F 
ATOM     78  F   UNL A   1      37.935  33.895  40.303  1.00  0.00    -0.200 F 
ATOM     79  C   UNL A   1      39.301  35.557  39.328  1.00  0.00     0.200 A 
ATOM     80  F   UNL A   1      40.663  37.191  38.305  1.00  0.00    -0.200 F 
ATOM     81  F   UNL A   1      39.179  36.322  40.422  1.00  0.00    -0.200 F 
ENDBRANCH  47  71
BRANCH  59  82
ATOM     82  C   UNL A   1      43.939  28.826  35.292  1.00  0.00     0.064 A 
ATOM     83  C   UNL A   1      45.239  29.311  35.089  1.00  0.00     0.173 A 
ATOM     84  C   UNL A   1      43.760  27.782  36.210  1.00  0.00     0.173 A 
ATOM     85  F   UNL A   1      45.461  30.299  34.208  1.00  0.00    -0.203 F 
ATOM     86  C   UNL A   1      46.321  28.760  35.771  1.00  0.00     0.198 A 
ATOM     87  C   UNL A   1      44.840  27.250  36.908  1.00  0.00     0.198 A 
ATOM     88  F   UNL A   1      42.534  27.289  36.442  1.00  0.00    -0.203 F 
ATOM     89  F   UNL A   1      47.560  29.213  35.535  1.00  0.00    -0.200 F 
ATOM     90  C   UNL A   1      46.119  27.735  36.684  1.00  0.00     0.200 A 
ATOM     91  F   UNL A   1      44.643  26.268  37.798  1.00  0.00    -0.200 F 
ATOM     92  F   UNL A   1      47.161  27.212  37.345  1.00  0.00    -0.200 F 
ENDBRANCH  59  82
ENDBRANCH  33  34
ENDBRANCH  25  28
ENDBRANCH  23  24
ENDBRANCH  22  23
ENDBRANCH   1  22
TORSDOF 16
ENDMDL
MODEL 3
REMARK VINA RESULT:     -11.2      5.132      8.496
REMARK SMILES NC(=O)CC[C@H](NC(=O)CC1CC1)C(=O)NCCCNC(=O)c1ccc(-c2c3nc(c(-c4c(F)c(F)c(F)c(F)c4F)c4ccc([nH]4)c(-c4c(F)c(F)c(F)c(F)c4F)c4nc(c(-c5c(F)c(F)c(F)c(F)c5F)c5ccc2[nH]5)C=C4)C=C3)cc1
REMARK SMILES IDX 17 1 16 2 14 3 15 4 6 6 5 7 4 8 2 9 1 10 3 13 7 14 8 15 9 17
REMARK SMILES IDX 10 18 11 19 12 20 13 21 18 22 19 23 20 24 21 25 22 27 23 28
REMARK SMILES IDX 24 29 85 30 25 31 84 32 26 33 27 34 28 35 78 36 29 37 83 38
REMARK SMILES IDX 77 39 79 40 30 41 82 42 76 43 75 44 31 46 63 47 43 48 62 49
REMARK SMILES IDX 44 50 47 51 61 52 80 53 45 54 46 55 60 57 81 58 48 59 32 60
REMARK SMILES IDX 33 61 41 62 34 63 35 64 39 65 42 66 36 67 37 68 40 69 38 70
REMARK SMILES IDX 64 71 65 72 73 73 66 74 67 75 71 76 74 77 68 78 69 79 72 80
REMARK SMILES IDX 70 81 49 82 50 83 58 84 51 85 52 86 56 87 59 88 53 89 54 90
REMARK SMILES IDX 57 91 55 92
REMARK H PARENT 16 5 1 11 1 12 7 16 20 26 79 45 47 56
REMARK Flexibility Score: inf
ROOT
ATOM      1  C   UNL A   1      36.655  21.312  25.542  1.00  0.00     0.117 C 
ENDROOT
BRANCH   1   2
ATOM      2  N   UNL A   1      35.648  20.278  25.387  1.00  0.00    -0.354 N 
ATOM      3  C   UNL A   1      34.373  20.346  24.929  1.00  0.00     0.242 C 
ATOM      4  O   UNL A   1      33.945  19.323  24.379  1.00  0.00    -0.273 OA
ATOM      5  H   UNL A   1      35.939  19.376  25.658  1.00  0.00     0.163 HD
BRANCH   3   6
ATOM      6  C   UNL A   1      33.542  21.640  24.874  1.00  0.00     0.171 C 
BRANCH   6   7
ATOM      7  C   UNL A   1      32.264  21.611  25.726  1.00  0.00     0.045 C 
BRANCH   7   8
ATOM      8  C   UNL A   1      32.081  22.722  26.751  1.00  0.00     0.102 C 
BRANCH   8   9
ATOM      9  C   UNL A   1      30.694  23.334  26.867  1.00  0.00     0.217 C 
ATOM     10  N   UNL A   1      29.606  22.523  26.878  1.00  0.00    -0.370 N 
ATOM     11  H   UNL A   1      28.705  22.911  26.954  1.00  0.00     0.159 HD
ATOM     12  H   UNL A   1      29.719  21.548  26.810  1.00  0.00     0.159 HD
ATOM     13  O   UNL A   1      30.535  24.552  26.878  1.00  0.00    -0.275 OA
ENDBRANCH   8   9
ENDBRANCH   7   8
ENDBRANCH   6   7
BRANCH   6  14
ATOM     14  N   UNL A   1      33.340  22.172  23.531  1.00  0.00    -0.344 N 
ATOM     15  C   UNL A   1      33.863  23.316  22.992  1.00  0.00     0.220 C 
ATOM     16  H   UNL A   1      32.755  21.644  22.940  1.00  0.00     0.164 HD
ATOM     17  O   UNL A   1      33.822  23.463  21.772  1.00  0.00    -0.275 OA
BRANCH  15  18
ATOM     18  C   UNL A   1      34.422  24.387  23.916  1.00  0.00     0.103 C 
BRANCH  18  19
ATOM     19  C   UNL A   1      33.346  25.338  24.371  1.00  0.00    -0.002 C 
ATOM     20  C   UNL A   1      33.646  26.418  25.375  1.00  0.00     0.004 C 
ATOM     21  C   UNL A   1      33.372  26.779  23.940  1.00  0.00     0.004 C 
ENDBRANCH  18  19
ENDBRANCH  15  18
ENDBRANCH   6  14
ENDBRANCH   3   6
ENDBRANCH   1   2
BRANCH   1  22
ATOM     22  C   UNL A   1      38.008  20.923  24.978  1.00  0.00     0.042 C 
BRANCH  22  23
ATOM     23  C   UNL A   1      39.113  20.844  26.020  1.00  0.00     0.118 C 
BRANCH  23  24
ATOM     24  N   UNL A   1      39.917  19.630  25.957  1.00  0.00    -0.352 N 
ATOM     25  C   UNL A   1      41.277  19.462  26.124  1.00  0.00     0.251 C 
ATOM     26  H   UNL A   1      39.415  18.805  25.765  1.00  0.00     0.163 HD
ATOM     27  O   UNL A   1      41.795  18.363  25.980  1.00  0.00    -0.269 OA
BRANCH  25  28
ATOM     28  C   UNL A   1      42.118  20.640  26.418  1.00  0.00     0.039 A 
ATOM     29  C   UNL A   1      42.641  21.380  25.356  1.00  0.00     0.014 A 
ATOM     30  C   UNL A   1      42.301  21.066  27.732  1.00  0.00     0.014 A 
ATOM     31  C   UNL A   1      43.235  22.618  25.610  1.00  0.00     0.010 A 
ATOM     32  C   UNL A   1      42.769  22.351  27.969  1.00  0.00     0.010 A 
ATOM     33  C   UNL A   1      43.234  23.147  26.911  1.00  0.00    -0.014 A 
BRANCH  33  34
ATOM     34  C   UNL A   1      43.693  24.532  27.197  1.00  0.00     0.031 A 
ATOM     35  C   UNL A   1      42.718  25.553  27.717  1.00  0.00     0.074 A 
ATOM     36  C   UNL A   1      44.949  24.902  26.878  1.00  0.00     0.049 A 
ATOM     37  N   UNL A   1      42.878  26.841  27.888  1.00  0.00    -0.248 NA
ATOM     38  C   UNL A   1      41.365  25.071  28.034  1.00  0.00     0.031 C 
ATOM     39  C   UNL A   1      45.968  24.034  26.283  1.00  0.00     0.029 A 
ATOM     40  N   UNL A   1      45.580  26.117  26.995  1.00  0.00    -0.354 N 
ATOM     41  C   UNL A   1      41.638  27.323  28.281  1.00  0.00     0.074 A 
ATOM     42  C   UNL A   1      40.722  26.204  28.268  1.00  0.00     0.031 C 
ATOM     43  C   UNL A   1      47.103  24.733  26.119  1.00  0.00     0.029 A 
ATOM     44  C   UNL A   1      46.883  26.106  26.561  1.00  0.00     0.049 A 
ATOM     45  H   UNL A   1      45.139  26.920  27.356  1.00  0.00     0.167 HD
ATOM     46  C   UNL A   1      41.296  28.581  28.647  1.00  0.00     0.037 A 
ATOM     47  C   UNL A   1      47.797  27.093  26.520  1.00  0.00     0.037 A 
ATOM     48  C   UNL A   1      42.226  29.674  28.734  1.00  0.00     0.049 A 
ATOM     49  C   UNL A   1      47.421  28.462  27.013  1.00  0.00     0.074 A 
ATOM     50  C   UNL A   1      42.009  30.957  29.202  1.00  0.00     0.029 A 
ATOM     51  N   UNL A   1      43.559  29.605  28.356  1.00  0.00    -0.354 N 
ATOM     52  N   UNL A   1      46.264  28.889  27.457  1.00  0.00    -0.248 NA
ATOM     53  C   UNL A   1      48.477  29.484  27.006  1.00  0.00     0.031 C 
ATOM     54  C   UNL A   1      43.204  31.675  29.080  1.00  0.00     0.029 A 
ATOM     55  C   UNL A   1      44.174  30.827  28.568  1.00  0.00     0.049 A 
ATOM     56  H   UNL A   1      44.001  28.805  27.990  1.00  0.00     0.167 HD
ATOM     57  C   UNL A   1      46.455  30.220  27.800  1.00  0.00     0.074 A 
ATOM     58  C   UNL A   1      47.845  30.526  27.527  1.00  0.00     0.031 C 
ATOM     59  C   UNL A   1      45.559  31.109  28.294  1.00  0.00     0.037 A 
BRANCH  46  60
ATOM     60  C   UNL A   1      39.858  28.831  28.997  1.00  0.00     0.064 A 
ATOM     61  C   UNL A   1      38.931  29.266  28.038  1.00  0.00     0.173 A 
ATOM     62  C   UNL A   1      39.402  28.631  30.308  1.00  0.00     0.173 A 
ATOM     63  F   UNL A   1      39.320  29.486  26.774  1.00  0.00    -0.203 F 
ATOM     64  C   UNL A   1      37.610  29.534  28.387  1.00  0.00     0.198 A 
ATOM     65  C   UNL A   1      38.072  28.869  30.647  1.00  0.00     0.198 A 
ATOM     66  F   UNL A   1      40.245  28.211  31.263  1.00  0.00    -0.203 F 
ATOM     67  F   UNL A   1      36.760  30.011  27.469  1.00  0.00    -0.200 F 
ATOM     68  C   UNL A   1      37.180  29.330  29.690  1.00  0.00     0.200 A 
ATOM     69  F   UNL A   1      37.655  28.662  31.904  1.00  0.00    -0.200 F 
ATOM     70  F   UNL A   1      35.909  29.590  30.026  1.00  0.00    -0.200 F 
ENDBRANCH  46  60
BRANCH  47  71
ATOM     71  C   UNL A   1      49.172  26.805  26.037  1.00  0.00     0.064 A 
ATOM     72  C   UNL A   1      50.147  26.306  26.911  1.00  0.00     0.173 A 
ATOM     73  C   UNL A   1      49.534  27.001  24.697  1.00  0.00     0.173 A 
ATOM     74  F   UNL A   1      49.852  26.121  28.206  1.00  0.00    -0.203 F 
ATOM     75  C   UNL A   1      51.437  26.023  26.466  1.00  0.00     0.198 A 
ATOM     76  C   UNL A   1      50.818  26.697  24.248  1.00  0.00     0.198 A 
ATOM     77  F   UNL A   1      48.634  27.470  23.820  1.00  0.00    -0.203 F 
ATOM     78  F   UNL A   1      52.358  25.577  27.330  1.00  0.00    -0.200 F 
ATOM     79  C   UNL A   1      51.769  26.213  25.133  1.00  0.00     0.200 A 
ATOM     80  F   UNL A   1      51.132  26.869  22.957  1.00  0.00    -0.200 F 
ATOM     81  F   UNL A   1      53.007  25.934  24.703  1.00  0.00    -0.200 F 
ENDBRANCH  47  71
BRANCH  59  82
ATOM     82  C   UNL A   1      46.058  32.490  28.595  1.00  0.00     0.064 A 
ATOM     83  C   UNL A   1      46.623  32.810  29.838  1.00  0.00     0.173 A 
ATOM     84  C   UNL A   1      46.015  33.490  27.613  1.00  0.00     0.173 A 
ATOM     85  F   UNL A   1      46.671  31.889  30.813  1.00  0.00    -0.203 F 
ATOM     86  C   UNL A   1      47.112  34.088  30.092  1.00  0.00     0.198 A 
ATOM     87  C   UNL A   1      46.528  34.760  27.862  1.00  0.00     0.198 A 
ATOM     88  F   UNL A   1      45.490  33.230  26.406  1.00  0.00    -0.203 F 
ATOM     89  F   UNL A   1      47.615  34.383  31.299  1.00  0.00    -0.200 F 
ATOM     90  C   UNL A   1      47.071  35.058  29.102  1.00  0.00     0.200 A 
ATOM     91  F   UNL A   1      46.497  35.693  26.901  1.00  0.00    -0.200 F 
ATOM     92  F   UNL A   1      47.550  36.286  29.346  1.00  0.00    -0.200 F 
ENDBRANCH  59  82
ENDBRANCH  33  34
ENDBRANCH  25  28
ENDBRANCH  23  24
ENDBRANCH  22  23
ENDBRANCH   1  22
TORSDOF 16
ENDMDL
