MODEL 1
REMARK VINA RESULT:     -14.4      0.000      0.000
REMARK SMILES CC1=C([C@H](NC(=O)[C@@H]2[C@H](C)c3cc(F)ccc3N2C)C(=O)NCCCNC(=O)c2ccc(-c3c4nc(c(-c5c(F)c(F)c(F)c(F)c5F)c5ccc([nH]5)c(-c5c(F)c(F)c(F)c(F)c5F)c5nc(c(-c6c(F)c(F)c(F)c(F)c6F)c6ccc3[nH]6)C=C5)C=C4)cc2)[C@@H](C)N=N1
REMARK SMILES IDX 24 1 23 2 22 3 20 4 21 5 4 7 3 8 1 9 2 10 95 11 92 12 94 13
REMARK SMILES IDX 93 14 5 15 6 16 7 18 8 19 9 20 18 21 11 22 10 23 17 24 19 25
REMARK SMILES IDX 12 26 16 27 13 28 15 29 14 30 25 31 26 32 27 33 28 35 29 36
REMARK SMILES IDX 30 37 91 38 31 39 90 40 32 41 33 42 34 43 84 44 35 45 89 46
REMARK SMILES IDX 83 47 85 48 36 49 88 50 82 51 81 52 37 54 69 55 49 56 68 57
REMARK SMILES IDX 50 58 53 59 67 60 86 61 51 62 52 63 66 65 87 66 54 67 38 68
REMARK SMILES IDX 39 69 47 70 40 71 41 72 45 73 48 74 42 75 43 76 46 77 44 78
REMARK SMILES IDX 70 79 71 80 79 81 72 82 73 83 77 84 80 85 74 86 75 87 78 88
REMARK SMILES IDX 76 89 55 90 56 91 64 92 57 93 58 94 62 95 65 96 59 97 60 98
REMARK SMILES IDX 63 99 61 100
REMARK H PARENT 22 6 5 17 26 34 85 53 53 64
REMARK Flexibility Score: inf
ROOT
ATOM      1  C   UNL A   1      38.836  23.815  26.640  1.00  0.00     0.042 C 
ENDROOT
BRANCH   1   2
ATOM      2  C   UNL A   1      37.430  23.836  26.048  1.00  0.00     0.117 C 
BRANCH   2   3
ATOM      3  N   UNL A   1      37.386  23.309  24.690  1.00  0.00    -0.354 N 
ATOM      4  C   UNL A   1      36.363  23.219  23.788  1.00  0.00     0.247 C 
ATOM      5  O   UNL A   1      36.665  22.971  22.616  1.00  0.00    -0.272 OA
ATOM      6  H   UNL A   1      38.245  22.954  24.365  1.00  0.00     0.163 HD
BRANCH   4   7
ATOM      7  C   UNL A   1      34.883  23.480  24.184  1.00  0.00     0.202 C 
BRANCH   7   8
ATOM      8  C   UNL A   1      34.296  22.469  25.119  1.00  0.00     0.011 C 
ATOM      9  C   UNL A   1      32.837  23.781  26.793  1.00  0.00     0.069 C 
ATOM     10  C   UNL A   1      33.479  22.579  26.181  1.00  0.00     0.064 C 
ATOM     11  N   UNL A   1      33.124  21.359  26.697  1.00  0.00    -0.160 NA
ATOM     12  C   UNL A   1      34.414  20.991  24.892  1.00  0.00     0.156 C 
ATOM     13  N   UNL A   1      33.611  20.427  26.008  1.00  0.00    -0.181 NA
ATOM     14  C   UNL A   1      35.810  20.394  24.980  1.00  0.00     0.040 C 
ENDBRANCH   7   8
BRANCH   7  15
ATOM     15  N   UNL A   1      34.121  23.556  22.941  1.00  0.00    -0.339 N 
ATOM     16  C   UNL A   1      33.363  24.575  22.441  1.00  0.00     0.244 C 
ATOM     17  H   UNL A   1      34.161  22.749  22.378  1.00  0.00     0.164 HD
ATOM     18  O   UNL A   1      33.255  24.600  21.211  1.00  0.00    -0.273 OA
BRANCH  16  19
ATOM     19  C   UNL A   1      32.655  25.581  23.374  1.00  0.00     0.178 C 
ATOM     20  C   UNL A   1      31.236  25.098  23.846  1.00  0.00     0.050 C 
ATOM     21  N   UNL A   1      32.455  26.884  22.714  1.00  0.00    -0.362 N 
ATOM     22  C   UNL A   1      30.384  26.303  23.541  1.00  0.00    -0.016 A 
ATOM     23  C   UNL A   1      30.666  23.842  23.195  1.00  0.00     0.015 C 
ATOM     24  C   UNL A   1      31.148  27.281  22.895  1.00  0.00     0.041 A 
ATOM     25  C   UNL A   1      33.522  27.732  22.249  1.00  0.00     0.144 C 
ATOM     26  C   UNL A   1      29.034  26.488  23.811  1.00  0.00     0.045 A 
ATOM     27  C   UNL A   1      30.553  28.473  22.507  1.00  0.00     0.029 A 
ATOM     28  C   UNL A   1      28.449  27.683  23.410  1.00  0.00     0.123 A 
ATOM     29  C   UNL A   1      29.192  28.673  22.765  1.00  0.00     0.041 A 
ATOM     30  F   UNL A   1      27.145  27.888  23.643  1.00  0.00    -0.207 F 
ENDBRANCH  16  19
ENDBRANCH   7  15
ENDBRANCH   4   7
ENDBRANCH   2   3
ENDBRANCH   1   2
BRANCH   1  31
ATOM     31  C   UNL A   1      39.498  22.433  26.621  1.00  0.00     0.118 C 
BRANCH  31  32
ATOM     32  N   UNL A   1      40.818  22.421  26.019  1.00  0.00    -0.352 N 
ATOM     33  C   UNL A   1      41.923  23.217  26.095  1.00  0.00     0.251 C 
ATOM     34  H   UNL A   1      40.948  21.656  25.414  1.00  0.00     0.163 HD
ATOM     35  O   UNL A   1      42.940  22.778  25.543  1.00  0.00    -0.269 OA
BRANCH  33  36
ATOM     36  C   UNL A   1      41.981  24.568  26.711  1.00  0.00     0.039 A 
ATOM     37  C   UNL A   1      42.272  24.835  28.047  1.00  0.00     0.014 A 
ATOM     38  C   UNL A   1      41.604  25.640  25.878  1.00  0.00     0.014 A 
ATOM     39  C   UNL A   1      42.072  26.112  28.563  1.00  0.00     0.010 A 
ATOM     40  C   UNL A   1      41.422  26.922  26.383  1.00  0.00     0.010 A 
ATOM     41  C   UNL A   1      41.599  27.142  27.742  1.00  0.00    -0.014 A 
BRANCH  41  42
ATOM     42  C   UNL A   1      41.381  28.451  28.348  1.00  0.00     0.031 A 
ATOM     43  C   UNL A   1      42.454  29.448  28.085  1.00  0.00     0.074 A 
ATOM     44  C   UNL A   1      40.286  28.782  29.064  1.00  0.00     0.049 A 
ATOM     45  N   UNL A   1      43.252  29.995  28.944  1.00  0.00    -0.248 NA
ATOM     46  C   UNL A   1      42.755  29.790  26.687  1.00  0.00     0.031 C 
ATOM     47  C   UNL A   1      39.042  28.033  29.244  1.00  0.00     0.029 A 
ATOM     48  N   UNL A   1      40.046  29.937  29.751  1.00  0.00    -0.354 N 
ATOM     49  C   UNL A   1      44.068  30.864  28.223  1.00  0.00     0.074 A 
ATOM     50  C   UNL A   1      43.795  30.613  26.831  1.00  0.00     0.031 C 
ATOM     51  C   UNL A   1      38.111  28.837  29.808  1.00  0.00     0.029 A 
ATOM     52  C   UNL A   1      38.730  30.103  30.160  1.00  0.00     0.049 A 
ATOM     53  H   UNL A   1      40.750  30.598  29.941  1.00  0.00     0.167 HD
ATOM     54  C   UNL A   1      44.781  31.845  28.843  1.00  0.00     0.037 A 
ATOM     55  C   UNL A   1      38.190  31.218  30.713  1.00  0.00     0.037 A 
ATOM     56  C   UNL A   1      44.942  31.563  30.246  1.00  0.00     0.049 A 
ATOM     57  C   UNL A   1      39.303  32.005  31.299  1.00  0.00     0.074 A 
ATOM     58  C   UNL A   1      45.554  30.555  30.966  1.00  0.00     0.029 A 
ATOM     59  N   UNL A   1      44.129  32.212  31.142  1.00  0.00    -0.354 N 
ATOM     60  N   UNL A   1      39.981  31.626  32.345  1.00  0.00    -0.248 NA
ATOM     61  C   UNL A   1      39.952  32.996  30.453  1.00  0.00     0.031 C 
ATOM     62  C   UNL A   1      44.705  30.338  32.091  1.00  0.00     0.029 A 
ATOM     63  C   UNL A   1      43.665  31.263  32.016  1.00  0.00     0.049 A 
ATOM     64  H   UNL A   1      43.920  33.173  31.155  1.00  0.00     0.167 HD
ATOM     65  C   UNL A   1      41.289  31.981  32.057  1.00  0.00     0.074 A 
ATOM     66  C   UNL A   1      41.199  32.895  30.920  1.00  0.00     0.031 C 
ATOM     67  C   UNL A   1      42.339  31.284  32.581  1.00  0.00     0.037 A 
BRANCH  54  68
ATOM     68  C   UNL A   1      45.039  33.216  28.267  1.00  0.00     0.064 A 
ATOM     69  C   UNL A   1      46.370  33.630  28.047  1.00  0.00     0.173 A 
ATOM     70  C   UNL A   1      44.072  34.242  28.225  1.00  0.00     0.173 A 
ATOM     71  F   UNL A   1      47.376  32.742  28.063  1.00  0.00    -0.203 F 
ATOM     72  C   UNL A   1      46.713  34.977  27.905  1.00  0.00     0.198 A 
ATOM     73  C   UNL A   1      44.413  35.581  28.034  1.00  0.00     0.198 A 
ATOM     74  F   UNL A   1      42.778  34.015  28.475  1.00  0.00    -0.203 F 
ATOM     75  F   UNL A   1      48.003  35.331  27.839  1.00  0.00    -0.200 F 
ATOM     76  C   UNL A   1      45.735  35.953  27.913  1.00  0.00     0.200 A 
ATOM     77  F   UNL A   1      43.451  36.514  28.056  1.00  0.00    -0.200 F 
ATOM     78  F   UNL A   1      46.064  37.249  27.853  1.00  0.00    -0.200 F 
ENDBRANCH  54  68
BRANCH  55  79
ATOM     79  C   UNL A   1      36.837  31.791  30.512  1.00  0.00     0.064 A 
ATOM     80  C   UNL A   1      35.947  31.957  31.587  1.00  0.00     0.173 A 
ATOM     81  C   UNL A   1      36.503  32.460  29.318  1.00  0.00     0.173 A 
ATOM     82  F   UNL A   1      36.211  31.393  32.775  1.00  0.00    -0.203 F 
ATOM     83  C   UNL A   1      34.812  32.770  31.484  1.00  0.00     0.198 A 
ATOM     84  C   UNL A   1      35.367  33.266  29.215  1.00  0.00     0.198 A 
ATOM     85  F   UNL A   1      37.322  32.426  28.259  1.00  0.00    -0.203 F 
ATOM     86  F   UNL A   1      34.025  32.958  32.553  1.00  0.00    -0.200 F 
ATOM     87  C   UNL A   1      34.531  33.433  30.302  1.00  0.00     0.200 A 
ATOM     88  F   UNL A   1      35.128  33.932  28.076  1.00  0.00    -0.200 F 
ATOM     89  F   UNL A   1      33.482  34.264  30.222  1.00  0.00    -0.200 F 
ENDBRANCH  55  79
BRANCH  67  90
ATOM     90  C   UNL A   1      42.047  30.276  33.656  1.00  0.00     0.064 A 
ATOM     91  C   UNL A   1      41.683  28.943  33.395  1.00  0.00     0.173 A 
ATOM     92  C   UNL A   1      42.310  30.625  34.986  1.00  0.00     0.173 A 
ATOM     93  F   UNL A   1      41.513  28.506  32.142  1.00  0.00    -0.203 F 
ATOM     94  C   UNL A   1      41.555  28.015  34.427  1.00  0.00     0.198 A 
ATOM     95  C   UNL A   1      42.217  29.687  36.011  1.00  0.00     0.198 A 
ATOM     96  F   UNL A   1      42.718  31.869  35.286  1.00  0.00    -0.203 F 
ATOM     97  F   UNL A   1      41.207  26.748  34.153  1.00  0.00    -0.200 F 
ATOM     98  C   UNL A   1      41.832  28.385  35.732  1.00  0.00     0.200 A 
ATOM     99  F   UNL A   1      42.536  30.037  37.264  1.00  0.00    -0.200 F 
ATOM    100  F   UNL A   1      41.759  27.480  36.718  1.00  0.00    -0.200 F 
ENDBRANCH  67  90
ENDBRANCH  41  42
ENDBRANCH  33  36
ENDBRANCH  31  32
ENDBRANCH   1  31
TORSDOF 13
ENDMDL
MODEL 2
REMARK VINA RESULT:     -14.4      3.725      8.895
REMARK SMILES CC1=C([C@H](NC(=O)[C@@H]2[C@H](C)c3cc(F)ccc3N2C)C(=O)NCCCNC(=O)c2ccc(-c3c4nc(c(-c5c(F)c(F)c(F)c(F)c5F)c5ccc([nH]5)c(-c5c(F)c(F)c(F)c(F)c5F)c5nc(c(-c6c(F)c(F)c(F)c(F)c6F)c6ccc3[nH]6)C=C5)C=C4)cc2)[C@@H](C)N=N1
REMARK SMILES IDX 24 1 23 2 22 3 20 4 21 5 4 7 3 8 1 9 2 10 95 11 92 12 94 13
REMARK SMILES IDX 93 14 5 15 6 16 7 18 8 19 9 20 18 21 11 22 10 23 17 24 19 25
REMARK SMILES IDX 12 26 16 27 13 28 15 29 14 30 25 31 26 32 27 33 28 35 29 36
REMARK SMILES IDX 30 37 91 38 31 39 90 40 32 41 33 42 34 43 84 44 35 45 89 46
REMARK SMILES IDX 83 47 85 48 36 49 88 50 82 51 81 52 37 54 69 55 49 56 68 57
REMARK SMILES IDX 50 58 53 59 67 60 86 61 51 62 52 63 66 65 87 66 54 67 38 68
REMARK SMILES IDX 39 69 47 70 40 71 41 72 45 73 48 74 42 75 43 76 46 77 44 78
REMARK SMILES IDX 70 79 71 80 79 81 72 82 73 83 77 84 80 85 74 86 75 87 78 88
REMARK SMILES IDX 76 89 55 90 56 91 64 92 57 93 58 94 62 95 65 96 59 97 60 98
REMARK SMILES IDX 63 99 61 100
REMARK H PARENT 22 6 5 17 26 34 85 53 53 64
REMARK Flexibility Score: inf
ROOT
ATOM      1  C   UNL A   1      35.242  29.610  27.582  1.00  0.00     0.042 C 
ENDROOT
BRANCH   1   2
ATOM      2  C   UNL A   1      34.416  28.680  26.700  1.00  0.00     0.117 C 
BRANCH   2   3
ATOM      3  N   UNL A   1      33.014  28.630  27.096  1.00  0.00    -0.354 N 
ATOM      4  C   UNL A   1      32.064  27.661  26.936  1.00  0.00     0.247 C 
ATOM      5  O   UNL A   1      31.029  27.772  27.602  1.00  0.00    -0.272 OA
ATOM      6  H   UNL A   1      32.696  29.438  27.562  1.00  0.00     0.163 HD
BRANCH   4   7
ATOM      7  C   UNL A   1      32.281  26.430  26.014  1.00  0.00     0.202 C 
BRANCH   7   8
ATOM      8  C   UNL A   1      32.063  26.692  24.556  1.00  0.00     0.011 C 
ATOM      9  C   UNL A   1      29.528  27.055  24.250  1.00  0.00     0.069 C 
ATOM     10  C   UNL A   1      30.957  26.934  23.831  1.00  0.00     0.064 C 
ATOM     11  N   UNL A   1      31.240  27.205  22.517  1.00  0.00    -0.160 NA
ATOM     12  C   UNL A   1      33.193  26.907  23.593  1.00  0.00     0.156 C 
ATOM     13  N   UNL A   1      32.482  27.214  22.324  1.00  0.00    -0.181 NA
ATOM     14  C   UNL A   1      34.108  25.720  23.334  1.00  0.00     0.040 C 
ENDBRANCH   7   8
BRANCH   7  15
ATOM     15  N   UNL A   1      31.395  25.377  26.499  1.00  0.00    -0.339 N 
ATOM     16  C   UNL A   1      31.630  24.042  26.663  1.00  0.00     0.244 C 
ATOM     17  H   UNL A   1      30.490  25.675  26.747  1.00  0.00     0.164 HD
ATOM     18  O   UNL A   1      30.945  23.486  27.526  1.00  0.00    -0.273 OA
BRANCH  16  19
ATOM     19  C   UNL A   1      32.648  23.293  25.776  1.00  0.00     0.178 C 
ATOM     20  C   UNL A   1      32.119  23.011  24.324  1.00  0.00     0.050 C 
ATOM     21  N   UNL A   1      33.006  21.983  26.351  1.00  0.00    -0.362 N 
ATOM     22  C   UNL A   1      32.406  21.540  24.170  1.00  0.00    -0.016 A 
ATOM     23  C   UNL A   1      30.653  23.318  24.035  1.00  0.00     0.015 C 
ATOM     24  C   UNL A   1      32.910  21.021  25.369  1.00  0.00     0.041 A 
ATOM     25  C   UNL A   1      33.653  21.805  27.625  1.00  0.00     0.144 C 
ATOM     26  C   UNL A   1      32.212  20.741  23.051  1.00  0.00     0.045 A 
ATOM     27  C   UNL A   1      33.228  19.674  25.455  1.00  0.00     0.029 A 
ATOM     28  C   UNL A   1      32.528  19.392  23.153  1.00  0.00     0.123 A 
ATOM     29  C   UNL A   1      33.033  18.853  24.338  1.00  0.00     0.041 A 
ATOM     30  F   UNL A   1      32.340  18.591  22.096  1.00  0.00    -0.207 F 
ENDBRANCH  16  19
ENDBRANCH   7  15
ENDBRANCH   4   7
ENDBRANCH   2   3
ENDBRANCH   1   2
BRANCH   1  31
ATOM     31  C   UNL A   1      34.722  31.050  27.626  1.00  0.00     0.118 C 
BRANCH  31  32
ATOM     32  N   UNL A   1      34.570  31.582  28.967  1.00  0.00    -0.352 N 
ATOM     33  C   UNL A   1      35.378  31.692  30.061  1.00  0.00     0.251 C 
ATOM     34  H   UNL A   1      33.672  31.951  29.126  1.00  0.00     0.163 HD
ATOM     35  O   UNL A   1      34.927  32.368  30.994  1.00  0.00    -0.269 OA
BRANCH  33  36
ATOM     36  C   UNL A   1      36.691  31.021  30.244  1.00  0.00     0.039 A 
ATOM     37  C   UNL A   1      37.914  31.501  29.780  1.00  0.00     0.014 A 
ATOM     38  C   UNL A   1      36.653  29.748  30.846  1.00  0.00     0.014 A 
ATOM     39  C   UNL A   1      39.040  30.683  29.805  1.00  0.00     0.010 A 
ATOM     40  C   UNL A   1      37.778  28.934  30.892  1.00  0.00     0.010 A 
ATOM     41  C   UNL A   1      38.959  29.382  30.315  1.00  0.00    -0.014 A 
BRANCH  41  42
ATOM     42  C   UNL A   1      40.166  28.563  30.286  1.00  0.00     0.031 A 
ATOM     43  C   UNL A   1      40.851  28.415  31.600  1.00  0.00     0.074 A 
ATOM     44  C   UNL A   1      40.633  27.938  29.185  1.00  0.00     0.049 A 
ATOM     45  N   UNL A   1      42.028  28.839  31.928  1.00  0.00    -0.248 NA
ATOM     46  C   UNL A   1      40.093  27.828  32.715  1.00  0.00     0.031 C 
ATOM     47  C   UNL A   1      39.996  27.778  27.877  1.00  0.00     0.029 A 
ATOM     48  N   UNL A   1      41.799  27.245  29.041  1.00  0.00    -0.354 N 
ATOM     49  C   UNL A   1      42.229  28.453  33.251  1.00  0.00     0.074 A 
ATOM     50  C   UNL A   1      40.968  27.936  33.717  1.00  0.00     0.031 C 
ATOM     51  C   UNL A   1      40.682  26.865  27.152  1.00  0.00     0.029 A 
ATOM     52  C   UNL A   1      41.880  26.487  27.882  1.00  0.00     0.049 A 
ATOM     53  H   UNL A   1      42.524  27.280  29.706  1.00  0.00     0.167 HD
ATOM     54  C   UNL A   1      43.475  28.432  33.802  1.00  0.00     0.037 A 
ATOM     55  C   UNL A   1      42.848  25.588  27.569  1.00  0.00     0.037 A 
ATOM     56  C   UNL A   1      44.387  29.257  33.054  1.00  0.00     0.049 A 
ATOM     57  C   UNL A   1      44.047  25.932  28.371  1.00  0.00     0.074 A 
ATOM     58  C   UNL A   1      44.455  30.606  32.762  1.00  0.00     0.029 A 
ATOM     59  N   UNL A   1      45.255  28.650  32.181  1.00  0.00    -0.354 N 
ATOM     60  N   UNL A   1      44.762  27.004  28.175  1.00  0.00    -0.248 NA
ATOM     61  C   UNL A   1      44.189  25.312  29.680  1.00  0.00     0.031 C 
ATOM     62  C   UNL A   1      44.948  30.670  31.426  1.00  0.00     0.029 A 
ATOM     63  C   UNL A   1      45.206  29.364  31.011  1.00  0.00     0.049 A 
ATOM     64  H   UNL A   1      45.807  27.855  32.360  1.00  0.00     0.167 HD
ATOM     65  C   UNL A   1      45.091  27.439  29.450  1.00  0.00     0.074 A 
ATOM     66  C   UNL A   1      44.784  26.314  30.331  1.00  0.00     0.031 C 
ATOM     67  C   UNL A   1      45.312  28.760  29.707  1.00  0.00     0.037 A 
BRANCH  54  68
ATOM     68  C   UNL A   1      43.956  27.410  34.803  1.00  0.00     0.064 A 
ATOM     69  C   UNL A   1      43.846  26.038  34.492  1.00  0.00     0.173 A 
ATOM     70  C   UNL A   1      44.214  27.704  36.159  1.00  0.00     0.173 A 
ATOM     71  F   UNL A   1      43.601  25.637  33.235  1.00  0.00    -0.203 F 
ATOM     72  C   UNL A   1      43.884  25.049  35.479  1.00  0.00     0.198 A 
ATOM     73  C   UNL A   1      44.300  26.710  37.134  1.00  0.00     0.198 A 
ATOM     74  F   UNL A   1      44.283  28.958  36.618  1.00  0.00    -0.203 F 
ATOM     75  F   UNL A   1      43.636  23.774  35.152  1.00  0.00    -0.200 F 
ATOM     76  C   UNL A   1      44.098  25.388  36.801  1.00  0.00     0.200 A 
ATOM     77  F   UNL A   1      44.496  27.060  38.413  1.00  0.00    -0.200 F 
ATOM     78  F   UNL A   1      44.060  24.453  37.759  1.00  0.00    -0.200 F 
ENDBRANCH  54  68
BRANCH  55  79
ATOM     79  C   UNL A   1      42.716  24.291  26.861  1.00  0.00     0.064 A 
ATOM     80  C   UNL A   1      43.293  24.089  25.595  1.00  0.00     0.173 A 
ATOM     81  C   UNL A   1      42.278  23.136  27.539  1.00  0.00     0.173 A 
ATOM     82  F   UNL A   1      43.777  25.128  24.900  1.00  0.00    -0.203 F 
ATOM     83  C   UNL A   1      43.454  22.806  25.057  1.00  0.00     0.198 A 
ATOM     84  C   UNL A   1      42.435  21.859  26.998  1.00  0.00     0.198 A 
ATOM     85  F   UNL A   1      41.783  23.215  28.781  1.00  0.00    -0.203 F 
ATOM     86  F   UNL A   1      44.071  22.649  23.877  1.00  0.00    -0.200 F 
ATOM     87  C   UNL A   1      43.036  21.693  25.764  1.00  0.00     0.200 A 
ATOM     88  F   UNL A   1      42.060  20.786  27.710  1.00  0.00    -0.200 F 
ATOM     89  F   UNL A   1      43.250  20.461  25.281  1.00  0.00    -0.200 F 
ENDBRANCH  55  79
BRANCH  67  90
ATOM     90  C   UNL A   1      45.419  29.696  28.537  1.00  0.00     0.064 A 
ATOM     91  C   UNL A   1      44.309  30.291  27.912  1.00  0.00     0.173 A 
ATOM     92  C   UNL A   1      46.691  30.134  28.148  1.00  0.00     0.173 A 
ATOM     93  F   UNL A   1      43.061  30.001  28.297  1.00  0.00    -0.203 F 
ATOM     94  C   UNL A   1      44.471  31.256  26.919  1.00  0.00     0.198 A 
ATOM     95  C   UNL A   1      46.849  31.124  27.181  1.00  0.00     0.198 A 
ATOM     96  F   UNL A   1      47.785  29.643  28.752  1.00  0.00    -0.203 F 
ATOM     97  F   UNL A   1      43.396  31.810  26.337  1.00  0.00    -0.200 F 
ATOM     98  C   UNL A   1      45.741  31.678  26.561  1.00  0.00     0.200 A 
ATOM     99  F   UNL A   1      48.077  31.565  26.876  1.00  0.00    -0.200 F 
ATOM    100  F   UNL A   1      45.896  32.642  25.643  1.00  0.00    -0.200 F 
ENDBRANCH  67  90
ENDBRANCH  41  42
ENDBRANCH  33  36
ENDBRANCH  31  32
ENDBRANCH   1  31
TORSDOF 13
ENDMDL
MODEL 3
REMARK VINA RESULT:     -14.1      1.189      1.533
REMARK SMILES CC1=C([C@H](NC(=O)[C@@H]2[C@H](C)c3cc(F)ccc3N2C)C(=O)NCCCNC(=O)c2ccc(-c3c4nc(c(-c5c(F)c(F)c(F)c(F)c5F)c5ccc([nH]5)c(-c5c(F)c(F)c(F)c(F)c5F)c5nc(c(-c6c(F)c(F)c(F)c(F)c6F)c6ccc3[nH]6)C=C5)C=C4)cc2)[C@@H](C)N=N1
REMARK SMILES IDX 24 1 23 2 22 3 20 4 21 5 4 7 3 8 1 9 2 10 95 11 92 12 94 13
REMARK SMILES IDX 93 14 5 15 6 16 7 18 8 19 9 20 18 21 11 22 10 23 17 24 19 25
REMARK SMILES IDX 12 26 16 27 13 28 15 29 14 30 25 31 26 32 27 33 28 35 29 36
REMARK SMILES IDX 30 37 91 38 31 39 90 40 32 41 33 42 34 43 84 44 35 45 89 46
REMARK SMILES IDX 83 47 85 48 36 49 88 50 82 51 81 52 37 54 69 55 49 56 68 57
REMARK SMILES IDX 50 58 53 59 67 60 86 61 51 62 52 63 66 65 87 66 54 67 38 68
REMARK SMILES IDX 39 69 47 70 40 71 41 72 45 73 48 74 42 75 43 76 46 77 44 78
REMARK SMILES IDX 70 79 71 80 79 81 72 82 73 83 77 84 80 85 74 86 75 87 78 88
REMARK SMILES IDX 76 89 55 90 56 91 64 92 57 93 58 94 62 95 65 96 59 97 60 98
REMARK SMILES IDX 63 99 61 100
REMARK H PARENT 22 6 5 17 26 34 85 53 53 64
REMARK Flexibility Score: inf
ROOT
ATOM      1  C   UNL A   1      37.390  21.642  24.357  1.00  0.00     0.042 C 
ENDROOT
BRANCH   1   2
ATOM      2  C   UNL A   1      36.475  22.684  23.722  1.00  0.00     0.117 C 
BRANCH   2   3
ATOM      3  N   UNL A   1      36.133  23.763  24.641  1.00  0.00    -0.354 N 
ATOM      4  C   UNL A   1      34.932  24.163  25.157  1.00  0.00     0.247 C 
ATOM      5  O   UNL A   1      34.963  24.939  26.119  1.00  0.00    -0.272 OA
ATOM      6  H   UNL A   1      36.903  24.298  24.942  1.00  0.00     0.163 HD
BRANCH   4   7
ATOM      7  C   UNL A   1      33.577  23.627  24.619  1.00  0.00     0.202 C 
BRANCH   7   8
ATOM      8  C   UNL A   1      33.415  22.140  24.697  1.00  0.00     0.011 C 
ATOM      9  C   UNL A   1      32.153  21.429  22.563  1.00  0.00     0.069 C 
ATOM     10  C   UNL A   1      32.833  21.245  23.881  1.00  0.00     0.064 C 
ATOM     11  N   UNL A   1      32.998  19.954  24.315  1.00  0.00    -0.160 NA
ATOM     12  C   UNL A   1      34.094  21.305  25.741  1.00  0.00     0.156 C 
ATOM     13  N   UNL A   1      33.708  19.923  25.352  1.00  0.00    -0.181 NA
ATOM     14  C   UNL A   1      33.656  21.519  27.182  1.00  0.00     0.040 C 
ENDBRANCH   7   8
BRANCH   7  15
ATOM     15  N   UNL A   1      33.454  24.099  23.243  1.00  0.00    -0.339 N 
ATOM     16  C   UNL A   1      33.217  25.358  22.769  1.00  0.00     0.244 C 
ATOM     17  H   UNL A   1      33.558  23.405  22.553  1.00  0.00     0.164 HD
ATOM     18  O   UNL A   1      33.651  25.587  21.637  1.00  0.00    -0.273 OA
BRANCH  16  19
ATOM     19  C   UNL A   1      32.408  26.385  23.590  1.00  0.00     0.178 C 
ATOM     20  C   UNL A   1      30.924  25.941  23.853  1.00  0.00     0.050 C 
ATOM     21  N   UNL A   1      32.339  27.690  22.907  1.00  0.00    -0.362 N 
ATOM     22  C   UNL A   1      30.156  27.167  23.428  1.00  0.00    -0.016 A 
ATOM     23  C   UNL A   1      30.420  24.698  23.128  1.00  0.00     0.015 C 
ATOM     24  C   UNL A   1      31.030  28.122  22.898  1.00  0.00     0.041 A 
ATOM     25  C   UNL A   1      33.484  28.508  22.601  1.00  0.00     0.144 C 
ATOM     26  C   UNL A   1      28.786  27.388  23.501  1.00  0.00     0.045 A 
ATOM     27  C   UNL A   1      30.529  29.326  22.428  1.00  0.00     0.029 A 
ATOM     28  C   UNL A   1      28.297  28.595  23.019  1.00  0.00     0.123 A 
ATOM     29  C   UNL A   1      29.151  29.563  22.488  1.00  0.00     0.041 A 
ATOM     30  F   UNL A   1      26.979  28.834  23.062  1.00  0.00    -0.207 F 
ENDBRANCH  16  19
ENDBRANCH   7  15
ENDBRANCH   4   7
ENDBRANCH   2   3
ENDBRANCH   1   2
BRANCH   1  31
ATOM     31  C   UNL A   1      37.983  22.071  25.702  1.00  0.00     0.118 C 
BRANCH  31  32
ATOM     32  N   UNL A   1      39.429  21.967  25.769  1.00  0.00    -0.352 N 
ATOM     33  C   UNL A   1      40.420  22.657  26.403  1.00  0.00     0.251 C 
ATOM     34  H   UNL A   1      39.778  21.220  25.230  1.00  0.00     0.163 HD
ATOM     35  O   UNL A   1      41.549  22.154  26.341  1.00  0.00    -0.269 OA
BRANCH  33  36
ATOM     36  C   UNL A   1      40.268  23.970  27.082  1.00  0.00     0.039 A 
ATOM     37  C   UNL A   1      39.247  24.888  26.846  1.00  0.00     0.014 A 
ATOM     38  C   UNL A   1      41.314  24.337  27.952  1.00  0.00     0.014 A 
ATOM     39  C   UNL A   1      39.332  26.176  27.366  1.00  0.00     0.010 A 
ATOM     40  C   UNL A   1      41.394  25.616  28.490  1.00  0.00     0.010 A 
ATOM     41  C   UNL A   1      40.431  26.554  28.147  1.00  0.00    -0.014 A 
BRANCH  41  42
ATOM     42  C   UNL A   1      40.478  27.927  28.638  1.00  0.00     0.031 A 
ATOM     43  C   UNL A   1      41.617  28.735  28.122  1.00  0.00     0.074 A 
ATOM     44  C   UNL A   1      39.557  28.470  29.461  1.00  0.00     0.049 A 
ATOM     45  N   UNL A   1      42.600  29.235  28.799  1.00  0.00    -0.248 NA
ATOM     46  C   UNL A   1      41.740  28.912  26.668  1.00  0.00     0.031 C 
ATOM     47  C   UNL A   1      38.270  27.922  29.892  1.00  0.00     0.029 A 
ATOM     48  N   UNL A   1      39.575  29.700  30.050  1.00  0.00    -0.354 N 
ATOM     49  C   UNL A   1      43.401  29.915  27.884  1.00  0.00     0.074 A 
ATOM     50  C   UNL A   1      42.887  29.589  26.578  1.00  0.00     0.031 C 
ATOM     51  C   UNL A   1      37.547  28.895  30.494  1.00  0.00     0.029 A 
ATOM     52  C   UNL A   1      38.370  30.085  30.620  1.00  0.00     0.049 A 
ATOM     53  H   UNL A   1      40.379  30.269  30.069  1.00  0.00     0.167 HD
ATOM     54  C   UNL A   1      44.320  30.834  28.292  1.00  0.00     0.037 A 
ATOM     55  C   UNL A   1      38.068  31.309  31.124  1.00  0.00     0.037 A 
ATOM     56  C   UNL A   1      44.656  30.652  29.679  1.00  0.00     0.049 A 
ATOM     57  C   UNL A   1      39.349  31.977  31.462  1.00  0.00     0.074 A 
ATOM     58  C   UNL A   1      45.238  29.632  30.408  1.00  0.00     0.029 A 
ATOM     59  N   UNL A   1      44.080  31.482  30.608  1.00  0.00    -0.354 N 
ATOM     60  N   UNL A   1      40.126  31.595  32.437  1.00  0.00    -0.248 NA
ATOM     61  C   UNL A   1      39.982  32.790  30.434  1.00  0.00     0.031 C 
ATOM     62  C   UNL A   1      44.550  29.633  31.657  1.00  0.00     0.029 A 
ATOM     63  C   UNL A   1      43.638  30.686  31.633  1.00  0.00     0.049 A 
ATOM     64  H   UNL A   1      44.001  32.461  30.549  1.00  0.00     0.167 HD
ATOM     65  C   UNL A   1      41.409  31.735  31.932  1.00  0.00     0.074 A 
ATOM     66  C   UNL A   1      41.262  32.553  30.730  1.00  0.00     0.031 C 
ATOM     67  C   UNL A   1      42.428  30.943  32.374  1.00  0.00     0.037 A 
BRANCH  54  68
ATOM     68  C   UNL A   1      44.659  32.101  27.544  1.00  0.00     0.064 A 
ATOM     69  C   UNL A   1      45.893  32.188  26.864  1.00  0.00     0.173 A 
ATOM     70  C   UNL A   1      43.984  33.325  27.732  1.00  0.00     0.173 A 
ATOM     71  F   UNL A   1      46.624  31.088  26.627  1.00  0.00    -0.203 F 
ATOM     72  C   UNL A   1      46.452  33.415  26.500  1.00  0.00     0.198 A 
ATOM     73  C   UNL A   1      44.524  34.544  27.323  1.00  0.00     0.198 A 
ATOM     74  F   UNL A   1      42.836  33.411  28.412  1.00  0.00    -0.203 F 
ATOM     75  F   UNL A   1      47.687  33.455  25.983  1.00  0.00    -0.200 F 
ATOM     76  C   UNL A   1      45.773  34.594  26.742  1.00  0.00     0.200 A 
ATOM     77  F   UNL A   1      43.855  35.678  27.578  1.00  0.00    -0.200 F 
ATOM     78  F   UNL A   1      46.337  35.775  26.464  1.00  0.00    -0.200 F 
ENDBRANCH  54  68
BRANCH  55  79
ATOM     79  C   UNL A   1      36.785  32.049  31.057  1.00  0.00     0.064 A 
ATOM     80  C   UNL A   1      35.998  32.254  32.204  1.00  0.00     0.173 A 
ATOM     81  C   UNL A   1      36.453  32.823  29.927  1.00  0.00     0.173 A 
ATOM     82  F   UNL A   1      36.273  31.592  33.337  1.00  0.00    -0.203 F 
ATOM     83  C   UNL A   1      34.967  33.200  32.229  1.00  0.00     0.198 A 
ATOM     84  C   UNL A   1      35.420  33.763  29.953  1.00  0.00     0.198 A 
ATOM     85  F   UNL A   1      37.187  32.757  28.808  1.00  0.00    -0.203 F 
ATOM     86  F   UNL A   1      34.284  33.415  33.362  1.00  0.00    -0.200 F 
ATOM     87  C   UNL A   1      34.688  33.962  31.108  1.00  0.00     0.200 A 
ATOM     88  F   UNL A   1      35.186  34.520  28.871  1.00  0.00    -0.200 F 
ATOM     89  F   UNL A   1      33.746  34.915  31.150  1.00  0.00    -0.200 F 
ENDBRANCH  55  79
BRANCH  67  90
ATOM     90  C   UNL A   1      42.178  30.082  33.578  1.00  0.00     0.064 A 
ATOM     91  C   UNL A   1      41.678  28.770  33.507  1.00  0.00     0.173 A 
ATOM     92  C   UNL A   1      42.619  30.537  34.826  1.00  0.00     0.173 A 
ATOM     93  F   UNL A   1      41.331  28.225  32.334  1.00  0.00    -0.203 F 
ATOM     94  C   UNL A   1      41.593  27.966  34.643  1.00  0.00     0.198 A 
ATOM     95  C   UNL A   1      42.566  29.721  35.953  1.00  0.00     0.198 A 
ATOM     96  F   UNL A   1      43.160  31.761  34.943  1.00  0.00    -0.203 F 
ATOM     97  F   UNL A   1      41.112  26.718  34.549  1.00  0.00    -0.200 F 
ATOM     98  C   UNL A   1      42.046  28.440  35.863  1.00  0.00     0.200 A 
ATOM     99  F   UNL A   1      43.053  30.164  37.120  1.00  0.00    -0.200 F 
ATOM    100  F   UNL A   1      42.011  27.651  36.945  1.00  0.00    -0.200 F 
ENDBRANCH  67  90
ENDBRANCH  41  42
ENDBRANCH  33  36
ENDBRANCH  31  32
ENDBRANCH   1  31
TORSDOF 13
ENDMDL
