MODEL 1
REMARK VINA RESULT:     -13.4      0.000      0.000
REMARK SMILES C[C@H](C(=O)NCC(=O)NCCCNC(=O)c1ccc(-c2c3nc(c(-c4c(F)c(F)c(F)c(F)c4F)c4ccc([nH]4)c(-c4c(F)c(F)c(F)c(F)c4F)c4nc(c(-c5c(F)c(F)c(F)c(F)c5F)c5ccc2[nH]5)C=C4)C=C3)cc1)N1C(=O)/C(=C/c2ccc(O)cc2)SC1=S
REMARK SMILES IDX 7 1 8 2 9 3 6 5 5 6 3 7 4 8 2 10 1 11 79 12 80 13 92 14
REMARK SMILES IDX 81 15 82 16 91 17 93 18 83 19 84 20 85 21 90 22 86 23 89 24
REMARK SMILES IDX 87 25 88 26 10 28 11 29 12 30 13 31 14 32 15 34 16 35 17 36
REMARK SMILES IDX 78 37 18 38 77 39 19 40 20 41 21 42 71 43 22 44 76 45 70 46
REMARK SMILES IDX 72 47 23 48 75 49 69 50 68 51 24 53 56 54 36 55 55 56 37 57
REMARK SMILES IDX 40 58 54 59 73 60 38 61 39 62 53 64 74 65 41 66 25 67 26 68
REMARK SMILES IDX 34 69 27 70 28 71 32 72 35 73 29 74 30 75 33 76 31 77 57 78
REMARK SMILES IDX 58 79 66 80 59 81 60 82 64 83 67 84 61 85 62 86 65 87 63 88
REMARK SMILES IDX 42 89 43 90 51 91 44 92 45 93 49 94 52 95 46 96 47 97 50 98
REMARK SMILES IDX 48 99
REMARK H PARENT 9 4 5 9 88 27 13 33 72 52 40 63
REMARK Flexibility Score: inf
ROOT
ATOM      1  C   UNL A   1      30.840  27.111  22.774  1.00  0.00     0.239 C 
ATOM      2  O   UNL A   1      31.027  26.711  21.623  1.00  0.00    -0.273 OA
ATOM      3  N   UNL A   1      31.366  28.321  23.114  1.00  0.00    -0.355 N 
ATOM      4  H   UNL A   1      31.857  28.784  22.397  1.00  0.00     0.163 HD
ENDROOT
BRANCH   1   5
ATOM      5  C   UNL A   1      29.854  26.402  23.706  1.00  0.00     0.216 C 
BRANCH   5   6
ATOM      6  N   UNL A   1      30.218  25.088  24.231  1.00  0.00    -0.345 N 
ATOM      7  C   UNL A   1      31.222  24.839  25.137  1.00  0.00     0.243 C 
ATOM      8  O   UNL A   1      30.856  24.340  26.209  1.00  0.00    -0.273 OA
ATOM      9  H   UNL A   1      29.699  24.315  23.910  1.00  0.00     0.164 HD
BRANCH   7  10
ATOM     10  C   UNL A   1      32.731  24.698  24.702  1.00  0.00     0.178 C 
ATOM     11  C   UNL A   1      33.418  25.738  25.614  1.00  0.00     0.042 C 
BRANCH  10  12
ATOM     12  N   UNL A   1      33.340  23.344  24.722  1.00  0.00    -0.281 N 
ATOM     13  C   UNL A   1      32.755  22.391  23.905  1.00  0.00     0.266 C 
ATOM     14  C   UNL A   1      34.630  22.983  25.064  1.00  0.00     0.149 C 
ATOM     15  O   UNL A   1      31.927  22.596  23.041  1.00  0.00    -0.268 OA
ATOM     16  C   UNL A   1      33.273  21.041  24.258  1.00  0.00     0.081 C 
ATOM     17  S   UNL A   1      34.796  21.224  25.005  1.00  0.00    -0.054 SA
ATOM     18  S   UNL A   1      35.963  23.903  25.449  1.00  0.00    -0.052 S 
ATOM     19  C   UNL A   1      32.546  19.932  24.072  1.00  0.00     0.029 C 
BRANCH  19  20
ATOM     20  C   UNL A   1      32.905  18.556  24.450  1.00  0.00    -0.024 A 
ATOM     21  C   UNL A   1      33.614  17.777  23.526  1.00  0.00     0.012 A 
ATOM     22  C   UNL A   1      32.527  17.977  25.671  1.00  0.00     0.012 A 
ATOM     23  C   UNL A   1      34.002  16.475  23.846  1.00  0.00     0.047 A 
ATOM     24  C   UNL A   1      32.927  16.677  25.999  1.00  0.00     0.047 A 
ATOM     25  C   UNL A   1      33.675  15.943  25.086  1.00  0.00     0.115 A 
BRANCH  25  26
ATOM     26  O   UNL A   1      34.113  14.686  25.375  1.00  0.00    -0.508 OA
ATOM     27  H   UNL A   1      33.939  14.310  26.216  1.00  0.00     0.293 HD
ENDBRANCH  25  26
ENDBRANCH  19  20
ENDBRANCH  10  12
ENDBRANCH   7  10
ENDBRANCH   5   6
ENDBRANCH   1   5
BRANCH   3  28
ATOM     28  C   UNL A   1      31.306  29.022  24.377  1.00  0.00     0.117 C 
BRANCH  28  29
ATOM     29  C   UNL A   1      32.700  29.334  24.904  1.00  0.00     0.042 C 
BRANCH  29  30
ATOM     30  C   UNL A   1      32.702  29.684  26.386  1.00  0.00     0.118 C 
BRANCH  30  31
ATOM     31  N   UNL A   1      32.513  31.112  26.613  1.00  0.00    -0.352 N 
ATOM     32  C   UNL A   1      33.265  31.981  27.363  1.00  0.00     0.251 C 
ATOM     33  H   UNL A   1      31.734  31.510  26.161  1.00  0.00     0.163 HD
ATOM     34  O   UNL A   1      32.848  33.108  27.606  1.00  0.00    -0.269 OA
BRANCH  32  35
ATOM     35  C   UNL A   1      34.566  31.537  27.898  1.00  0.00     0.039 A 
ATOM     36  C   UNL A   1      35.609  32.461  28.001  1.00  0.00     0.014 A 
ATOM     37  C   UNL A   1      34.742  30.219  28.326  1.00  0.00     0.014 A 
ATOM     38  C   UNL A   1      36.802  32.083  28.618  1.00  0.00     0.010 A 
ATOM     39  C   UNL A   1      35.901  29.866  29.006  1.00  0.00     0.010 A 
ATOM     40  C   UNL A   1      36.936  30.799  29.170  1.00  0.00    -0.014 A 
BRANCH  40  41
ATOM     41  C   UNL A   1      38.132  30.409  29.955  1.00  0.00     0.031 A 
ATOM     42  C   UNL A   1      39.125  29.441  29.379  1.00  0.00     0.074 A 
ATOM     43  C   UNL A   1      38.264  30.851  31.221  1.00  0.00     0.049 A 
ATOM     44  N   UNL A   1      40.150  28.867  29.956  1.00  0.00    -0.248 NA
ATOM     45  C   UNL A   1      38.925  29.047  27.976  1.00  0.00     0.031 C 
ATOM     46  C   UNL A   1      37.343  31.764  31.900  1.00  0.00     0.029 A 
ATOM     47  N   UNL A   1      39.216  30.574  32.171  1.00  0.00    -0.354 N 
ATOM     48  C   UNL A   1      40.707  28.039  28.992  1.00  0.00     0.074 A 
ATOM     49  C   UNL A   1      39.881  28.145  27.810  1.00  0.00     0.031 C 
ATOM     50  C   UNL A   1      37.779  31.981  33.151  1.00  0.00     0.029 A 
ATOM     51  C   UNL A   1      38.982  31.186  33.379  1.00  0.00     0.049 A 
ATOM     52  H   UNL A   1      39.991  29.992  32.003  1.00  0.00     0.167 HD
ATOM     53  C   UNL A   1      41.822  27.276  29.083  1.00  0.00     0.037 A 
ATOM     54  C   UNL A   1      39.649  31.095  34.545  1.00  0.00     0.037 A 
ATOM     55  C   UNL A   1      42.653  27.193  30.254  1.00  0.00     0.049 A 
ATOM     56  C   UNL A   1      40.858  30.203  34.628  1.00  0.00     0.074 A 
ATOM     57  C   UNL A   1      43.836  26.498  30.425  1.00  0.00     0.029 A 
ATOM     58  N   UNL A   1      42.382  27.826  31.458  1.00  0.00    -0.354 N 
ATOM     59  N   UNL A   1      41.411  29.471  33.692  1.00  0.00    -0.248 NA
ATOM     60  C   UNL A   1      41.529  30.118  35.933  1.00  0.00     0.031 C 
ATOM     61  C   UNL A   1      44.260  26.674  31.746  1.00  0.00     0.029 A 
ATOM     62  C   UNL A   1      43.363  27.514  32.386  1.00  0.00     0.049 A 
ATOM     63  H   UNL A   1      41.609  28.411  31.628  1.00  0.00     0.167 HD
ATOM     64  C   UNL A   1      42.504  28.856  34.287  1.00  0.00     0.074 A 
ATOM     65  C   UNL A   1      42.548  29.315  35.660  1.00  0.00     0.031 C 
ATOM     66  C   UNL A   1      43.389  27.984  33.747  1.00  0.00     0.037 A 
BRANCH  53  67
ATOM     67  C   UNL A   1      42.221  26.479  27.876  1.00  0.00     0.064 A 
ATOM     68  C   UNL A   1      43.174  26.957  26.966  1.00  0.00     0.173 A 
ATOM     69  C   UNL A   1      41.688  25.199  27.658  1.00  0.00     0.173 A 
ATOM     70  F   UNL A   1      43.703  28.179  27.123  1.00  0.00    -0.203 F 
ATOM     71  C   UNL A   1      43.565  26.193  25.870  1.00  0.00     0.198 A 
ATOM     72  C   UNL A   1      42.101  24.426  26.577  1.00  0.00     0.198 A 
ATOM     73  F   UNL A   1      40.776  24.693  28.502  1.00  0.00    -0.203 F 
ATOM     74  F   UNL A   1      44.449  26.687  24.992  1.00  0.00    -0.200 F 
ATOM     75  C   UNL A   1      43.035  24.925  25.681  1.00  0.00     0.200 A 
ATOM     76  F   UNL A   1      41.598  23.197  26.403  1.00  0.00    -0.200 F 
ATOM     77  F   UNL A   1      43.422  24.185  24.633  1.00  0.00    -0.200 F 
ENDBRANCH  53  67
BRANCH  54  78
ATOM     78  C   UNL A   1      39.189  31.863  35.732  1.00  0.00     0.064 A 
ATOM     79  C   UNL A   1      39.668  33.157  35.977  1.00  0.00     0.173 A 
ATOM     80  C   UNL A   1      38.284  31.316  36.652  1.00  0.00     0.173 A 
ATOM     81  F   UNL A   1      40.553  33.714  35.138  1.00  0.00    -0.203 F 
ATOM     82  C   UNL A   1      39.277  33.866  37.112  1.00  0.00     0.198 A 
ATOM     83  C   UNL A   1      37.871  32.037  37.771  1.00  0.00     0.198 A 
ATOM     84  F   UNL A   1      37.794  30.083  36.462  1.00  0.00    -0.203 F 
ATOM     85  F   UNL A   1      39.789  35.082  37.349  1.00  0.00    -0.200 F 
ATOM     86  C   UNL A   1      38.376  33.308  38.005  1.00  0.00     0.200 A 
ATOM     87  F   UNL A   1      36.989  31.499  38.625  1.00  0.00    -0.200 F 
ATOM     88  F   UNL A   1      38.001  33.990  39.096  1.00  0.00    -0.200 F 
ENDBRANCH  54  78
BRANCH  66  89
ATOM     89  C   UNL A   1      44.488  27.482  34.634  1.00  0.00     0.064 A 
ATOM     90  C   UNL A   1      44.353  26.287  35.356  1.00  0.00     0.173 A 
ATOM     91  C   UNL A   1      45.707  28.170  34.719  1.00  0.00     0.173 A 
ATOM     92  F   UNL A   1      43.200  25.603  35.320  1.00  0.00    -0.203 F 
ATOM     93  C   UNL A   1      45.396  25.808  36.144  1.00  0.00     0.198 A 
ATOM     94  C   UNL A   1      46.757  27.675  35.487  1.00  0.00     0.198 A 
ATOM     95  F   UNL A   1      45.885  29.315  34.043  1.00  0.00    -0.203 F 
ATOM     96  F   UNL A   1      45.233  24.684  36.856  1.00  0.00    -0.200 F 
ATOM     97  C   UNL A   1      46.598  26.497  36.202  1.00  0.00     0.200 A 
ATOM     98  F   UNL A   1      47.922  28.335  35.531  1.00  0.00    -0.200 F 
ATOM     99  F   UNL A   1      47.605  26.027  36.951  1.00  0.00    -0.200 F 
ENDBRANCH  66  89
ENDBRANCH  40  41
ENDBRANCH  32  35
ENDBRANCH  30  31
ENDBRANCH  29  30
ENDBRANCH  28  29
ENDBRANCH   3  28
TORSDOF 15
ENDMDL
MODEL 2
REMARK VINA RESULT:     -13.3      1.751      2.856
REMARK SMILES C[C@H](C(=O)NCC(=O)NCCCNC(=O)c1ccc(-c2c3nc(c(-c4c(F)c(F)c(F)c(F)c4F)c4ccc([nH]4)c(-c4c(F)c(F)c(F)c(F)c4F)c4nc(c(-c5c(F)c(F)c(F)c(F)c5F)c5ccc2[nH]5)C=C4)C=C3)cc1)N1C(=O)/C(=C/c2ccc(O)cc2)SC1=S
REMARK SMILES IDX 7 1 8 2 9 3 6 5 5 6 3 7 4 8 2 10 1 11 79 12 80 13 92 14
REMARK SMILES IDX 81 15 82 16 91 17 93 18 83 19 84 20 85 21 90 22 86 23 89 24
REMARK SMILES IDX 87 25 88 26 10 28 11 29 12 30 13 31 14 32 15 34 16 35 17 36
REMARK SMILES IDX 78 37 18 38 77 39 19 40 20 41 21 42 71 43 22 44 76 45 70 46
REMARK SMILES IDX 72 47 23 48 75 49 69 50 68 51 24 53 56 54 36 55 55 56 37 57
REMARK SMILES IDX 40 58 54 59 73 60 38 61 39 62 53 64 74 65 41 66 25 67 26 68
REMARK SMILES IDX 34 69 27 70 28 71 32 72 35 73 29 74 30 75 33 76 31 77 57 78
REMARK SMILES IDX 58 79 66 80 59 81 60 82 64 83 67 84 61 85 62 86 65 87 63 88
REMARK SMILES IDX 42 89 43 90 51 91 44 92 45 93 49 94 52 95 46 96 47 97 50 98
REMARK SMILES IDX 48 99
REMARK H PARENT 9 4 5 9 88 27 13 33 72 52 40 63
REMARK Flexibility Score: inf
ROOT
ATOM      1  C   UNL A   1      31.057  28.900  24.467  1.00  0.00     0.239 C 
ATOM      2  O   UNL A   1      30.295  28.839  23.501  1.00  0.00    -0.273 OA
ATOM      3  N   UNL A   1      31.294  30.129  25.006  1.00  0.00    -0.355 N 
ATOM      4  H   UNL A   1      30.824  30.878  24.572  1.00  0.00     0.163 HD
ENDROOT
BRANCH   1   5
ATOM      5  C   UNL A   1      31.522  27.633  25.188  1.00  0.00     0.216 C 
BRANCH   5   6
ATOM      6  N   UNL A   1      30.657  26.456  25.151  1.00  0.00    -0.345 N 
ATOM      7  C   UNL A   1      31.077  25.151  25.253  1.00  0.00     0.243 C 
ATOM      8  O   UNL A   1      30.630  24.526  26.224  1.00  0.00    -0.273 OA
ATOM      9  H   UNL A   1      29.690  26.610  25.044  1.00  0.00     0.164 HD
BRANCH   7  10
ATOM     10  C   UNL A   1      31.637  24.348  24.017  1.00  0.00     0.178 C 
ATOM     11  C   UNL A   1      32.404  25.447  23.252  1.00  0.00     0.042 C 
BRANCH  10  12
ATOM     12  N   UNL A   1      32.411  23.109  24.282  1.00  0.00    -0.281 N 
ATOM     13  C   UNL A   1      32.277  22.087  23.356  1.00  0.00     0.266 C 
ATOM     14  C   UNL A   1      33.561  22.953  25.033  1.00  0.00     0.149 C 
ATOM     15  O   UNL A   1      31.752  22.170  22.265  1.00  0.00    -0.268 OA
ATOM     16  C   UNL A   1      32.858  20.832  23.907  1.00  0.00     0.081 C 
ATOM     17  S   UNL A   1      34.010  21.245  25.096  1.00  0.00    -0.054 SA
ATOM     18  S   UNL A   1      34.538  24.068  25.791  1.00  0.00    -0.052 S 
ATOM     19  C   UNL A   1      32.413  19.624  23.539  1.00  0.00     0.029 C 
BRANCH  19  20
ATOM     20  C   UNL A   1      32.842  18.317  24.062  1.00  0.00    -0.024 A 
ATOM     21  C   UNL A   1      33.598  17.483  23.228  1.00  0.00     0.012 A 
ATOM     22  C   UNL A   1      32.487  17.853  25.338  1.00  0.00     0.012 A 
ATOM     23  C   UNL A   1      34.051  16.244  23.688  1.00  0.00     0.047 A 
ATOM     24  C   UNL A   1      32.952  16.620  25.805  1.00  0.00     0.047 A 
ATOM     25  C   UNL A   1      33.744  15.833  24.977  1.00  0.00     0.115 A 
BRANCH  25  26
ATOM     26  O   UNL A   1      34.246  14.638  25.400  1.00  0.00    -0.508 OA
ATOM     27  H   UNL A   1      33.992  14.291  26.232  1.00  0.00     0.293 HD
ENDBRANCH  25  26
ENDBRANCH  19  20
ENDBRANCH  10  12
ENDBRANCH   7  10
ENDBRANCH   5   6
ENDBRANCH   1   5
BRANCH   3  28
ATOM     28  C   UNL A   1      32.136  30.491  26.124  1.00  0.00     0.117 C 
BRANCH  28  29
ATOM     29  C   UNL A   1      31.688  31.802  26.754  1.00  0.00     0.042 C 
BRANCH  29  30
ATOM     30  C   UNL A   1      32.837  32.567  27.399  1.00  0.00     0.118 C 
BRANCH  30  31
ATOM     31  N   UNL A   1      32.504  33.967  27.628  1.00  0.00    -0.352 N 
ATOM     32  C   UNL A   1      33.013  34.842  28.555  1.00  0.00     0.251 C 
ATOM     33  H   UNL A   1      31.814  34.338  27.032  1.00  0.00     0.163 HD
ATOM     34  O   UNL A   1      32.475  35.928  28.740  1.00  0.00    -0.269 OA
BRANCH  32  35
ATOM     35  C   UNL A   1      34.196  34.453  29.345  1.00  0.00     0.039 A 
ATOM     36  C   UNL A   1      34.014  33.898  30.614  1.00  0.00     0.014 A 
ATOM     37  C   UNL A   1      35.480  34.609  28.817  1.00  0.00     0.014 A 
ATOM     38  C   UNL A   1      35.118  33.415  31.317  1.00  0.00     0.010 A 
ATOM     39  C   UNL A   1      36.569  34.061  29.485  1.00  0.00     0.010 A 
ATOM     40  C   UNL A   1      36.395  33.447  30.735  1.00  0.00    -0.014 A 
BRANCH  40  41
ATOM     41  C   UNL A   1      37.566  32.816  31.390  1.00  0.00     0.031 A 
ATOM     42  C   UNL A   1      38.241  31.638  30.749  1.00  0.00     0.074 A 
ATOM     43  C   UNL A   1      37.952  33.243  32.608  1.00  0.00     0.049 A 
ATOM     44  N   UNL A   1      39.180  30.862  31.227  1.00  0.00    -0.248 NA
ATOM     45  C   UNL A   1      37.783  31.269  29.400  1.00  0.00     0.031 C 
ATOM     46  C   UNL A   1      37.347  34.354  33.347  1.00  0.00     0.029 A 
ATOM     47  N   UNL A   1      38.932  32.781  33.451  1.00  0.00    -0.354 N 
ATOM     48  C   UNL A   1      39.415  29.910  30.245  1.00  0.00     0.074 A 
ATOM     49  C   UNL A   1      38.489  30.173  29.166  1.00  0.00     0.031 C 
ATOM     50  C   UNL A   1      37.975  34.494  34.525  1.00  0.00     0.029 A 
ATOM     51  C   UNL A   1      38.993  33.455  34.647  1.00  0.00     0.049 A 
ATOM     52  H   UNL A   1      39.533  32.037  33.220  1.00  0.00     0.167 HD
ATOM     53  C   UNL A   1      40.337  28.919  30.239  1.00  0.00     0.037 A 
ATOM     54  C   UNL A   1      39.766  33.243  35.728  1.00  0.00     0.037 A 
ATOM     55  C   UNL A   1      41.272  28.677  31.307  1.00  0.00     0.049 A 
ATOM     56  C   UNL A   1      40.751  32.105  35.711  1.00  0.00     0.074 A 
ATOM     57  C   UNL A   1      42.285  27.738  31.369  1.00  0.00     0.029 A 
ATOM     58  N   UNL A   1      41.301  29.379  32.502  1.00  0.00    -0.354 N 
ATOM     59  N   UNL A   1      41.007  31.248  34.752  1.00  0.00    -0.248 NA
ATOM     60  C   UNL A   1      41.547  31.899  36.929  1.00  0.00     0.031 C 
ATOM     61  C   UNL A   1      42.902  27.843  32.621  1.00  0.00     0.029 A 
ATOM     62  C   UNL A   1      42.299  28.876  33.321  1.00  0.00     0.049 A 
ATOM     63  H   UNL A   1      40.703  30.127  32.734  1.00  0.00     0.167 HD
ATOM     64  C   UNL A   1      42.004  30.417  35.242  1.00  0.00     0.074 A 
ATOM     65  C   UNL A   1      42.322  30.883  36.576  1.00  0.00     0.031 C 
ATOM     66  C   UNL A   1      42.600  29.357  34.644  1.00  0.00     0.037 A 
BRANCH  53  67
ATOM     67  C   UNL A   1      40.395  28.027  29.035  1.00  0.00     0.064 A 
ATOM     68  C   UNL A   1      39.663  26.832  28.975  1.00  0.00     0.173 A 
ATOM     69  C   UNL A   1      41.143  28.396  27.907  1.00  0.00     0.173 A 
ATOM     70  F   UNL A   1      38.942  26.428  30.031  1.00  0.00    -0.203 F 
ATOM     71  C   UNL A   1      39.693  26.030  27.837  1.00  0.00     0.198 A 
ATOM     72  C   UNL A   1      41.149  27.606  26.761  1.00  0.00     0.198 A 
ATOM     73  F   UNL A   1      41.857  29.532  27.912  1.00  0.00    -0.203 F 
ATOM     74  F   UNL A   1      39.016  24.874  27.817  1.00  0.00    -0.200 F 
ATOM     75  C   UNL A   1      40.429  26.422  26.729  1.00  0.00     0.200 A 
ATOM     76  F   UNL A   1      41.851  27.992  25.687  1.00  0.00    -0.200 F 
ATOM     77  F   UNL A   1      40.447  25.655  25.630  1.00  0.00    -0.200 F 
ENDBRANCH  53  67
BRANCH  54  78
ATOM     78  C   UNL A   1      39.641  34.119  36.922  1.00  0.00     0.064 A 
ATOM     79  C   UNL A   1      40.341  35.331  36.998  1.00  0.00     0.173 A 
ATOM     80  C   UNL A   1      38.841  33.756  38.015  1.00  0.00     0.173 A 
ATOM     81  F   UNL A   1      41.136  35.710  35.987  1.00  0.00    -0.203 F 
ATOM     82  C   UNL A   1      40.264  36.137  38.133  1.00  0.00     0.198 A 
ATOM     83  C   UNL A   1      38.742  34.577  39.138  1.00  0.00     0.198 A 
ATOM     84  F   UNL A   1      38.149  32.608  37.992  1.00  0.00    -0.203 F 
ATOM     85  F   UNL A   1      40.983  37.266  38.200  1.00  0.00    -0.200 F 
ATOM     86  C   UNL A   1      39.462  35.761  39.200  1.00  0.00     0.200 A 
ATOM     87  F   UNL A   1      37.956  34.217  40.161  1.00  0.00    -0.200 F 
ATOM     88  F   UNL A   1      39.389  36.536  40.291  1.00  0.00    -0.200 F 
ENDBRANCH  54  78
BRANCH  66  89
ATOM     89  C   UNL A   1      43.666  28.640  35.418  1.00  0.00     0.064 A 
ATOM     90  C   UNL A   1      45.018  28.991  35.290  1.00  0.00     0.173 A 
ATOM     91  C   UNL A   1      43.328  27.635  36.334  1.00  0.00     0.173 A 
ATOM     92  F   UNL A   1      45.392  29.934  34.414  1.00  0.00    -0.203 F 
ATOM     93  C   UNL A   1      45.996  28.347  36.045  1.00  0.00     0.198 A 
ATOM     94  C   UNL A   1      44.305  27.012  37.106  1.00  0.00     0.198 A 
ATOM     95  F   UNL A   1      42.047  27.268  36.495  1.00  0.00    -0.203 F 
ATOM     96  F   UNL A   1      47.286  28.671  35.881  1.00  0.00    -0.200 F 
ATOM     97  C   UNL A   1      45.638  27.366  36.957  1.00  0.00     0.200 A 
ATOM     98  F   UNL A   1      43.955  26.073  37.997  1.00  0.00    -0.200 F 
ATOM     99  F   UNL A   1      46.579  26.757  37.692  1.00  0.00    -0.200 F 
ENDBRANCH  66  89
ENDBRANCH  40  41
ENDBRANCH  32  35
ENDBRANCH  30  31
ENDBRANCH  29  30
ENDBRANCH  28  29
ENDBRANCH   3  28
TORSDOF 15
ENDMDL
MODEL 3
REMARK VINA RESULT:     -13.3      4.979     10.832
REMARK SMILES C[C@H](C(=O)NCC(=O)NCCCNC(=O)c1ccc(-c2c3nc(c(-c4c(F)c(F)c(F)c(F)c4F)c4ccc([nH]4)c(-c4c(F)c(F)c(F)c(F)c4F)c4nc(c(-c5c(F)c(F)c(F)c(F)c5F)c5ccc2[nH]5)C=C4)C=C3)cc1)N1C(=O)/C(=C/c2ccc(O)cc2)SC1=S
REMARK SMILES IDX 7 1 8 2 9 3 6 5 5 6 3 7 4 8 2 10 1 11 79 12 80 13 92 14
REMARK SMILES IDX 81 15 82 16 91 17 93 18 83 19 84 20 85 21 90 22 86 23 89 24
REMARK SMILES IDX 87 25 88 26 10 28 11 29 12 30 13 31 14 32 15 34 16 35 17 36
REMARK SMILES IDX 78 37 18 38 77 39 19 40 20 41 21 42 71 43 22 44 76 45 70 46
REMARK SMILES IDX 72 47 23 48 75 49 69 50 68 51 24 53 56 54 36 55 55 56 37 57
REMARK SMILES IDX 40 58 54 59 73 60 38 61 39 62 53 64 74 65 41 66 25 67 26 68
REMARK SMILES IDX 34 69 27 70 28 71 32 72 35 73 29 74 30 75 33 76 31 77 57 78
REMARK SMILES IDX 58 79 66 80 59 81 60 82 64 83 67 84 61 85 62 86 65 87 63 88
REMARK SMILES IDX 42 89 43 90 51 91 44 92 45 93 49 94 52 95 46 96 47 97 50 98
REMARK SMILES IDX 48 99
REMARK H PARENT 9 4 5 9 88 27 13 33 72 52 40 63
REMARK Flexibility Score: inf
ROOT
ATOM      1  C   UNL A   1      36.499  22.960  23.877  1.00  0.00     0.239 C 
ATOM      2  O   UNL A   1      36.370  23.417  22.740  1.00  0.00    -0.273 OA
ATOM      3  N   UNL A   1      36.796  21.635  23.994  1.00  0.00    -0.355 N 
ATOM      4  H   UNL A   1      36.889  21.147  23.144  1.00  0.00     0.163 HD
ENDROOT
BRANCH   1   5
ATOM      5  C   UNL A   1      36.570  23.883  25.096  1.00  0.00     0.216 C 
BRANCH   5   6
ATOM      6  N   UNL A   1      35.319  24.374  25.668  1.00  0.00    -0.345 N 
ATOM      7  C   UNL A   1      34.127  23.688  25.693  1.00  0.00     0.243 C 
ATOM      8  O   UNL A   1      33.681  23.447  26.822  1.00  0.00    -0.273 OA
ATOM      9  H   UNL A   1      35.329  25.274  26.070  1.00  0.00     0.164 HD
BRANCH   7  10
ATOM     10  C   UNL A   1      33.147  23.658  24.459  1.00  0.00     0.178 C 
ATOM     11  C   UNL A   1      32.850  22.148  24.333  1.00  0.00     0.042 C 
BRANCH  10  12
ATOM     12  N   UNL A   1      31.949  24.534  24.496  1.00  0.00    -0.281 N 
ATOM     13  C   UNL A   1      31.631  25.197  23.322  1.00  0.00     0.266 C 
ATOM     14  C   UNL A   1      30.858  24.467  25.342  1.00  0.00     0.149 C 
ATOM     15  O   UNL A   1      32.110  24.989  22.227  1.00  0.00    -0.268 OA
ATOM     16  C   UNL A   1      30.612  26.246  23.599  1.00  0.00     0.081 C 
ATOM     17  S   UNL A   1      29.761  25.815  25.014  1.00  0.00    -0.054 SA
ATOM     18  S   UNL A   1      30.436  23.356  26.508  1.00  0.00    -0.052 S 
ATOM     19  C   UNL A   1      30.522  27.359  22.860  1.00  0.00     0.029 C 
BRANCH  19  20
ATOM     20  C   UNL A   1      29.620  28.502  23.074  1.00  0.00    -0.024 A 
ATOM     21  C   UNL A   1      28.244  28.304  22.902  1.00  0.00     0.012 A 
ATOM     22  C   UNL A   1      30.082  29.787  23.395  1.00  0.00     0.012 A 
ATOM     23  C   UNL A   1      27.345  29.350  23.120  1.00  0.00     0.047 A 
ATOM     24  C   UNL A   1      29.182  30.833  23.627  1.00  0.00     0.047 A 
ATOM     25  C   UNL A   1      27.818  30.598  23.501  1.00  0.00     0.115 A 
BRANCH  25  26
ATOM     26  O   UNL A   1      26.903  31.577  23.748  1.00  0.00    -0.508 OA
ATOM     27  H   UNL A   1      26.816  31.930  24.612  1.00  0.00     0.293 HD
ENDBRANCH  25  26
ENDBRANCH  19  20
ENDBRANCH  10  12
ENDBRANCH   7  10
ENDBRANCH   5   6
ENDBRANCH   1   5
BRANCH   3  28
ATOM     28  C   UNL A   1      36.996  20.844  25.187  1.00  0.00     0.117 C 
BRANCH  28  29
ATOM     29  C   UNL A   1      38.122  19.837  25.003  1.00  0.00     0.042 C 
BRANCH  29  30
ATOM     30  C   UNL A   1      39.389  20.231  25.751  1.00  0.00     0.118 C 
BRANCH  30  31
ATOM     31  N   UNL A   1      40.319  19.117  25.881  1.00  0.00    -0.352 N 
ATOM     32  C   UNL A   1      41.675  19.135  26.093  1.00  0.00     0.251 C 
ATOM     33  H   UNL A   1      39.916  18.222  25.806  1.00  0.00     0.163 HD
ATOM     34  O   UNL A   1      42.332  18.106  25.976  1.00  0.00    -0.269 OA
BRANCH  32  35
ATOM     35  C   UNL A   1      42.338  20.407  26.436  1.00  0.00     0.039 A 
ATOM     36  C   UNL A   1      42.999  21.121  25.433  1.00  0.00     0.014 A 
ATOM     37  C   UNL A   1      42.278  20.906  27.739  1.00  0.00     0.014 A 
ATOM     38  C   UNL A   1      43.523  22.382  25.720  1.00  0.00     0.010 A 
ATOM     39  C   UNL A   1      42.733  22.192  28.004  1.00  0.00     0.010 A 
ATOM     40  C   UNL A   1      43.348  22.946  26.993  1.00  0.00    -0.014 A 
BRANCH  40  41
ATOM     41  C   UNL A   1      43.764  24.337  27.293  1.00  0.00     0.031 A 
ATOM     42  C   UNL A   1      42.749  25.341  27.759  1.00  0.00     0.074 A 
ATOM     43  C   UNL A   1      45.034  24.715  27.047  1.00  0.00     0.049 A 
ATOM     44  N   UNL A   1      42.881  26.631  27.933  1.00  0.00    -0.248 NA
ATOM     45  C   UNL A   1      41.398  24.830  28.043  1.00  0.00     0.031 C 
ATOM     46  C   UNL A   1      46.099  23.837  26.558  1.00  0.00     0.029 A 
ATOM     47  N   UNL A   1      45.641  25.942  27.156  1.00  0.00    -0.354 N 
ATOM     48  C   UNL A   1      41.633  27.085  28.335  1.00  0.00     0.074 A 
ATOM     49  C   UNL A   1      40.743  25.945  28.332  1.00  0.00     0.031 C 
ATOM     50  C   UNL A   1      47.228  24.549  26.419  1.00  0.00     0.029 A 
ATOM     51  C   UNL A   1      46.957  25.942  26.762  1.00  0.00     0.049 A 
ATOM     52  H   UNL A   1      45.176  26.745  27.484  1.00  0.00     0.167 HD
ATOM     53  C   UNL A   1      41.271  28.340  28.694  1.00  0.00     0.037 A 
ATOM     54  C   UNL A   1      47.837  26.955  26.667  1.00  0.00     0.037 A 
ATOM     55  C   UNL A   1      42.167  29.465  28.717  1.00  0.00     0.049 A 
ATOM     56  C   UNL A   1      47.393  28.347  27.029  1.00  0.00     0.074 A 
ATOM     57  C   UNL A   1      41.912  30.762  29.125  1.00  0.00     0.029 A 
ATOM     58  N   UNL A   1      43.492  29.426  28.310  1.00  0.00    -0.354 N 
ATOM     59  N   UNL A   1      46.227  28.754  27.466  1.00  0.00    -0.248 NA
ATOM     60  C   UNL A   1      48.386  29.420  26.876  1.00  0.00     0.031 C 
ATOM     61  C   UNL A   1      43.071  31.519  28.925  1.00  0.00     0.029 A 
ATOM     62  C   UNL A   1      44.060  30.684  28.431  1.00  0.00     0.049 A 
ATOM     63  H   UNL A   1      43.960  28.623  27.985  1.00  0.00     0.167 HD
ATOM     64  C   UNL A   1      46.350  30.123  27.659  1.00  0.00     0.074 A 
ATOM     65  C   UNL A   1      47.711  30.475  27.310  1.00  0.00     0.031 C 
ATOM     66  C   UNL A   1      45.418  31.011  28.081  1.00  0.00     0.037 A 
BRANCH  53  67
ATOM     67  C   UNL A   1      39.846  28.562  29.107  1.00  0.00     0.064 A 
ATOM     68  C   UNL A   1      39.422  28.326  30.423  1.00  0.00     0.173 A 
ATOM     69  C   UNL A   1      38.909  29.071  28.195  1.00  0.00     0.173 A 
ATOM     70  F   UNL A   1      40.276  27.829  31.329  1.00  0.00    -0.203 F 
ATOM     71  C   UNL A   1      38.106  28.573  30.806  1.00  0.00     0.198 A 
ATOM     72  C   UNL A   1      37.602  29.341  28.588  1.00  0.00     0.198 A 
ATOM     73  F   UNL A   1      39.266  29.317  26.926  1.00  0.00    -0.203 F 
ATOM     74  F   UNL A   1      37.714  28.304  32.059  1.00  0.00    -0.200 F 
ATOM     75  C   UNL A   1      37.200  29.088  29.891  1.00  0.00     0.200 A 
ATOM     76  F   UNL A   1      36.730  29.850  27.707  1.00  0.00    -0.200 F 
ATOM     77  F   UNL A   1      35.937  29.336  30.264  1.00  0.00    -0.200 F 
ENDBRANCH  53  67
BRANCH  54  78
ATOM     78  C   UNL A   1      49.226  26.700  26.202  1.00  0.00     0.064 A 
ATOM     79  C   UNL A   1      49.578  26.887  24.858  1.00  0.00     0.173 A 
ATOM     80  C   UNL A   1      50.220  26.246  27.081  1.00  0.00     0.173 A 
ATOM     81  F   UNL A   1      48.656  27.298  23.976  1.00  0.00    -0.203 F 
ATOM     82  C   UNL A   1      50.866  26.607  24.406  1.00  0.00     0.198 A 
ATOM     83  C   UNL A   1      51.516  25.994  26.634  1.00  0.00     0.198 A 
ATOM     84  F   UNL A   1      49.936  26.054  28.377  1.00  0.00    -0.203 F 
ATOM     85  F   UNL A   1      51.163  26.746  23.107  1.00  0.00    -0.200 F 
ATOM     86  C   UNL A   1      51.835  26.165  25.295  1.00  0.00     0.200 A 
ATOM     87  F   UNL A   1      52.452  25.580  27.498  1.00  0.00    -0.200 F 
ATOM     88  F   UNL A   1      53.074  25.896  24.859  1.00  0.00    -0.200 F 
ENDBRANCH  54  78
BRANCH  66  89
ATOM     89  C   UNL A   1      45.841  32.445  28.206  1.00  0.00     0.064 A 
ATOM     90  C   UNL A   1      45.658  33.352  27.153  1.00  0.00     0.173 A 
ATOM     91  C   UNL A   1      46.381  32.927  29.407  1.00  0.00     0.173 A 
ATOM     92  F   UNL A   1      45.162  32.934  25.979  1.00  0.00    -0.203 F 
ATOM     93  C   UNL A   1      46.016  34.690  27.294  1.00  0.00     0.198 A 
ATOM     94  C   UNL A   1      46.712  34.271  29.554  1.00  0.00     0.198 A 
ATOM     95  F   UNL A   1      46.570  32.097  30.445  1.00  0.00    -0.203 F 
ATOM     96  F   UNL A   1      45.867  35.533  26.263  1.00  0.00    -0.200 F 
ATOM     97  C   UNL A   1      46.534  35.150  28.495  1.00  0.00     0.200 A 
ATOM     98  F   UNL A   1      47.201  34.715  30.720  1.00  0.00    -0.200 F 
ATOM     99  F   UNL A   1      46.865  36.441  28.633  1.00  0.00    -0.200 F 
ENDBRANCH  66  89
ENDBRANCH  40  41
ENDBRANCH  32  35
ENDBRANCH  30  31
ENDBRANCH  29  30
ENDBRANCH  28  29
ENDBRANCH   3  28
TORSDOF 15
ENDMDL
