MODEL 1
REMARK VINA RESULT:     -12.7      0.000      0.000
REMARK SMILES Cc1oc(-c2ccc(Cl)cc2[N+](=O)[O-])cc1C(=O)NCCCNC(=O)c1ccc(-c2c3nc(c(-c4c(F)c(F)c(F)c(F)c4F)c4ccc([nH]4)c(-c4c(F)c(F)c(F)c(F)c4F)c4nc(c(-c5c(F)c(F)c(F)c(F)c5F)c5ccc2[nH]5)C=C4)C=C3)cc1
REMARK SMILES IDX 21 1 20 2 19 3 17 4 18 5 16 7 1 8 2 9 3 10 4 11 15 12 5 13
REMARK SMILES IDX 6 14 11 15 7 16 10 17 8 18 9 19 12 20 13 21 14 22 22 23
REMARK SMILES IDX 23 24 24 25 25 27 26 28 27 29 88 30 28 31 87 32 29 33 30 34
REMARK SMILES IDX 31 35 81 36 32 37 86 38 80 39 82 40 33 41 85 42 79 43 78 44
REMARK SMILES IDX 34 46 66 47 46 48 65 49 47 50 50 51 64 52 83 53 48 54 49 55
REMARK SMILES IDX 63 57 84 58 51 59 35 60 36 61 44 62 37 63 38 64 42 65 45 66
REMARK SMILES IDX 39 67 40 68 43 69 41 70 67 71 68 72 76 73 69 74 70 75 74 76
REMARK SMILES IDX 77 77 71 78 72 79 75 80 73 81 52 82 53 83 61 84 54 85 55 86
REMARK SMILES IDX 59 87 62 88 56 89 57 90 60 91 58 92
REMARK H PARENT 19 6 23 26 82 45 50 56
REMARK Flexibility Score: inf
ROOT
ATOM      1  C   UNL A   1      37.885  19.490  25.004  1.00  0.00     0.042 C 
ENDROOT
BRANCH   1   2
ATOM      2  C   UNL A   1      36.651  20.385  24.911  1.00  0.00     0.118 C 
BRANCH   2   3
ATOM      3  N   UNL A   1      35.450  19.595  25.001  1.00  0.00    -0.352 N 
ATOM      4  C   UNL A   1      34.122  19.891  24.928  1.00  0.00     0.254 C 
ATOM      5  O   UNL A   1      33.370  18.919  25.069  1.00  0.00    -0.269 OA
ATOM      6  H   UNL A   1      35.625  18.637  25.147  1.00  0.00     0.163 HD
BRANCH   4   7
ATOM      7  C   UNL A   1      33.554  21.207  24.647  1.00  0.00     0.081 A 
ATOM      8  C   UNL A   1      32.152  21.367  22.359  1.00  0.00     0.088 C 
ATOM      9  C   UNL A   1      32.772  21.768  23.638  1.00  0.00     0.114 A 
ATOM     10  O   UNL A   1      32.530  23.088  23.907  1.00  0.00    -0.460 OA
ATOM     11  C   UNL A   1      33.173  23.410  25.050  1.00  0.00     0.142 A 
ATOM     12  C   UNL A   1      33.832  22.312  25.530  1.00  0.00     0.065 A 
BRANCH  11  13
ATOM     13  C   UNL A   1      33.060  24.790  25.468  1.00  0.00     0.095 A 
ATOM     14  C   UNL A   1      34.028  25.700  25.012  1.00  0.00     0.021 A 
ATOM     15  C   UNL A   1      32.024  25.276  26.281  1.00  0.00     0.281 A 
ATOM     16  C   UNL A   1      33.954  27.053  25.356  1.00  0.00     0.022 A 
ATOM     17  C   UNL A   1      31.943  26.632  26.631  1.00  0.00     0.107 A 
ATOM     18  C   UNL A   1      32.914  27.511  26.162  1.00  0.00     0.047 A 
ATOM     19  Cl  UNL A   1      32.835  29.175  26.585  1.00  0.00    -0.084 Cl
BRANCH  15  20
ATOM     20  N   UNL A   1      31.006  24.382  26.825  1.00  0.00     0.063 N 
ATOM     21  O   UNL A   1      29.832  24.607  26.501  1.00  0.00    -0.258 OA
ATOM     22  O   UNL A   1      31.368  23.509  27.625  1.00  0.00    -0.258 OA
ENDBRANCH  15  20
ENDBRANCH  11  13
ENDBRANCH   4   7
ENDBRANCH   2   3
ENDBRANCH   1   2
BRANCH   1  23
ATOM     23  C   UNL A   1      39.053  20.133  25.743  1.00  0.00     0.118 C 
BRANCH  23  24
ATOM     24  N   UNL A   1      40.147  19.194  25.946  1.00  0.00    -0.352 N 
ATOM     25  C   UNL A   1      41.485  19.426  26.125  1.00  0.00     0.251 C 
ATOM     26  H   UNL A   1      39.883  18.246  25.957  1.00  0.00     0.163 HD
ATOM     27  O   UNL A   1      42.277  18.489  26.026  1.00  0.00    -0.269 OA
BRANCH  25  28
ATOM     28  C   UNL A   1      41.990  20.782  26.430  1.00  0.00     0.039 A 
ATOM     29  C   UNL A   1      42.175  21.682  25.376  1.00  0.00     0.014 A 
ATOM     30  C   UNL A   1      42.341  21.152  27.731  1.00  0.00     0.014 A 
ATOM     31  C   UNL A   1      42.669  22.963  25.632  1.00  0.00     0.010 A 
ATOM     32  C   UNL A   1      42.758  22.454  27.997  1.00  0.00     0.010 A 
ATOM     33  C   UNL A   1      42.940  23.368  26.948  1.00  0.00    -0.014 A 
BRANCH  33  34
ATOM     34  C   UNL A   1      43.428  24.739  27.245  1.00  0.00     0.031 A 
ATOM     35  C   UNL A   1      42.488  25.772  27.800  1.00  0.00     0.074 A 
ATOM     36  C   UNL A   1      44.702  25.065  26.957  1.00  0.00     0.049 A 
ATOM     37  N   UNL A   1      42.704  27.037  28.059  1.00  0.00    -0.248 NA
ATOM     38  C   UNL A   1      41.110  25.333  28.076  1.00  0.00     0.031 C 
ATOM     39  C   UNL A   1      45.694  24.162  26.373  1.00  0.00     0.029 A 
ATOM     40  N   UNL A   1      45.378  26.250  27.106  1.00  0.00    -0.354 N 
ATOM     41  C   UNL A   1      41.492  27.545  28.509  1.00  0.00     0.074 A 
ATOM     42  C   UNL A   1      40.530  26.467  28.439  1.00  0.00     0.031 C 
ATOM     43  C   UNL A   1      46.856  24.818  26.233  1.00  0.00     0.029 A 
ATOM     44  C   UNL A   1      46.682  26.196  26.680  1.00  0.00     0.049 A 
ATOM     45  H   UNL A   1      44.967  27.061  27.483  1.00  0.00     0.167 HD
ATOM     46  C   UNL A   1      41.215  28.791  28.961  1.00  0.00     0.037 A 
ATOM     47  C   UNL A   1      47.628  27.153  26.648  1.00  0.00     0.037 A 
ATOM     48  C   UNL A   1      42.184  29.851  29.053  1.00  0.00     0.049 A 
ATOM     49  C   UNL A   1      47.295  28.529  27.159  1.00  0.00     0.074 A 
ATOM     50  C   UNL A   1      42.019  31.131  29.553  1.00  0.00     0.029 A 
ATOM     51  N   UNL A   1      43.503  29.752  28.633  1.00  0.00    -0.354 N 
ATOM     52  N   UNL A   1      46.162  28.979  27.644  1.00  0.00    -0.248 NA
ATOM     53  C   UNL A   1      48.372  29.526  27.125  1.00  0.00     0.031 C 
ATOM     54  C   UNL A   1      43.226  31.821  29.395  1.00  0.00     0.029 A 
ATOM     55  C   UNL A   1      44.158  30.955  28.844  1.00  0.00     0.049 A 
ATOM     56  H   UNL A   1      43.912  28.946  28.244  1.00  0.00     0.167 HD
ATOM     57  C   UNL A   1      46.398  30.300  27.999  1.00  0.00     0.074 A 
ATOM     58  C   UNL A   1      47.786  30.574  27.687  1.00  0.00     0.031 C 
ATOM     59  C   UNL A   1      45.542  31.206  28.533  1.00  0.00     0.037 A 
BRANCH  46  60
ATOM     60  C   UNL A   1      39.805  29.076  29.394  1.00  0.00     0.064 A 
ATOM     61  C   UNL A   1      38.825  29.499  28.483  1.00  0.00     0.173 A 
ATOM     62  C   UNL A   1      39.418  28.891  30.730  1.00  0.00     0.173 A 
ATOM     63  F   UNL A   1      39.144  29.703  27.195  1.00  0.00    -0.203 F 
ATOM     64  C   UNL A   1      37.521  29.755  28.898  1.00  0.00     0.198 A 
ATOM     65  C   UNL A   1      38.104  29.117  31.136  1.00  0.00     0.198 A 
ATOM     66  F   UNL A   1      40.312  28.482  31.643  1.00  0.00    -0.203 F 
ATOM     67  F   UNL A   1      36.616  30.208  28.018  1.00  0.00    -0.200 F 
ATOM     68  C   UNL A   1      37.160  29.558  30.222  1.00  0.00     0.200 A 
ATOM     69  F   UNL A   1      37.755  28.913  32.413  1.00  0.00    -0.200 F 
ATOM     70  F   UNL A   1      35.903  29.798  30.618  1.00  0.00    -0.200 F 
ENDBRANCH  46  60
BRANCH  47  71
ATOM     71  C   UNL A   1      48.987  26.837  26.138  1.00  0.00     0.064 A 
ATOM     72  C   UNL A   1      49.982  26.348  26.996  1.00  0.00     0.173 A 
ATOM     73  C   UNL A   1      49.320  27.012  24.787  1.00  0.00     0.173 A 
ATOM     74  F   UNL A   1      49.717  26.182  28.300  1.00  0.00    -0.203 F 
ATOM     75  C   UNL A   1      51.264  26.068  26.528  1.00  0.00     0.198 A 
ATOM     76  C   UNL A   1      50.593  26.703  24.313  1.00  0.00     0.198 A 
ATOM     77  F   UNL A   1      48.402  27.469  23.923  1.00  0.00    -0.203 F 
ATOM     78  F   UNL A   1      52.208  25.646  27.379  1.00  0.00    -0.200 F 
ATOM     79  C   UNL A   1      51.566  26.239  25.185  1.00  0.00     0.200 A 
ATOM     80  F   UNL A   1      50.877  26.855  23.012  1.00  0.00    -0.200 F 
ATOM     81  F   UNL A   1      52.798  25.965  24.733  1.00  0.00    -0.200 F 
ENDBRANCH  47  71
BRANCH  59  82
ATOM     82  C   UNL A   1      46.092  32.567  28.848  1.00  0.00     0.064 A 
ATOM     83  C   UNL A   1      46.696  32.850  30.081  1.00  0.00     0.173 A 
ATOM     84  C   UNL A   1      46.046  33.589  27.888  1.00  0.00     0.173 A 
ATOM     85  F   UNL A   1      46.750  31.911  31.038  1.00  0.00    -0.203 F 
ATOM     86  C   UNL A   1      47.210  34.115  30.352  1.00  0.00     0.198 A 
ATOM     87  C   UNL A   1      46.590  34.843  28.150  1.00  0.00     0.198 A 
ATOM     88  F   UNL A   1      45.485  33.367  26.689  1.00  0.00    -0.203 F 
ATOM     89  F   UNL A   1      47.738  34.378  31.555  1.00  0.00    -0.200 F 
ATOM     90  C   UNL A   1      47.164  35.108  29.384  1.00  0.00     0.200 A 
ATOM     91  F   UNL A   1      46.556  35.796  27.209  1.00  0.00    -0.200 F 
ATOM     92  F   UNL A   1      47.665  36.323  29.644  1.00  0.00    -0.200 F 
ENDBRANCH  59  82
ENDBRANCH  33  34
ENDBRANCH  25  28
ENDBRANCH  23  24
ENDBRANCH   1  23
TORSDOF 12
ENDMDL
MODEL 2
REMARK VINA RESULT:     -12.7      0.263      1.622
REMARK SMILES Cc1oc(-c2ccc(Cl)cc2[N+](=O)[O-])cc1C(=O)NCCCNC(=O)c1ccc(-c2c3nc(c(-c4c(F)c(F)c(F)c(F)c4F)c4ccc([nH]4)c(-c4c(F)c(F)c(F)c(F)c4F)c4nc(c(-c5c(F)c(F)c(F)c(F)c5F)c5ccc2[nH]5)C=C4)C=C3)cc1
REMARK SMILES IDX 21 1 20 2 19 3 17 4 18 5 16 7 1 8 2 9 3 10 4 11 15 12 5 13
REMARK SMILES IDX 6 14 11 15 7 16 10 17 8 18 9 19 12 20 13 21 14 22 22 23
REMARK SMILES IDX 23 24 24 25 25 27 26 28 27 29 88 30 28 31 87 32 29 33 30 34
REMARK SMILES IDX 31 35 81 36 32 37 86 38 80 39 82 40 33 41 85 42 79 43 78 44
REMARK SMILES IDX 34 46 66 47 46 48 65 49 47 50 50 51 64 52 83 53 48 54 49 55
REMARK SMILES IDX 63 57 84 58 51 59 35 60 36 61 44 62 37 63 38 64 42 65 45 66
REMARK SMILES IDX 39 67 40 68 43 69 41 70 67 71 68 72 76 73 69 74 70 75 74 76
REMARK SMILES IDX 77 77 71 78 72 79 75 80 73 81 52 82 53 83 61 84 54 85 55 86
REMARK SMILES IDX 59 87 62 88 56 89 57 90 60 91 58 92
REMARK H PARENT 19 6 23 26 82 45 50 56
REMARK Flexibility Score: inf
ROOT
ATOM      1  C   UNL A   1      37.826  19.451  24.984  1.00  0.00     0.042 C 
ENDROOT
BRANCH   1   2
ATOM      2  C   UNL A   1      36.581  20.335  24.972  1.00  0.00     0.118 C 
BRANCH   2   3
ATOM      3  N   UNL A   1      35.391  19.524  24.946  1.00  0.00    -0.352 N 
ATOM      4  C   UNL A   1      34.066  19.804  24.799  1.00  0.00     0.254 C 
ATOM      5  O   UNL A   1      33.323  18.816  24.843  1.00  0.00    -0.269 OA
ATOM      6  H   UNL A   1      35.573  18.563  25.059  1.00  0.00     0.163 HD
BRANCH   4   7
ATOM      7  C   UNL A   1      33.494  21.124  24.541  1.00  0.00     0.081 A 
ATOM      8  C   UNL A   1      32.037  21.304  22.289  1.00  0.00     0.088 C 
ATOM      9  C   UNL A   1      32.689  21.694  23.556  1.00  0.00     0.114 A 
ATOM     10  O   UNL A   1      32.457  23.013  23.840  1.00  0.00    -0.460 OA
ATOM     11  C   UNL A   1      33.129  23.325  24.970  1.00  0.00     0.142 A 
ATOM     12  C   UNL A   1      33.798  22.222  25.425  1.00  0.00     0.065 A 
BRANCH  11  13
ATOM     13  C   UNL A   1      33.031  24.702  25.400  1.00  0.00     0.095 A 
ATOM     14  C   UNL A   1      33.976  25.618  24.909  1.00  0.00     0.021 A 
ATOM     15  C   UNL A   1      32.029  25.180  26.259  1.00  0.00     0.281 A 
ATOM     16  C   UNL A   1      33.913  26.968  25.263  1.00  0.00     0.022 A 
ATOM     17  C   UNL A   1      31.959  26.534  26.620  1.00  0.00     0.107 A 
ATOM     18  C   UNL A   1      32.907  27.418  26.116  1.00  0.00     0.047 A 
ATOM     19  Cl  UNL A   1      32.842  29.080  26.552  1.00  0.00    -0.084 Cl
BRANCH  15  20
ATOM     20  N   UNL A   1      31.038  24.280  26.841  1.00  0.00     0.063 N 
ATOM     21  O   UNL A   1      29.853  24.484  26.542  1.00  0.00    -0.258 OA
ATOM     22  O   UNL A   1      31.431  23.425  27.645  1.00  0.00    -0.258 OA
ENDBRANCH  15  20
ENDBRANCH  11  13
ENDBRANCH   4   7
ENDBRANCH   2   3
ENDBRANCH   1   2
BRANCH   1  23
ATOM     23  C   UNL A   1      39.042  20.116  25.618  1.00  0.00     0.118 C 
BRANCH  23  24
ATOM     24  N   UNL A   1      40.121  19.165  25.847  1.00  0.00    -0.352 N 
ATOM     25  C   UNL A   1      41.453  19.382  26.080  1.00  0.00     0.251 C 
ATOM     26  H   UNL A   1      39.850  18.218  25.831  1.00  0.00     0.163 HD
ATOM     27  O   UNL A   1      42.241  18.440  25.995  1.00  0.00    -0.269 OA
BRANCH  25  28
ATOM     28  C   UNL A   1      41.957  20.728  26.428  1.00  0.00     0.039 A 
ATOM     29  C   UNL A   1      42.238  21.627  25.394  1.00  0.00     0.014 A 
ATOM     30  C   UNL A   1      42.212  21.090  27.753  1.00  0.00     0.014 A 
ATOM     31  C   UNL A   1      42.733  22.898  25.691  1.00  0.00     0.010 A 
ATOM     32  C   UNL A   1      42.629  22.384  28.054  1.00  0.00     0.010 A 
ATOM     33  C   UNL A   1      42.908  23.297  27.025  1.00  0.00    -0.014 A 
BRANCH  33  34
ATOM     34  C   UNL A   1      43.395  24.658  27.363  1.00  0.00     0.031 A 
ATOM     35  C   UNL A   1      42.454  25.674  27.947  1.00  0.00     0.074 A 
ATOM     36  C   UNL A   1      44.670  24.993  27.088  1.00  0.00     0.049 A 
ATOM     37  N   UNL A   1      42.669  26.931  28.243  1.00  0.00    -0.248 NA
ATOM     38  C   UNL A   1      41.075  25.227  28.207  1.00  0.00     0.031 C 
ATOM     39  C   UNL A   1      45.663  24.107  26.479  1.00  0.00     0.029 A 
ATOM     40  N   UNL A   1      45.345  26.173  27.273  1.00  0.00    -0.354 N 
ATOM     41  C   UNL A   1      41.456  27.425  28.705  1.00  0.00     0.074 A 
ATOM     42  C   UNL A   1      40.494  26.350  28.602  1.00  0.00     0.031 C 
ATOM     43  C   UNL A   1      46.825  24.767  26.361  1.00  0.00     0.029 A 
ATOM     44  C   UNL A   1      46.651  26.132  26.849  1.00  0.00     0.049 A 
ATOM     45  H   UNL A   1      44.933  26.973  27.674  1.00  0.00     0.167 HD
ATOM     46  C   UNL A   1      41.178  28.658  29.194  1.00  0.00     0.037 A 
ATOM     47  C   UNL A   1      47.596  27.089  26.847  1.00  0.00     0.037 A 
ATOM     48  C   UNL A   1      42.147  29.715  29.319  1.00  0.00     0.049 A 
ATOM     49  C   UNL A   1      47.262  28.449  27.398  1.00  0.00     0.074 A 
ATOM     50  C   UNL A   1      41.981  30.979  29.856  1.00  0.00     0.029 A 
ATOM     51  N   UNL A   1      43.466  29.628  28.899  1.00  0.00    -0.354 N 
ATOM     52  N   UNL A   1      46.128  28.885  27.893  1.00  0.00    -0.248 NA
ATOM     53  C   UNL A   1      48.339  29.447  27.395  1.00  0.00     0.031 C 
ATOM     54  C   UNL A   1      43.188  31.674  29.720  1.00  0.00     0.029 A 
ATOM     55  C   UNL A   1      44.121  30.825  29.147  1.00  0.00     0.049 A 
ATOM     56  H   UNL A   1      43.877  28.834  28.487  1.00  0.00     0.167 HD
ATOM     57  C   UNL A   1      46.363  30.194  28.287  1.00  0.00     0.074 A 
ATOM     58  C   UNL A   1      47.752  30.478  27.987  1.00  0.00     0.031 C 
ATOM     59  C   UNL A   1      45.505  31.085  28.846  1.00  0.00     0.037 A 
BRANCH  46  60
ATOM     60  C   UNL A   1      39.767  28.929  29.632  1.00  0.00     0.064 A 
ATOM     61  C   UNL A   1      39.351  28.712  30.954  1.00  0.00     0.173 A 
ATOM     62  C   UNL A   1      38.826  29.445  28.727  1.00  0.00     0.173 A 
ATOM     63  F   UNL A   1      40.208  28.210  31.857  1.00  0.00    -0.203 F 
ATOM     64  C   UNL A   1      38.040  28.972  31.347  1.00  0.00     0.198 A 
ATOM     65  C   UNL A   1      37.524  29.733  29.131  1.00  0.00     0.198 A 
ATOM     66  F   UNL A   1      39.170  29.677  27.452  1.00  0.00    -0.203 F 
ATOM     67  F   UNL A   1      37.655  28.708  32.604  1.00  0.00    -0.200 F 
ATOM     68  C   UNL A   1      37.130  29.488  30.438  1.00  0.00     0.200 A 
ATOM     69  F   UNL A   1      36.650  30.244  28.254  1.00  0.00    -0.200 F 
ATOM     70  F   UNL A   1      35.872  29.744  30.819  1.00  0.00    -0.200 F 
ENDBRANCH  46  60
BRANCH  47  71
ATOM     71  C   UNL A   1      48.956  26.788  26.331  1.00  0.00     0.064 A 
ATOM     72  C   UNL A   1      49.938  26.240  27.167  1.00  0.00     0.173 A 
ATOM     73  C   UNL A   1      49.303  27.037  24.994  1.00  0.00     0.173 A 
ATOM     74  F   UNL A   1      49.660  26.001  28.457  1.00  0.00    -0.203 F 
ATOM     75  C   UNL A   1      51.221  25.973  26.694  1.00  0.00     0.198 A 
ATOM     76  C   UNL A   1      50.577  26.742  24.514  1.00  0.00     0.198 A 
ATOM     77  F   UNL A   1      48.397  27.554  24.151  1.00  0.00    -0.203 F 
ATOM     78  F   UNL A   1      52.154  25.493  27.527  1.00  0.00    -0.200 F 
ATOM     79  C   UNL A   1      51.537  26.219  25.366  1.00  0.00     0.200 A 
ATOM     80  F   UNL A   1      50.873  26.966  23.226  1.00  0.00    -0.200 F 
ATOM     81  F   UNL A   1      52.770  25.958  24.909  1.00  0.00    -0.200 F 
ENDBRANCH  47  71
BRANCH  59  82
ATOM     82  C   UNL A   1      46.055  32.436  29.202  1.00  0.00     0.064 A 
ATOM     83  C   UNL A   1      46.003  33.511  28.304  1.00  0.00     0.173 A 
ATOM     84  C   UNL A   1      46.607  32.664  30.471  1.00  0.00     0.173 A 
ATOM     85  F   UNL A   1      45.499  33.339  27.071  1.00  0.00    -0.203 F 
ATOM     86  C   UNL A   1      46.508  34.760  28.654  1.00  0.00     0.198 A 
ATOM     87  C   UNL A   1      47.081  33.922  30.829  1.00  0.00     0.198 A 
ATOM     88  F   UNL A   1      46.673  31.670  31.369  1.00  0.00    -0.203 F 
ATOM     89  F   UNL A   1      46.493  35.761  27.763  1.00  0.00    -0.200 F 
ATOM     90  C   UNL A   1      47.040  34.967  29.919  1.00  0.00     0.200 A 
ATOM     91  F   UNL A   1      47.582  34.123  32.056  1.00  0.00    -0.200 F 
ATOM     92  F   UNL A   1      47.519  36.172  30.257  1.00  0.00    -0.200 F 
ENDBRANCH  59  82
ENDBRANCH  33  34
ENDBRANCH  25  28
ENDBRANCH  23  24
ENDBRANCH   1  23
TORSDOF 12
ENDMDL
MODEL 3
REMARK VINA RESULT:     -12.7      5.502     10.981
REMARK SMILES Cc1oc(-c2ccc(Cl)cc2[N+](=O)[O-])cc1C(=O)NCCCNC(=O)c1ccc(-c2c3nc(c(-c4c(F)c(F)c(F)c(F)c4F)c4ccc([nH]4)c(-c4c(F)c(F)c(F)c(F)c4F)c4nc(c(-c5c(F)c(F)c(F)c(F)c5F)c5ccc2[nH]5)C=C4)C=C3)cc1
REMARK SMILES IDX 21 1 20 2 19 3 17 4 18 5 16 7 1 8 2 9 3 10 4 11 15 12 5 13
REMARK SMILES IDX 6 14 11 15 7 16 10 17 8 18 9 19 12 20 13 21 14 22 22 23
REMARK SMILES IDX 23 24 24 25 25 27 26 28 27 29 88 30 28 31 87 32 29 33 30 34
REMARK SMILES IDX 31 35 81 36 32 37 86 38 80 39 82 40 33 41 85 42 79 43 78 44
REMARK SMILES IDX 34 46 66 47 46 48 65 49 47 50 50 51 64 52 83 53 48 54 49 55
REMARK SMILES IDX 63 57 84 58 51 59 35 60 36 61 44 62 37 63 38 64 42 65 45 66
REMARK SMILES IDX 39 67 40 68 43 69 41 70 67 71 68 72 76 73 69 74 70 75 74 76
REMARK SMILES IDX 77 77 71 78 72 79 75 80 73 81 52 82 53 83 61 84 54 85 55 86
REMARK SMILES IDX 59 87 62 88 56 89 57 90 60 91 58 92
REMARK H PARENT 19 6 23 26 82 45 50 56
REMARK Flexibility Score: inf
ROOT
ATOM      1  C   UNL A   1      31.152  32.174  26.270  1.00  0.00     0.042 C 
ENDROOT
BRANCH   1   2
ATOM      2  C   UNL A   1      31.155  30.735  25.759  1.00  0.00     0.118 C 
BRANCH   2   3
ATOM      3  N   UNL A   1      30.502  30.658  24.477  1.00  0.00    -0.352 N 
ATOM      4  C   UNL A   1      30.273  29.641  23.599  1.00  0.00     0.254 C 
ATOM      5  O   UNL A   1      29.673  29.976  22.570  1.00  0.00    -0.269 OA
ATOM      6  H   UNL A   1      30.145  31.522  24.169  1.00  0.00     0.163 HD
BRANCH   4   7
ATOM      7  C   UNL A   1      30.616  28.237  23.808  1.00  0.00     0.081 A 
ATOM      8  C   UNL A   1      28.517  26.558  23.875  1.00  0.00     0.088 C 
ATOM      9  C   UNL A   1      29.915  27.036  23.902  1.00  0.00     0.114 A 
ATOM     10  O   UNL A   1      30.783  25.996  24.104  1.00  0.00    -0.460 OA
ATOM     11  C   UNL A   1      32.033  26.501  24.183  1.00  0.00     0.142 A 
ATOM     12  C   UNL A   1      31.989  27.860  24.036  1.00  0.00     0.065 A 
BRANCH  11  13
ATOM     13  C   UNL A   1      33.085  25.541  24.438  1.00  0.00     0.095 A 
ATOM     14  C   UNL A   1      33.365  25.206  25.773  1.00  0.00     0.021 A 
ATOM     15  C   UNL A   1      33.821  24.906  23.426  1.00  0.00     0.281 A 
ATOM     16  C   UNL A   1      34.347  24.260  26.081  1.00  0.00     0.022 A 
ATOM     17  C   UNL A   1      34.809  23.957  23.726  1.00  0.00     0.107 A 
ATOM     18  C   UNL A   1      35.063  23.642  25.057  1.00  0.00     0.047 A 
ATOM     19  Cl  UNL A   1      36.275  22.486  25.446  1.00  0.00    -0.084 Cl
BRANCH  15  20
ATOM     20  N   UNL A   1      33.614  25.234  22.019  1.00  0.00     0.063 N 
ATOM     21  O   UNL A   1      33.165  24.335  21.295  1.00  0.00    -0.258 OA
ATOM     22  O   UNL A   1      33.963  26.355  21.626  1.00  0.00    -0.258 OA
ENDBRANCH  15  20
ENDBRANCH  11  13
ENDBRANCH   4   7
ENDBRANCH   2   3
ENDBRANCH   1   2
BRANCH   1  23
ATOM     23  C   UNL A   1      32.423  32.560  27.019  1.00  0.00     0.118 C 
BRANCH  23  24
ATOM     24  N   UNL A   1      32.406  33.957  27.426  1.00  0.00    -0.352 N 
ATOM     25  C   UNL A   1      33.095  34.592  28.425  1.00  0.00     0.251 C 
ATOM     26  H   UNL A   1      31.807  34.536  26.901  1.00  0.00     0.163 HD
ATOM     27  O   UNL A   1      32.752  35.723  28.771  1.00  0.00    -0.269 OA
BRANCH  25  28
ATOM     28  C   UNL A   1      34.240  33.939  29.097  1.00  0.00     0.039 A 
ATOM     29  C   UNL A   1      35.533  34.379  28.799  1.00  0.00     0.014 A 
ATOM     30  C   UNL A   1      34.055  32.861  29.967  1.00  0.00     0.014 A 
ATOM     31  C   UNL A   1      36.634  33.768  29.404  1.00  0.00     0.010 A 
ATOM     32  C   UNL A   1      35.146  32.305  30.630  1.00  0.00     0.010 A 
ATOM     33  C   UNL A   1      36.448  32.744  30.344  1.00  0.00    -0.014 A 
BRANCH  33  34
ATOM     34  C   UNL A   1      37.602  32.108  31.028  1.00  0.00     0.031 A 
ATOM     35  C   UNL A   1      38.402  31.044  30.330  1.00  0.00     0.074 A 
ATOM     36  C   UNL A   1      37.891  32.450  32.298  1.00  0.00     0.049 A 
ATOM     37  N   UNL A   1      39.397  30.323  30.782  1.00  0.00    -0.248 NA
ATOM     38  C   UNL A   1      38.013  30.724  28.947  1.00  0.00     0.031 C 
ATOM     39  C   UNL A   1      37.158  33.436  33.094  1.00  0.00     0.029 A 
ATOM     40  N   UNL A   1      38.869  31.998  33.147  1.00  0.00    -0.354 N 
ATOM     41  C   UNL A   1      39.739  29.459  29.750  1.00  0.00     0.074 A 
ATOM     42  C   UNL A   1      38.813  29.706  28.667  1.00  0.00     0.031 C 
ATOM     43  C   UNL A   1      37.726  33.529  34.307  1.00  0.00     0.029 A 
ATOM     44  C   UNL A   1      38.836  32.585  34.388  1.00  0.00     0.049 A 
ATOM     45  H   UNL A   1      39.534  31.318  32.890  1.00  0.00     0.167 HD
ATOM     46  C   UNL A   1      40.750  28.558  29.703  1.00  0.00     0.037 A 
ATOM     47  C   UNL A   1      39.609  32.379  35.470  1.00  0.00     0.037 A 
ATOM     48  C   UNL A   1      41.685  28.336  30.774  1.00  0.00     0.049 A 
ATOM     49  C   UNL A   1      40.726  31.375  35.390  1.00  0.00     0.074 A 
ATOM     50  C   UNL A   1      42.780  27.491  30.804  1.00  0.00     0.029 A 
ATOM     51  N   UNL A   1      41.632  28.968  32.009  1.00  0.00    -0.354 N 
ATOM     52  N   UNL A   1      41.081  30.610  34.385  1.00  0.00    -0.248 NA
ATOM     53  C   UNL A   1      41.554  31.210  36.591  1.00  0.00     0.031 C 
ATOM     54  C   UNL A   1      43.364  27.577  32.073  1.00  0.00     0.029 A 
ATOM     55  C   UNL A   1      42.664  28.514  32.816  1.00  0.00     0.049 A 
ATOM     56  H   UNL A   1      40.962  29.638  32.272  1.00  0.00     0.167 HD
ATOM     57  C   UNL A   1      42.188  29.897  34.822  1.00  0.00     0.074 A 
ATOM     58  C   UNL A   1      42.456  30.330  36.178  1.00  0.00     0.031 C 
ATOM     59  C   UNL A   1      42.918  28.963  34.161  1.00  0.00     0.037 A 
BRANCH  46  60
ATOM     60  C   UNL A   1      40.898  27.745  28.449  1.00  0.00     0.064 A 
ATOM     61  C   UNL A   1      41.718  28.165  27.390  1.00  0.00     0.173 A 
ATOM     62  C   UNL A   1      40.239  26.513  28.315  1.00  0.00     0.173 A 
ATOM     63  F   UNL A   1      42.362  29.340  27.461  1.00  0.00    -0.203 F 
ATOM     64  C   UNL A   1      41.848  27.399  26.235  1.00  0.00     0.198 A 
ATOM     65  C   UNL A   1      40.397  25.734  27.171  1.00  0.00     0.198 A 
ATOM     66  F   UNL A   1      39.447  26.060  29.298  1.00  0.00    -0.203 F 
ATOM     67  F   UNL A   1      42.597  27.847  25.217  1.00  0.00    -0.200 F 
ATOM     68  C   UNL A   1      41.194  26.182  26.128  1.00  0.00     0.200 A 
ATOM     69  F   UNL A   1      39.773  24.552  27.076  1.00  0.00    -0.200 F 
ATOM     70  F   UNL A   1      41.326  25.442  25.019  1.00  0.00    -0.200 F 
ENDBRANCH  46  60
BRANCH  47  71
ATOM     71  C   UNL A   1      39.370  33.158  36.712  1.00  0.00     0.064 A 
ATOM     72  C   UNL A   1      38.463  32.707  37.681  1.00  0.00     0.173 A 
ATOM     73  C   UNL A   1      40.041  34.365  36.959  1.00  0.00     0.173 A 
ATOM     74  F   UNL A   1      37.784  31.568  37.482  1.00  0.00    -0.203 F 
ATOM     75  C   UNL A   1      38.221  33.442  38.839  1.00  0.00     0.198 A 
ATOM     76  C   UNL A   1      39.820  35.085  38.131  1.00  0.00     0.198 A 
ATOM     77  F   UNL A   1      40.924  34.837  36.067  1.00  0.00    -0.203 F 
ATOM     78  F   UNL A   1      37.315  33.010  39.727  1.00  0.00    -0.200 F 
ATOM     79  C   UNL A   1      38.904  34.627  39.066  1.00  0.00     0.200 A 
ATOM     80  F   UNL A   1      40.494  36.221  38.354  1.00  0.00    -0.200 F 
ATOM     81  F   UNL A   1      38.674  35.333  40.182  1.00  0.00    -0.200 F 
ENDBRANCH  47  71
BRANCH  59  82
ATOM     82  C   UNL A   1      44.096  28.376  34.882  1.00  0.00     0.064 A 
ATOM     83  C   UNL A   1      43.988  27.194  35.628  1.00  0.00     0.173 A 
ATOM     84  C   UNL A   1      45.356  28.986  34.794  1.00  0.00     0.173 A 
ATOM     85  F   UNL A   1      42.800  26.582  35.757  1.00  0.00    -0.203 F 
ATOM     86  C   UNL A   1      45.094  26.658  36.283  1.00  0.00     0.198 A 
ATOM     87  C   UNL A   1      46.466  28.430  35.423  1.00  0.00     0.198 A 
ATOM     88  F   UNL A   1      45.514  30.115  34.086  1.00  0.00    -0.203 F 
ATOM     89  F   UNL A   1      44.957  25.555  37.031  1.00  0.00    -0.200 F 
ATOM     90  C   UNL A   1      46.333  27.271  36.173  1.00  0.00     0.200 A 
ATOM     91  F   UNL A   1      47.665  29.016  35.305  1.00  0.00    -0.200 F 
ATOM     92  F   UNL A   1      47.398  26.750  36.798  1.00  0.00    -0.200 F 
ENDBRANCH  59  82
ENDBRANCH  33  34
ENDBRANCH  25  28
ENDBRANCH  23  24
ENDBRANCH   1  23
TORSDOF 12
ENDMDL
