MODEL 1
REMARK VINA RESULT:     -14.7      0.000      0.000
REMARK SMILES Cc1c(NC(=O)c2ccccc2NC(=O)[C@@H]2CCCO2)cccc1C(=O)NCCCNC(=O)c1ccc(-c2c3nc(c(-c4c(F)c(F)c(F)c(F)c4F)c4ccc([nH]4)c(-c4c(F)c(F)c(F)c(F)c4F)c4nc(c(-c5c(F)c(F)c(F)c(F)c5F)c5ccc2[nH]5)C=C4)C=C3)cc1
REMARK SMILES IDX 28 1 27 2 25 3 26 4 24 6 1 7 2 8 3 9 21 10 23 11 22 12 4 13
REMARK SMILES IDX 5 14 6 16 7 17 8 18 12 19 9 20 11 21 10 22 13 23 14 24 15 26
REMARK SMILES IDX 16 27 17 28 20 29 18 30 19 31 29 32 30 33 31 34 32 35 33 37
REMARK SMILES IDX 34 38 35 39 96 40 36 41 95 42 37 43 38 44 39 45 89 46 40 47
REMARK SMILES IDX 94 48 88 49 90 50 41 51 93 52 87 53 86 54 42 56 74 57 54 58
REMARK SMILES IDX 73 59 55 60 58 61 72 62 91 63 56 64 57 65 71 67 92 68 59 69
REMARK SMILES IDX 43 70 44 71 52 72 45 73 46 74 50 75 53 76 47 77 48 78 51 79
REMARK SMILES IDX 49 80 75 81 76 82 84 83 77 84 78 85 82 86 85 87 79 88 80 89
REMARK SMILES IDX 83 90 81 91 60 92 61 93 69 94 62 95 63 96 67 97 70 98 64 99
REMARK SMILES IDX 65 100 68 101 66 102
REMARK H PARENT 27 5 4 15 13 25 31 36 90 55 58 66
REMARK Flexibility Score: inf
ROOT
ATOM      1  C   UNL A   1      31.899  29.862  25.425  1.00  0.00     0.118 C 
ENDROOT
BRANCH   1   2
ATOM      2  N   UNL A   1      32.965  29.715  24.441  1.00  0.00    -0.352 N 
ATOM      3  C   UNL A   1      33.504  28.690  23.702  1.00  0.00     0.251 C 
ATOM      4  O   UNL A   1      34.387  29.046  22.911  1.00  0.00    -0.269 OA
ATOM      5  H   UNL A   1      33.413  30.572  24.258  1.00  0.00     0.163 HD
BRANCH   3   6
ATOM      6  C   UNL A   1      33.108  27.236  23.700  1.00  0.00     0.044 A 
ATOM      7  C   UNL A   1      33.532  26.684  26.153  1.00  0.00     0.047 C 
ATOM      8  C   UNL A   1      33.037  26.341  24.784  1.00  0.00    -0.015 A 
ATOM      9  C   UNL A   1      32.679  24.980  24.574  1.00  0.00     0.045 A 
ATOM     10  C   UNL A   1      32.523  24.468  23.293  1.00  0.00     0.026 A 
ATOM     11  C   UNL A   1      32.929  26.684  22.411  1.00  0.00     0.014 A 
ATOM     12  C   UNL A   1      32.663  25.324  22.208  1.00  0.00     0.003 A 
BRANCH   9  13
ATOM     13  N   UNL A   1      32.534  24.188  25.723  1.00  0.00    -0.322 N 
ATOM     14  C   UNL A   1      33.312  23.217  26.293  1.00  0.00     0.257 C 
ATOM     15  H   UNL A   1      31.703  24.369  26.220  1.00  0.00     0.170 HD
ATOM     16  O   UNL A   1      32.903  22.704  27.337  1.00  0.00    -0.269 OA
BRANCH  14  17
ATOM     17  C   UNL A   1      34.633  22.790  25.767  1.00  0.00     0.063 A 
ATOM     18  C   UNL A   1      35.698  23.573  26.252  1.00  0.00     0.016 A 
ATOM     19  C   UNL A   1      34.871  21.784  24.796  1.00  0.00     0.054 A 
ATOM     20  C   UNL A   1      37.004  23.317  25.864  1.00  0.00     0.001 A 
ATOM     21  C   UNL A   1      36.205  21.484  24.506  1.00  0.00     0.027 A 
ATOM     22  C   UNL A   1      37.259  22.247  25.024  1.00  0.00     0.002 A 
BRANCH  19  23
ATOM     23  N   UNL A   1      33.781  21.189  24.123  1.00  0.00    -0.323 N 
ATOM     24  C   UNL A   1      33.119  19.994  24.124  1.00  0.00     0.253 C 
ATOM     25  H   UNL A   1      33.388  21.811  23.469  1.00  0.00     0.170 HD
ATOM     26  O   UNL A   1      32.158  19.908  23.347  1.00  0.00    -0.272 OA
BRANCH  24  27
ATOM     27  C   UNL A   1      33.550  18.802  24.981  1.00  0.00     0.207 C 
ATOM     28  C   UNL A   1      34.188  17.736  24.101  1.00  0.00     0.044 C 
ATOM     29  O   UNL A   1      32.465  18.136  25.653  1.00  0.00    -0.368 OA
ATOM     30  C   UNL A   1      33.991  16.491  24.922  1.00  0.00     0.032 C 
ATOM     31  C   UNL A   1      32.611  16.720  25.492  1.00  0.00     0.161 C 
ENDBRANCH  24  27
ENDBRANCH  19  23
ENDBRANCH  14  17
ENDBRANCH   9  13
ENDBRANCH   3   6
ENDBRANCH   1   2
BRANCH   1  32
ATOM     32  C   UNL A   1      32.309  30.823  26.550  1.00  0.00     0.042 C 
BRANCH  32  33
ATOM     33  C   UNL A   1      33.342  30.321  27.535  1.00  0.00     0.118 C 
BRANCH  33  34
ATOM     34  N   UNL A   1      34.018  31.393  28.270  1.00  0.00    -0.352 N 
ATOM     35  C   UNL A   1      35.226  31.319  28.949  1.00  0.00     0.251 C 
ATOM     36  H   UNL A   1      33.564  32.266  28.283  1.00  0.00     0.163 HD
ATOM     37  O   UNL A   1      35.727  32.285  29.492  1.00  0.00    -0.269 OA
BRANCH  35  38
ATOM     38  C   UNL A   1      35.941  30.026  28.873  1.00  0.00     0.039 A 
ATOM     39  C   UNL A   1      36.512  29.572  30.061  1.00  0.00     0.014 A 
ATOM     40  C   UNL A   1      36.412  29.609  27.631  1.00  0.00     0.014 A 
ATOM     41  C   UNL A   1      37.743  28.929  30.005  1.00  0.00     0.010 A 
ATOM     42  C   UNL A   1      37.680  29.059  27.580  1.00  0.00     0.010 A 
ATOM     43  C   UNL A   1      38.377  28.797  28.769  1.00  0.00    -0.014 A 
BRANCH  43  44
ATOM     44  C   UNL A   1      39.792  28.462  28.651  1.00  0.00     0.031 A 
ATOM     45  C   UNL A   1      40.182  27.080  28.314  1.00  0.00     0.074 A 
ATOM     46  C   UNL A   1      40.763  29.381  28.863  1.00  0.00     0.049 A 
ATOM     47  N   UNL A   1      41.282  26.526  28.699  1.00  0.00    -0.248 NA
ATOM     48  C   UNL A   1      39.322  26.193  27.544  1.00  0.00     0.031 C 
ATOM     49  C   UNL A   1      42.195  29.214  28.612  1.00  0.00     0.029 A 
ATOM     50  N   UNL A   1      40.676  30.600  29.557  1.00  0.00    -0.354 N 
ATOM     51  C   UNL A   1      41.400  25.328  28.036  1.00  0.00     0.074 A 
ATOM     52  C   UNL A   1      40.128  25.142  27.372  1.00  0.00     0.031 C 
ATOM     53  C   UNL A   1      42.873  30.065  29.395  1.00  0.00     0.029 A 
ATOM     54  C   UNL A   1      41.912  30.740  30.243  1.00  0.00     0.049 A 
ATOM     55  H   UNL A   1      39.916  31.226  29.567  1.00  0.00     0.167 HD
ATOM     56  C   UNL A   1      42.600  24.680  28.028  1.00  0.00     0.037 A 
ATOM     57  C   UNL A   1      41.967  30.827  31.603  1.00  0.00     0.037 A 
ATOM     58  C   UNL A   1      43.609  25.387  28.817  1.00  0.00     0.049 A 
ATOM     59  C   UNL A   1      42.715  29.697  32.275  1.00  0.00     0.074 A 
ATOM     60  C   UNL A   1      44.654  26.242  28.508  1.00  0.00     0.029 A 
ATOM     61  N   UNL A   1      43.437  25.483  30.187  1.00  0.00    -0.354 N 
ATOM     62  N   UNL A   1      43.314  28.725  31.646  1.00  0.00    -0.248 NA
ATOM     63  C   UNL A   1      42.730  29.515  33.728  1.00  0.00     0.031 C 
ATOM     64  C   UNL A   1      45.123  26.833  29.717  1.00  0.00     0.029 A 
ATOM     65  C   UNL A   1      44.360  26.340  30.759  1.00  0.00     0.049 A 
ATOM     66  H   UNL A   1      42.743  25.002  30.693  1.00  0.00     0.167 HD
ATOM     67  C   UNL A   1      43.714  27.779  32.553  1.00  0.00     0.074 A 
ATOM     68  C   UNL A   1      43.324  28.316  33.843  1.00  0.00     0.031 C 
ATOM     69  C   UNL A   1      44.289  26.597  32.187  1.00  0.00     0.037 A 
BRANCH  56  70
ATOM     70  C   UNL A   1      42.917  23.538  27.091  1.00  0.00     0.064 A 
ATOM     71  C   UNL A   1      42.399  22.247  27.320  1.00  0.00     0.173 A 
ATOM     72  C   UNL A   1      43.769  23.639  25.975  1.00  0.00     0.173 A 
ATOM     73  F   UNL A   1      41.471  22.020  28.259  1.00  0.00    -0.203 F 
ATOM     74  C   UNL A   1      42.816  21.131  26.590  1.00  0.00     0.198 A 
ATOM     75  C   UNL A   1      44.241  22.516  25.288  1.00  0.00     0.198 A 
ATOM     76  F   UNL A   1      44.125  24.831  25.478  1.00  0.00    -0.203 F 
ATOM     77  F   UNL A   1      42.293  19.927  26.860  1.00  0.00    -0.200 F 
ATOM     78  C   UNL A   1      43.776  21.258  25.607  1.00  0.00     0.200 A 
ATOM     79  F   UNL A   1      45.150  22.666  24.314  1.00  0.00    -0.200 F 
ATOM     80  F   UNL A   1      44.222  20.181  24.949  1.00  0.00    -0.200 F 
ENDBRANCH  56  70
BRANCH  57  81
ATOM     81  C   UNL A   1      40.785  31.531  32.161  1.00  0.00     0.064 A 
ATOM     82  C   UNL A   1      40.661  32.909  31.889  1.00  0.00     0.173 A 
ATOM     83  C   UNL A   1      39.631  30.831  32.526  1.00  0.00     0.173 A 
ATOM     84  F   UNL A   1      41.746  33.627  31.555  1.00  0.00    -0.203 F 
ATOM     85  C   UNL A   1      39.411  33.510  31.798  1.00  0.00     0.198 A 
ATOM     86  C   UNL A   1      38.383  31.450  32.472  1.00  0.00     0.198 A 
ATOM     87  F   UNL A   1      39.688  29.520  32.801  1.00  0.00    -0.203 F 
ATOM     88  F   UNL A   1      39.307  34.774  31.364  1.00  0.00    -0.200 F 
ATOM     89  C   UNL A   1      38.270  32.767  32.052  1.00  0.00     0.200 A 
ATOM     90  F   UNL A   1      37.280  30.735  32.728  1.00  0.00    -0.200 F 
ATOM     91  F   UNL A   1      37.062  33.308  31.842  1.00  0.00    -0.200 F 
ENDBRANCH  57  81
BRANCH  69  92
ATOM     92  C   UNL A   1      44.796  25.577  33.173  1.00  0.00     0.064 A 
ATOM     93  C   UNL A   1      46.142  25.173  33.217  1.00  0.00     0.173 A 
ATOM     94  C   UNL A   1      43.925  24.890  34.047  1.00  0.00     0.173 A 
ATOM     95  F   UNL A   1      47.038  25.671  32.351  1.00  0.00    -0.203 F 
ATOM     96  C   UNL A   1      46.601  24.228  34.136  1.00  0.00     0.198 A 
ATOM     97  C   UNL A   1      44.376  23.906  34.926  1.00  0.00     0.198 A 
ATOM     98  F   UNL A   1      42.615  25.166  34.095  1.00  0.00    -0.203 F 
ATOM     99  F   UNL A   1      47.907  23.934  34.189  1.00  0.00    -0.200 F 
ATOM    100  C   UNL A   1      45.718  23.592  34.988  1.00  0.00     0.200 A 
ATOM    101  F   UNL A   1      43.500  23.272  35.718  1.00  0.00    -0.200 F 
ATOM    102  F   UNL A   1      46.157  22.677  35.862  1.00  0.00    -0.200 F 
ENDBRANCH  69  92
ENDBRANCH  43  44
ENDBRANCH  35  38
ENDBRANCH  33  34
ENDBRANCH  32  33
ENDBRANCH   1  32
TORSDOF 14
ENDMDL
MODEL 2
REMARK VINA RESULT:     -14.3      1.781      2.392
REMARK SMILES Cc1c(NC(=O)c2ccccc2NC(=O)[C@@H]2CCCO2)cccc1C(=O)NCCCNC(=O)c1ccc(-c2c3nc(c(-c4c(F)c(F)c(F)c(F)c4F)c4ccc([nH]4)c(-c4c(F)c(F)c(F)c(F)c4F)c4nc(c(-c5c(F)c(F)c(F)c(F)c5F)c5ccc2[nH]5)C=C4)C=C3)cc1
REMARK SMILES IDX 28 1 27 2 25 3 26 4 24 6 1 7 2 8 3 9 21 10 23 11 22 12 4 13
REMARK SMILES IDX 5 14 6 16 7 17 8 18 12 19 9 20 11 21 10 22 13 23 14 24 15 26
REMARK SMILES IDX 16 27 17 28 20 29 18 30 19 31 29 32 30 33 31 34 32 35 33 37
REMARK SMILES IDX 34 38 35 39 96 40 36 41 95 42 37 43 38 44 39 45 89 46 40 47
REMARK SMILES IDX 94 48 88 49 90 50 41 51 93 52 87 53 86 54 42 56 74 57 54 58
REMARK SMILES IDX 73 59 55 60 58 61 72 62 91 63 56 64 57 65 71 67 92 68 59 69
REMARK SMILES IDX 43 70 44 71 52 72 45 73 46 74 50 75 53 76 47 77 48 78 51 79
REMARK SMILES IDX 49 80 75 81 76 82 84 83 77 84 78 85 82 86 85 87 79 88 80 89
REMARK SMILES IDX 83 90 81 91 60 92 61 93 69 94 62 95 63 96 67 97 70 98 64 99
REMARK SMILES IDX 65 100 68 101 66 102
REMARK H PARENT 27 5 4 15 13 25 31 36 90 55 58 66
REMARK Flexibility Score: inf
ROOT
ATOM      1  C   UNL A   1      32.801  29.636  25.186  1.00  0.00     0.118 C 
ENDROOT
BRANCH   1   2
ATOM      2  N   UNL A   1      31.499  29.768  24.542  1.00  0.00    -0.352 N 
ATOM      3  C   UNL A   1      30.639  28.945  23.857  1.00  0.00     0.251 C 
ATOM      4  O   UNL A   1      29.573  29.483  23.534  1.00  0.00    -0.269 OA
ATOM      5  H   UNL A   1      31.146  30.683  24.619  1.00  0.00     0.163 HD
BRANCH   3   6
ATOM      6  C   UNL A   1      30.816  27.485  23.522  1.00  0.00     0.044 A 
ATOM      7  C   UNL A   1      30.366  26.472  25.819  1.00  0.00     0.047 C 
ATOM      8  C   UNL A   1      30.628  26.362  24.350  1.00  0.00    -0.015 A 
ATOM      9  C   UNL A   1      30.890  25.053  23.860  1.00  0.00     0.045 A 
ATOM     10  C   UNL A   1      31.460  24.855  22.611  1.00  0.00     0.026 A 
ATOM     11  C   UNL A   1      31.386  27.246  22.251  1.00  0.00     0.014 A 
ATOM     12  C   UNL A   1      31.722  25.960  21.810  1.00  0.00     0.003 A 
BRANCH   9  13
ATOM     13  N   UNL A   1      30.577  23.990  24.720  1.00  0.00    -0.322 N 
ATOM     14  C   UNL A   1      31.335  23.036  25.343  1.00  0.00     0.257 C 
ATOM     15  H   UNL A   1      29.614  23.917  24.916  1.00  0.00     0.170 HD
ATOM     16  O   UNL A   1      30.748  22.227  26.064  1.00  0.00    -0.269 OA
BRANCH  14  17
ATOM     17  C   UNL A   1      32.815  22.954  25.248  1.00  0.00     0.063 A 
ATOM     18  C   UNL A   1      33.466  24.058  25.831  1.00  0.00     0.016 A 
ATOM     19  C   UNL A   1      33.565  21.961  24.567  1.00  0.00     0.054 A 
ATOM     20  C   UNL A   1      34.849  24.150  25.833  1.00  0.00     0.001 A 
ATOM     21  C   UNL A   1      34.956  22.029  24.679  1.00  0.00     0.027 A 
ATOM     22  C   UNL A   1      35.593  23.115  25.293  1.00  0.00     0.002 A 
BRANCH  19  23
ATOM     23  N   UNL A   1      32.898  21.009  23.765  1.00  0.00    -0.323 N 
ATOM     24  C   UNL A   1      32.643  19.666  23.786  1.00  0.00     0.253 C 
ATOM     25  H   UNL A   1      32.507  21.431  22.967  1.00  0.00     0.170 HD
ATOM     26  O   UNL A   1      31.970  19.230  22.842  1.00  0.00    -0.272 OA
BRANCH  24  27
ATOM     27  C   UNL A   1      33.191  18.729  24.864  1.00  0.00     0.207 C 
ATOM     28  C   UNL A   1      34.192  17.761  24.250  1.00  0.00     0.044 C 
ATOM     29  O   UNL A   1      32.193  17.897  25.484  1.00  0.00    -0.368 OA
ATOM     30  C   UNL A   1      34.155  16.612  25.220  1.00  0.00     0.032 C 
ATOM     31  C   UNL A   1      32.685  16.553  25.563  1.00  0.00     0.161 C 
ENDBRANCH  24  27
ENDBRANCH  19  23
ENDBRANCH  14  17
ENDBRANCH   9  13
ENDBRANCH   3   6
ENDBRANCH   1   2
BRANCH   1  32
ATOM     32  C   UNL A   1      32.719  29.974  26.682  1.00  0.00     0.042 C 
BRANCH  32  33
ATOM     33  C   UNL A   1      33.934  29.652  27.523  1.00  0.00     0.118 C 
BRANCH  33  34
ATOM     34  N   UNL A   1      34.412  30.786  28.317  1.00  0.00    -0.352 N 
ATOM     35  C   UNL A   1      35.664  30.946  28.893  1.00  0.00     0.251 C 
ATOM     36  H   UNL A   1      33.770  31.519  28.459  1.00  0.00     0.163 HD
ATOM     37  O   UNL A   1      35.978  31.952  29.499  1.00  0.00    -0.269 OA
BRANCH  35  38
ATOM     38  C   UNL A   1      36.649  29.874  28.623  1.00  0.00     0.039 A 
ATOM     39  C   UNL A   1      36.931  29.022  29.690  1.00  0.00     0.014 A 
ATOM     40  C   UNL A   1      37.550  30.059  27.578  1.00  0.00     0.014 A 
ATOM     41  C   UNL A   1      38.237  28.578  29.860  1.00  0.00     0.010 A 
ATOM     42  C   UNL A   1      38.867  29.701  27.800  1.00  0.00     0.010 A 
ATOM     43  C   UNL A   1      39.221  29.032  28.981  1.00  0.00    -0.014 A 
BRANCH  43  44
ATOM     44  C   UNL A   1      40.645  28.910  29.276  1.00  0.00     0.031 A 
ATOM     45  C   UNL A   1      41.399  27.765  28.732  1.00  0.00     0.074 A 
ATOM     46  C   UNL A   1      41.294  29.810  30.053  1.00  0.00     0.049 A 
ATOM     47  N   UNL A   1      42.426  27.238  29.310  1.00  0.00    -0.248 NA
ATOM     48  C   UNL A   1      41.014  27.090  27.502  1.00  0.00     0.031 C 
ATOM     49  C   UNL A   1      42.737  29.889  30.279  1.00  0.00     0.029 A 
ATOM     50  N   UNL A   1      40.750  30.718  30.977  1.00  0.00    -0.354 N 
ATOM     51  C   UNL A   1      42.985  26.342  28.430  1.00  0.00     0.074 A 
ATOM     52  C   UNL A   1      42.036  26.246  27.343  1.00  0.00     0.031 C 
ATOM     53  C   UNL A   1      42.957  30.506  31.448  1.00  0.00     0.029 A 
ATOM     54  C   UNL A   1      41.669  30.760  32.059  1.00  0.00     0.049 A 
ATOM     55  H   UNL A   1      39.907  31.221  30.892  1.00  0.00     0.167 HD
ATOM     56  C   UNL A   1      44.242  25.867  28.663  1.00  0.00     0.037 A 
ATOM     57  C   UNL A   1      41.299  30.404  33.322  1.00  0.00     0.037 A 
ATOM     58  C   UNL A   1      44.799  26.382  29.914  1.00  0.00     0.049 A 
ATOM     59  C   UNL A   1      42.034  29.205  33.879  1.00  0.00     0.074 A 
ATOM     60  C   UNL A   1      45.684  27.399  30.232  1.00  0.00     0.029 A 
ATOM     61  N   UNL A   1      44.213  26.007  31.110  1.00  0.00    -0.354 N 
ATOM     62  N   UNL A   1      42.983  28.562  33.257  1.00  0.00    -0.248 NA
ATOM     63  C   UNL A   1      41.656  28.561  35.139  1.00  0.00     0.031 C 
ATOM     64  C   UNL A   1      45.639  27.610  31.640  1.00  0.00     0.029 A 
ATOM     65  C   UNL A   1      44.723  26.725  32.176  1.00  0.00     0.049 A 
ATOM     66  H   UNL A   1      43.518  25.315  31.193  1.00  0.00     0.167 HD
ATOM     67  C   UNL A   1      43.286  27.421  33.954  1.00  0.00     0.074 A 
ATOM     68  C   UNL A   1      42.427  27.463  35.122  1.00  0.00     0.031 C 
ATOM     69  C   UNL A   1      44.179  26.493  33.503  1.00  0.00     0.037 A 
BRANCH  56  70
ATOM     70  C   UNL A   1      45.055  25.134  27.622  1.00  0.00     0.064 A 
ATOM     71  C   UNL A   1      45.733  25.836  26.604  1.00  0.00     0.173 A 
ATOM     72  C   UNL A   1      45.165  23.733  27.542  1.00  0.00     0.173 A 
ATOM     73  F   UNL A   1      45.834  27.171  26.621  1.00  0.00    -0.203 F 
ATOM     74  C   UNL A   1      46.336  25.190  25.522  1.00  0.00     0.198 A 
ATOM     75  C   UNL A   1      45.707  23.085  26.427  1.00  0.00     0.198 A 
ATOM     76  F   UNL A   1      44.806  22.947  28.566  1.00  0.00    -0.203 F 
ATOM     77  F   UNL A   1      46.958  25.913  24.580  1.00  0.00    -0.200 F 
ATOM     78  C   UNL A   1      46.279  23.817  25.407  1.00  0.00     0.200 A 
ATOM     79  F   UNL A   1      45.670  21.747  26.351  1.00  0.00    -0.200 F 
ATOM     80  F   UNL A   1      46.802  23.201  24.339  1.00  0.00    -0.200 F 
ENDBRANCH  56  70
BRANCH  57  81
ATOM     81  C   UNL A   1      39.884  30.755  33.604  1.00  0.00     0.064 A 
ATOM     82  C   UNL A   1      39.578  32.119  33.792  1.00  0.00     0.173 A 
ATOM     83  C   UNL A   1      38.840  29.894  33.253  1.00  0.00     0.173 A 
ATOM     84  F   UNL A   1      40.543  32.980  34.151  1.00  0.00    -0.203 F 
ATOM     85  C   UNL A   1      38.328  32.624  33.453  1.00  0.00     0.198 A 
ATOM     86  C   UNL A   1      37.577  30.401  32.953  1.00  0.00     0.198 A 
ATOM     87  F   UNL A   1      39.070  28.586  33.065  1.00  0.00    -0.203 F 
ATOM     88  F   UNL A   1      38.114  33.947  33.470  1.00  0.00    -0.200 F 
ATOM     89  C   UNL A   1      37.340  31.767  32.996  1.00  0.00     0.200 A 
ATOM     90  F   UNL A   1      36.618  29.572  32.520  1.00  0.00    -0.200 F 
ATOM     91  F   UNL A   1      36.179  32.266  32.549  1.00  0.00    -0.200 F 
ENDBRANCH  57  81
BRANCH  69  92
ATOM     92  C   UNL A   1      44.574  25.269  34.287  1.00  0.00     0.064 A 
ATOM     93  C   UNL A   1      44.150  23.976  33.933  1.00  0.00     0.173 A 
ATOM     94  C   UNL A   1      45.315  25.360  35.486  1.00  0.00     0.173 A 
ATOM     95  F   UNL A   1      43.343  23.782  32.878  1.00  0.00    -0.203 F 
ATOM     96  C   UNL A   1      44.524  22.849  34.665  1.00  0.00     0.198 A 
ATOM     97  C   UNL A   1      45.640  24.238  36.247  1.00  0.00     0.198 A 
ATOM     98  F   UNL A   1      45.766  26.534  35.947  1.00  0.00    -0.203 F 
ATOM     99  F   UNL A   1      44.157  21.631  34.243  1.00  0.00    -0.200 F 
ATOM    100  C   UNL A   1      45.265  22.979  35.824  1.00  0.00     0.200 A 
ATOM    101  F   UNL A   1      46.326  24.386  37.389  1.00  0.00    -0.200 F 
ATOM    102  F   UNL A   1      45.614  21.898  36.533  1.00  0.00    -0.200 F 
ENDBRANCH  69  92
ENDBRANCH  43  44
ENDBRANCH  35  38
ENDBRANCH  33  34
ENDBRANCH  32  33
ENDBRANCH   1  32
TORSDOF 14
ENDMDL
MODEL 3
REMARK VINA RESULT:     -14.3      1.357      1.956
REMARK SMILES Cc1c(NC(=O)c2ccccc2NC(=O)[C@@H]2CCCO2)cccc1C(=O)NCCCNC(=O)c1ccc(-c2c3nc(c(-c4c(F)c(F)c(F)c(F)c4F)c4ccc([nH]4)c(-c4c(F)c(F)c(F)c(F)c4F)c4nc(c(-c5c(F)c(F)c(F)c(F)c5F)c5ccc2[nH]5)C=C4)C=C3)cc1
REMARK SMILES IDX 28 1 27 2 25 3 26 4 24 6 1 7 2 8 3 9 21 10 23 11 22 12 4 13
REMARK SMILES IDX 5 14 6 16 7 17 8 18 12 19 9 20 11 21 10 22 13 23 14 24 15 26
REMARK SMILES IDX 16 27 17 28 20 29 18 30 19 31 29 32 30 33 31 34 32 35 33 37
REMARK SMILES IDX 34 38 35 39 96 40 36 41 95 42 37 43 38 44 39 45 89 46 40 47
REMARK SMILES IDX 94 48 88 49 90 50 41 51 93 52 87 53 86 54 42 56 74 57 54 58
REMARK SMILES IDX 73 59 55 60 58 61 72 62 91 63 56 64 57 65 71 67 92 68 59 69
REMARK SMILES IDX 43 70 44 71 52 72 45 73 46 74 50 75 53 76 47 77 48 78 51 79
REMARK SMILES IDX 49 80 75 81 76 82 84 83 77 84 78 85 82 86 85 87 79 88 80 89
REMARK SMILES IDX 83 90 81 91 60 92 61 93 69 94 62 95 63 96 67 97 70 98 64 99
REMARK SMILES IDX 65 100 68 101 66 102
REMARK H PARENT 27 5 4 15 13 25 31 36 90 55 58 66
REMARK Flexibility Score: inf
ROOT
ATOM      1  C   UNL A   1      33.566  29.823  26.699  1.00  0.00     0.118 C 
ENDROOT
BRANCH   1   2
ATOM      2  N   UNL A   1      32.426  30.010  25.809  1.00  0.00    -0.352 N 
ATOM      3  C   UNL A   1      31.590  29.201  25.078  1.00  0.00     0.251 C 
ATOM      4  O   UNL A   1      30.681  29.806  24.496  1.00  0.00    -0.269 OA
ATOM      5  H   UNL A   1      32.196  30.961  25.706  1.00  0.00     0.163 HD
BRANCH   3   6
ATOM      6  C   UNL A   1      31.617  27.698  24.962  1.00  0.00     0.044 A 
ATOM      7  C   UNL A   1      32.365  27.479  22.535  1.00  0.00     0.047 C 
ATOM      8  C   UNL A   1      32.028  26.905  23.874  1.00  0.00    -0.015 A 
ATOM      9  C   UNL A   1      31.938  25.487  23.939  1.00  0.00     0.045 A 
ATOM     10  C   UNL A   1      31.325  24.855  25.012  1.00  0.00     0.026 A 
ATOM     11  C   UNL A   1      31.010  27.021  26.044  1.00  0.00     0.014 A 
ATOM     12  C   UNL A   1      30.847  25.630  26.062  1.00  0.00     0.003 A 
BRANCH   9  13
ATOM     13  N   UNL A   1      32.466  24.778  22.851  1.00  0.00    -0.322 N 
ATOM     14  C   UNL A   1      33.409  23.791  22.746  1.00  0.00     0.257 C 
ATOM     15  H   UNL A   1      32.078  25.044  21.985  1.00  0.00     0.170 HD
ATOM     16  O   UNL A   1      33.649  23.354  21.618  1.00  0.00    -0.269 OA
BRANCH  14  17
ATOM     17  C   UNL A   1      34.111  23.181  23.904  1.00  0.00     0.063 A 
ATOM     18  C   UNL A   1      35.116  24.010  24.437  1.00  0.00     0.016 A 
ATOM     19  C   UNL A   1      33.923  21.870  24.411  1.00  0.00     0.054 A 
ATOM     20  C   UNL A   1      35.876  23.600  25.521  1.00  0.00     0.001 A 
ATOM     21  C   UNL A   1      34.630  21.529  25.567  1.00  0.00     0.027 A 
ATOM     22  C   UNL A   1      35.603  22.377  26.110  1.00  0.00     0.002 A 
BRANCH  19  23
ATOM     23  N   UNL A   1      33.105  20.959  23.707  1.00  0.00    -0.323 N 
ATOM     24  C   UNL A   1      32.765  19.637  23.779  1.00  0.00     0.253 C 
ATOM     25  H   UNL A   1      32.654  21.399  22.951  1.00  0.00     0.170 HD
ATOM     26  O   UNL A   1      31.959  19.240  22.927  1.00  0.00    -0.272 OA
BRANCH  24  27
ATOM     27  C   UNL A   1      33.368  18.675  24.804  1.00  0.00     0.207 C 
ATOM     28  C   UNL A   1      34.156  17.585  24.090  1.00  0.00     0.044 C 
ATOM     29  O   UNL A   1      32.394  17.975  25.601  1.00  0.00    -0.368 OA
ATOM     30  C   UNL A   1      34.147  16.473  25.104  1.00  0.00     0.032 C 
ATOM     31  C   UNL A   1      32.748  16.588  25.664  1.00  0.00     0.161 C 
ENDBRANCH  24  27
ENDBRANCH  19  23
ENDBRANCH  14  17
ENDBRANCH   9  13
ENDBRANCH   3   6
ENDBRANCH   1   2
BRANCH   1  32
ATOM     32  C   UNL A   1      33.766  31.043  27.609  1.00  0.00     0.042 C 
BRANCH  32  33
ATOM     33  C   UNL A   1      35.189  31.512  27.821  1.00  0.00     0.118 C 
BRANCH  33  34
ATOM     34  N   UNL A   1      35.483  31.878  29.209  1.00  0.00    -0.352 N 
ATOM     35  C   UNL A   1      36.163  31.124  30.155  1.00  0.00     0.251 C 
ATOM     36  H   UNL A   1      35.162  32.760  29.504  1.00  0.00     0.163 HD
ATOM     37  O   UNL A   1      36.396  31.540  31.273  1.00  0.00    -0.269 OA
BRANCH  35  38
ATOM     38  C   UNL A   1      36.703  29.826  29.691  1.00  0.00     0.039 A 
ATOM     39  C   UNL A   1      37.194  28.979  30.684  1.00  0.00     0.014 A 
ATOM     40  C   UNL A   1      37.131  29.729  28.370  1.00  0.00     0.014 A 
ATOM     41  C   UNL A   1      38.331  28.226  30.413  1.00  0.00     0.010 A 
ATOM     42  C   UNL A   1      38.317  29.058  28.131  1.00  0.00     0.010 A 
ATOM     43  C   UNL A   1      38.958  28.375  29.176  1.00  0.00    -0.014 A 
BRANCH  43  44
ATOM     44  C   UNL A   1      40.319  27.909  28.931  1.00  0.00     0.031 A 
ATOM     45  C   UNL A   1      40.544  26.495  28.574  1.00  0.00     0.074 A 
ATOM     46  C   UNL A   1      41.387  28.733  29.040  1.00  0.00     0.049 A 
ATOM     47  N   UNL A   1      41.619  25.841  28.862  1.00  0.00    -0.248 NA
ATOM     48  C   UNL A   1      39.537  25.691  27.899  1.00  0.00     0.031 C 
ATOM     49  C   UNL A   1      42.766  28.431  28.659  1.00  0.00     0.029 A 
ATOM     50  N   UNL A   1      41.479  29.957  29.725  1.00  0.00    -0.354 N 
ATOM     51  C   UNL A   1      41.562  24.636  28.206  1.00  0.00     0.074 A 
ATOM     52  C   UNL A   1      40.222  24.568  27.665  1.00  0.00     0.031 C 
ATOM     53  C   UNL A   1      43.592  29.217  29.365  1.00  0.00     0.029 A 
ATOM     54  C   UNL A   1      42.782  29.982  30.291  1.00  0.00     0.049 A 
ATOM     55  H   UNL A   1      40.785  30.652  29.798  1.00  0.00     0.167 HD
ATOM     56  C   UNL A   1      42.690  23.878  28.093  1.00  0.00     0.037 A 
ATOM     57  C   UNL A   1      42.972  30.067  31.639  1.00  0.00     0.037 A 
ATOM     58  C   UNL A   1      43.830  24.489  28.777  1.00  0.00     0.049 A 
ATOM     59  C   UNL A   1      43.671  28.874  32.252  1.00  0.00     0.074 A 
ATOM     60  C   UNL A   1      44.917  25.241  28.362  1.00  0.00     0.029 A 
ATOM     61  N   UNL A   1      43.797  24.605  30.155  1.00  0.00    -0.354 N 
ATOM     62  N   UNL A   1      44.115  27.848  31.581  1.00  0.00    -0.248 NA
ATOM     63  C   UNL A   1      43.805  28.696  33.699  1.00  0.00     0.031 C 
ATOM     64  C   UNL A   1      45.551  25.789  29.515  1.00  0.00     0.029 A 
ATOM     65  C   UNL A   1      44.846  25.373  30.628  1.00  0.00     0.049 A 
ATOM     66  H   UNL A   1      43.112  24.192  30.729  1.00  0.00     0.167 HD
ATOM     67  C   UNL A   1      44.508  26.872  32.458  1.00  0.00     0.074 A 
ATOM     68  C   UNL A   1      44.292  27.447  33.772  1.00  0.00     0.031 C 
ATOM     69  C   UNL A   1      44.933  25.640  32.054  1.00  0.00     0.037 A 
BRANCH  56  70
ATOM     70  C   UNL A   1      42.810  22.708  27.144  1.00  0.00     0.064 A 
ATOM     71  C   UNL A   1      42.099  21.512  27.374  1.00  0.00     0.173 A 
ATOM     72  C   UNL A   1      43.651  22.684  26.016  1.00  0.00     0.173 A 
ATOM     73  F   UNL A   1      41.161  21.426  28.326  1.00  0.00    -0.203 F 
ATOM     74  C   UNL A   1      42.325  20.351  26.631  1.00  0.00     0.198 A 
ATOM     75  C   UNL A   1      43.931  21.507  25.314  1.00  0.00     0.198 A 
ATOM     76  F   UNL A   1      44.182  23.810  25.520  1.00  0.00    -0.203 F 
ATOM     77  F   UNL A   1      41.623  19.242  26.902  1.00  0.00    -0.200 F 
ATOM     78  C   UNL A   1      43.278  20.334  25.633  1.00  0.00     0.200 A 
ATOM     79  F   UNL A   1      44.837  21.521  24.326  1.00  0.00    -0.200 F 
ATOM     80  F   UNL A   1      43.540  19.206  24.962  1.00  0.00    -0.200 F 
ENDBRANCH  56  70
BRANCH  57  81
ATOM     81  C   UNL A   1      41.918  30.881  32.296  1.00  0.00     0.064 A 
ATOM     82  C   UNL A   1      41.965  32.278  32.109  1.00  0.00     0.173 A 
ATOM     83  C   UNL A   1      40.699  30.314  32.680  1.00  0.00     0.173 A 
ATOM     84  F   UNL A   1      43.119  32.870  31.761  1.00  0.00    -0.203 F 
ATOM     85  C   UNL A   1      40.802  33.039  32.117  1.00  0.00     0.198 A 
ATOM     86  C   UNL A   1      39.543  31.090  32.726  1.00  0.00     0.198 A 
ATOM     87  F   UNL A   1      40.596  28.991  32.877  1.00  0.00    -0.203 F 
ATOM     88  F   UNL A   1      40.846  34.331  31.761  1.00  0.00    -0.200 F 
ATOM     89  C   UNL A   1      39.586  32.435  32.387  1.00  0.00     0.200 A 
ATOM     90  F   UNL A   1      38.367  30.509  32.997  1.00  0.00    -0.200 F 
ATOM     91  F   UNL A   1      38.451  33.139  32.271  1.00  0.00    -0.200 F 
ENDBRANCH  57  81
BRANCH  69  92
ATOM     92  C   UNL A   1      45.433  24.579  33.000  1.00  0.00     0.064 A 
ATOM     93  C   UNL A   1      44.618  23.529  33.455  1.00  0.00     0.173 A 
ATOM     94  C   UNL A   1      46.727  24.636  33.565  1.00  0.00     0.173 A 
ATOM     95  F   UNL A   1      43.333  23.441  33.078  1.00  0.00    -0.203 F 
ATOM     96  C   UNL A   1      45.093  22.551  34.331  1.00  0.00     0.198 A 
ATOM     97  C   UNL A   1      47.180  23.690  34.482  1.00  0.00     0.198 A 
ATOM     98  F   UNL A   1      47.599  25.596  33.229  1.00  0.00    -0.203 F 
ATOM     99  F   UNL A   1      44.300  21.527  34.675  1.00  0.00    -0.200 F 
ATOM    100  C   UNL A   1      46.372  22.632  34.847  1.00  0.00     0.200 A 
ATOM    101  F   UNL A   1      48.410  23.806  35.003  1.00  0.00    -0.200 F 
ATOM    102  F   UNL A   1      46.823  21.700  35.696  1.00  0.00    -0.200 F 
ENDBRANCH  69  92
ENDBRANCH  43  44
ENDBRANCH  35  38
ENDBRANCH  33  34
ENDBRANCH  32  33
ENDBRANCH   1  32
TORSDOF 14
ENDMDL
