MODEL 1
REMARK VINA RESULT:     -11.2      0.000      0.000
REMARK SMILES C[C@@H](CN1C(=O)C(C)(C)S1(=O)=O)C(=O)NCCCNC(=O)c1ccc(-c2c3nc(c(-c4c(F)c(F)c(F)c(F)c4F)c4ccc([nH]4)c(-c4c(F)c(F)c(F)c(F)c4F)c4nc(c(-c5c(F)c(F)c(F)c(F)c5F)c5ccc2[nH]5)C=C4)C=C3)cc1
REMARK SMILES IDX 17 1 16 2 15 3 13 4 14 5 2 7 1 8 3 9 4 10 5 11 10 12 6 13
REMARK SMILES IDX 7 14 11 15 12 16 8 17 9 18 18 19 19 20 20 21 21 23 22 24
REMARK SMILES IDX 23 25 84 26 24 27 83 28 25 29 26 30 27 31 77 32 28 33 82 34
REMARK SMILES IDX 76 35 78 36 29 37 81 38 75 39 74 40 30 42 62 43 42 44 61 45
REMARK SMILES IDX 43 46 46 47 60 48 79 49 44 50 45 51 59 53 80 54 47 55 31 56
REMARK SMILES IDX 32 57 40 58 33 59 34 60 38 61 41 62 35 63 36 64 39 65 37 66
REMARK SMILES IDX 63 67 64 68 72 69 65 70 66 71 70 72 73 73 67 74 68 75 71 76
REMARK SMILES IDX 69 77 48 78 49 79 57 80 50 81 51 82 55 83 58 84 52 85 53 86
REMARK SMILES IDX 56 87 54 88
REMARK H PARENT 15 6 19 22 78 41 46 52
REMARK Flexibility Score: inf
ROOT
ATOM      1  C   UNL A   1      41.069  19.984  26.420  1.00  0.00     0.042 C 
ENDROOT
BRANCH   1   2
ATOM      2  C   UNL A   1      42.544  19.682  26.264  1.00  0.00     0.117 C 
BRANCH   2   3
ATOM      3  N   UNL A   1      43.034  19.445  24.940  1.00  0.00    -0.356 N 
ATOM      4  C   UNL A   1      44.325  19.093  24.655  1.00  0.00     0.224 C 
ATOM      5  O   UNL A   1      44.528  18.453  23.621  1.00  0.00    -0.275 OA
ATOM      6  H   UNL A   1      42.405  19.541  24.189  1.00  0.00     0.163 HD
BRANCH   4   7
ATOM      7  C   UNL A   1      45.497  19.519  25.558  1.00  0.00     0.096 C 
ATOM      8  C   UNL A   1      46.576  18.451  25.751  1.00  0.00     0.020 C 
BRANCH   7   9
ATOM      9  C   UNL A   1      46.028  20.957  25.446  1.00  0.00     0.151 C 
BRANCH   9  10
ATOM     10  N   UNL A   1      45.133  22.103  25.743  1.00  0.00    -0.236 N 
ATOM     11  C   UNL A   1      45.702  23.315  26.276  1.00  0.00     0.258 C 
ATOM     12  S   UNL A   1      44.376  23.048  24.567  1.00  0.00     0.251 S 
ATOM     13  O   UNL A   1      46.735  23.440  26.876  1.00  0.00    -0.272 OA
ATOM     14  C   UNL A   1      44.481  24.195  25.916  1.00  0.00     0.165 C 
ATOM     15  O   UNL A   1      45.314  23.315  23.501  1.00  0.00    -0.205 OA
ATOM     16  O   UNL A   1      43.010  22.662  24.332  1.00  0.00    -0.205 OA
ATOM     17  C   UNL A   1      44.723  25.633  25.480  1.00  0.00     0.041 C 
ATOM     18  C   UNL A   1      43.423  24.136  27.024  1.00  0.00     0.041 C 
ENDBRANCH   9  10
ENDBRANCH   7   9
ENDBRANCH   4   7
ENDBRANCH   2   3
ENDBRANCH   1   2
BRANCH   1  19
ATOM     19  C   UNL A   1      40.723  21.454  26.651  1.00  0.00     0.118 C 
BRANCH  19  20
ATOM     20  N   UNL A   1      39.388  21.886  26.243  1.00  0.00    -0.352 N 
ATOM     21  C   UNL A   1      38.746  23.098  26.280  1.00  0.00     0.251 C 
ATOM     22  H   UNL A   1      38.840  21.161  25.864  1.00  0.00     0.163 HD
ATOM     23  O   UNL A   1      37.605  23.173  25.824  1.00  0.00    -0.269 OA
BRANCH  21  24
ATOM     24  C   UNL A   1      39.357  24.297  26.893  1.00  0.00     0.039 A 
ATOM     25  C   UNL A   1      40.025  25.203  26.060  1.00  0.00     0.014 A 
ATOM     26  C   UNL A   1      39.282  24.556  28.258  1.00  0.00     0.014 A 
ATOM     27  C   UNL A   1      40.525  26.397  26.581  1.00  0.00     0.010 A 
ATOM     28  C   UNL A   1      39.653  25.799  28.751  1.00  0.00     0.010 A 
ATOM     29  C   UNL A   1      40.289  26.733  27.923  1.00  0.00    -0.014 A 
BRANCH  29  30
ATOM     30  C   UNL A   1      40.702  28.041  28.488  1.00  0.00     0.031 A 
ATOM     31  C   UNL A   1      42.145  28.291  28.836  1.00  0.00     0.074 A 
ATOM     32  C   UNL A   1      39.764  28.965  28.778  1.00  0.00     0.049 A 
ATOM     33  N   UNL A   1      42.686  29.313  29.449  1.00  0.00    -0.248 NA
ATOM     34  C   UNL A   1      43.102  27.223  28.502  1.00  0.00     0.031 C 
ATOM     35  C   UNL A   1      38.323  28.809  28.570  1.00  0.00     0.029 A 
ATOM     36  N   UNL A   1      39.884  30.220  29.321  1.00  0.00    -0.354 N 
ATOM     37  C   UNL A   1      44.027  28.990  29.609  1.00  0.00     0.074 A 
ATOM     38  C   UNL A   1      44.206  27.653  29.090  1.00  0.00     0.031 C 
ATOM     39  C   UNL A   1      37.698  29.938  28.939  1.00  0.00     0.029 A 
ATOM     40  C   UNL A   1      38.688  30.883  29.443  1.00  0.00     0.049 A 
ATOM     41  H   UNL A   1      40.746  30.607  29.597  1.00  0.00     0.167 HD
ATOM     42  C   UNL A   1      45.027  29.751  30.115  1.00  0.00     0.037 A 
ATOM     43  C   UNL A   1      38.424  32.119  29.905  1.00  0.00     0.037 A 
ATOM     44  C   UNL A   1      44.853  31.105  30.568  1.00  0.00     0.049 A 
ATOM     45  C   UNL A   1      39.564  32.978  30.375  1.00  0.00     0.074 A 
ATOM     46  C   UNL A   1      45.809  31.994  31.026  1.00  0.00     0.029 A 
ATOM     47  N   UNL A   1      43.637  31.772  30.599  1.00  0.00    -0.354 N 
ATOM     48  N   UNL A   1      40.839  32.685  30.463  1.00  0.00    -0.248 NA
ATOM     49  C   UNL A   1      39.231  34.345  30.794  1.00  0.00     0.031 C 
ATOM     50  C   UNL A   1      45.168  33.193  31.357  1.00  0.00     0.029 A 
ATOM     51  C   UNL A   1      43.818  33.064  31.067  1.00  0.00     0.049 A 
ATOM     52  H   UNL A   1      42.774  31.386  30.329  1.00  0.00     0.167 HD
ATOM     53  C   UNL A   1      41.464  33.836  30.922  1.00  0.00     0.074 A 
ATOM     54  C   UNL A   1      40.428  34.838  31.073  1.00  0.00     0.031 C 
ATOM     55  C   UNL A   1      42.774  34.046  31.198  1.00  0.00     0.037 A 
BRANCH  42  56
ATOM     56  C   UNL A   1      46.397  29.138  30.183  1.00  0.00     0.064 A 
ATOM     57  C   UNL A   1      46.842  28.454  31.325  1.00  0.00     0.173 A 
ATOM     58  C   UNL A   1      47.272  29.224  29.089  1.00  0.00     0.173 A 
ATOM     59  F   UNL A   1      46.050  28.356  32.404  1.00  0.00    -0.203 F 
ATOM     60  C   UNL A   1      48.123  27.914  31.384  1.00  0.00     0.198 A 
ATOM     61  C   UNL A   1      48.541  28.653  29.141  1.00  0.00     0.198 A 
ATOM     62  F   UNL A   1      46.897  29.863  27.971  1.00  0.00    -0.203 F 
ATOM     63  F   UNL A   1      48.546  27.320  32.509  1.00  0.00    -0.200 F 
ATOM     64  C   UNL A   1      48.970  28.008  30.290  1.00  0.00     0.200 A 
ATOM     65  F   UNL A   1      49.355  28.734  28.079  1.00  0.00    -0.200 F 
ATOM     66  F   UNL A   1      50.202  27.485  30.349  1.00  0.00    -0.200 F 
ENDBRANCH  42  56
BRANCH  43  67
ATOM     67  C   UNL A   1      37.033  32.638  29.881  1.00  0.00     0.064 A 
ATOM     68  C   UNL A   1      36.531  33.283  28.742  1.00  0.00     0.173 A 
ATOM     69  C   UNL A   1      36.177  32.500  30.983  1.00  0.00     0.173 A 
ATOM     70  F   UNL A   1      37.319  33.453  27.669  1.00  0.00    -0.203 F 
ATOM     71  C   UNL A   1      35.235  33.790  28.712  1.00  0.00     0.198 A 
ATOM     72  C   UNL A   1      34.870  32.985  30.943  1.00  0.00     0.198 A 
ATOM     73  F   UNL A   1      36.605  31.883  32.093  1.00  0.00    -0.203 F 
ATOM     74  F   UNL A   1      34.797  34.441  27.626  1.00  0.00    -0.200 F 
ATOM     75  C   UNL A   1      34.403  33.637  29.811  1.00  0.00     0.200 A 
ATOM     76  F   UNL A   1      34.065  32.823  32.001  1.00  0.00    -0.200 F 
ATOM     77  F   UNL A   1      33.155  34.123  29.782  1.00  0.00    -0.200 F 
ENDBRANCH  43  67
BRANCH  55  78
ATOM     78  C   UNL A   1      43.159  35.421  31.655  1.00  0.00     0.064 A 
ATOM     79  C   UNL A   1      43.619  36.392  30.754  1.00  0.00     0.173 A 
ATOM     80  C   UNL A   1      43.054  35.773  33.008  1.00  0.00     0.173 A 
ATOM     81  F   UNL A   1      43.751  36.096  29.451  1.00  0.00    -0.203 F 
ATOM     82  C   UNL A   1      43.993  37.658  31.197  1.00  0.00     0.198 A 
ATOM     83  C   UNL A   1      43.400  37.049  33.443  1.00  0.00     0.198 A 
ATOM     84  F   UNL A   1      42.613  34.882  33.907  1.00  0.00    -0.203 F 
ATOM     85  F   UNL A   1      44.483  38.552  30.327  1.00  0.00    -0.200 F 
ATOM     86  C   UNL A   1      43.879  37.986  32.540  1.00  0.00     0.200 A 
ATOM     87  F   UNL A   1      43.280  37.369  34.739  1.00  0.00    -0.200 F 
ATOM     88  F   UNL A   1      44.241  39.204  32.965  1.00  0.00    -0.200 F 
ENDBRANCH  55  78
ENDBRANCH  29  30
ENDBRANCH  21  24
ENDBRANCH  19  20
ENDBRANCH   1  19
TORSDOF 12
ENDMDL
MODEL 2
REMARK VINA RESULT:     -11.2      4.859     11.720
REMARK SMILES C[C@@H](CN1C(=O)C(C)(C)S1(=O)=O)C(=O)NCCCNC(=O)c1ccc(-c2c3nc(c(-c4c(F)c(F)c(F)c(F)c4F)c4ccc([nH]4)c(-c4c(F)c(F)c(F)c(F)c4F)c4nc(c(-c5c(F)c(F)c(F)c(F)c5F)c5ccc2[nH]5)C=C4)C=C3)cc1
REMARK SMILES IDX 17 1 16 2 15 3 13 4 14 5 2 7 1 8 3 9 4 10 5 11 10 12 6 13
REMARK SMILES IDX 7 14 11 15 12 16 8 17 9 18 18 19 19 20 20 21 21 23 22 24
REMARK SMILES IDX 23 25 84 26 24 27 83 28 25 29 26 30 27 31 77 32 28 33 82 34
REMARK SMILES IDX 76 35 78 36 29 37 81 38 75 39 74 40 30 42 62 43 42 44 61 45
REMARK SMILES IDX 43 46 46 47 60 48 79 49 44 50 45 51 59 53 80 54 47 55 31 56
REMARK SMILES IDX 32 57 40 58 33 59 34 60 38 61 41 62 35 63 36 64 39 65 37 66
REMARK SMILES IDX 63 67 64 68 72 69 65 70 66 71 70 72 73 73 67 74 68 75 71 76
REMARK SMILES IDX 69 77 48 78 49 79 57 80 50 81 51 82 55 83 58 84 52 85 53 86
REMARK SMILES IDX 56 87 54 88
REMARK H PARENT 15 6 19 22 78 41 46 52
REMARK Flexibility Score: inf
ROOT
ATOM      1  C   UNL A   1      33.445  33.868  28.487  1.00  0.00     0.042 C 
ENDROOT
BRANCH   1   2
ATOM      2  C   UNL A   1      33.619  34.943  29.537  1.00  0.00     0.117 C 
BRANCH   2   3
ATOM      3  N   UNL A   1      32.677  34.975  30.615  1.00  0.00    -0.356 N 
ATOM      4  C   UNL A   1      32.676  35.924  31.600  1.00  0.00     0.224 C 
ATOM      5  O   UNL A   1      31.604  36.164  32.161  1.00  0.00    -0.275 OA
ATOM      6  H   UNL A   1      31.990  34.271  30.651  1.00  0.00     0.163 HD
BRANCH   4   7
ATOM      7  C   UNL A   1      33.968  36.637  32.039  1.00  0.00     0.096 C 
ATOM      8  C   UNL A   1      33.794  38.116  32.390  1.00  0.00     0.020 C 
BRANCH   7   9
ATOM      9  C   UNL A   1      34.963  35.876  32.930  1.00  0.00     0.151 C 
BRANCH   9  10
ATOM     10  N   UNL A   1      35.564  34.606  32.453  1.00  0.00    -0.236 N 
ATOM     11  C   UNL A   1      36.879  34.238  32.915  1.00  0.00     0.258 C 
ATOM     12  S   UNL A   1      35.038  33.071  32.920  1.00  0.00     0.251 S 
ATOM     13  O   UNL A   1      37.739  34.963  33.335  1.00  0.00    -0.272 OA
ATOM     14  C   UNL A   1      36.735  32.748  32.523  1.00  0.00     0.165 C 
ATOM     15  O   UNL A   1      34.762  33.078  34.338  1.00  0.00    -0.205 OA
ATOM     16  O   UNL A   1      34.164  32.461  31.953  1.00  0.00    -0.205 OA
ATOM     17  C   UNL A   1      37.383  31.696  33.413  1.00  0.00     0.041 C 
ATOM     18  C   UNL A   1      37.126  32.531  31.057  1.00  0.00     0.041 C 
ENDBRANCH   9  10
ENDBRANCH   7   9
ENDBRANCH   4   7
ENDBRANCH   2   3
ENDBRANCH   1   2
BRANCH   1  19
ATOM     19  C   UNL A   1      34.471  32.737  28.533  1.00  0.00     0.118 C 
BRANCH  19  20
ATOM     20  N   UNL A   1      34.029  31.429  28.055  1.00  0.00    -0.352 N 
ATOM     21  C   UNL A   1      34.635  30.199  28.002  1.00  0.00     0.251 C 
ATOM     22  H   UNL A   1      33.111  31.431  27.699  1.00  0.00     0.163 HD
ATOM     23  O   UNL A   1      33.992  29.244  27.566  1.00  0.00    -0.269 OA
BRANCH  21  24
ATOM     24  C   UNL A   1      36.045  29.995  28.401  1.00  0.00     0.039 A 
ATOM     25  C   UNL A   1      36.305  29.329  29.605  1.00  0.00     0.014 A 
ATOM     26  C   UNL A   1      37.110  30.433  27.621  1.00  0.00     0.014 A 
ATOM     27  C   UNL A   1      37.619  29.025  29.967  1.00  0.00     0.010 A 
ATOM     28  C   UNL A   1      38.401  30.011  27.908  1.00  0.00     0.010 A 
ATOM     29  C   UNL A   1      38.675  29.312  29.090  1.00  0.00    -0.014 A 
BRANCH  29  30
ATOM     30  C   UNL A   1      40.071  28.902  29.383  1.00  0.00     0.031 A 
ATOM     31  C   UNL A   1      40.970  29.808  30.181  1.00  0.00     0.074 A 
ATOM     32  C   UNL A   1      40.555  27.764  28.850  1.00  0.00     0.049 A 
ATOM     33  N   UNL A   1      42.248  29.692  30.439  1.00  0.00    -0.248 NA
ATOM     34  C   UNL A   1      40.366  31.041  30.714  1.00  0.00     0.031 C 
ATOM     35  C   UNL A   1      39.811  26.844  27.987  1.00  0.00     0.029 A 
ATOM     36  N   UNL A   1      41.798  27.190  28.948  1.00  0.00    -0.354 N 
ATOM     37  C   UNL A   1      42.603  30.849  31.120  1.00  0.00     0.074 A 
ATOM     38  C   UNL A   1      41.424  31.684  31.179  1.00  0.00     0.031 C 
ATOM     39  C   UNL A   1      40.595  25.802  27.670  1.00  0.00     0.029 A 
ATOM     40  C   UNL A   1      41.907  25.997  28.276  1.00  0.00     0.049 A 
ATOM     41  H   UNL A   1      42.541  27.595  29.452  1.00  0.00     0.167 HD
ATOM     42  C   UNL A   1      43.795  31.174  31.674  1.00  0.00     0.037 A 
ATOM     43  C   UNL A   1      42.951  25.154  28.168  1.00  0.00     0.037 A 
ATOM     44  C   UNL A   1      44.944  30.309  31.669  1.00  0.00     0.049 A 
ATOM     45  C   UNL A   1      44.235  25.493  28.871  1.00  0.00     0.074 A 
ATOM     46  C   UNL A   1      46.177  30.503  32.267  1.00  0.00     0.029 A 
ATOM     47  N   UNL A   1      44.990  29.069  31.047  1.00  0.00    -0.354 N 
ATOM     48  N   UNL A   1      44.540  26.562  29.566  1.00  0.00    -0.248 NA
ATOM     49  C   UNL A   1      45.315  24.502  28.787  1.00  0.00     0.031 C 
ATOM     50  C   UNL A   1      46.978  29.390  31.987  1.00  0.00     0.029 A 
ATOM     51  C   UNL A   1      46.230  28.485  31.248  1.00  0.00     0.049 A 
ATOM     52  H   UNL A   1      44.251  28.664  30.539  1.00  0.00     0.167 HD
ATOM     53  C   UNL A   1      45.835  26.362  30.024  1.00  0.00     0.074 A 
ATOM     54  C   UNL A   1      46.248  25.059  29.544  1.00  0.00     0.031 C 
ATOM     55  C   UNL A   1      46.614  27.183  30.769  1.00  0.00     0.037 A 
BRANCH  42  56
ATOM     56  C   UNL A   1      43.904  32.513  32.347  1.00  0.00     0.064 A 
ATOM     57  C   UNL A   1      44.319  33.657  31.648  1.00  0.00     0.173 A 
ATOM     58  C   UNL A   1      43.577  32.658  33.704  1.00  0.00     0.173 A 
ATOM     59  F   UNL A   1      44.658  33.571  30.353  1.00  0.00    -0.203 F 
ATOM     60  C   UNL A   1      44.441  34.886  32.291  1.00  0.00     0.198 A 
ATOM     61  C   UNL A   1      43.668  33.896  34.334  1.00  0.00     0.198 A 
ATOM     62  F   UNL A   1      43.171  31.598  34.420  1.00  0.00    -0.203 F 
ATOM     63  F   UNL A   1      44.899  35.950  31.616  1.00  0.00    -0.200 F 
ATOM     64  C   UNL A   1      44.109  35.006  33.631  1.00  0.00     0.200 A 
ATOM     65  F   UNL A   1      43.337  34.014  35.628  1.00  0.00    -0.200 F 
ATOM     66  F   UNL A   1      44.225  36.191  34.248  1.00  0.00    -0.200 F 
ENDBRANCH  42  56
BRANCH  43  67
ATOM     67  C   UNL A   1      42.800  23.878  27.422  1.00  0.00     0.064 A 
ATOM     68  C   UNL A   1      42.266  22.743  28.049  1.00  0.00     0.173 A 
ATOM     69  C   UNL A   1      43.177  23.764  26.077  1.00  0.00     0.173 A 
ATOM     70  F   UNL A   1      41.907  22.801  29.340  1.00  0.00    -0.203 F 
ATOM     71  C   UNL A   1      42.136  21.537  27.366  1.00  0.00     0.198 A 
ATOM     72  C   UNL A   1      43.021  22.563  25.386  1.00  0.00     0.198 A 
ATOM     73  F   UNL A   1      43.683  24.823  25.429  1.00  0.00    -0.203 F 
ATOM     74  F   UNL A   1      41.663  20.457  28.004  1.00  0.00    -0.200 F 
ATOM     75  C   UNL A   1      42.509  21.448  26.034  1.00  0.00     0.200 A 
ATOM     76  F   UNL A   1      43.369  22.484  24.095  1.00  0.00    -0.200 F 
ATOM     77  F   UNL A   1      42.381  20.288  25.376  1.00  0.00    -0.200 F 
ENDBRANCH  43  67
BRANCH  55  78
ATOM     78  C   UNL A   1      47.975  26.674  31.140  1.00  0.00     0.064 A 
ATOM     79  C   UNL A   1      49.105  26.961  30.360  1.00  0.00     0.173 A 
ATOM     80  C   UNL A   1      48.151  25.902  32.297  1.00  0.00     0.173 A 
ATOM     81  F   UNL A   1      48.983  27.684  29.235  1.00  0.00    -0.203 F 
ATOM     82  C   UNL A   1      50.357  26.463  30.706  1.00  0.00     0.198 A 
ATOM     83  C   UNL A   1      49.410  25.430  32.657  1.00  0.00     0.198 A 
ATOM     84  F   UNL A   1      47.103  25.607  33.080  1.00  0.00    -0.203 F 
ATOM     85  F   UNL A   1      51.413  26.701  29.916  1.00  0.00    -0.200 F 
ATOM     86  C   UNL A   1      50.509  25.702  31.856  1.00  0.00     0.200 A 
ATOM     87  F   UNL A   1      49.558  24.704  33.774  1.00  0.00    -0.200 F 
ATOM     88  F   UNL A   1      51.715  25.221  32.188  1.00  0.00    -0.200 F 
ENDBRANCH  55  78
ENDBRANCH  29  30
ENDBRANCH  21  24
ENDBRANCH  19  20
ENDBRANCH   1  19
TORSDOF 12
ENDMDL
MODEL 3
REMARK VINA RESULT:     -11.1      5.040     11.830
REMARK SMILES C[C@@H](CN1C(=O)C(C)(C)S1(=O)=O)C(=O)NCCCNC(=O)c1ccc(-c2c3nc(c(-c4c(F)c(F)c(F)c(F)c4F)c4ccc([nH]4)c(-c4c(F)c(F)c(F)c(F)c4F)c4nc(c(-c5c(F)c(F)c(F)c(F)c5F)c5ccc2[nH]5)C=C4)C=C3)cc1
REMARK SMILES IDX 17 1 16 2 15 3 13 4 14 5 2 7 1 8 3 9 4 10 5 11 10 12 6 13
REMARK SMILES IDX 7 14 11 15 12 16 8 17 9 18 18 19 19 20 20 21 21 23 22 24
REMARK SMILES IDX 23 25 84 26 24 27 83 28 25 29 26 30 27 31 77 32 28 33 82 34
REMARK SMILES IDX 76 35 78 36 29 37 81 38 75 39 74 40 30 42 62 43 42 44 61 45
REMARK SMILES IDX 43 46 46 47 60 48 79 49 44 50 45 51 59 53 80 54 47 55 31 56
REMARK SMILES IDX 32 57 40 58 33 59 34 60 38 61 41 62 35 63 36 64 39 65 37 66
REMARK SMILES IDX 63 67 64 68 72 69 65 70 66 71 70 72 73 73 67 74 68 75 71 76
REMARK SMILES IDX 69 77 48 78 49 79 57 80 50 81 51 82 55 83 58 84 52 85 53 86
REMARK SMILES IDX 56 87 54 88
REMARK H PARENT 15 6 19 22 78 41 46 52
REMARK Flexibility Score: inf
ROOT
ATOM      1  C   UNL A   1      33.533  34.242  28.353  1.00  0.00     0.042 C 
ENDROOT
BRANCH   1   2
ATOM      2  C   UNL A   1      33.687  35.220  29.497  1.00  0.00     0.117 C 
BRANCH   2   3
ATOM      3  N   UNL A   1      32.673  35.223  30.506  1.00  0.00    -0.356 N 
ATOM      4  C   UNL A   1      32.619  36.127  31.533  1.00  0.00     0.224 C 
ATOM      5  O   UNL A   1      31.515  36.364  32.028  1.00  0.00    -0.275 OA
ATOM      6  H   UNL A   1      31.972  34.534  30.461  1.00  0.00     0.163 HD
BRANCH   4   7
ATOM      7  C   UNL A   1      33.890  36.790  32.093  1.00  0.00     0.096 C 
ATOM      8  C   UNL A   1      33.718  38.254  32.506  1.00  0.00     0.020 C 
BRANCH   7   9
ATOM      9  C   UNL A   1      34.807  35.966  33.012  1.00  0.00     0.151 C 
BRANCH   9  10
ATOM     10  N   UNL A   1      35.425  34.714  32.510  1.00  0.00    -0.236 N 
ATOM     11  C   UNL A   1      36.678  34.277  33.075  1.00  0.00     0.258 C 
ATOM     12  S   UNL A   1      34.820  33.167  32.815  1.00  0.00     0.251 S 
ATOM     13  O   UNL A   1      37.507  34.947  33.628  1.00  0.00    -0.272 OA
ATOM     14  C   UNL A   1      36.542  32.821  32.569  1.00  0.00     0.165 C 
ATOM     15  O   UNL A   1      34.402  33.088  34.196  1.00  0.00    -0.205 OA
ATOM     16  O   UNL A   1      34.036  32.648  31.726  1.00  0.00    -0.205 OA
ATOM     17  C   UNL A   1      37.072  31.694  33.444  1.00  0.00     0.041 C 
ATOM     18  C   UNL A   1      37.076  32.692  31.138  1.00  0.00     0.041 C 
ENDBRANCH   9  10
ENDBRANCH   7   9
ENDBRANCH   4   7
ENDBRANCH   2   3
ENDBRANCH   1   2
BRANCH   1  19
ATOM     19  C   UNL A   1      34.538  33.092  28.336  1.00  0.00     0.118 C 
BRANCH  19  20
ATOM     20  N   UNL A   1      34.064  31.813  27.812  1.00  0.00    -0.352 N 
ATOM     21  C   UNL A   1      34.589  30.545  27.825  1.00  0.00     0.251 C 
ATOM     22  H   UNL A   1      33.192  31.873  27.359  1.00  0.00     0.163 HD
ATOM     23  O   UNL A   1      33.933  29.632  27.322  1.00  0.00    -0.269 OA
BRANCH  21  24
ATOM     24  C   UNL A   1      35.930  30.251  28.374  1.00  0.00     0.039 A 
ATOM     25  C   UNL A   1      36.019  29.455  29.523  1.00  0.00     0.014 A 
ATOM     26  C   UNL A   1      37.097  30.728  27.785  1.00  0.00     0.014 A 
ATOM     27  C   UNL A   1      37.268  29.069  30.013  1.00  0.00     0.010 A 
ATOM     28  C   UNL A   1      38.330  30.233  28.185  1.00  0.00     0.010 A 
ATOM     29  C   UNL A   1      38.434  29.406  29.311  1.00  0.00    -0.014 A 
BRANCH  29  30
ATOM     30  C   UNL A   1      39.771  28.919  29.732  1.00  0.00     0.031 A 
ATOM     31  C   UNL A   1      40.598  29.726  30.697  1.00  0.00     0.074 A 
ATOM     32  C   UNL A   1      40.279  27.804  29.171  1.00  0.00     0.049 A 
ATOM     33  N   UNL A   1      41.832  29.538  31.092  1.00  0.00    -0.248 NA
ATOM     34  C   UNL A   1      39.975  30.940  31.249  1.00  0.00     0.031 C 
ATOM     35  C   UNL A   1      39.613  26.982  28.159  1.00  0.00     0.029 A 
ATOM     36  N   UNL A   1      41.482  27.173  29.368  1.00  0.00    -0.354 N 
ATOM     37  C   UNL A   1      42.140  30.628  31.897  1.00  0.00     0.074 A 
ATOM     38  C   UNL A   1      40.990  31.504  31.883  1.00  0.00     0.031 C 
ATOM     39  C   UNL A   1      40.395  25.934  27.855  1.00  0.00     0.029 A 
ATOM     40  C   UNL A   1      41.631  26.029  28.623  1.00  0.00     0.049 A 
ATOM     41  H   UNL A   1      42.172  27.509  29.985  1.00  0.00     0.167 HD
ATOM     42  C   UNL A   1      43.268  30.862  32.609  1.00  0.00     0.037 A 
ATOM     43  C   UNL A   1      42.652  25.154  28.572  1.00  0.00     0.037 A 
ATOM     44  C   UNL A   1      44.380  29.952  32.671  1.00  0.00     0.049 A 
ATOM     45  C   UNL A   1      43.854  25.388  29.444  1.00  0.00     0.074 A 
ATOM     46  C   UNL A   1      45.539  30.050  33.421  1.00  0.00     0.029 A 
ATOM     47  N   UNL A   1      44.460  28.761  31.964  1.00  0.00    -0.354 N 
ATOM     48  N   UNL A   1      44.109  26.390  30.250  1.00  0.00    -0.248 NA
ATOM     49  C   UNL A   1      44.904  24.362  29.409  1.00  0.00     0.031 C 
ATOM     50  C   UNL A   1      46.331  28.929  33.151  1.00  0.00     0.029 A 
ATOM     51  C   UNL A   1      45.648  28.113  32.262  1.00  0.00     0.049 A 
ATOM     52  H   UNL A   1      43.774  28.425  31.344  1.00  0.00     0.167 HD
ATOM     53  C   UNL A   1      45.332  26.103  30.839  1.00  0.00     0.074 A 
ATOM     54  C   UNL A   1      45.758  24.823  30.311  1.00  0.00     0.031 C 
ATOM     55  C   UNL A   1      46.044  26.834  31.732  1.00  0.00     0.037 A 
BRANCH  42  56
ATOM     56  C   UNL A   1      43.339  32.141  33.392  1.00  0.00     0.064 A 
ATOM     57  C   UNL A   1      42.863  32.225  34.711  1.00  0.00     0.173 A 
ATOM     58  C   UNL A   1      43.899  33.295  32.825  1.00  0.00     0.173 A 
ATOM     59  F   UNL A   1      42.303  31.155  35.295  1.00  0.00    -0.203 F 
ATOM     60  C   UNL A   1      42.910  33.424  35.416  1.00  0.00     0.198 A 
ATOM     61  C   UNL A   1      43.976  34.484  33.546  1.00  0.00     0.198 A 
ATOM     62  F   UNL A   1      44.373  33.271  31.570  1.00  0.00    -0.203 F 
ATOM     63  F   UNL A   1      42.392  33.494  36.650  1.00  0.00    -0.200 F 
ATOM     64  C   UNL A   1      43.472  34.551  34.836  1.00  0.00     0.200 A 
ATOM     65  F   UNL A   1      44.529  35.571  32.989  1.00  0.00    -0.200 F 
ATOM     66  F   UNL A   1      43.519  35.705  35.518  1.00  0.00    -0.200 F 
ENDBRANCH  42  56
BRANCH  43  67
ATOM     67  C   UNL A   1      42.550  23.944  27.717  1.00  0.00     0.064 A 
ATOM     68  C   UNL A   1      42.128  22.721  28.258  1.00  0.00     0.173 A 
ATOM     69  C   UNL A   1      42.864  23.980  26.351  1.00  0.00     0.173 A 
ATOM     70  F   UNL A   1      41.834  22.635  29.564  1.00  0.00    -0.203 F 
ATOM     71  C   UNL A   1      42.046  21.576  27.471  1.00  0.00     0.198 A 
ATOM     72  C   UNL A   1      42.754  22.839  25.558  1.00  0.00     0.198 A 
ATOM     73  F   UNL A   1      43.263  25.128  25.783  1.00  0.00    -0.203 F 
ATOM     74  F   UNL A   1      41.681  20.411  28.025  1.00  0.00    -0.200 F 
ATOM     75  C   UNL A   1      42.354  21.636  26.120  1.00  0.00     0.200 A 
ATOM     76  F   UNL A   1      43.040  22.903  24.251  1.00  0.00    -0.200 F 
ATOM     77  F   UNL A   1      42.271  20.534  25.363  1.00  0.00    -0.200 F 
ENDBRANCH  43  67
BRANCH  55  78
ATOM     78  C   UNL A   1      47.334  26.244  32.217  1.00  0.00     0.064 A 
ATOM     79  C   UNL A   1      47.380  25.395  33.333  1.00  0.00     0.173 A 
ATOM     80  C   UNL A   1      48.535  26.521  31.549  1.00  0.00     0.173 A 
ATOM     81  F   UNL A   1      46.257  25.114  34.014  1.00  0.00    -0.203 F 
ATOM     82  C   UNL A   1      48.589  24.873  33.783  1.00  0.00     0.198 A 
ATOM     83  C   UNL A   1      49.738  25.973  31.984  1.00  0.00     0.198 A 
ATOM     84  F   UNL A   1      48.542  27.321  30.473  1.00  0.00    -0.203 F 
ATOM     85  F   UNL A   1      48.617  24.110  34.885  1.00  0.00    -0.200 F 
ATOM     86  C   UNL A   1      49.765  25.159  33.106  1.00  0.00     0.200 A 
ATOM     87  F   UNL A   1      50.873  26.240  31.323  1.00  0.00    -0.200 F 
ATOM     88  F   UNL A   1      50.928  24.656  33.542  1.00  0.00    -0.200 F 
ENDBRANCH  55  78
ENDBRANCH  29  30
ENDBRANCH  21  24
ENDBRANCH  19  20
ENDBRANCH   1  19
TORSDOF 12
ENDMDL
