MODEL 1
REMARK VINA RESULT:     -12.7      0.000      0.000
REMARK SMILES Cc1cscc1CNC(=O)N[C@@H](C)c1nc(C(=O)NCCCNC(=O)c2ccc(-c3c4nc(c(-c5c(F)c(F)c(F)c(F)c5F)c5ccc([nH]5)c(-c5c(F)c(F)c(F)c(F)c5F)c5nc(c(-c6c(F)c(F)c(F)c(F)c6F)c6ccc3[nH]6)C=C5)C=C4)cc2)cs1
REMARK SMILES IDX 20 1 19 2 17 3 18 4 16 6 14 7 15 8 90 9 89 10 12 11 13 12
REMARK SMILES IDX 11 13 8 14 9 15 10 17 7 19 6 20 1 21 2 22 3 23 4 24 5 25
REMARK SMILES IDX 21 26 22 27 23 28 24 29 25 31 26 32 27 33 88 34 28 35 87 36
REMARK SMILES IDX 29 37 30 38 31 39 81 40 32 41 86 42 80 43 82 44 33 45 85 46
REMARK SMILES IDX 79 47 78 48 34 50 66 51 46 52 65 53 47 54 50 55 64 56 83 57
REMARK SMILES IDX 48 58 49 59 63 61 84 62 51 63 35 64 36 65 44 66 37 67 38 68
REMARK SMILES IDX 42 69 45 70 39 71 40 72 43 73 41 74 67 75 68 76 76 77 69 78
REMARK SMILES IDX 70 79 74 80 77 81 71 82 72 83 75 84 73 85 52 86 53 87 61 88
REMARK SMILES IDX 54 89 55 90 59 91 62 92 56 93 57 94 60 95 58 96
REMARK H PARENT 19 5 8 16 11 18 23 30 82 49 50 60
REMARK Flexibility Score: inf
ROOT
ATOM      1  C   UNL A   1      36.557  20.983  24.906  1.00  0.00     0.118 C 
ENDROOT
BRANCH   1   2
ATOM      2  N   UNL A   1      35.775  21.015  26.128  1.00  0.00    -0.351 N 
ATOM      3  C   UNL A   1      34.775  21.870  26.528  1.00  0.00     0.270 C 
ATOM      4  O   UNL A   1      34.237  21.644  27.611  1.00  0.00    -0.267 OA
ATOM      5  H   UNL A   1      35.996  20.310  26.777  1.00  0.00     0.163 HD
BRANCH   3   6
ATOM      6  C   UNL A   1      34.343  22.980  25.669  1.00  0.00     0.139 A 
ATOM      7  C   UNL A   1      33.001  24.153  24.328  1.00  0.00     0.116 A 
ATOM      8  N   UNL A   1      33.165  22.988  24.922  1.00  0.00    -0.234 NA
ATOM      9  S   UNL A   1      34.279  25.278  24.555  1.00  0.00    -0.124 S 
ATOM     10  C   UNL A   1      35.092  24.138  25.534  1.00  0.00     0.101 A 
BRANCH   7  11
ATOM     11  C   UNL A   1      31.785  24.532  23.514  1.00  0.00     0.140 C 
ATOM     12  C   UNL A   1      30.782  23.378  23.498  1.00  0.00     0.039 C 
BRANCH  11  13
ATOM     13  N   UNL A   1      32.226  24.809  22.155  1.00  0.00    -0.329 N 
ATOM     14  N   UNL A   1      32.237  27.151  21.842  1.00  0.00    -0.334 N 
ATOM     15  C   UNL A   1      32.446  25.901  21.427  1.00  0.00     0.315 C 
ATOM     16  H   UNL A   1      32.523  27.819  21.179  1.00  0.00     0.165 HD
ATOM     17  O   UNL A   1      32.893  25.748  20.287  1.00  0.00    -0.249 OA
ATOM     18  H   UNL A   1      32.405  23.985  21.648  1.00  0.00     0.166 HD
BRANCH  14  19
ATOM     19  C   UNL A   1      31.688  27.761  23.030  1.00  0.00     0.154 C 
BRANCH  19  20
ATOM     20  C   UNL A   1      30.400  28.484  22.736  1.00  0.00    -0.015 A 
ATOM     21  C   UNL A   1      28.844  26.719  23.871  1.00  0.00     0.045 C 
ATOM     22  C   UNL A   1      29.091  27.992  23.126  1.00  0.00    -0.035 A 
ATOM     23  C   UNL A   1      28.083  28.845  22.720  1.00  0.00     0.068 A 
ATOM     24  S   UNL A   1      28.666  30.219  21.899  1.00  0.00    -0.152 S 
ATOM     25  C   UNL A   1      30.279  29.690  22.063  1.00  0.00     0.070 A 
ENDBRANCH  19  20
ENDBRANCH  14  19
ENDBRANCH  11  13
ENDBRANCH   7  11
ENDBRANCH   3   6
ENDBRANCH   1   2
BRANCH   1  26
ATOM     26  C   UNL A   1      37.673  19.943  24.975  1.00  0.00     0.042 C 
BRANCH  26  27
ATOM     27  C   UNL A   1      38.915  20.439  25.716  1.00  0.00     0.118 C 
BRANCH  27  28
ATOM     28  N   UNL A   1      39.905  19.385  25.911  1.00  0.00    -0.352 N 
ATOM     29  C   UNL A   1      41.257  19.466  26.128  1.00  0.00     0.251 C 
ATOM     30  H   UNL A   1      39.545  18.469  25.882  1.00  0.00     0.163 HD
ATOM     31  O   UNL A   1      41.947  18.453  26.067  1.00  0.00    -0.269 OA
BRANCH  29  32
ATOM     32  C   UNL A   1      41.890  20.767  26.423  1.00  0.00     0.039 A 
ATOM     33  C   UNL A   1      42.134  21.652  25.369  1.00  0.00     0.014 A 
ATOM     34  C   UNL A   1      42.267  21.101  27.725  1.00  0.00     0.014 A 
ATOM     35  C   UNL A   1      42.690  22.906  25.632  1.00  0.00     0.010 A 
ATOM     36  C   UNL A   1      42.765  22.374  27.994  1.00  0.00     0.010 A 
ATOM     37  C   UNL A   1      42.973  23.290  26.953  1.00  0.00    -0.014 A 
BRANCH  37  38
ATOM     38  C   UNL A   1      43.459  24.653  27.275  1.00  0.00     0.031 A 
ATOM     39  C   UNL A   1      42.517  25.680  27.832  1.00  0.00     0.074 A 
ATOM     40  C   UNL A   1      44.729  24.987  26.980  1.00  0.00     0.049 A 
ATOM     41  N   UNL A   1      42.719  26.953  28.061  1.00  0.00    -0.248 NA
ATOM     42  C   UNL A   1      41.156  25.220  28.150  1.00  0.00     0.031 C 
ATOM     43  C   UNL A   1      45.728  24.086  26.405  1.00  0.00     0.029 A 
ATOM     44  N   UNL A   1      45.392  26.183  27.105  1.00  0.00    -0.354 N 
ATOM     45  C   UNL A   1      41.512  27.448  28.533  1.00  0.00     0.074 A 
ATOM     46  C   UNL A   1      40.568  26.350  28.519  1.00  0.00     0.031 C 
ATOM     47  C   UNL A   1      46.880  24.755  26.239  1.00  0.00     0.029 A 
ATOM     48  C   UNL A   1      46.688  26.140  26.656  1.00  0.00     0.049 A 
ATOM     49  H   UNL A   1      44.977  26.992  27.481  1.00  0.00     0.167 HD
ATOM     50  C   UNL A   1      41.223  28.702  28.956  1.00  0.00     0.037 A 
ATOM     51  C   UNL A   1      47.613  27.114  26.573  1.00  0.00     0.037 A 
ATOM     52  C   UNL A   1      42.169  29.786  28.986  1.00  0.00     0.049 A 
ATOM     53  C   UNL A   1      47.259  28.505  27.024  1.00  0.00     0.074 A 
ATOM     54  C   UNL A   1      41.991  31.077  29.451  1.00  0.00     0.029 A 
ATOM     55  N   UNL A   1      43.477  29.704  28.527  1.00  0.00    -0.354 N 
ATOM     56  N   UNL A   1      46.131  28.950  27.519  1.00  0.00    -0.248 NA
ATOM     57  C   UNL A   1      48.306  29.527  26.900  1.00  0.00     0.031 C 
ATOM     58  C   UNL A   1      43.177  31.787  29.237  1.00  0.00     0.029 A 
ATOM     59  C   UNL A   1      44.108  30.928  28.677  1.00  0.00     0.049 A 
ATOM     60  H   UNL A   1      43.893  28.896  28.151  1.00  0.00     0.167 HD
ATOM     61  C   UNL A   1      46.336  30.296  27.788  1.00  0.00     0.074 A 
ATOM     62  C   UNL A   1      47.704  30.592  27.411  1.00  0.00     0.031 C 
ATOM     63  C   UNL A   1      45.472  31.204  28.301  1.00  0.00     0.037 A 
BRANCH  50  64
ATOM     64  C   UNL A   1      39.821  28.968  29.421  1.00  0.00     0.064 A 
ATOM     65  C   UNL A   1      38.834  29.443  28.544  1.00  0.00     0.173 A 
ATOM     66  C   UNL A   1      39.451  28.720  30.751  1.00  0.00     0.173 A 
ATOM     67  F   UNL A   1      39.139  29.706  27.264  1.00  0.00    -0.203 F 
ATOM     68  C   UNL A   1      37.539  29.689  28.988  1.00  0.00     0.198 A 
ATOM     69  C   UNL A   1      38.148  28.941  31.186  1.00  0.00     0.198 A 
ATOM     70  F   UNL A   1      40.355  28.260  31.630  1.00  0.00    -0.203 F 
ATOM     71  F   UNL A   1      36.626  30.189  28.143  1.00  0.00    -0.200 F 
ATOM     72  C   UNL A   1      37.194  29.433  30.307  1.00  0.00     0.200 A 
ATOM     73  F   UNL A   1      37.813  28.682  32.458  1.00  0.00    -0.200 F 
ATOM     74  F   UNL A   1      35.945  29.667  30.732  1.00  0.00    -0.200 F 
ENDBRANCH  50  64
BRANCH  51  75
ATOM     75  C   UNL A   1      48.971  26.802  26.060  1.00  0.00     0.064 A 
ATOM     76  C   UNL A   1      49.948  26.264  26.909  1.00  0.00     0.173 A 
ATOM     77  C   UNL A   1      49.317  27.023  24.720  1.00  0.00     0.173 A 
ATOM     78  F   UNL A   1      49.668  26.057  28.204  1.00  0.00    -0.203 F 
ATOM     79  C   UNL A   1      51.225  25.970  26.439  1.00  0.00     0.198 A 
ATOM     80  C   UNL A   1      50.588  26.706  24.245  1.00  0.00     0.198 A 
ATOM     81  F   UNL A   1      48.416  27.536  23.869  1.00  0.00    -0.203 F 
ATOM     82  F   UNL A   1      52.153  25.491  27.279  1.00  0.00    -0.200 F 
ATOM     83  C   UNL A   1      51.543  26.185  25.105  1.00  0.00     0.200 A 
ATOM     84  F   UNL A   1      50.890  26.907  22.955  1.00  0.00    -0.200 F 
ATOM     85  F   UNL A   1      52.771  25.897  24.653  1.00  0.00    -0.200 F 
ENDBRANCH  51  75
BRANCH  63  86
ATOM     86  C   UNL A   1      45.985  32.596  28.511  1.00  0.00     0.064 A 
ATOM     87  C   UNL A   1      45.841  33.588  27.530  1.00  0.00     0.173 A 
ATOM     88  C   UNL A   1      46.588  32.954  29.726  1.00  0.00     0.173 A 
ATOM     89  F   UNL A   1      45.286  33.288  26.345  1.00  0.00    -0.203 F 
ATOM     90  C   UNL A   1      46.299  34.883  27.751  1.00  0.00     0.198 A 
ATOM     91  C   UNL A   1      47.022  34.257  29.953  1.00  0.00     0.198 A 
ATOM     92  F   UNL A   1      46.745  32.042  30.697  1.00  0.00    -0.203 F 
ATOM     93  F   UNL A   1      46.186  35.806  26.785  1.00  0.00    -0.200 F 
ATOM     94  C   UNL A   1      46.881  35.219  28.964  1.00  0.00     0.200 A 
ATOM     95  F   UNL A   1      47.574  34.582  31.130  1.00  0.00    -0.200 F 
ATOM     96  F   UNL A   1      47.314  36.469  29.178  1.00  0.00    -0.200 F 
ENDBRANCH  63  86
ENDBRANCH  37  38
ENDBRANCH  29  32
ENDBRANCH  27  28
ENDBRANCH  26  27
ENDBRANCH   1  26
TORSDOF 14
ENDMDL
MODEL 2
REMARK VINA RESULT:     -12.6      5.676     11.188
REMARK SMILES Cc1cscc1CNC(=O)N[C@@H](C)c1nc(C(=O)NCCCNC(=O)c2ccc(-c3c4nc(c(-c5c(F)c(F)c(F)c(F)c5F)c5ccc([nH]5)c(-c5c(F)c(F)c(F)c(F)c5F)c5nc(c(-c6c(F)c(F)c(F)c(F)c6F)c6ccc3[nH]6)C=C5)C=C4)cc2)cs1
REMARK SMILES IDX 20 1 19 2 17 3 18 4 16 6 14 7 15 8 90 9 89 10 12 11 13 12
REMARK SMILES IDX 11 13 8 14 9 15 10 17 7 19 6 20 1 21 2 22 3 23 4 24 5 25
REMARK SMILES IDX 21 26 22 27 23 28 24 29 25 31 26 32 27 33 88 34 28 35 87 36
REMARK SMILES IDX 29 37 30 38 31 39 81 40 32 41 86 42 80 43 82 44 33 45 85 46
REMARK SMILES IDX 79 47 78 48 34 50 66 51 46 52 65 53 47 54 50 55 64 56 83 57
REMARK SMILES IDX 48 58 49 59 63 61 84 62 51 63 35 64 36 65 44 66 37 67 38 68
REMARK SMILES IDX 42 69 45 70 39 71 40 72 43 73 41 74 67 75 68 76 76 77 69 78
REMARK SMILES IDX 70 79 74 80 77 81 71 82 72 83 75 84 73 85 52 86 53 87 61 88
REMARK SMILES IDX 54 89 55 90 59 91 62 92 56 93 57 94 60 95 58 96
REMARK H PARENT 19 5 8 16 11 18 23 30 82 49 50 60
REMARK Flexibility Score: inf
ROOT
ATOM      1  C   UNL A   1      31.569  30.752  26.139  1.00  0.00     0.118 C 
ENDROOT
BRANCH   1   2
ATOM      2  N   UNL A   1      32.723  30.172  26.802  1.00  0.00    -0.351 N 
ATOM      3  C   UNL A   1      33.380  28.985  26.579  1.00  0.00     0.270 C 
ATOM      4  O   UNL A   1      34.375  28.752  27.264  1.00  0.00    -0.267 OA
ATOM      5  H   UNL A   1      33.097  30.718  27.530  1.00  0.00     0.163 HD
BRANCH   3   6
ATOM      6  C   UNL A   1      32.930  28.059  25.531  1.00  0.00     0.139 A 
ATOM      7  C   UNL A   1      31.644  26.531  24.537  1.00  0.00     0.116 A 
ATOM      8  N   UNL A   1      31.874  27.159  25.673  1.00  0.00    -0.234 NA
ATOM      9  S   UNL A   1      32.725  26.913  23.257  1.00  0.00    -0.124 S 
ATOM     10  C   UNL A   1      33.537  28.009  24.287  1.00  0.00     0.101 A 
BRANCH   7  11
ATOM     11  C   UNL A   1      30.512  25.555  24.315  1.00  0.00     0.140 C 
ATOM     12  C   UNL A   1      29.267  26.295  23.827  1.00  0.00     0.039 C 
BRANCH  11  13
ATOM     13  N   UNL A   1      30.225  24.908  25.587  1.00  0.00    -0.329 N 
ATOM     14  N   UNL A   1      31.649  23.035  25.805  1.00  0.00    -0.334 N 
ATOM     15  C   UNL A   1      30.700  23.858  26.252  1.00  0.00     0.315 C 
ATOM     16  H   UNL A   1      31.905  22.361  26.474  1.00  0.00     0.165 HD
ATOM     17  O   UNL A   1      30.238  23.637  27.375  1.00  0.00    -0.249 OA
ATOM     18  H   UNL A   1      29.499  25.358  26.075  1.00  0.00     0.166 HD
BRANCH  14  19
ATOM     19  C   UNL A   1      32.390  22.894  24.574  1.00  0.00     0.154 C 
BRANCH  19  20
ATOM     20  C   UNL A   1      33.780  22.369  24.822  1.00  0.00    -0.015 A 
ATOM     21  C   UNL A   1      34.828  24.683  25.431  1.00  0.00     0.045 C 
ATOM     22  C   UNL A   1      34.899  23.205  25.214  1.00  0.00    -0.035 A 
ATOM     23  C   UNL A   1      36.059  22.468  25.361  1.00  0.00     0.068 A 
ATOM     24  S   UNL A   1      35.835  20.808  25.055  1.00  0.00    -0.152 S 
ATOM     25  C   UNL A   1      34.182  21.048  24.708  1.00  0.00     0.070 A 
ENDBRANCH  19  20
ENDBRANCH  14  19
ENDBRANCH  11  13
ENDBRANCH   7  11
ENDBRANCH   3   6
ENDBRANCH   1   2
BRANCH   1  26
ATOM     26  C   UNL A   1      31.379  32.220  26.516  1.00  0.00     0.042 C 
BRANCH  26  27
ATOM     27  C   UNL A   1      32.547  32.793  27.320  1.00  0.00     0.118 C 
BRANCH  27  28
ATOM     28  N   UNL A   1      32.360  34.203  27.645  1.00  0.00    -0.352 N 
ATOM     29  C   UNL A   1      32.973  34.985  28.590  1.00  0.00     0.251 C 
ATOM     30  H   UNL A   1      31.685  34.667  27.098  1.00  0.00     0.163 HD
ATOM     31  O   UNL A   1      32.530  36.102  28.839  1.00  0.00    -0.269 OA
BRANCH  29  32
ATOM     32  C   UNL A   1      34.156  34.487  29.320  1.00  0.00     0.039 A 
ATOM     33  C   UNL A   1      33.978  33.914  30.582  1.00  0.00     0.014 A 
ATOM     34  C   UNL A   1      35.436  34.609  28.776  1.00  0.00     0.014 A 
ATOM     35  C   UNL A   1      35.078  33.395  31.269  1.00  0.00     0.010 A 
ATOM     36  C   UNL A   1      36.523  34.038  29.433  1.00  0.00     0.010 A 
ATOM     37  C   UNL A   1      36.353  33.418  30.680  1.00  0.00    -0.014 A 
BRANCH  37  38
ATOM     38  C   UNL A   1      37.519  32.777  31.335  1.00  0.00     0.031 A 
ATOM     39  C   UNL A   1      38.220  31.627  30.672  1.00  0.00     0.074 A 
ATOM     40  C   UNL A   1      37.885  33.176  32.567  1.00  0.00     0.049 A 
ATOM     41  N   UNL A   1      39.174  30.860  31.137  1.00  0.00    -0.248 NA
ATOM     42  C   UNL A   1      37.772  31.277  29.315  1.00  0.00     0.031 C 
ATOM     43  C   UNL A   1      37.258  34.259  33.326  1.00  0.00     0.029 A 
ATOM     44  N   UNL A   1      38.863  32.704  33.407  1.00  0.00    -0.354 N 
ATOM     45  C   UNL A   1      39.428  29.929  30.139  1.00  0.00     0.074 A 
ATOM     46  C   UNL A   1      38.500  30.200  29.061  1.00  0.00     0.031 C 
ATOM     47  C   UNL A   1      37.874  34.378  34.513  1.00  0.00     0.029 A 
ATOM     48  C   UNL A   1      38.909  33.354  34.615  1.00  0.00     0.049 A 
ATOM     49  H   UNL A   1      39.472  31.969  33.165  1.00  0.00     0.167 HD
ATOM     50  C   UNL A   1      40.362  28.949  30.119  1.00  0.00     0.037 A 
ATOM     51  C   UNL A   1      39.687  33.137  35.691  1.00  0.00     0.037 A 
ATOM     52  C   UNL A   1      41.295  28.697  31.186  1.00  0.00     0.049 A 
ATOM     53  C   UNL A   1      40.698  32.024  35.654  1.00  0.00     0.074 A 
ATOM     54  C   UNL A   1      42.318  27.766  31.238  1.00  0.00     0.029 A 
ATOM     55  N   UNL A   1      41.315  29.380  32.394  1.00  0.00    -0.354 N 
ATOM     56  N   UNL A   1      40.967  31.184  34.686  1.00  0.00    -0.248 NA
ATOM     57  C   UNL A   1      41.511  31.829  36.862  1.00  0.00     0.031 C 
ATOM     58  C   UNL A   1      42.930  27.858  32.492  1.00  0.00     0.029 A 
ATOM     59  C   UNL A   1      42.317  28.875  33.206  1.00  0.00     0.049 A 
ATOM     60  H   UNL A   1      40.706  30.114  32.638  1.00  0.00     0.167 HD
ATOM     61  C   UNL A   1      41.993  30.376  35.155  1.00  0.00     0.074 A 
ATOM     62  C   UNL A   1      42.307  30.835  36.493  1.00  0.00     0.031 C 
ATOM     63  C   UNL A   1      42.619  29.347  34.534  1.00  0.00     0.037 A 
BRANCH  50  64
ATOM     64  C   UNL A   1      40.420  28.075  28.901  1.00  0.00     0.064 A 
ATOM     65  C   UNL A   1      41.196  28.423  27.784  1.00  0.00     0.173 A 
ATOM     66  C   UNL A   1      39.716  26.862  28.858  1.00  0.00     0.173 A 
ATOM     67  F   UNL A   1      41.879  29.577  27.771  1.00  0.00    -0.203 F 
ATOM     68  C   UNL A   1      41.239  27.605  26.659  1.00  0.00     0.198 A 
ATOM     69  C   UNL A   1      39.784  26.034  27.742  1.00  0.00     0.198 A 
ATOM     70  F   UNL A   1      38.964  26.479  29.902  1.00  0.00    -0.203 F 
ATOM     71  F   UNL A   1      41.948  27.982  25.586  1.00  0.00    -0.200 F 
ATOM     72  C   UNL A   1      40.538  26.408  26.641  1.00  0.00     0.200 A 
ATOM     73  F   UNL A   1      39.114  24.871  27.730  1.00  0.00    -0.200 F 
ATOM     74  F   UNL A   1      40.584  25.621  25.557  1.00  0.00    -0.200 F 
ENDBRANCH  50  64
BRANCH  51  75
ATOM     75  C   UNL A   1      39.552  34.005  36.888  1.00  0.00     0.064 A 
ATOM     76  C   UNL A   1      38.783  33.593  37.984  1.00  0.00     0.173 A 
ATOM     77  C   UNL A   1      40.188  35.252  36.965  1.00  0.00     0.173 A 
ATOM     78  F   UNL A   1      38.137  32.418  37.945  1.00  0.00    -0.203 F 
ATOM     79  C   UNL A   1      38.647  34.401  39.111  1.00  0.00     0.198 A 
ATOM     80  C   UNL A   1      40.071  36.049  38.102  1.00  0.00     0.198 A 
ATOM     81  F   UNL A   1      40.935  35.690  35.940  1.00  0.00    -0.203 F 
ATOM     82  F   UNL A   1      37.876  34.000  40.132  1.00  0.00    -0.200 F 
ATOM     83  C   UNL A   1      39.296  35.625  39.171  1.00  0.00     0.200 A 
ATOM     84  F   UNL A   1      40.706  37.227  38.161  1.00  0.00    -0.200 F 
ATOM     85  F   UNL A   1      39.168  36.400  40.258  1.00  0.00    -0.200 F 
ENDBRANCH  51  75
BRANCH  63  86
ATOM     86  C   UNL A   1      43.725  28.666  35.282  1.00  0.00     0.064 A 
ATOM     87  C   UNL A   1      45.063  29.055  35.129  1.00  0.00     0.173 A 
ATOM     88  C   UNL A   1      43.437  27.641  36.196  1.00  0.00     0.173 A 
ATOM     89  F   UNL A   1      45.389  30.018  34.253  1.00  0.00    -0.203 F 
ATOM     90  C   UNL A   1      46.075  28.430  35.851  1.00  0.00     0.198 A 
ATOM     91  C   UNL A   1      44.449  27.036  36.935  1.00  0.00     0.198 A 
ATOM     92  F   UNL A   1      42.171  27.236  36.381  1.00  0.00    -0.203 F 
ATOM     93  F   UNL A   1      47.353  28.790  35.661  1.00  0.00    -0.200 F 
ATOM     94  C   UNL A   1      45.768  27.427  36.758  1.00  0.00     0.200 A 
ATOM     95  F   UNL A   1      44.148  26.076  37.820  1.00  0.00    -0.200 F 
ATOM     96  F   UNL A   1      46.743  26.833  37.459  1.00  0.00    -0.200 F 
ENDBRANCH  63  86
ENDBRANCH  37  38
ENDBRANCH  29  32
ENDBRANCH  27  28
ENDBRANCH  26  27
ENDBRANCH   1  26
TORSDOF 14
ENDMDL
MODEL 3
REMARK VINA RESULT:     -12.6      5.640     11.203
REMARK SMILES Cc1cscc1CNC(=O)N[C@@H](C)c1nc(C(=O)NCCCNC(=O)c2ccc(-c3c4nc(c(-c5c(F)c(F)c(F)c(F)c5F)c5ccc([nH]5)c(-c5c(F)c(F)c(F)c(F)c5F)c5nc(c(-c6c(F)c(F)c(F)c(F)c6F)c6ccc3[nH]6)C=C5)C=C4)cc2)cs1
REMARK SMILES IDX 20 1 19 2 17 3 18 4 16 6 14 7 15 8 90 9 89 10 12 11 13 12
REMARK SMILES IDX 11 13 8 14 9 15 10 17 7 19 6 20 1 21 2 22 3 23 4 24 5 25
REMARK SMILES IDX 21 26 22 27 23 28 24 29 25 31 26 32 27 33 88 34 28 35 87 36
REMARK SMILES IDX 29 37 30 38 31 39 81 40 32 41 86 42 80 43 82 44 33 45 85 46
REMARK SMILES IDX 79 47 78 48 34 50 66 51 46 52 65 53 47 54 50 55 64 56 83 57
REMARK SMILES IDX 48 58 49 59 63 61 84 62 51 63 35 64 36 65 44 66 37 67 38 68
REMARK SMILES IDX 42 69 45 70 39 71 40 72 43 73 41 74 67 75 68 76 76 77 69 78
REMARK SMILES IDX 70 79 74 80 77 81 71 82 72 83 75 84 73 85 52 86 53 87 61 88
REMARK SMILES IDX 54 89 55 90 59 91 62 92 56 93 57 94 60 95 58 96
REMARK H PARENT 19 5 8 16 11 18 23 30 82 49 50 60
REMARK Flexibility Score: inf
ROOT
ATOM      1  C   UNL A   1      31.566  30.742  26.168  1.00  0.00     0.118 C 
ENDROOT
BRANCH   1   2
ATOM      2  N   UNL A   1      32.745  30.176  26.798  1.00  0.00    -0.351 N 
ATOM      3  C   UNL A   1      33.410  28.997  26.556  1.00  0.00     0.270 C 
ATOM      4  O   UNL A   1      34.426  28.776  27.213  1.00  0.00    -0.267 OA
ATOM      5  H   UNL A   1      33.132  30.726  27.516  1.00  0.00     0.163 HD
BRANCH   3   6
ATOM      6  C   UNL A   1      32.943  28.067  25.520  1.00  0.00     0.139 A 
ATOM      7  C   UNL A   1      31.613  26.574  24.530  1.00  0.00     0.116 A 
ATOM      8  N   UNL A   1      31.844  27.219  25.656  1.00  0.00    -0.234 NA
ATOM      9  S   UNL A   1      32.740  26.875  23.269  1.00  0.00    -0.124 S 
ATOM     10  C   UNL A   1      33.577  27.959  24.292  1.00  0.00     0.101 A 
BRANCH   7  11
ATOM     11  C   UNL A   1      30.443  25.645  24.304  1.00  0.00     0.140 C 
ATOM     12  C   UNL A   1      29.201  26.447  23.917  1.00  0.00     0.039 C 
BRANCH  11  13
ATOM     13  N   UNL A   1      30.192  24.932  25.548  1.00  0.00    -0.329 N 
ATOM     14  N   UNL A   1      31.550  22.999  25.583  1.00  0.00    -0.334 N 
ATOM     15  C   UNL A   1      30.656  23.827  26.126  1.00  0.00     0.315 C 
ATOM     16  H   UNL A   1      31.811  22.276  26.197  1.00  0.00     0.165 HD
ATOM     17  O   UNL A   1      30.240  23.555  27.255  1.00  0.00    -0.249 OA
ATOM     18  H   UNL A   1      29.509  25.378  26.098  1.00  0.00     0.166 HD
BRANCH  14  19
ATOM     19  C   UNL A   1      32.224  22.907  24.310  1.00  0.00     0.154 C 
BRANCH  19  20
ATOM     20  C   UNL A   1      33.713  22.755  24.483  1.00  0.00    -0.015 A 
ATOM     21  C   UNL A   1      33.696  20.147  24.627  1.00  0.00     0.045 C 
ATOM     22  C   UNL A   1      34.382  21.476  24.632  1.00  0.00    -0.035 A 
ATOM     23  C   UNL A   1      35.746  21.629  24.786  1.00  0.00     0.068 A 
ATOM     24  S   UNL A   1      36.242  23.258  24.744  1.00  0.00    -0.152 S 
ATOM     25  C   UNL A   1      34.635  23.789  24.529  1.00  0.00     0.070 A 
ENDBRANCH  19  20
ENDBRANCH  14  19
ENDBRANCH  11  13
ENDBRANCH   7  11
ENDBRANCH   3   6
ENDBRANCH   1   2
BRANCH   1  26
ATOM     26  C   UNL A   1      31.404  32.224  26.499  1.00  0.00     0.042 C 
BRANCH  26  27
ATOM     27  C   UNL A   1      32.599  32.808  27.253  1.00  0.00     0.118 C 
BRANCH  27  28
ATOM     28  N   UNL A   1      32.394  34.204  27.626  1.00  0.00    -0.352 N 
ATOM     29  C   UNL A   1      32.985  34.956  28.609  1.00  0.00     0.251 C 
ATOM     30  H   UNL A   1      31.724  34.682  27.086  1.00  0.00     0.163 HD
ATOM     31  O   UNL A   1      32.527  36.060  28.891  1.00  0.00    -0.269 OA
BRANCH  29  32
ATOM     32  C   UNL A   1      34.161  34.443  29.338  1.00  0.00     0.039 A 
ATOM     33  C   UNL A   1      33.971  33.842  30.586  1.00  0.00     0.014 A 
ATOM     34  C   UNL A   1      35.447  34.576  28.810  1.00  0.00     0.014 A 
ATOM     35  C   UNL A   1      35.064  33.308  31.273  1.00  0.00     0.010 A 
ATOM     36  C   UNL A   1      36.527  33.991  29.465  1.00  0.00     0.010 A 
ATOM     37  C   UNL A   1      36.345  33.345  30.697  1.00  0.00    -0.014 A 
BRANCH  37  38
ATOM     38  C   UNL A   1      37.505  32.690  31.348  1.00  0.00     0.031 A 
ATOM     39  C   UNL A   1      38.199  31.541  30.677  1.00  0.00     0.074 A 
ATOM     40  C   UNL A   1      37.871  33.075  32.584  1.00  0.00     0.049 A 
ATOM     41  N   UNL A   1      39.146  30.762  31.137  1.00  0.00    -0.248 NA
ATOM     42  C   UNL A   1      37.752  31.205  29.316  1.00  0.00     0.031 C 
ATOM     43  C   UNL A   1      37.250  34.156  33.352  1.00  0.00     0.029 A 
ATOM     44  N   UNL A   1      38.843  32.588  33.422  1.00  0.00    -0.354 N 
ATOM     45  C   UNL A   1      39.396  29.838  30.131  1.00  0.00     0.074 A 
ATOM     46  C   UNL A   1      38.473  30.125  29.054  1.00  0.00     0.031 C 
ATOM     47  C   UNL A   1      37.864  34.260  34.541  1.00  0.00     0.029 A 
ATOM     48  C   UNL A   1      38.891  33.228  34.636  1.00  0.00     0.049 A 
ATOM     49  H   UNL A   1      39.448  31.852  33.175  1.00  0.00     0.167 HD
ATOM     50  C   UNL A   1      40.323  28.852  30.105  1.00  0.00     0.037 A 
ATOM     51  C   UNL A   1      39.665  32.995  35.712  1.00  0.00     0.037 A 
ATOM     52  C   UNL A   1      41.252  28.583  31.172  1.00  0.00     0.049 A 
ATOM     53  C   UNL A   1      40.669  31.876  35.668  1.00  0.00     0.074 A 
ATOM     54  C   UNL A   1      42.268  27.645  31.218  1.00  0.00     0.029 A 
ATOM     55  N   UNL A   1      41.274  29.255  32.386  1.00  0.00    -0.354 N 
ATOM     56  N   UNL A   1      40.934  31.042  34.693  1.00  0.00    -0.248 NA
ATOM     57  C   UNL A   1      41.477  31.665  36.876  1.00  0.00     0.031 C 
ATOM     58  C   UNL A   1      42.878  27.722  32.474  1.00  0.00     0.029 A 
ATOM     59  C   UNL A   1      42.270  28.737  33.196  1.00  0.00     0.049 A 
ATOM     60  H   UNL A   1      40.670  29.992  32.635  1.00  0.00     0.167 HD
ATOM     61  C   UNL A   1      41.953  30.223  35.157  1.00  0.00     0.074 A 
ATOM     62  C   UNL A   1      42.267  30.668  36.500  1.00  0.00     0.031 C 
ATOM     63  C   UNL A   1      42.573  29.195  34.529  1.00  0.00     0.037 A 
BRANCH  50  64
ATOM     64  C   UNL A   1      40.378  27.988  28.879  1.00  0.00     0.064 A 
ATOM     65  C   UNL A   1      41.156  28.341  27.767  1.00  0.00     0.173 A 
ATOM     66  C   UNL A   1      39.668  26.779  28.826  1.00  0.00     0.173 A 
ATOM     67  F   UNL A   1      41.845  29.492  27.764  1.00  0.00    -0.203 F 
ATOM     68  C   UNL A   1      41.196  27.534  26.634  1.00  0.00     0.198 A 
ATOM     69  C   UNL A   1      39.732  25.960  27.703  1.00  0.00     0.198 A 
ATOM     70  F   UNL A   1      38.913  26.391  29.865  1.00  0.00    -0.203 F 
ATOM     71  F   UNL A   1      41.908  27.916  25.565  1.00  0.00    -0.200 F 
ATOM     72  C   UNL A   1      40.489  26.340  26.605  1.00  0.00     0.200 A 
ATOM     73  F   UNL A   1      39.057  24.801  27.680  1.00  0.00    -0.200 F 
ATOM     74  F   UNL A   1      40.532  25.562  25.515  1.00  0.00    -0.200 F 
ENDBRANCH  50  64
BRANCH  51  75
ATOM     75  C   UNL A   1      39.534  33.854  36.916  1.00  0.00     0.064 A 
ATOM     76  C   UNL A   1      40.199  35.085  36.989  1.00  0.00     0.173 A 
ATOM     77  C   UNL A   1      38.741  33.473  38.007  1.00  0.00     0.173 A 
ATOM     78  F   UNL A   1      40.988  35.481  35.979  1.00  0.00    -0.203 F 
ATOM     79  C   UNL A   1      40.085  35.898  38.114  1.00  0.00     0.198 A 
ATOM     80  C   UNL A   1      38.608  34.297  39.122  1.00  0.00     0.198 A 
ATOM     81  F   UNL A   1      38.084  32.303  37.983  1.00  0.00    -0.203 F 
ATOM     82  F   UNL A   1      40.761  37.054  38.175  1.00  0.00    -0.200 F 
ATOM     83  C   UNL A   1      39.284  35.506  39.177  1.00  0.00     0.200 A 
ATOM     84  F   UNL A   1      37.827  33.920  40.143  1.00  0.00    -0.200 F 
ATOM     85  F   UNL A   1      39.172  36.291  40.258  1.00  0.00    -0.200 F 
ENDBRANCH  51  75
BRANCH  63  86
ATOM     86  C   UNL A   1      43.672  28.499  35.273  1.00  0.00     0.064 A 
ATOM     87  C   UNL A   1      43.416  27.387  36.088  1.00  0.00     0.173 A 
ATOM     88  C   UNL A   1      45.002  28.922  35.135  1.00  0.00     0.173 A 
ATOM     89  F   UNL A   1      42.158  26.956  36.266  1.00  0.00    -0.203 F 
ATOM     90  C   UNL A   1      44.451  26.735  36.752  1.00  0.00     0.198 A 
ATOM     91  C   UNL A   1      46.037  28.252  35.780  1.00  0.00     0.198 A 
ATOM     92  F   UNL A   1      45.298  29.979  34.363  1.00  0.00    -0.203 F 
ATOM     93  F   UNL A   1      44.180  25.698  37.557  1.00  0.00    -0.200 F 
ATOM     94  C   UNL A   1      45.760  27.163  36.591  1.00  0.00     0.200 A 
ATOM     95  F   UNL A   1      47.303  28.660  35.614  1.00  0.00    -0.200 F 
ATOM     96  F   UNL A   1      46.757  26.528  37.224  1.00  0.00    -0.200 F 
ENDBRANCH  63  86
ENDBRANCH  37  38
ENDBRANCH  29  32
ENDBRANCH  27  28
ENDBRANCH  26  27
ENDBRANCH   1  26
TORSDOF 14
ENDMDL
