MODEL 1
REMARK VINA RESULT:     -13.9      0.000      0.000
REMARK SMILES CC1(C)[C@H](C(=O)NCCCNC(=O)c2ccc(-c3c4nc(c(-c5c(F)c(F)c(F)c(F)c5F)c5ccc([nH]5)c(-c5c(F)c(F)c(F)c(F)c5F)c5nc(c(-c6c(F)c(F)c(F)c(F)c6F)c6ccc3[nH]6)C=C5)C=C4)cc2)[C@@H]1C(=O)Nc1ccc(NC(=O)C2CCC2)cc1
REMARK SMILES IDX 8 1 7 2 5 3 6 4 4 6 1 7 2 8 3 9 77 10 78 11 79 12 80 13
REMARK SMILES IDX 81 15 82 16 93 17 83 18 92 19 84 20 85 21 86 22 87 24 88 25
REMARK SMILES IDX 89 26 91 27 90 28 9 29 10 30 11 31 12 32 13 34 14 35 15 36
REMARK SMILES IDX 76 37 16 38 75 39 17 40 18 41 19 42 69 43 20 44 74 45 68 46
REMARK SMILES IDX 70 47 21 48 73 49 67 50 66 51 22 53 54 54 34 55 53 56 35 57
REMARK SMILES IDX 38 58 52 59 71 60 36 61 37 62 51 64 72 65 39 66 23 67 24 68
REMARK SMILES IDX 32 69 25 70 26 71 30 72 33 73 27 74 28 75 31 76 29 77 55 78
REMARK SMILES IDX 56 79 64 80 57 81 58 82 62 83 65 84 59 85 60 86 63 87 61 88
REMARK SMILES IDX 40 89 41 90 49 91 42 92 43 93 47 94 50 95 44 96 45 97 48 98
REMARK SMILES IDX 46 99
REMARK H PARENT 7 5 80 14 85 23 11 33 70 52 38 63
REMARK Flexibility Score: inf
ROOT
ATOM      1  C   UNL A   1      32.021  30.176  26.307  1.00  0.00     0.117 C 
ENDROOT
BRANCH   1   2
ATOM      2  N   UNL A   1      32.586  30.016  24.982  1.00  0.00    -0.356 N 
ATOM      3  C   UNL A   1      33.181  29.008  24.288  1.00  0.00     0.224 C 
ATOM      4  O   UNL A   1      33.543  29.310  23.148  1.00  0.00    -0.275 OA
ATOM      5  H   UNL A   1      32.525  30.844  24.453  1.00  0.00     0.163 HD
BRANCH   3   6
ATOM      6  C   UNL A   1      33.441  27.616  24.720  1.00  0.00     0.098 C 
ATOM      7  C   UNL A   1      32.472  25.848  26.304  1.00  0.00     0.013 C 
ATOM      8  C   UNL A   1      32.395  26.542  24.960  1.00  0.00    -0.011 C 
ATOM      9  C   UNL A   1      30.966  26.758  24.521  1.00  0.00     0.013 C 
ATOM     10  C   UNL A   1      33.569  26.321  23.980  1.00  0.00     0.098 C 
BRANCH  10  11
ATOM     11  C   UNL A   1      33.441  26.097  22.527  1.00  0.00     0.228 C 
ATOM     12  O   UNL A   1      33.794  26.969  21.738  1.00  0.00    -0.274 OA
ATOM     13  N   UNL A   1      32.894  24.929  22.040  1.00  0.00    -0.326 N 
ATOM     14  H   UNL A   1      32.644  24.924  21.088  1.00  0.00     0.169 HD
BRANCH  13  15
ATOM     15  C   UNL A   1      32.657  23.750  22.753  1.00  0.00     0.041 A 
ATOM     16  C   UNL A   1      33.777  22.983  23.033  1.00  0.00     0.028 A 
ATOM     17  C   UNL A   1      31.426  23.384  23.288  1.00  0.00     0.028 A 
ATOM     18  C   UNL A   1      33.709  22.016  24.024  1.00  0.00     0.028 A 
ATOM     19  C   UNL A   1      31.343  22.254  24.119  1.00  0.00     0.028 A 
ATOM     20  C   UNL A   1      32.500  21.560  24.498  1.00  0.00     0.041 A 
BRANCH  20  21
ATOM     21  N   UNL A   1      32.382  20.446  25.337  1.00  0.00    -0.326 N 
ATOM     22  C   UNL A   1      32.793  19.129  25.255  1.00  0.00     0.227 C 
ATOM     23  H   UNL A   1      31.899  20.645  26.171  1.00  0.00     0.169 HD
ATOM     24  O   UNL A   1      32.497  18.445  26.253  1.00  0.00    -0.274 OA
BRANCH  22  25
ATOM     25  C   UNL A   1      33.565  18.478  24.077  1.00  0.00     0.079 C 
ATOM     26  C   UNL A   1      34.260  17.119  24.467  1.00  0.00     0.013 C 
ATOM     27  C   UNL A   1      32.950  17.644  22.906  1.00  0.00     0.013 C 
ATOM     28  C   UNL A   1      34.161  16.710  22.995  1.00  0.00     0.002 C 
ENDBRANCH  22  25
ENDBRANCH  20  21
ENDBRANCH  13  15
ENDBRANCH  10  11
ENDBRANCH   3   6
ENDBRANCH   1   2
BRANCH   1  29
ATOM     29  C   UNL A   1      31.660  31.623  26.589  1.00  0.00     0.042 C 
BRANCH  29  30
ATOM     30  C   UNL A   1      32.782  32.384  27.286  1.00  0.00     0.118 C 
BRANCH  30  31
ATOM     31  N   UNL A   1      32.459  33.788  27.522  1.00  0.00    -0.352 N 
ATOM     32  C   UNL A   1      32.989  34.659  28.445  1.00  0.00     0.251 C 
ATOM     33  H   UNL A   1      31.762  34.165  26.938  1.00  0.00     0.163 HD
ATOM     34  O   UNL A   1      32.480  35.760  28.625  1.00  0.00    -0.269 OA
BRANCH  32  35
ATOM     35  C   UNL A   1      34.163  34.242  29.236  1.00  0.00     0.039 A 
ATOM     36  C   UNL A   1      33.974  33.564  30.442  1.00  0.00     0.014 A 
ATOM     37  C   UNL A   1      35.451  34.480  28.752  1.00  0.00     0.014 A 
ATOM     38  C   UNL A   1      35.080  33.049  31.121  1.00  0.00     0.010 A 
ATOM     39  C   UNL A   1      36.538  33.882  29.373  1.00  0.00     0.010 A 
ATOM     40  C   UNL A   1      36.366  33.164  30.566  1.00  0.00    -0.014 A 
BRANCH  40  41
ATOM     41  C   UNL A   1      37.559  32.570  31.220  1.00  0.00     0.031 A 
ATOM     42  C   UNL A   1      38.298  31.453  30.536  1.00  0.00     0.074 A 
ATOM     43  C   UNL A   1      37.922  32.968  32.455  1.00  0.00     0.049 A 
ATOM     44  N   UNL A   1      39.268  30.700  30.987  1.00  0.00    -0.248 NA
ATOM     45  C   UNL A   1      37.859  31.111  29.172  1.00  0.00     0.031 C 
ATOM     46  C   UNL A   1      37.259  34.010  33.242  1.00  0.00     0.029 A 
ATOM     47  N   UNL A   1      38.935  32.532  33.273  1.00  0.00    -0.354 N 
ATOM     48  C   UNL A   1      39.534  29.785  29.976  1.00  0.00     0.074 A 
ATOM     49  C   UNL A   1      38.587  30.036  28.913  1.00  0.00     0.031 C 
ATOM     50  C   UNL A   1      37.895  34.147  34.418  1.00  0.00     0.029 A 
ATOM     51  C   UNL A   1      38.983  33.176  34.486  1.00  0.00     0.049 A 
ATOM     52  H   UNL A   1      39.567  31.822  33.015  1.00  0.00     0.167 HD
ATOM     53  C   UNL A   1      40.502  28.841  29.925  1.00  0.00     0.037 A 
ATOM     54  C   UNL A   1      39.807  32.995  35.534  1.00  0.00     0.037 A 
ATOM     55  C   UNL A   1      41.471  28.624  30.965  1.00  0.00     0.049 A 
ATOM     56  C   UNL A   1      40.879  31.941  35.449  1.00  0.00     0.074 A 
ATOM     57  C   UNL A   1      42.521  27.725  30.993  1.00  0.00     0.029 A 
ATOM     58  N   UNL A   1      41.512  29.327  32.160  1.00  0.00    -0.354 N 
ATOM     59  N   UNL A   1      41.153  31.116  34.467  1.00  0.00    -0.248 NA
ATOM     60  C   UNL A   1      41.762  31.798  36.615  1.00  0.00     0.031 C 
ATOM     61  C   UNL A   1      43.182  27.863  32.217  1.00  0.00     0.029 A 
ATOM     62  C   UNL A   1      42.568  28.878  32.935  1.00  0.00     0.049 A 
ATOM     63  H   UNL A   1      40.884  30.040  32.418  1.00  0.00     0.167 HD
ATOM     64  C   UNL A   1      42.257  30.383  34.881  1.00  0.00     0.074 A 
ATOM     65  C   UNL A   1      42.610  30.868  36.198  1.00  0.00     0.031 C 
ATOM     66  C   UNL A   1      42.919  29.396  34.230  1.00  0.00     0.037 A 
BRANCH  53  67
ATOM     67  C   UNL A   1      40.575  27.986  28.694  1.00  0.00     0.064 A 
ATOM     68  C   UNL A   1      41.342  28.370  27.582  1.00  0.00     0.173 A 
ATOM     69  C   UNL A   1      39.904  26.756  28.636  1.00  0.00     0.173 A 
ATOM     70  F   UNL A   1      41.990  29.545  27.582  1.00  0.00    -0.203 F 
ATOM     71  C   UNL A   1      41.414  27.564  26.449  1.00  0.00     0.198 A 
ATOM     72  C   UNL A   1      40.004  25.939  27.513  1.00  0.00     0.198 A 
ATOM     73  F   UNL A   1      39.161  26.341  29.673  1.00  0.00    -0.203 F 
ATOM     74  F   UNL A   1      42.114  27.973  25.383  1.00  0.00    -0.200 F 
ATOM     75  C   UNL A   1      40.752  26.347  26.419  1.00  0.00     0.200 A 
ATOM     76  F   UNL A   1      39.372  24.757  27.489  1.00  0.00    -0.200 F 
ATOM     77  F   UNL A   1      40.830  25.567  25.331  1.00  0.00    -0.200 F 
ENDBRANCH  53  67
BRANCH  54  78
ATOM     78  C   UNL A   1      39.676  33.843  36.749  1.00  0.00     0.064 A 
ATOM     79  C   UNL A   1      38.887  33.429  37.831  1.00  0.00     0.173 A 
ATOM     80  C   UNL A   1      40.310  35.091  36.844  1.00  0.00     0.173 A 
ATOM     81  F   UNL A   1      38.245  32.252  37.778  1.00  0.00    -0.203 F 
ATOM     82  C   UNL A   1      38.712  34.242  38.949  1.00  0.00     0.198 A 
ATOM     83  C   UNL A   1      40.157  35.891  37.976  1.00  0.00     0.198 A 
ATOM     84  F   UNL A   1      41.080  35.532  35.840  1.00  0.00    -0.203 F 
ATOM     85  F   UNL A   1      37.907  33.844  39.943  1.00  0.00    -0.200 F 
ATOM     86  C   UNL A   1      39.349  35.470  39.022  1.00  0.00     0.200 A 
ATOM     87  F   UNL A   1      40.785  37.072  38.049  1.00  0.00    -0.200 F 
ATOM     88  F   UNL A   1      39.178  36.254  40.096  1.00  0.00    -0.200 F 
ENDBRANCH  54  78
BRANCH  66  89
ATOM     89  C   UNL A   1      44.125  28.815  34.903  1.00  0.00     0.064 A 
ATOM     90  C   UNL A   1      45.401  29.373  34.742  1.00  0.00     0.173 A 
ATOM     91  C   UNL A   1      43.990  27.715  35.766  1.00  0.00     0.173 A 
ATOM     92  F   UNL A   1      45.582  30.415  33.917  1.00  0.00    -0.203 F 
ATOM     93  C   UNL A   1      46.503  28.838  35.403  1.00  0.00     0.198 A 
ATOM     94  C   UNL A   1      45.089  27.201  36.446  1.00  0.00     0.198 A 
ATOM     95  F   UNL A   1      42.788  27.151  35.958  1.00  0.00    -0.203 F 
ATOM     96  F   UNL A   1      47.720  29.361  35.203  1.00  0.00    -0.200 F 
ATOM     97  C   UNL A   1      46.345  27.759  36.260  1.00  0.00     0.200 A 
ATOM     98  F   UNL A   1      44.932  26.167  37.284  1.00  0.00    -0.200 F 
ATOM     99  F   UNL A   1      47.406  27.252  36.904  1.00  0.00    -0.200 F 
ENDBRANCH  66  89
ENDBRANCH  40  41
ENDBRANCH  32  35
ENDBRANCH  30  31
ENDBRANCH  29  30
ENDBRANCH   1  29
TORSDOF 14
ENDMDL
MODEL 2
REMARK VINA RESULT:     -13.7      1.380      1.852
REMARK SMILES CC1(C)[C@H](C(=O)NCCCNC(=O)c2ccc(-c3c4nc(c(-c5c(F)c(F)c(F)c(F)c5F)c5ccc([nH]5)c(-c5c(F)c(F)c(F)c(F)c5F)c5nc(c(-c6c(F)c(F)c(F)c(F)c6F)c6ccc3[nH]6)C=C5)C=C4)cc2)[C@@H]1C(=O)Nc1ccc(NC(=O)C2CCC2)cc1
REMARK SMILES IDX 8 1 7 2 5 3 6 4 4 6 1 7 2 8 3 9 77 10 78 11 79 12 80 13
REMARK SMILES IDX 81 15 82 16 93 17 83 18 92 19 84 20 85 21 86 22 87 24 88 25
REMARK SMILES IDX 89 26 91 27 90 28 9 29 10 30 11 31 12 32 13 34 14 35 15 36
REMARK SMILES IDX 76 37 16 38 75 39 17 40 18 41 19 42 69 43 20 44 74 45 68 46
REMARK SMILES IDX 70 47 21 48 73 49 67 50 66 51 22 53 54 54 34 55 53 56 35 57
REMARK SMILES IDX 38 58 52 59 71 60 36 61 37 62 51 64 72 65 39 66 23 67 24 68
REMARK SMILES IDX 32 69 25 70 26 71 30 72 33 73 27 74 28 75 31 76 29 77 55 78
REMARK SMILES IDX 56 79 64 80 57 81 58 82 62 83 65 84 59 85 60 86 63 87 61 88
REMARK SMILES IDX 40 89 41 90 49 91 42 92 43 93 47 94 50 95 44 96 45 97 48 98
REMARK SMILES IDX 46 99
REMARK H PARENT 7 5 80 14 85 23 11 33 70 52 38 63
REMARK Flexibility Score: inf
ROOT
ATOM      1  C   UNL A   1      32.079  30.591  26.324  1.00  0.00     0.117 C 
ENDROOT
BRANCH   1   2
ATOM      2  N   UNL A   1      31.345  30.285  25.113  1.00  0.00    -0.356 N 
ATOM      3  C   UNL A   1      31.288  29.240  24.243  1.00  0.00     0.224 C 
ATOM      4  O   UNL A   1      30.511  29.398  23.297  1.00  0.00    -0.275 OA
ATOM      5  H   UNL A   1      30.737  31.014  24.855  1.00  0.00     0.163 HD
BRANCH   3   6
ATOM      6  C   UNL A   1      32.025  27.957  24.287  1.00  0.00     0.098 C 
ATOM      7  C   UNL A   1      33.576  26.649  25.855  1.00  0.00     0.013 C 
ATOM      8  C   UNL A   1      32.160  27.043  25.493  1.00  0.00    -0.011 C 
ATOM      9  C   UNL A   1      31.307  27.268  26.719  1.00  0.00     0.013 C 
ATOM     10  C   UNL A   1      31.604  26.528  24.146  1.00  0.00     0.098 C 
BRANCH  10  11
ATOM     11  C   UNL A   1      30.240  26.008  23.924  1.00  0.00     0.228 C 
ATOM     12  O   UNL A   1      29.343  26.768  23.570  1.00  0.00    -0.274 OA
ATOM     13  N   UNL A   1      29.949  24.679  24.145  1.00  0.00    -0.326 N 
ATOM     14  H   UNL A   1      28.995  24.438  24.184  1.00  0.00     0.169 HD
BRANCH  13  15
ATOM     15  C   UNL A   1      30.863  23.635  24.318  1.00  0.00     0.041 A 
ATOM     16  C   UNL A   1      31.509  23.206  23.169  1.00  0.00     0.028 A 
ATOM     17  C   UNL A   1      31.240  23.111  25.551  1.00  0.00     0.028 A 
ATOM     18  C   UNL A   1      32.669  22.456  23.280  1.00  0.00     0.028 A 
ATOM     19  C   UNL A   1      32.283  22.172  25.612  1.00  0.00     0.028 A 
ATOM     20  C   UNL A   1      33.013  21.840  24.462  1.00  0.00     0.041 A 
BRANCH  20  21
ATOM     21  N   UNL A   1      34.053  20.909  24.561  1.00  0.00    -0.326 N 
ATOM     22  C   UNL A   1      35.346  20.956  25.047  1.00  0.00     0.227 C 
ATOM     23  H   UNL A   1      33.809  20.024  24.206  1.00  0.00     0.169 HD
ATOM     24  O   UNL A   1      35.955  19.871  24.966  1.00  0.00    -0.274 OA
BRANCH  22  25
ATOM     25  C   UNL A   1      36.054  22.191  25.664  1.00  0.00     0.079 C 
ATOM     26  C   UNL A   1      37.578  22.288  25.280  1.00  0.00     0.013 C 
ATOM     27  C   UNL A   1      35.991  23.662  25.136  1.00  0.00     0.013 C 
ATOM     28  C   UNL A   1      37.476  23.802  25.484  1.00  0.00     0.002 C 
ENDBRANCH  22  25
ENDBRANCH  20  21
ENDBRANCH  13  15
ENDBRANCH  10  11
ENDBRANCH   3   6
ENDBRANCH   1   2
BRANCH   1  29
ATOM     29  C   UNL A   1      31.672  31.936  26.899  1.00  0.00     0.042 C 
BRANCH  29  30
ATOM     30  C   UNL A   1      32.867  32.775  27.337  1.00  0.00     0.118 C 
BRANCH  30  31
ATOM     31  N   UNL A   1      32.511  34.156  27.649  1.00  0.00    -0.352 N 
ATOM     32  C   UNL A   1      33.000  34.977  28.637  1.00  0.00     0.251 C 
ATOM     33  H   UNL A   1      31.824  34.556  27.069  1.00  0.00     0.163 HD
ATOM     34  O   UNL A   1      32.466  36.057  28.870  1.00  0.00    -0.269 OA
BRANCH  32  35
ATOM     35  C   UNL A   1      34.161  34.533  29.433  1.00  0.00     0.039 A 
ATOM     36  C   UNL A   1      33.954  33.973  30.695  1.00  0.00     0.014 A 
ATOM     37  C   UNL A   1      35.448  34.627  28.902  1.00  0.00     0.014 A 
ATOM     38  C   UNL A   1      35.036  33.427  31.390  1.00  0.00     0.010 A 
ATOM     39  C   UNL A   1      36.503  33.995  29.546  1.00  0.00     0.010 A 
ATOM     40  C   UNL A   1      36.310  33.393  30.798  1.00  0.00    -0.014 A 
BRANCH  40  41
ATOM     41  C   UNL A   1      37.472  32.760  31.473  1.00  0.00     0.031 A 
ATOM     42  C   UNL A   1      38.164  31.597  30.816  1.00  0.00     0.074 A 
ATOM     43  C   UNL A   1      37.845  33.167  32.701  1.00  0.00     0.049 A 
ATOM     44  N   UNL A   1      39.096  30.811  31.289  1.00  0.00    -0.248 NA
ATOM     45  C   UNL A   1      37.718  31.247  29.456  1.00  0.00     0.031 C 
ATOM     46  C   UNL A   1      37.224  34.253  33.463  1.00  0.00     0.029 A 
ATOM     47  N   UNL A   1      38.833  32.702  33.535  1.00  0.00    -0.354 N 
ATOM     48  C   UNL A   1      39.327  29.864  30.298  1.00  0.00     0.074 A 
ATOM     49  C   UNL A   1      38.398  30.135  29.224  1.00  0.00     0.031 C 
ATOM     50  C   UNL A   1      37.859  34.386  34.639  1.00  0.00     0.029 A 
ATOM     51  C   UNL A   1      38.902  33.369  34.734  1.00  0.00     0.049 A 
ATOM     52  H   UNL A   1      39.434  31.960  33.296  1.00  0.00     0.167 HD
ATOM     53  C   UNL A   1      40.252  28.877  30.274  1.00  0.00     0.037 A 
ATOM     54  C   UNL A   1      39.711  33.173  35.792  1.00  0.00     0.037 A 
ATOM     55  C   UNL A   1      41.204  28.639  31.325  1.00  0.00     0.049 A 
ATOM     56  C   UNL A   1      40.735  32.071  35.735  1.00  0.00     0.074 A 
ATOM     57  C   UNL A   1      42.213  27.694  31.378  1.00  0.00     0.029 A 
ATOM     58  N   UNL A   1      41.270  29.364  32.505  1.00  0.00    -0.354 N 
ATOM     59  N   UNL A   1      40.977  31.214  34.773  1.00  0.00    -0.248 NA
ATOM     60  C   UNL A   1      41.604  31.912  36.910  1.00  0.00     0.031 C 
ATOM     61  C   UNL A   1      42.872  27.828  32.603  1.00  0.00     0.029 A 
ATOM     62  C   UNL A   1      42.300  28.884  33.296  1.00  0.00     0.049 A 
ATOM     63  H   UNL A   1      40.673  30.109  32.744  1.00  0.00     0.167 HD
ATOM     64  C   UNL A   1      42.045  30.441  35.209  1.00  0.00     0.074 A 
ATOM     65  C   UNL A   1      42.412  30.937  36.518  1.00  0.00     0.031 C 
ATOM     66  C   UNL A   1      42.666  29.413  34.582  1.00  0.00     0.037 A 
BRANCH  53  67
ATOM     67  C   UNL A   1      40.294  27.995  29.060  1.00  0.00     0.064 A 
ATOM     68  C   UNL A   1      41.037  28.350  27.924  1.00  0.00     0.173 A 
ATOM     69  C   UNL A   1      39.617  26.766  29.045  1.00  0.00     0.173 A 
ATOM     70  F   UNL A   1      41.690  29.521  27.883  1.00  0.00    -0.203 F 
ATOM     71  C   UNL A   1      41.080  27.518  26.808  1.00  0.00     0.198 A 
ATOM     72  C   UNL A   1      39.688  25.924  27.939  1.00  0.00     0.198 A 
ATOM     73  F   UNL A   1      38.895  26.378  30.108  1.00  0.00    -0.203 F 
ATOM     74  F   UNL A   1      41.757  27.900  25.717  1.00  0.00    -0.200 F 
ATOM     75  C   UNL A   1      40.412  26.304  26.820  1.00  0.00     0.200 A 
ATOM     76  F   UNL A   1      39.051  24.745  27.956  1.00  0.00    -0.200 F 
ATOM     77  F   UNL A   1      40.463  25.499  25.748  1.00  0.00    -0.200 F 
ENDBRANCH  53  67
BRANCH  54  78
ATOM     78  C   UNL A   1      39.612  34.051  36.988  1.00  0.00     0.064 A 
ATOM     79  C   UNL A   1      38.844  33.668  38.097  1.00  0.00     0.173 A 
ATOM     80  C   UNL A   1      40.254  35.297  37.039  1.00  0.00     0.173 A 
ATOM     81  F   UNL A   1      38.195  32.494  38.087  1.00  0.00    -0.203 F 
ATOM     82  C   UNL A   1      38.698  34.509  39.198  1.00  0.00     0.198 A 
ATOM     83  C   UNL A   1      40.129  36.125  38.154  1.00  0.00     0.198 A 
ATOM     84  F   UNL A   1      41.004  35.710  36.008  1.00  0.00    -0.203 F 
ATOM     85  F   UNL A   1      37.913  34.139  40.220  1.00  0.00    -0.200 F 
ATOM     86  C   UNL A   1      39.343  35.735  39.227  1.00  0.00     0.200 A 
ATOM     87  F   UNL A   1      40.766  37.304  38.185  1.00  0.00    -0.200 F 
ATOM     88  F   UNL A   1      39.200  36.545  40.285  1.00  0.00    -0.200 F 
ENDBRANCH  54  78
BRANCH  66  89
ATOM     89  C   UNL A   1      43.841  28.792  35.276  1.00  0.00     0.064 A 
ATOM     90  C   UNL A   1      45.152  29.231  35.043  1.00  0.00     0.173 A 
ATOM     91  C   UNL A   1      43.644  27.778  36.227  1.00  0.00     0.173 A 
ATOM     92  F   UNL A   1      45.391  30.188  34.133  1.00  0.00    -0.203 F 
ATOM     93  C   UNL A   1      46.226  28.664  35.722  1.00  0.00     0.198 A 
ATOM     94  C   UNL A   1      44.717  27.233  36.924  1.00  0.00     0.198 A 
ATOM     95  F   UNL A   1      42.408  27.329  36.489  1.00  0.00    -0.203 F 
ATOM     96  F   UNL A   1      47.475  29.071  35.455  1.00  0.00    -0.200 F 
ATOM     97  C   UNL A   1      46.007  27.673  36.667  1.00  0.00     0.200 A 
ATOM     98  F   UNL A   1      44.504  26.285  37.846  1.00  0.00    -0.200 F 
ATOM     99  F   UNL A   1      47.043  27.135  37.329  1.00  0.00    -0.200 F 
ENDBRANCH  66  89
ENDBRANCH  40  41
ENDBRANCH  32  35
ENDBRANCH  30  31
ENDBRANCH  29  30
ENDBRANCH   1  29
TORSDOF 14
ENDMDL
MODEL 3
REMARK VINA RESULT:     -13.7      5.437     11.254
REMARK SMILES CC1(C)[C@H](C(=O)NCCCNC(=O)c2ccc(-c3c4nc(c(-c5c(F)c(F)c(F)c(F)c5F)c5ccc([nH]5)c(-c5c(F)c(F)c(F)c(F)c5F)c5nc(c(-c6c(F)c(F)c(F)c(F)c6F)c6ccc3[nH]6)C=C5)C=C4)cc2)[C@@H]1C(=O)Nc1ccc(NC(=O)C2CCC2)cc1
REMARK SMILES IDX 8 1 7 2 5 3 6 4 4 6 1 7 2 8 3 9 77 10 78 11 79 12 80 13
REMARK SMILES IDX 81 15 82 16 93 17 83 18 92 19 84 20 85 21 86 22 87 24 88 25
REMARK SMILES IDX 89 26 91 27 90 28 9 29 10 30 11 31 12 32 13 34 14 35 15 36
REMARK SMILES IDX 76 37 16 38 75 39 17 40 18 41 19 42 69 43 20 44 74 45 68 46
REMARK SMILES IDX 70 47 21 48 73 49 67 50 66 51 22 53 54 54 34 55 53 56 35 57
REMARK SMILES IDX 38 58 52 59 71 60 36 61 37 62 51 64 72 65 39 66 23 67 24 68
REMARK SMILES IDX 32 69 25 70 26 71 30 72 33 73 27 74 28 75 31 76 29 77 55 78
REMARK SMILES IDX 56 79 64 80 57 81 58 82 62 83 65 84 59 85 60 86 63 87 61 88
REMARK SMILES IDX 40 89 41 90 49 91 42 92 43 93 47 94 50 95 44 96 45 97 48 98
REMARK SMILES IDX 46 99
REMARK H PARENT 7 5 80 14 85 23 11 33 70 52 38 63
REMARK Flexibility Score: inf
ROOT
ATOM      1  C   UNL A   1      36.959  21.195  24.915  1.00  0.00     0.117 C 
ENDROOT
BRANCH   1   2
ATOM      2  N   UNL A   1      35.957  21.096  25.957  1.00  0.00    -0.356 N 
ATOM      3  C   UNL A   1      34.993  21.910  26.466  1.00  0.00     0.224 C 
ATOM      4  O   UNL A   1      34.344  21.423  27.396  1.00  0.00    -0.275 OA
ATOM      5  H   UNL A   1      35.980  20.222  26.410  1.00  0.00     0.163 HD
BRANCH   3   6
ATOM      6  C   UNL A   1      34.627  23.284  26.052  1.00  0.00     0.098 C 
ATOM      7  C   UNL A   1      34.574  24.737  23.940  1.00  0.00     0.013 C 
ATOM      8  C   UNL A   1      33.899  23.670  24.776  1.00  0.00    -0.011 C 
ATOM      9  C   UNL A   1      33.250  22.610  23.919  1.00  0.00     0.013 C 
ATOM     10  C   UNL A   1      33.371  24.088  26.167  1.00  0.00     0.098 C 
BRANCH  10  11
ATOM     11  C   UNL A   1      32.084  23.671  26.756  1.00  0.00     0.228 C 
ATOM     12  O   UNL A   1      32.069  22.951  27.751  1.00  0.00    -0.274 OA
ATOM     13  N   UNL A   1      30.890  24.050  26.181  1.00  0.00    -0.326 N 
ATOM     14  H   UNL A   1      30.084  23.576  26.488  1.00  0.00     0.169 HD
BRANCH  13  15
ATOM     15  C   UNL A   1      30.701  25.037  25.208  1.00  0.00     0.041 A 
ATOM     16  C   UNL A   1      31.002  26.331  25.601  1.00  0.00     0.028 A 
ATOM     17  C   UNL A   1      30.365  24.784  23.882  1.00  0.00     0.028 A 
ATOM     18  C   UNL A   1      31.200  27.306  24.636  1.00  0.00     0.028 A 
ATOM     19  C   UNL A   1      30.356  25.844  22.959  1.00  0.00     0.028 A 
ATOM     20  C   UNL A   1      30.783  27.124  23.337  1.00  0.00     0.041 A 
BRANCH  20  21
ATOM     21  N   UNL A   1      30.772  28.153  22.389  1.00  0.00    -0.326 N 
ATOM     22  C   UNL A   1      30.089  29.349  22.271  1.00  0.00     0.227 C 
ATOM     23  H   UNL A   1      31.388  27.989  21.639  1.00  0.00     0.169 HD
ATOM     24  O   UNL A   1      30.390  30.004  21.256  1.00  0.00    -0.274 OA
BRANCH  22  25
ATOM     25  C   UNL A   1      29.037  29.909  23.265  1.00  0.00     0.079 C 
ATOM     26  C   UNL A   1      28.830  31.465  23.136  1.00  0.00     0.013 C 
ATOM     27  C   UNL A   1      27.482  29.850  23.109  1.00  0.00     0.013 C 
ATOM     28  C   UNL A   1      27.416  31.267  23.687  1.00  0.00     0.002 C 
ENDBRANCH  22  25
ENDBRANCH  20  21
ENDBRANCH  13  15
ENDBRANCH  10  11
ENDBRANCH   3   6
ENDBRANCH   1   2
BRANCH   1  29
ATOM     29  C   UNL A   1      37.944  20.041  24.977  1.00  0.00     0.042 C 
BRANCH  29  30
ATOM     30  C   UNL A   1      39.223  20.399  25.725  1.00  0.00     0.118 C 
BRANCH  30  31
ATOM     31  N   UNL A   1      40.133  19.267  25.872  1.00  0.00    -0.352 N 
ATOM     32  C   UNL A   1      41.493  19.266  26.076  1.00  0.00     0.251 C 
ATOM     33  H   UNL A   1      39.714  18.378  25.818  1.00  0.00     0.163 HD
ATOM     34  O   UNL A   1      42.132  18.221  26.005  1.00  0.00    -0.269 OA
BRANCH  32  35
ATOM     35  C   UNL A   1      42.180  20.542  26.357  1.00  0.00     0.039 A 
ATOM     36  C   UNL A   1      42.574  21.357  25.295  1.00  0.00     0.014 A 
ATOM     37  C   UNL A   1      42.383  20.949  27.676  1.00  0.00     0.014 A 
ATOM     38  C   UNL A   1      43.098  22.625  25.560  1.00  0.00     0.010 A 
ATOM     39  C   UNL A   1      42.808  22.245  27.935  1.00  0.00     0.010 A 
ATOM     40  C   UNL A   1      43.175  23.094  26.881  1.00  0.00    -0.014 A 
BRANCH  40  41
ATOM     41  C   UNL A   1      43.659  24.461  27.202  1.00  0.00     0.031 A 
ATOM     42  C   UNL A   1      42.693  25.481  27.739  1.00  0.00     0.074 A 
ATOM     43  C   UNL A   1      44.932  24.808  26.930  1.00  0.00     0.049 A 
ATOM     44  N   UNL A   1      42.867  26.761  27.949  1.00  0.00    -0.248 NA
ATOM     45  C   UNL A   1      41.334  25.003  28.047  1.00  0.00     0.031 C 
ATOM     46  C   UNL A   1      45.953  23.923  26.364  1.00  0.00     0.029 A 
ATOM     47  N   UNL A   1      45.582  26.008  27.079  1.00  0.00    -0.354 N 
ATOM     48  C   UNL A   1      41.639  27.240  28.385  1.00  0.00     0.074 A 
ATOM     49  C   UNL A   1      40.712  26.131  28.355  1.00  0.00     0.031 C 
ATOM     50  C   UNL A   1      47.105  24.603  26.237  1.00  0.00     0.029 A 
ATOM     51  C   UNL A   1      46.894  25.981  26.670  1.00  0.00     0.049 A 
ATOM     52  H   UNL A   1      45.149  26.814  27.445  1.00  0.00     0.167 HD
ATOM     53  C   UNL A   1      41.320  28.487  28.803  1.00  0.00     0.037 A 
ATOM     54  C   UNL A   1      47.816  26.962  26.641  1.00  0.00     0.037 A 
ATOM     55  C   UNL A   1      42.256  29.576  28.875  1.00  0.00     0.049 A 
ATOM     56  C   UNL A   1      47.435  28.338  27.118  1.00  0.00     0.074 A 
ATOM     57  C   UNL A   1      42.046  30.866  29.327  1.00  0.00     0.029 A 
ATOM     58  N   UNL A   1      43.586  29.496  28.492  1.00  0.00    -0.354 N 
ATOM     59  N   UNL A   1      46.284  28.767  27.575  1.00  0.00    -0.248 NA
ATOM     60  C   UNL A   1      48.486  29.366  27.081  1.00  0.00     0.031 C 
ATOM     61  C   UNL A   1      43.242  31.577  29.192  1.00  0.00     0.029 A 
ATOM     62  C   UNL A   1      44.208  30.717  28.694  1.00  0.00     0.049 A 
ATOM     63  H   UNL A   1      44.022  28.692  28.131  1.00  0.00     0.167 HD
ATOM     64  C   UNL A   1      46.480  30.099  27.913  1.00  0.00     0.074 A 
ATOM     65  C   UNL A   1      47.864  30.406  27.618  1.00  0.00     0.031 C 
ATOM     66  C   UNL A   1      45.594  30.990  28.421  1.00  0.00     0.037 A 
BRANCH  53  67
ATOM     67  C   UNL A   1      39.905  28.732  29.239  1.00  0.00     0.064 A 
ATOM     68  C   UNL A   1      38.936  29.204  28.340  1.00  0.00     0.173 A 
ATOM     69  C   UNL A   1      39.503  28.459  30.554  1.00  0.00     0.173 A 
ATOM     70  F   UNL A   1      39.273  29.496  27.074  1.00  0.00    -0.203 F 
ATOM     71  C   UNL A   1      37.622  29.417  28.750  1.00  0.00     0.198 A 
ATOM     72  C   UNL A   1      38.181  28.643  30.952  1.00  0.00     0.198 A 
ATOM     73  F   UNL A   1      40.390  28.002  31.452  1.00  0.00    -0.203 F 
ATOM     74  F   UNL A   1      36.725  29.912  27.886  1.00  0.00    -0.200 F 
ATOM     75  C   UNL A   1      37.245  29.128  30.052  1.00  0.00     0.200 A 
ATOM     76  F   UNL A   1      37.815  28.353  32.208  1.00  0.00    -0.200 F 
ATOM     77  F   UNL A   1      35.977  29.324  30.442  1.00  0.00    -0.200 F 
ENDBRANCH  53  67
BRANCH  54  78
ATOM     78  C   UNL A   1      49.198  26.680  26.169  1.00  0.00     0.064 A 
ATOM     79  C   UNL A   1      49.573  26.950  24.846  1.00  0.00     0.173 A 
ATOM     80  C   UNL A   1      50.161  26.113  27.017  1.00  0.00     0.173 A 
ATOM     81  F   UNL A   1      48.681  27.475  23.992  1.00  0.00    -0.203 F 
ATOM     82  C   UNL A   1      50.848  26.638  24.379  1.00  0.00     0.198 A 
ATOM     83  C   UNL A   1      51.445  25.826  26.555  1.00  0.00     0.198 A 
ATOM     84  F   UNL A   1      49.857  25.839  28.293  1.00  0.00    -0.203 F 
ATOM     85  F   UNL A   1      51.159  26.856  23.094  1.00  0.00    -0.200 F 
ATOM     86  C   UNL A   1      51.784  26.079  25.235  1.00  0.00     0.200 A 
ATOM     87  F   UNL A   1      52.352  25.299  27.389  1.00  0.00    -0.200 F 
ATOM     88  F   UNL A   1      53.009  25.775  24.784  1.00  0.00    -0.200 F 
ENDBRANCH  54  78
BRANCH  66  89
ATOM     89  C   UNL A   1      46.105  32.362  28.745  1.00  0.00     0.064 A 
ATOM     90  C   UNL A   1      46.667  32.664  29.993  1.00  0.00     0.173 A 
ATOM     91  C   UNL A   1      46.078  33.372  27.771  1.00  0.00     0.173 A 
ATOM     92  F   UNL A   1      46.702  31.735  30.959  1.00  0.00    -0.203 F 
ATOM     93  C   UNL A   1      47.166  33.935  30.262  1.00  0.00     0.198 A 
ATOM     94  C   UNL A   1      46.602  34.633  28.034  1.00  0.00     0.198 A 
ATOM     95  F   UNL A   1      45.556  33.130  26.559  1.00  0.00    -0.203 F 
ATOM     96  F   UNL A   1      47.663  34.215  31.475  1.00  0.00    -0.200 F 
ATOM     97  C   UNL A   1      47.141  34.915  29.280  1.00  0.00     0.200 A 
ATOM     98  F   UNL A   1      46.590  35.575  27.081  1.00  0.00    -0.200 F 
ATOM     99  F   UNL A   1      47.632  36.136  29.538  1.00  0.00    -0.200 F 
ENDBRANCH  66  89
ENDBRANCH  40  41
ENDBRANCH  32  35
ENDBRANCH  30  31
ENDBRANCH  29  30
ENDBRANCH   1  29
TORSDOF 14
ENDMDL
