MODEL 1
REMARK VINA RESULT:     -13.7      0.000      0.000
REMARK SMILES Cc1ccc(OC(F)(F)F)cc1C(=O)NCCCNC(=O)c1ccc(-c2c3nc(c(-c4c(F)c(F)c(F)c(F)c4F)c4ccc([nH]4)c(-c4c(F)c(F)c(F)c(F)c4F)c4nc(c(-c5c(F)c(F)c(F)c(F)c5F)c5ccc2[nH]5)C=C4)C=C3)cc1
REMARK SMILES IDX 17 1 16 2 15 3 13 4 14 5 12 7 1 8 2 9 3 10 4 11 11 12 5 13
REMARK SMILES IDX 6 14 7 15 8 16 9 17 10 18 18 19 19 20 20 21 21 23 22 24
REMARK SMILES IDX 23 25 84 26 24 27 83 28 25 29 26 30 27 31 77 32 28 33 82 34
REMARK SMILES IDX 76 35 78 36 29 37 81 38 75 39 74 40 30 42 62 43 42 44 61 45
REMARK SMILES IDX 43 46 46 47 60 48 79 49 44 50 45 51 59 53 80 54 47 55 31 56
REMARK SMILES IDX 32 57 40 58 33 59 34 60 38 61 41 62 35 63 36 64 39 65 37 66
REMARK SMILES IDX 63 67 64 68 72 69 65 70 66 71 70 72 73 73 67 74 68 75 71 76
REMARK SMILES IDX 69 77 48 78 49 79 57 80 50 81 51 82 55 83 58 84 52 85 53 86
REMARK SMILES IDX 56 87 54 88
REMARK H PARENT 15 6 19 22 78 41 46 52
REMARK Flexibility Score: inf
ROOT
ATOM      1  C   UNL A   1      38.842  21.614  25.750  1.00  0.00     0.042 C 
ENDROOT
BRANCH   1   2
ATOM      2  C   UNL A   1      37.476  21.805  25.084  1.00  0.00     0.118 C 
BRANCH   2   3
ATOM      3  N   UNL A   1      36.449  22.052  26.079  1.00  0.00    -0.352 N 
ATOM      4  C   UNL A   1      35.083  21.954  26.116  1.00  0.00     0.251 C 
ATOM      5  O   UNL A   1      34.574  22.294  27.191  1.00  0.00    -0.269 OA
ATOM      6  H   UNL A   1      36.825  22.366  26.933  1.00  0.00     0.163 HD
BRANCH   4   7
ATOM      7  C   UNL A   1      34.163  21.421  25.050  1.00  0.00     0.046 A 
ATOM      8  C   UNL A   1      33.155  23.599  24.085  1.00  0.00     0.045 C 
ATOM      9  C   UNL A   1      33.338  22.119  24.147  1.00  0.00    -0.038 A 
ATOM     10  C   UNL A   1      32.527  21.394  23.247  1.00  0.00     0.008 A 
ATOM     11  C   UNL A   1      32.421  20.012  23.316  1.00  0.00     0.047 A 
ATOM     12  C   UNL A   1      34.028  20.005  25.097  1.00  0.00     0.061 A 
ATOM     13  C   UNL A   1      33.133  19.312  24.277  1.00  0.00     0.130 A 
BRANCH  13  14
ATOM     14  O   UNL A   1      32.866  17.974  24.312  1.00  0.00    -0.406 OA
BRANCH  14  15
ATOM     15  C   UNL A   1      33.815  17.108  23.711  1.00  0.00     0.573 C 
ATOM     16  F   UNL A   1      33.844  17.294  22.375  1.00  0.00    -0.132 F 
ATOM     17  F   UNL A   1      35.051  17.283  24.223  1.00  0.00    -0.132 F 
ATOM     18  F   UNL A   1      33.442  15.831  23.951  1.00  0.00    -0.132 F 
ENDBRANCH  14  15
ENDBRANCH  13  14
ENDBRANCH   4   7
ENDBRANCH   2   3
ENDBRANCH   1   2
BRANCH   1  19
ATOM     19  C   UNL A   1      39.318  22.758  26.630  1.00  0.00     0.118 C 
BRANCH  19  20
ATOM     20  N   UNL A   1      40.730  23.086  26.415  1.00  0.00    -0.352 N 
ATOM     21  C   UNL A   1      41.332  24.337  26.390  1.00  0.00     0.251 C 
ATOM     22  H   UNL A   1      41.331  22.320  26.271  1.00  0.00     0.163 HD
ATOM     23  O   UNL A   1      42.533  24.471  26.276  1.00  0.00    -0.269 OA
BRANCH  21  24
ATOM     24  C   UNL A   1      40.453  25.499  26.634  1.00  0.00     0.039 A 
ATOM     25  C   UNL A   1      40.879  26.727  26.124  1.00  0.00     0.014 A 
ATOM     26  C   UNL A   1      39.510  25.423  27.655  1.00  0.00     0.014 A 
ATOM     27  C   UNL A   1      40.571  27.885  26.830  1.00  0.00     0.010 A 
ATOM     28  C   UNL A   1      39.281  26.560  28.406  1.00  0.00     0.010 A 
ATOM     29  C   UNL A   1      39.880  27.772  28.038  1.00  0.00    -0.014 A 
BRANCH  29  30
ATOM     30  C   UNL A   1      39.823  28.859  29.008  1.00  0.00     0.031 A 
ATOM     31  C   UNL A   1      38.784  29.899  28.882  1.00  0.00     0.074 A 
ATOM     32  C   UNL A   1      40.711  28.941  30.025  1.00  0.00     0.049 A 
ATOM     33  N   UNL A   1      38.929  31.115  29.291  1.00  0.00    -0.248 NA
ATOM     34  C   UNL A   1      37.504  29.650  28.236  1.00  0.00     0.031 C 
ATOM     35  C   UNL A   1      40.657  29.858  31.163  1.00  0.00     0.029 A 
ATOM     36  N   UNL A   1      41.975  28.337  30.128  1.00  0.00    -0.354 N 
ATOM     37  C   UNL A   1      37.703  31.731  29.207  1.00  0.00     0.074 A 
ATOM     38  C   UNL A   1      36.865  30.795  28.491  1.00  0.00     0.031 C 
ATOM     39  C   UNL A   1      41.897  30.017  31.649  1.00  0.00     0.029 A 
ATOM     40  C   UNL A   1      42.801  29.290  30.782  1.00  0.00     0.049 A 
ATOM     41  H   UNL A   1      42.234  27.441  29.813  1.00  0.00     0.167 HD
ATOM     42  C   UNL A   1      37.503  32.915  29.854  1.00  0.00     0.037 A 
ATOM     43  C   UNL A   1      43.913  29.799  30.176  1.00  0.00     0.037 A 
ATOM     44  C   UNL A   1      38.715  33.385  30.526  1.00  0.00     0.049 A 
ATOM     45  C   UNL A   1      43.871  31.291  29.937  1.00  0.00     0.074 A 
ATOM     46  C   UNL A   1      39.173  33.345  31.833  1.00  0.00     0.029 A 
ATOM     47  N   UNL A   1      39.805  33.754  29.758  1.00  0.00    -0.354 N 
ATOM     48  N   UNL A   1      42.890  32.072  30.296  1.00  0.00    -0.248 NA
ATOM     49  C   UNL A   1      44.887  31.997  29.155  1.00  0.00     0.031 C 
ATOM     50  C   UNL A   1      40.547  33.719  31.841  1.00  0.00     0.029 A 
ATOM     51  C   UNL A   1      40.925  33.982  30.537  1.00  0.00     0.049 A 
ATOM     52  H   UNL A   1      39.786  33.843  28.778  1.00  0.00     0.167 HD
ATOM     53  C   UNL A   1      43.083  33.317  29.757  1.00  0.00     0.074 A 
ATOM     54  C   UNL A   1      44.345  33.220  29.048  1.00  0.00     0.031 C 
ATOM     55  C   UNL A   1      42.175  34.329  29.883  1.00  0.00     0.037 A 
BRANCH  42  56
ATOM     56  C   UNL A   1      36.134  33.514  30.083  1.00  0.00     0.064 A 
ATOM     57  C   UNL A   1      35.376  34.025  29.008  1.00  0.00     0.173 A 
ATOM     58  C   UNL A   1      35.533  33.662  31.347  1.00  0.00     0.173 A 
ATOM     59  F   UNL A   1      35.752  33.841  27.736  1.00  0.00    -0.203 F 
ATOM     60  C   UNL A   1      34.196  34.749  29.199  1.00  0.00     0.198 A 
ATOM     61  C   UNL A   1      34.390  34.443  31.547  1.00  0.00     0.198 A 
ATOM     62  F   UNL A   1      35.999  33.007  32.418  1.00  0.00    -0.203 F 
ATOM     63  F   UNL A   1      33.525  35.216  28.137  1.00  0.00    -0.200 F 
ATOM     64  C   UNL A   1      33.730  35.000  30.472  1.00  0.00     0.200 A 
ATOM     65  F   UNL A   1      33.933  34.648  32.791  1.00  0.00    -0.200 F 
ATOM     66  F   UNL A   1      32.634  35.746  30.660  1.00  0.00    -0.200 F 
ENDBRANCH  42  56
BRANCH  43  67
ATOM     67  C   UNL A   1      44.568  28.801  29.291  1.00  0.00     0.064 A 
ATOM     68  C   UNL A   1      45.294  27.763  29.908  1.00  0.00     0.173 A 
ATOM     69  C   UNL A   1      44.130  28.602  27.978  1.00  0.00     0.173 A 
ATOM     70  F   UNL A   1      45.752  27.917  31.161  1.00  0.00    -0.203 F 
ATOM     71  C   UNL A   1      45.406  26.514  29.308  1.00  0.00     0.198 A 
ATOM     72  C   UNL A   1      44.282  27.359  27.366  1.00  0.00     0.198 A 
ATOM     73  F   UNL A   1      43.437  29.555  27.339  1.00  0.00    -0.203 F 
ATOM     74  F   UNL A   1      45.941  25.491  29.990  1.00  0.00    -0.200 F 
ATOM     75  C   UNL A   1      44.864  26.304  28.052  1.00  0.00     0.200 A 
ATOM     76  F   UNL A   1      43.765  27.157  26.145  1.00  0.00    -0.200 F 
ATOM     77  F   UNL A   1      44.857  25.071  27.526  1.00  0.00    -0.200 F 
ENDBRANCH  43  67
BRANCH  55  78
ATOM     78  C   UNL A   1      42.402  35.722  29.359  1.00  0.00     0.064 A 
ATOM     79  C   UNL A   1      41.889  36.155  28.123  1.00  0.00     0.173 A 
ATOM     80  C   UNL A   1      43.230  36.645  30.033  1.00  0.00     0.173 A 
ATOM     81  F   UNL A   1      41.188  35.324  27.339  1.00  0.00    -0.203 F 
ATOM     82  C   UNL A   1      42.105  37.449  27.647  1.00  0.00     0.198 A 
ATOM     83  C   UNL A   1      43.490  37.918  29.529  1.00  0.00     0.198 A 
ATOM     84  F   UNL A   1      43.795  36.352  31.212  1.00  0.00    -0.203 F 
ATOM     85  F   UNL A   1      41.531  37.840  26.500  1.00  0.00    -0.200 F 
ATOM     86  C   UNL A   1      42.908  38.330  28.348  1.00  0.00     0.200 A 
ATOM     87  F   UNL A   1      44.301  38.746  30.202  1.00  0.00    -0.200 F 
ATOM     88  F   UNL A   1      43.123  39.569  27.885  1.00  0.00    -0.200 F 
ENDBRANCH  55  78
ENDBRANCH  29  30
ENDBRANCH  21  24
ENDBRANCH  19  20
ENDBRANCH   1  19
TORSDOF 12
ENDMDL
MODEL 2
REMARK VINA RESULT:     -13.5      4.847     10.848
REMARK SMILES Cc1ccc(OC(F)(F)F)cc1C(=O)NCCCNC(=O)c1ccc(-c2c3nc(c(-c4c(F)c(F)c(F)c(F)c4F)c4ccc([nH]4)c(-c4c(F)c(F)c(F)c(F)c4F)c4nc(c(-c5c(F)c(F)c(F)c(F)c5F)c5ccc2[nH]5)C=C4)C=C3)cc1
REMARK SMILES IDX 17 1 16 2 15 3 13 4 14 5 12 7 1 8 2 9 3 10 4 11 11 12 5 13
REMARK SMILES IDX 6 14 7 15 8 16 9 17 10 18 18 19 19 20 20 21 21 23 22 24
REMARK SMILES IDX 23 25 84 26 24 27 83 28 25 29 26 30 27 31 77 32 28 33 82 34
REMARK SMILES IDX 76 35 78 36 29 37 81 38 75 39 74 40 30 42 62 43 42 44 61 45
REMARK SMILES IDX 43 46 46 47 60 48 79 49 44 50 45 51 59 53 80 54 47 55 31 56
REMARK SMILES IDX 32 57 40 58 33 59 34 60 38 61 41 62 35 63 36 64 39 65 37 66
REMARK SMILES IDX 63 67 64 68 72 69 65 70 66 71 70 72 73 73 67 74 68 75 71 76
REMARK SMILES IDX 69 77 48 78 49 79 57 80 50 81 51 82 55 83 58 84 52 85 53 86
REMARK SMILES IDX 56 87 54 88
REMARK H PARENT 15 6 19 22 78 41 46 52
REMARK Flexibility Score: inf
ROOT
ATOM      1  C   UNL A   1      33.394  31.529  27.564  1.00  0.00     0.042 C 
ENDROOT
BRANCH   1   2
ATOM      2  C   UNL A   1      32.584  30.407  26.907  1.00  0.00     0.118 C 
BRANCH   2   3
ATOM      3  N   UNL A   1      33.329  29.806  25.817  1.00  0.00    -0.352 N 
ATOM      4  C   UNL A   1      33.061  28.875  24.848  1.00  0.00     0.251 C 
ATOM      5  O   UNL A   1      34.015  28.622  24.103  1.00  0.00    -0.269 OA
ATOM      6  H   UNL A   1      34.250  30.151  25.759  1.00  0.00     0.163 HD
BRANCH   4   7
ATOM      7  C   UNL A   1      31.749  28.199  24.551  1.00  0.00     0.046 A 
ATOM      8  C   UNL A   1      32.043  25.924  25.745  1.00  0.00     0.045 C 
ATOM      9  C   UNL A   1      31.283  26.931  24.950  1.00  0.00    -0.038 A 
ATOM     10  C   UNL A   1      30.013  26.492  24.515  1.00  0.00     0.008 A 
ATOM     11  C   UNL A   1      29.267  27.220  23.600  1.00  0.00     0.047 A 
ATOM     12  C   UNL A   1      30.960  28.918  23.609  1.00  0.00     0.061 A 
ATOM     13  C   UNL A   1      29.760  28.415  23.100  1.00  0.00     0.130 A 
BRANCH  13  14
ATOM     14  O   UNL A   1      28.985  28.984  22.132  1.00  0.00    -0.406 OA
BRANCH  14  15
ATOM     15  C   UNL A   1      27.898  29.788  22.561  1.00  0.00     0.573 C 
ATOM     16  F   UNL A   1      27.531  30.644  21.584  1.00  0.00    -0.132 F 
ATOM     17  F   UNL A   1      26.839  29.042  22.937  1.00  0.00    -0.132 F 
ATOM     18  F   UNL A   1      28.297  30.514  23.629  1.00  0.00    -0.132 F 
ENDBRANCH  14  15
ENDBRANCH  13  14
ENDBRANCH   4   7
ENDBRANCH   2   3
ENDBRANCH   1   2
BRANCH   1  19
ATOM     19  C   UNL A   1      34.886  31.278  27.705  1.00  0.00     0.118 C 
BRANCH  19  20
ATOM     20  N   UNL A   1      35.427  31.779  28.971  1.00  0.00    -0.352 N 
ATOM     21  C   UNL A   1      36.398  31.208  29.782  1.00  0.00     0.251 C 
ATOM     22  H   UNL A   1      35.054  32.633  29.288  1.00  0.00     0.163 HD
ATOM     23  O   UNL A   1      36.816  31.766  30.776  1.00  0.00    -0.269 OA
BRANCH  21  24
ATOM     24  C   UNL A   1      36.993  29.940  29.310  1.00  0.00     0.039 A 
ATOM     25  C   UNL A   1      37.357  29.015  30.289  1.00  0.00     0.014 A 
ATOM     26  C   UNL A   1      37.524  29.888  28.025  1.00  0.00     0.014 A 
ATOM     27  C   UNL A   1      38.467  28.208  30.064  1.00  0.00     0.010 A 
ATOM     28  C   UNL A   1      38.681  29.155  27.836  1.00  0.00     0.010 A 
ATOM     29  C   UNL A   1      39.194  28.380  28.885  1.00  0.00    -0.014 A 
BRANCH  29  30
ATOM     30  C   UNL A   1      40.543  27.852  28.717  1.00  0.00     0.031 A 
ATOM     31  C   UNL A   1      40.736  26.427  28.387  1.00  0.00     0.074 A 
ATOM     32  C   UNL A   1      41.631  28.643  28.862  1.00  0.00     0.049 A 
ATOM     33  N   UNL A   1      41.778  25.744  28.724  1.00  0.00    -0.248 NA
ATOM     34  C   UNL A   1      39.731  25.645  27.682  1.00  0.00     0.031 C 
ATOM     35  C   UNL A   1      43.015  28.296  28.542  1.00  0.00     0.029 A 
ATOM     36  N   UNL A   1      41.730  29.872  29.535  1.00  0.00    -0.354 N 
ATOM     37  C   UNL A   1      41.713  24.535  28.075  1.00  0.00     0.074 A 
ATOM     38  C   UNL A   1      40.392  24.501  27.486  1.00  0.00     0.031 C 
ATOM     39  C   UNL A   1      43.834  29.068  29.271  1.00  0.00     0.029 A 
ATOM     40  C   UNL A   1      43.008  29.867  30.155  1.00  0.00     0.049 A 
ATOM     41  H   UNL A   1      41.054  30.587  29.569  1.00  0.00     0.167 HD
ATOM     42  C   UNL A   1      42.825  23.747  28.010  1.00  0.00     0.037 A 
ATOM     43  C   UNL A   1      43.140  29.957  31.509  1.00  0.00     0.037 A 
ATOM     44  C   UNL A   1      43.955  24.334  28.731  1.00  0.00     0.049 A 
ATOM     45  C   UNL A   1      43.783  28.753  32.160  1.00  0.00     0.074 A 
ATOM     46  C   UNL A   1      45.077  25.052  28.351  1.00  0.00     0.029 A 
ATOM     47  N   UNL A   1      43.875  24.462  30.107  1.00  0.00    -0.354 N 
ATOM     48  N   UNL A   1      44.222  27.708  31.515  1.00  0.00    -0.248 NA
ATOM     49  C   UNL A   1      43.861  28.585  33.612  1.00  0.00     0.031 C 
ATOM     50  C   UNL A   1      45.683  25.593  29.520  1.00  0.00     0.029 A 
ATOM     51  C   UNL A   1      44.927  25.207  30.611  1.00  0.00     0.049 A 
ATOM     52  H   UNL A   1      43.159  24.074  30.659  1.00  0.00     0.167 HD
ATOM     53  C   UNL A   1      44.559  26.731  32.415  1.00  0.00     0.074 A 
ATOM     54  C   UNL A   1      44.313  27.325  33.715  1.00  0.00     0.031 C 
ATOM     55  C   UNL A   1      44.969  25.485  32.037  1.00  0.00     0.037 A 
BRANCH  42  56
ATOM     56  C   UNL A   1      42.951  22.565  27.076  1.00  0.00     0.064 A 
ATOM     57  C   UNL A   1      42.204  21.387  27.293  1.00  0.00     0.173 A 
ATOM     58  C   UNL A   1      43.829  22.510  25.979  1.00  0.00     0.173 A 
ATOM     59  F   UNL A   1      41.234  21.331  28.212  1.00  0.00    -0.203 F 
ATOM     60  C   UNL A   1      42.428  20.214  26.566  1.00  0.00     0.198 A 
ATOM     61  C   UNL A   1      44.103  21.321  25.296  1.00  0.00     0.198 A 
ATOM     62  F   UNL A   1      44.405  23.619  25.494  1.00  0.00    -0.203 F 
ATOM     63  F   UNL A   1      41.692  19.124  26.823  1.00  0.00    -0.200 F 
ATOM     64  C   UNL A   1      43.412  20.167  25.601  1.00  0.00     0.200 A 
ATOM     65  F   UNL A   1      45.042  21.304  24.338  1.00  0.00    -0.200 F 
ATOM     66  F   UNL A   1      43.670  19.027  24.948  1.00  0.00    -0.200 F 
ENDBRANCH  42  56
BRANCH  43  67
ATOM     67  C   UNL A   1      42.078  30.801  32.114  1.00  0.00     0.064 A 
ATOM     68  C   UNL A   1      40.985  30.141  32.711  1.00  0.00     0.173 A 
ATOM     69  C   UNL A   1      42.335  32.120  32.501  1.00  0.00     0.173 A 
ATOM     70  F   UNL A   1      40.688  28.881  32.357  1.00  0.00    -0.203 F 
ATOM     71  C   UNL A   1      40.306  30.709  33.783  1.00  0.00     0.198 A 
ATOM     72  C   UNL A   1      41.623  32.699  33.549  1.00  0.00     0.198 A 
ATOM     73  F   UNL A   1      43.359  32.800  31.966  1.00  0.00    -0.203 F 
ATOM     74  F   UNL A   1      39.392  29.990  34.451  1.00  0.00    -0.200 F 
ATOM     75  C   UNL A   1      40.652  31.973  34.225  1.00  0.00     0.200 A 
ATOM     76  F   UNL A   1      41.952  33.928  33.973  1.00  0.00    -0.200 F 
ATOM     77  F   UNL A   1      40.089  32.471  35.335  1.00  0.00    -0.200 F 
ENDBRANCH  43  67
BRANCH  55  78
ATOM     78  C   UNL A   1      45.410  24.422  33.009  1.00  0.00     0.064 A 
ATOM     79  C   UNL A   1      44.573  23.361  33.397  1.00  0.00     0.173 A 
ATOM     80  C   UNL A   1      46.658  24.487  33.665  1.00  0.00     0.173 A 
ATOM     81  F   UNL A   1      43.321  23.265  32.929  1.00  0.00    -0.203 F 
ATOM     82  C   UNL A   1      44.994  22.381  34.298  1.00  0.00     0.198 A 
ATOM     83  C   UNL A   1      47.054  23.538  34.607  1.00  0.00     0.198 A 
ATOM     84  F   UNL A   1      47.543  25.458  33.399  1.00  0.00    -0.203 F 
ATOM     85  F   UNL A   1      44.189  21.347  34.578  1.00  0.00    -0.200 F 
ATOM     86  C   UNL A   1      46.232  22.472  34.905  1.00  0.00     0.200 A 
ATOM     87  F   UNL A   1      48.242  23.662  35.215  1.00  0.00    -0.200 F 
ATOM     88  F   UNL A   1      46.630  21.536  35.778  1.00  0.00    -0.200 F 
ENDBRANCH  55  78
ENDBRANCH  29  30
ENDBRANCH  21  24
ENDBRANCH  19  20
ENDBRANCH   1  19
TORSDOF 12
ENDMDL
MODEL 3
REMARK VINA RESULT:     -13.5      1.840      2.239
REMARK SMILES Cc1ccc(OC(F)(F)F)cc1C(=O)NCCCNC(=O)c1ccc(-c2c3nc(c(-c4c(F)c(F)c(F)c(F)c4F)c4ccc([nH]4)c(-c4c(F)c(F)c(F)c(F)c4F)c4nc(c(-c5c(F)c(F)c(F)c(F)c5F)c5ccc2[nH]5)C=C4)C=C3)cc1
REMARK SMILES IDX 17 1 16 2 15 3 13 4 14 5 12 7 1 8 2 9 3 10 4 11 11 12 5 13
REMARK SMILES IDX 6 14 7 15 8 16 9 17 10 18 18 19 19 20 20 21 21 23 22 24
REMARK SMILES IDX 23 25 84 26 24 27 83 28 25 29 26 30 27 31 77 32 28 33 82 34
REMARK SMILES IDX 76 35 78 36 29 37 81 38 75 39 74 40 30 42 62 43 42 44 61 45
REMARK SMILES IDX 43 46 46 47 60 48 79 49 44 50 45 51 59 53 80 54 47 55 31 56
REMARK SMILES IDX 32 57 40 58 33 59 34 60 38 61 41 62 35 63 36 64 39 65 37 66
REMARK SMILES IDX 63 67 64 68 72 69 65 70 66 71 70 72 73 73 67 74 68 75 71 76
REMARK SMILES IDX 69 77 48 78 49 79 57 80 50 81 51 82 55 83 58 84 52 85 53 86
REMARK SMILES IDX 56 87 54 88
REMARK H PARENT 15 6 19 22 78 41 46 52
REMARK Flexibility Score: inf
ROOT
ATOM      1  C   UNL A   1      38.733  21.493  25.739  1.00  0.00     0.042 C 
ENDROOT
BRANCH   1   2
ATOM      2  C   UNL A   1      37.310  21.375  25.184  1.00  0.00     0.118 C 
BRANCH   2   3
ATOM      3  N   UNL A   1      36.355  21.999  26.082  1.00  0.00    -0.352 N 
ATOM      4  C   UNL A   1      35.037  22.364  26.005  1.00  0.00     0.251 C 
ATOM      5  O   UNL A   1      34.595  22.907  27.024  1.00  0.00    -0.269 OA
ATOM      6  H   UNL A   1      36.752  22.212  26.959  1.00  0.00     0.163 HD
BRANCH   4   7
ATOM      7  C   UNL A   1      34.073  22.117  24.875  1.00  0.00     0.046 A 
ATOM      8  C   UNL A   1      33.213  19.740  25.426  1.00  0.00     0.045 C 
ATOM      9  C   UNL A   1      33.258  20.996  24.621  1.00  0.00    -0.038 A 
ATOM     10  C   UNL A   1      32.447  20.976  23.465  1.00  0.00     0.008 A 
ATOM     11  C   UNL A   1      32.529  21.974  22.504  1.00  0.00     0.047 A 
ATOM     12  C   UNL A   1      34.135  23.120  23.869  1.00  0.00     0.061 A 
ATOM     13  C   UNL A   1      33.413  23.028  22.675  1.00  0.00     0.130 A 
BRANCH  13  14
ATOM     14  O   UNL A   1      33.477  23.887  21.618  1.00  0.00    -0.406 OA
BRANCH  14  15
ATOM     15  C   UNL A   1      32.897  25.171  21.788  1.00  0.00     0.573 C 
ATOM     16  F   UNL A   1      32.591  25.712  20.591  1.00  0.00    -0.132 F 
ATOM     17  F   UNL A   1      31.795  25.125  22.565  1.00  0.00    -0.132 F 
ATOM     18  F   UNL A   1      33.802  25.972  22.395  1.00  0.00    -0.132 F 
ENDBRANCH  14  15
ENDBRANCH  13  14
ENDBRANCH   4   7
ENDBRANCH   2   3
ENDBRANCH   1   2
BRANCH   1  19
ATOM     19  C   UNL A   1      39.093  22.829  26.368  1.00  0.00     0.118 C 
BRANCH  19  20
ATOM     20  N   UNL A   1      40.532  23.105  26.324  1.00  0.00    -0.352 N 
ATOM     21  C   UNL A   1      41.182  24.324  26.460  1.00  0.00     0.251 C 
ATOM     22  H   UNL A   1      41.113  22.324  26.179  1.00  0.00     0.163 HD
ATOM     23  O   UNL A   1      42.392  24.409  26.479  1.00  0.00    -0.269 OA
BRANCH  21  24
ATOM     24  C   UNL A   1      40.329  25.505  26.708  1.00  0.00     0.039 A 
ATOM     25  C   UNL A   1      40.777  26.722  26.193  1.00  0.00     0.014 A 
ATOM     26  C   UNL A   1      39.390  25.450  27.734  1.00  0.00     0.014 A 
ATOM     27  C   UNL A   1      40.498  27.888  26.898  1.00  0.00     0.010 A 
ATOM     28  C   UNL A   1      39.191  26.593  28.485  1.00  0.00     0.010 A 
ATOM     29  C   UNL A   1      39.812  27.791  28.110  1.00  0.00    -0.014 A 
BRANCH  29  30
ATOM     30  C   UNL A   1      39.784  28.881  29.079  1.00  0.00     0.031 A 
ATOM     31  C   UNL A   1      38.749  29.927  28.974  1.00  0.00     0.074 A 
ATOM     32  C   UNL A   1      40.694  28.959  30.077  1.00  0.00     0.049 A 
ATOM     33  N   UNL A   1      38.911  31.143  29.376  1.00  0.00    -0.248 NA
ATOM     34  C   UNL A   1      37.453  29.686  28.357  1.00  0.00     0.031 C 
ATOM     35  C   UNL A   1      40.671  29.879  31.213  1.00  0.00     0.029 A 
ATOM     36  N   UNL A   1      41.956  28.347  30.153  1.00  0.00    -0.354 N 
ATOM     37  C   UNL A   1      37.688  31.768  29.318  1.00  0.00     0.074 A 
ATOM     38  C   UNL A   1      36.827  30.836  28.623  1.00  0.00     0.031 C 
ATOM     39  C   UNL A   1      41.922  30.031  31.671  1.00  0.00     0.029 A 
ATOM     40  C   UNL A   1      42.803  29.296  30.786  1.00  0.00     0.049 A 
ATOM     41  H   UNL A   1      42.202  27.448  29.834  1.00  0.00     0.167 HD
ATOM     42  C   UNL A   1      37.509  32.955  29.967  1.00  0.00     0.037 A 
ATOM     43  C   UNL A   1      43.904  29.796  30.155  1.00  0.00     0.037 A 
ATOM     44  C   UNL A   1      38.739  33.417  30.611  1.00  0.00     0.049 A 
ATOM     45  C   UNL A   1      43.867  31.288  29.913  1.00  0.00     0.074 A 
ATOM     46  C   UNL A   1      39.226  33.377  31.908  1.00  0.00     0.029 A 
ATOM     47  N   UNL A   1      39.814  33.778  29.818  1.00  0.00    -0.354 N 
ATOM     48  N   UNL A   1      42.899  32.076  30.292  1.00  0.00    -0.248 NA
ATOM     49  C   UNL A   1      44.870  31.985  29.107  1.00  0.00     0.031 C 
ATOM     50  C   UNL A   1      40.602  33.742  31.884  1.00  0.00     0.029 A 
ATOM     51  C   UNL A   1      40.953  34.000  30.572  1.00  0.00     0.049 A 
ATOM     52  H   UNL A   1      39.775  33.864  28.839  1.00  0.00     0.167 HD
ATOM     53  C   UNL A   1      43.089  33.318  29.746  1.00  0.00     0.074 A 
ATOM     54  C   UNL A   1      44.334  33.211  29.010  1.00  0.00     0.031 C 
ATOM     55  C   UNL A   1      42.191  34.336  29.890  1.00  0.00     0.037 A 
BRANCH  42  56
ATOM     56  C   UNL A   1      36.150  33.563  30.224  1.00  0.00     0.064 A 
ATOM     57  C   UNL A   1      35.383  34.098  29.168  1.00  0.00     0.173 A 
ATOM     58  C   UNL A   1      35.568  33.696  31.498  1.00  0.00     0.173 A 
ATOM     59  F   UNL A   1      35.739  33.932  27.888  1.00  0.00    -0.203 F 
ATOM     60  C   UNL A   1      34.213  34.831  29.387  1.00  0.00     0.198 A 
ATOM     61  C   UNL A   1      34.436  34.484  31.727  1.00  0.00     0.198 A 
ATOM     62  F   UNL A   1      36.042  33.018  32.553  1.00  0.00    -0.203 F 
ATOM     63  F   UNL A   1      33.532  35.322  28.343  1.00  0.00    -0.200 F 
ATOM     64  C   UNL A   1      33.766  35.066  30.671  1.00  0.00     0.200 A 
ATOM     65  F   UNL A   1      33.998  34.674  32.980  1.00  0.00    -0.200 F 
ATOM     66  F   UNL A   1      32.681  35.819  30.885  1.00  0.00    -0.200 F 
ENDBRANCH  42  56
BRANCH  43  67
ATOM     67  C   UNL A   1      44.533  28.792  29.258  1.00  0.00     0.064 A 
ATOM     68  C   UNL A   1      45.264  27.749  29.862  1.00  0.00     0.173 A 
ATOM     69  C   UNL A   1      44.067  28.595  27.955  1.00  0.00     0.173 A 
ATOM     70  F   UNL A   1      45.748  27.901  31.104  1.00  0.00    -0.203 F 
ATOM     71  C   UNL A   1      45.353  26.498  29.261  1.00  0.00     0.198 A 
ATOM     72  C   UNL A   1      44.196  27.350  27.341  1.00  0.00     0.198 A 
ATOM     73  F   UNL A   1      43.369  29.552  27.328  1.00  0.00    -0.203 F 
ATOM     74  F   UNL A   1      45.894  25.472  29.933  1.00  0.00    -0.200 F 
ATOM     75  C   UNL A   1      44.784  26.290  28.017  1.00  0.00     0.200 A 
ATOM     76  F   UNL A   1      43.653  27.150  26.132  1.00  0.00    -0.200 F 
ATOM     77  F   UNL A   1      44.757  25.058  27.493  1.00  0.00    -0.200 F 
ENDBRANCH  43  67
BRANCH  55  78
ATOM     78  C   UNL A   1      42.415  35.727  29.357  1.00  0.00     0.064 A 
ATOM     79  C   UNL A   1      41.889  36.157  28.126  1.00  0.00     0.173 A 
ATOM     80  C   UNL A   1      43.254  36.650  30.018  1.00  0.00     0.173 A 
ATOM     81  F   UNL A   1      41.175  35.325  27.354  1.00  0.00    -0.203 F 
ATOM     82  C   UNL A   1      42.102  37.449  27.642  1.00  0.00     0.198 A 
ATOM     83  C   UNL A   1      43.512  37.921  29.505  1.00  0.00     0.198 A 
ATOM     84  F   UNL A   1      43.833  36.360  31.191  1.00  0.00    -0.203 F 
ATOM     85  F   UNL A   1      41.516  37.837  26.501  1.00  0.00    -0.200 F 
ATOM     86  C   UNL A   1      42.917  38.329  28.330  1.00  0.00     0.200 A 
ATOM     87  F   UNL A   1      44.334  38.749  30.165  1.00  0.00    -0.200 F 
ATOM     88  F   UNL A   1      43.130  39.566  27.860  1.00  0.00    -0.200 F 
ENDBRANCH  55  78
ENDBRANCH  29  30
ENDBRANCH  21  24
ENDBRANCH  19  20
ENDBRANCH   1  19
TORSDOF 12
ENDMDL
