MODEL 1
REMARK VINA RESULT:     -11.8      0.000      0.000
REMARK SMILES CCS(=O)(=O)N1CCC[C@@H](C(=O)NCCCNC(=O)c2ccc(-c3c4nc(c(-c5c(F)c(F)c(F)c(F)c5F)c5ccc([nH]5)c(-c5c(F)c(F)c(F)c(F)c5F)c5nc(c(-c6c(F)c(F)c(F)c(F)c6F)c6ccc3[nH]6)C=C5)C=C4)cc2)C1
REMARK SMILES IDX 15 1 14 2 13 3 11 4 12 5 10 7 6 8 7 9 83 10 8 11 9 12 3 13
REMARK SMILES IDX 4 14 5 15 2 16 1 17 16 18 17 19 18 20 19 22 20 23 21 24
REMARK SMILES IDX 82 25 22 26 81 27 23 28 24 29 25 30 75 31 26 32 80 33 74 34
REMARK SMILES IDX 76 35 27 36 79 37 73 38 72 39 28 41 60 42 40 43 59 44 41 45
REMARK SMILES IDX 44 46 58 47 77 48 42 49 43 50 57 52 78 53 45 54 29 55 30 56
REMARK SMILES IDX 38 57 31 58 32 59 36 60 39 61 33 62 34 63 37 64 35 65 61 66
REMARK SMILES IDX 62 67 70 68 63 69 64 70 68 71 71 72 65 73 66 74 69 75 67 76
REMARK SMILES IDX 46 77 47 78 55 79 48 80 49 81 53 82 56 83 50 84 51 85 54 86
REMARK SMILES IDX 52 87
REMARK H PARENT 13 6 17 21 76 40 44 51
REMARK Flexibility Score: inf
ROOT
ATOM      1  C   UNL A   1      38.398  20.187  25.002  1.00  0.00     0.042 C 
ENDROOT
BRANCH   1   2
ATOM      2  C   UNL A   1      37.693  21.523  24.825  1.00  0.00     0.117 C 
BRANCH   2   3
ATOM      3  N   UNL A   1      36.685  21.757  25.849  1.00  0.00    -0.356 N 
ATOM      4  C   UNL A   1      35.357  21.458  25.891  1.00  0.00     0.224 C 
ATOM      5  O   UNL A   1      34.730  21.789  26.900  1.00  0.00    -0.275 OA
ATOM      6  H   UNL A   1      37.023  22.214  26.654  1.00  0.00     0.163 HD
BRANCH   4   7
ATOM      7  C   UNL A   1      34.654  20.748  24.744  1.00  0.00     0.093 C 
ATOM      8  N   UNL A   1      33.890  18.463  23.997  1.00  0.00    -0.201 NA
ATOM      9  C   UNL A   1      32.484  18.938  24.026  1.00  0.00     0.102 C 
ATOM     10  C   UNL A   1      34.798  19.233  24.902  1.00  0.00     0.115 C 
ATOM     11  C   UNL A   1      32.434  20.397  23.595  1.00  0.00     0.018 C 
ATOM     12  C   UNL A   1      33.230  21.276  24.545  1.00  0.00     0.016 C 
BRANCH   8  13
ATOM     13  S   UNL A   1      34.055  16.757  24.133  1.00  0.00     0.213 S 
ATOM     14  O   UNL A   1      35.150  16.466  25.031  1.00  0.00    -0.212 OA
ATOM     15  O   UNL A   1      34.028  16.203  22.794  1.00  0.00    -0.212 OA
BRANCH  13  16
ATOM     16  C   UNL A   1      32.530  16.317  24.961  1.00  0.00     0.151 C 
ATOM     17  C   UNL A   1      32.645  15.023  25.742  1.00  0.00     0.022 C 
ENDBRANCH  13  16
ENDBRANCH   8  13
ENDBRANCH   4   7
ENDBRANCH   2   3
ENDBRANCH   1   2
BRANCH   1  18
ATOM     18  C   UNL A   1      39.293  20.119  26.232  1.00  0.00     0.118 C 
BRANCH  18  19
ATOM     19  N   UNL A   1      40.363  19.137  26.098  1.00  0.00    -0.352 N 
ATOM     20  C   UNL A   1      41.724  19.313  26.050  1.00  0.00     0.251 C 
ATOM     21  H   UNL A   1      40.063  18.203  26.033  1.00  0.00     0.163 HD
ATOM     22  O   UNL A   1      42.451  18.370  25.752  1.00  0.00    -0.269 OA
BRANCH  20  23
ATOM     23  C   UNL A   1      42.318  20.637  26.335  1.00  0.00     0.039 A 
ATOM     24  C   UNL A   1      42.657  21.470  25.266  1.00  0.00     0.014 A 
ATOM     25  C   UNL A   1      42.546  21.057  27.647  1.00  0.00     0.014 A 
ATOM     26  C   UNL A   1      43.156  22.749  25.515  1.00  0.00     0.010 A 
ATOM     27  C   UNL A   1      42.951  22.364  27.895  1.00  0.00     0.010 A 
ATOM     28  C   UNL A   1      43.266  23.224  26.833  1.00  0.00    -0.014 A 
BRANCH  28  29
ATOM     29  C   UNL A   1      43.704  24.613  27.119  1.00  0.00     0.031 A 
ATOM     30  C   UNL A   1      42.721  25.628  27.631  1.00  0.00     0.074 A 
ATOM     31  C   UNL A   1      44.973  24.979  26.848  1.00  0.00     0.049 A 
ATOM     32  N   UNL A   1      42.896  26.904  27.873  1.00  0.00    -0.248 NA
ATOM     33  C   UNL A   1      41.349  25.156  27.871  1.00  0.00     0.031 C 
ATOM     34  C   UNL A   1      46.006  24.102  26.299  1.00  0.00     0.029 A 
ATOM     35  N   UNL A   1      45.604  26.190  26.988  1.00  0.00    -0.354 N 
ATOM     36  C   UNL A   1      41.658  27.384  28.277  1.00  0.00     0.074 A 
ATOM     37  C   UNL A   1      40.726  26.281  28.186  1.00  0.00     0.031 C 
ATOM     38  C   UNL A   1      47.148  24.794  26.171  1.00  0.00     0.029 A 
ATOM     39  C   UNL A   1      46.917  26.174  26.586  1.00  0.00     0.049 A 
ATOM     40  H   UNL A   1      45.158  26.993  27.343  1.00  0.00     0.167 HD
ATOM     41  C   UNL A   1      41.332  28.626  28.708  1.00  0.00     0.037 A 
ATOM     42  C   UNL A   1      47.830  27.164  26.544  1.00  0.00     0.037 A 
ATOM     43  C   UNL A   1      42.268  29.716  28.810  1.00  0.00     0.049 A 
ATOM     44  C   UNL A   1      47.443  28.539  27.016  1.00  0.00     0.074 A 
ATOM     45  C   UNL A   1      42.054  30.995  29.295  1.00  0.00     0.029 A 
ATOM     46  N   UNL A   1      43.594  29.659  28.405  1.00  0.00    -0.354 N 
ATOM     47  N   UNL A   1      46.290  28.964  27.471  1.00  0.00    -0.248 NA
ATOM     48  C   UNL A   1      48.488  29.571  26.973  1.00  0.00     0.031 C 
ATOM     49  C   UNL A   1      43.232  31.729  29.125  1.00  0.00     0.029 A 
ATOM     50  C   UNL A   1      44.203  30.890  28.599  1.00  0.00     0.049 A 
ATOM     51  H   UNL A   1      44.038  28.862  28.035  1.00  0.00     0.167 HD
ATOM     52  C   UNL A   1      46.475  30.301  27.796  1.00  0.00     0.074 A 
ATOM     53  C   UNL A   1      47.858  30.612  27.498  1.00  0.00     0.031 C 
ATOM     54  C   UNL A   1      45.580  31.188  28.297  1.00  0.00     0.037 A 
BRANCH  41  55
ATOM     55  C   UNL A   1      39.899  28.873  29.092  1.00  0.00     0.064 A 
ATOM     56  C   UNL A   1      39.439  28.686  30.404  1.00  0.00     0.173 A 
ATOM     57  C   UNL A   1      38.972  29.314  28.134  1.00  0.00     0.173 A 
ATOM     58  F   UNL A   1      40.279  28.256  31.359  1.00  0.00    -0.203 F 
ATOM     59  C   UNL A   1      38.102  28.888  30.735  1.00  0.00     0.198 A 
ATOM     60  C   UNL A   1      37.644  29.553  28.475  1.00  0.00     0.198 A 
ATOM     61  F   UNL A   1      39.356  29.518  26.863  1.00  0.00    -0.203 F 
ATOM     62  F   UNL A   1      37.675  28.637  31.980  1.00  0.00    -0.200 F 
ATOM     63  C   UNL A   1      37.207  29.327  29.771  1.00  0.00     0.200 A 
ATOM     64  F   UNL A   1      36.784  29.994  27.546  1.00  0.00    -0.200 F 
ATOM     65  F   UNL A   1      35.919  29.524  30.090  1.00  0.00    -0.200 F 
ENDBRANCH  41  55
BRANCH  42  66
ATOM     66  C   UNL A   1      49.205  26.876  26.058  1.00  0.00     0.064 A 
ATOM     67  C   UNL A   1      49.547  27.067  24.712  1.00  0.00     0.173 A 
ATOM     68  C   UNL A   1      50.208  26.427  26.929  1.00  0.00     0.173 A 
ATOM     69  F   UNL A   1      48.618  27.477  23.836  1.00  0.00    -0.203 F 
ATOM     70  C   UNL A   1      50.836  26.803  24.253  1.00  0.00     0.198 A 
ATOM     71  C   UNL A   1      51.504  26.194  26.475  1.00  0.00     0.198 A 
ATOM     72  F   UNL A   1      49.934  26.235  28.227  1.00  0.00    -0.203 F 
ATOM     73  F   UNL A   1      51.125  26.954  22.953  1.00  0.00    -0.200 F 
ATOM     74  C   UNL A   1      51.816  26.376  25.136  1.00  0.00     0.200 A 
ATOM     75  F   UNL A   1      52.452  25.796  27.335  1.00  0.00    -0.200 F 
ATOM     76  F   UNL A   1      53.058  26.133  24.695  1.00  0.00    -0.200 F 
ENDBRANCH  42  66
BRANCH  54  77
ATOM     77  C   UNL A   1      46.077  32.576  28.593  1.00  0.00     0.064 A 
ATOM     78  C   UNL A   1      45.984  33.612  27.652  1.00  0.00     0.173 A 
ATOM     79  C   UNL A   1      46.612  32.883  29.854  1.00  0.00     0.173 A 
ATOM     80  F   UNL A   1      45.492  33.370  26.427  1.00  0.00    -0.203 F 
ATOM     81  C   UNL A   1      46.436  34.895  27.952  1.00  0.00     0.198 A 
ATOM     82  C   UNL A   1      47.030  34.174  30.162  1.00  0.00     0.198 A 
ATOM     83  F   UNL A   1      46.717  31.931  30.794  1.00  0.00    -0.203 F 
ATOM     84  F   UNL A   1      46.386  35.856  27.019  1.00  0.00    -0.200 F 
ATOM     85  C   UNL A   1      46.950  35.177  29.209  1.00  0.00     0.200 A 
ATOM     86  F   UNL A   1      47.510  34.447  31.384  1.00  0.00    -0.200 F 
ATOM     87  F   UNL A   1      47.375  36.415  29.499  1.00  0.00    -0.200 F 
ENDBRANCH  54  77
ENDBRANCH  28  29
ENDBRANCH  20  23
ENDBRANCH  18  19
ENDBRANCH   1  18
TORSDOF 12
ENDMDL
MODEL 2
REMARK VINA RESULT:     -11.7      6.467     11.695
REMARK SMILES CCS(=O)(=O)N1CCC[C@@H](C(=O)NCCCNC(=O)c2ccc(-c3c4nc(c(-c5c(F)c(F)c(F)c(F)c5F)c5ccc([nH]5)c(-c5c(F)c(F)c(F)c(F)c5F)c5nc(c(-c6c(F)c(F)c(F)c(F)c6F)c6ccc3[nH]6)C=C5)C=C4)cc2)C1
REMARK SMILES IDX 15 1 14 2 13 3 11 4 12 5 10 7 6 8 7 9 83 10 8 11 9 12 3 13
REMARK SMILES IDX 4 14 5 15 2 16 1 17 16 18 17 19 18 20 19 22 20 23 21 24
REMARK SMILES IDX 82 25 22 26 81 27 23 28 24 29 25 30 75 31 26 32 80 33 74 34
REMARK SMILES IDX 76 35 27 36 79 37 73 38 72 39 28 41 60 42 40 43 59 44 41 45
REMARK SMILES IDX 44 46 58 47 77 48 42 49 43 50 57 52 78 53 45 54 29 55 30 56
REMARK SMILES IDX 38 57 31 58 32 59 36 60 39 61 33 62 34 63 37 64 35 65 61 66
REMARK SMILES IDX 62 67 70 68 63 69 64 70 68 71 71 72 65 73 66 74 69 75 67 76
REMARK SMILES IDX 46 77 47 78 55 79 48 80 49 81 53 82 56 83 50 84 51 85 54 86
REMARK SMILES IDX 52 87
REMARK H PARENT 13 6 17 21 76 40 44 51
REMARK Flexibility Score: inf
ROOT
ATOM      1  C   UNL A   1      31.442  32.145  26.657  1.00  0.00     0.042 C 
ENDROOT
BRANCH   1   2
ATOM      2  C   UNL A   1      31.600  30.645  26.462  1.00  0.00     0.117 C 
BRANCH   2   3
ATOM      3  N   UNL A   1      31.379  30.240  25.081  1.00  0.00    -0.356 N 
ATOM      4  C   UNL A   1      31.706  29.098  24.414  1.00  0.00     0.224 C 
ATOM      5  O   UNL A   1      31.399  29.028  23.222  1.00  0.00    -0.275 OA
ATOM      6  H   UNL A   1      30.910  30.910  24.532  1.00  0.00     0.163 HD
BRANCH   4   7
ATOM      7  C   UNL A   1      32.428  27.945  25.095  1.00  0.00     0.093 C 
ATOM      8  N   UNL A   1      32.064  25.590  25.923  1.00  0.00    -0.201 NA
ATOM      9  C   UNL A   1      33.068  25.105  24.943  1.00  0.00     0.102 C 
ATOM     10  C   UNL A   1      31.418  26.879  25.525  1.00  0.00     0.115 C 
ATOM     11  C   UNL A   1      34.170  26.144  24.790  1.00  0.00     0.018 C 
ATOM     12  C   UNL A   1      33.615  27.456  24.261  1.00  0.00     0.016 C 
BRANCH   8  13
ATOM     13  S   UNL A   1      30.952  24.385  26.441  1.00  0.00     0.213 S 
ATOM     14  O   UNL A   1      29.643  24.984  26.566  1.00  0.00    -0.212 OA
ATOM     15  O   UNL A   1      31.555  23.680  27.555  1.00  0.00    -0.212 OA
BRANCH  13  16
ATOM     16  C   UNL A   1      30.926  23.292  25.024  1.00  0.00     0.151 C 
ATOM     17  C   UNL A   1      31.558  21.946  25.316  1.00  0.00     0.022 C 
ENDBRANCH  13  16
ENDBRANCH   8  13
ENDBRANCH   4   7
ENDBRANCH   2   3
ENDBRANCH   1   2
BRANCH   1  18
ATOM     18  C   UNL A   1      32.674  32.826  27.238  1.00  0.00     0.118 C 
BRANCH  18  19
ATOM     19  N   UNL A   1      32.425  34.209  27.625  1.00  0.00    -0.352 N 
ATOM     20  C   UNL A   1      32.997  34.966  28.618  1.00  0.00     0.251 C 
ATOM     21  H   UNL A   1      31.741  34.673  27.092  1.00  0.00     0.163 HD
ATOM     22  O   UNL A   1      32.519  36.061  28.902  1.00  0.00    -0.269 OA
BRANCH  20  23
ATOM     23  C   UNL A   1      34.171  34.461  29.361  1.00  0.00     0.039 A 
ATOM     24  C   UNL A   1      33.976  33.873  30.614  1.00  0.00     0.014 A 
ATOM     25  C   UNL A   1      35.459  34.570  28.834  1.00  0.00     0.014 A 
ATOM     26  C   UNL A   1      35.063  33.331  31.301  1.00  0.00     0.010 A 
ATOM     27  C   UNL A   1      36.524  33.945  29.473  1.00  0.00     0.010 A 
ATOM     28  C   UNL A   1      36.340  33.323  30.717  1.00  0.00    -0.014 A 
BRANCH  28  29
ATOM     29  C   UNL A   1      37.492  32.668  31.386  1.00  0.00     0.031 A 
ATOM     30  C   UNL A   1      38.193  31.511  30.731  1.00  0.00     0.074 A 
ATOM     31  C   UNL A   1      37.860  33.069  32.620  1.00  0.00     0.049 A 
ATOM     32  N   UNL A   1      39.170  30.768  31.187  1.00  0.00    -0.248 NA
ATOM     33  C   UNL A   1      37.710  31.116  29.399  1.00  0.00     0.031 C 
ATOM     34  C   UNL A   1      37.224  34.142  33.384  1.00  0.00     0.029 A 
ATOM     35  N   UNL A   1      38.851  32.611  33.451  1.00  0.00    -0.354 N 
ATOM     36  C   UNL A   1      39.406  29.812  30.207  1.00  0.00     0.074 A 
ATOM     37  C   UNL A   1      38.428  30.029  29.162  1.00  0.00     0.031 C 
ATOM     38  C   UNL A   1      37.855  34.278  34.560  1.00  0.00     0.029 A 
ATOM     39  C   UNL A   1      38.909  33.272  34.653  1.00  0.00     0.049 A 
ATOM     40  H   UNL A   1      39.462  31.877  33.209  1.00  0.00     0.167 HD
ATOM     41  C   UNL A   1      40.364  28.856  30.171  1.00  0.00     0.037 A 
ATOM     42  C   UNL A   1      39.713  33.083  35.717  1.00  0.00     0.037 A 
ATOM     43  C   UNL A   1      41.342  28.655  31.209  1.00  0.00     0.049 A 
ATOM     44  C   UNL A   1      40.763  32.007  35.661  1.00  0.00     0.074 A 
ATOM     45  C   UNL A   1      42.396  27.758  31.240  1.00  0.00     0.029 A 
ATOM     46  N   UNL A   1      41.379  29.354  32.407  1.00  0.00    -0.354 N 
ATOM     47  N   UNL A   1      41.029  31.160  34.696  1.00  0.00    -0.248 NA
ATOM     48  C   UNL A   1      41.628  31.865  36.839  1.00  0.00     0.031 C 
ATOM     49  C   UNL A   1      43.029  27.870  32.481  1.00  0.00     0.029 A 
ATOM     50  C   UNL A   1      42.416  28.886  33.199  1.00  0.00     0.049 A 
ATOM     51  H   UNL A   1      40.758  30.077  32.658  1.00  0.00     0.167 HD
ATOM     52  C   UNL A   1      42.108  30.405  35.136  1.00  0.00     0.074 A 
ATOM     53  C   UNL A   1      42.456  30.906  36.450  1.00  0.00     0.031 C 
ATOM     54  C   UNL A   1      42.752  29.391  34.506  1.00  0.00     0.037 A 
BRANCH  41  55
ATOM     55  C   UNL A   1      40.392  27.948  28.973  1.00  0.00     0.064 A 
ATOM     56  C   UNL A   1      41.142  28.254  27.827  1.00  0.00     0.173 A 
ATOM     57  C   UNL A   1      39.667  26.746  28.975  1.00  0.00     0.173 A 
ATOM     58  F   UNL A   1      41.846  29.395  27.765  1.00  0.00    -0.203 F 
ATOM     59  C   UNL A   1      41.130  27.418  26.714  1.00  0.00     0.198 A 
ATOM     60  C   UNL A   1      39.689  25.891  27.876  1.00  0.00     0.198 A 
ATOM     61  F   UNL A   1      38.938  26.396  30.046  1.00  0.00    -0.203 F 
ATOM     62  F   UNL A   1      41.801  27.767  25.607  1.00  0.00    -0.200 F 
ATOM     63  C   UNL A   1      40.409  26.234  26.741  1.00  0.00     0.200 A 
ATOM     64  F   UNL A   1      39.004  24.740  27.910  1.00  0.00    -0.200 F 
ATOM     65  F   UNL A   1      40.399  25.428  25.671  1.00  0.00    -0.200 F 
ENDBRANCH  41  55
BRANCH  42  66
ATOM     66  C   UNL A   1      39.566  33.952  36.914  1.00  0.00     0.064 A 
ATOM     67  C   UNL A   1      40.181  35.210  36.969  1.00  0.00     0.173 A 
ATOM     68  C   UNL A   1      38.794  33.553  38.015  1.00  0.00     0.173 A 
ATOM     69  F   UNL A   1      40.945  35.628  35.950  1.00  0.00    -0.203 F 
ATOM     70  C   UNL A   1      40.042  36.030  38.088  1.00  0.00     0.198 A 
ATOM     71  C   UNL A   1      38.631  34.387  39.119  1.00  0.00     0.198 A 
ATOM     72  F   UNL A   1      38.181  32.360  38.009  1.00  0.00    -0.203 F 
ATOM     73  F   UNL A   1      40.673  37.211  38.133  1.00  0.00    -0.200 F 
ATOM     74  C   UNL A   1      39.260  35.622  39.158  1.00  0.00     0.200 A 
ATOM     75  F   UNL A   1      37.861  33.995  40.144  1.00  0.00    -0.200 F 
ATOM     76  F   UNL A   1      39.118  36.415  40.228  1.00  0.00    -0.200 F 
ENDBRANCH  42  66
BRANCH  54  77
ATOM     77  C   UNL A   1      43.927  28.775  35.214  1.00  0.00     0.064 A 
ATOM     78  C   UNL A   1      43.778  27.688  36.088  1.00  0.00     0.173 A 
ATOM     79  C   UNL A   1      45.225  29.253  34.978  1.00  0.00     0.173 A 
ATOM     80  F   UNL A   1      42.558  27.201  36.359  1.00  0.00    -0.203 F 
ATOM     81  C   UNL A   1      44.882  27.122  36.722  1.00  0.00     0.198 A 
ATOM     82  C   UNL A   1      46.330  28.662  35.586  1.00  0.00     0.198 A 
ATOM     83  F   UNL A   1      45.425  30.286  34.145  1.00  0.00    -0.203 F 
ATOM     84  F   UNL A   1      44.710  26.119  37.593  1.00  0.00    -0.200 F 
ATOM     85  C   UNL A   1      46.157  27.603  36.463  1.00  0.00     0.200 A 
ATOM     86  F   UNL A   1      47.562  29.118  35.320  1.00  0.00    -0.200 F 
ATOM     87  F   UNL A   1      47.219  27.051  37.066  1.00  0.00    -0.200 F 
ENDBRANCH  54  77
ENDBRANCH  28  29
ENDBRANCH  20  23
ENDBRANCH  18  19
ENDBRANCH   1  18
TORSDOF 12
ENDMDL
MODEL 3
REMARK VINA RESULT:     -11.7      6.508     11.704
REMARK SMILES CCS(=O)(=O)N1CCC[C@@H](C(=O)NCCCNC(=O)c2ccc(-c3c4nc(c(-c5c(F)c(F)c(F)c(F)c5F)c5ccc([nH]5)c(-c5c(F)c(F)c(F)c(F)c5F)c5nc(c(-c6c(F)c(F)c(F)c(F)c6F)c6ccc3[nH]6)C=C5)C=C4)cc2)C1
REMARK SMILES IDX 15 1 14 2 13 3 11 4 12 5 10 7 6 8 7 9 83 10 8 11 9 12 3 13
REMARK SMILES IDX 4 14 5 15 2 16 1 17 16 18 17 19 18 20 19 22 20 23 21 24
REMARK SMILES IDX 82 25 22 26 81 27 23 28 24 29 25 30 75 31 26 32 80 33 74 34
REMARK SMILES IDX 76 35 27 36 79 37 73 38 72 39 28 41 60 42 40 43 59 44 41 45
REMARK SMILES IDX 44 46 58 47 77 48 42 49 43 50 57 52 78 53 45 54 29 55 30 56
REMARK SMILES IDX 38 57 31 58 32 59 36 60 39 61 33 62 34 63 37 64 35 65 61 66
REMARK SMILES IDX 62 67 70 68 63 69 64 70 68 71 71 72 65 73 66 74 69 75 67 76
REMARK SMILES IDX 46 77 47 78 55 79 48 80 49 81 53 82 56 83 50 84 51 85 54 86
REMARK SMILES IDX 52 87
REMARK H PARENT 13 6 17 21 76 40 44 51
REMARK Flexibility Score: inf
ROOT
ATOM      1  C   UNL A   1      31.482  32.196  26.510  1.00  0.00     0.042 C 
ENDROOT
BRANCH   1   2
ATOM      2  C   UNL A   1      31.570  30.684  26.365  1.00  0.00     0.117 C 
BRANCH   2   3
ATOM      3  N   UNL A   1      31.182  30.230  25.038  1.00  0.00    -0.356 N 
ATOM      4  C   UNL A   1      31.431  29.067  24.374  1.00  0.00     0.224 C 
ATOM      5  O   UNL A   1      30.978  28.955  23.233  1.00  0.00    -0.275 OA
ATOM      6  H   UNL A   1      30.644  30.880  24.529  1.00  0.00     0.163 HD
BRANCH   4   7
ATOM      7  C   UNL A   1      32.240  27.941  24.998  1.00  0.00     0.093 C 
ATOM      8  N   UNL A   1      32.022  25.569  25.830  1.00  0.00    -0.201 NA
ATOM      9  C   UNL A   1      32.979  25.128  24.785  1.00  0.00     0.102 C 
ATOM     10  C   UNL A   1      31.302  26.833  25.485  1.00  0.00     0.115 C 
ATOM     11  C   UNL A   1      34.028  26.211  24.569  1.00  0.00     0.018 C 
ATOM     12  C   UNL A   1      33.389  27.503  24.086  1.00  0.00     0.016 C 
BRANCH   8  13
ATOM     13  S   UNL A   1      30.995  24.318  26.409  1.00  0.00     0.213 S 
ATOM     14  O   UNL A   1      29.650  24.837  26.522  1.00  0.00    -0.212 OA
ATOM     15  O   UNL A   1      31.649  23.701  27.546  1.00  0.00    -0.212 OA
BRANCH  13  16
ATOM     16  C   UNL A   1      31.029  23.167  25.040  1.00  0.00     0.151 C 
ATOM     17  C   UNL A   1      31.705  21.858  25.397  1.00  0.00     0.022 C 
ENDBRANCH  13  16
ENDBRANCH   8  13
ENDBRANCH   4   7
ENDBRANCH   2   3
ENDBRANCH   1   2
BRANCH   1  18
ATOM     18  C   UNL A   1      32.656  32.815  27.255  1.00  0.00     0.118 C 
BRANCH  18  19
ATOM     19  N   UNL A   1      32.420  34.205  27.626  1.00  0.00    -0.352 N 
ATOM     20  C   UNL A   1      32.995  34.967  28.613  1.00  0.00     0.251 C 
ATOM     21  H   UNL A   1      31.743  34.669  27.084  1.00  0.00     0.163 HD
ATOM     22  O   UNL A   1      32.528  36.070  28.882  1.00  0.00    -0.269 OA
BRANCH  20  23
ATOM     23  C   UNL A   1      34.160  34.459  29.367  1.00  0.00     0.039 A 
ATOM     24  C   UNL A   1      33.951  33.865  30.615  1.00  0.00     0.014 A 
ATOM     25  C   UNL A   1      35.455  34.569  28.856  1.00  0.00     0.014 A 
ATOM     26  C   UNL A   1      35.029  33.319  31.313  1.00  0.00     0.010 A 
ATOM     27  C   UNL A   1      36.512  33.940  29.504  1.00  0.00     0.010 A 
ATOM     28  C   UNL A   1      36.313  33.313  30.743  1.00  0.00    -0.014 A 
BRANCH  28  29
ATOM     29  C   UNL A   1      37.457  32.655  31.423  1.00  0.00     0.031 A 
ATOM     30  C   UNL A   1      38.154  31.490  30.778  1.00  0.00     0.074 A 
ATOM     31  C   UNL A   1      37.820  33.060  32.656  1.00  0.00     0.049 A 
ATOM     32  N   UNL A   1      39.124  30.742  31.244  1.00  0.00    -0.248 NA
ATOM     33  C   UNL A   1      37.677  31.090  29.446  1.00  0.00     0.031 C 
ATOM     34  C   UNL A   1      37.187  34.142  33.410  1.00  0.00     0.029 A 
ATOM     35  N   UNL A   1      38.803  32.601  33.496  1.00  0.00    -0.354 N 
ATOM     36  C   UNL A   1      39.359  29.780  30.271  1.00  0.00     0.074 A 
ATOM     37  C   UNL A   1      38.389  29.997  29.219  1.00  0.00     0.031 C 
ATOM     38  C   UNL A   1      37.811  34.280  34.589  1.00  0.00     0.029 A 
ATOM     39  C   UNL A   1      38.858  33.268  34.694  1.00  0.00     0.049 A 
ATOM     40  H   UNL A   1      39.411  31.861  33.261  1.00  0.00     0.167 HD
ATOM     41  C   UNL A   1      40.312  28.817  30.245  1.00  0.00     0.037 A 
ATOM     42  C   UNL A   1      39.656  33.080  35.764  1.00  0.00     0.037 A 
ATOM     43  C   UNL A   1      41.283  28.616  31.290  1.00  0.00     0.049 A 
ATOM     44  C   UNL A   1      40.699  31.997  35.720  1.00  0.00     0.074 A 
ATOM     45  C   UNL A   1      42.330  27.713  31.332  1.00  0.00     0.029 A 
ATOM     46  N   UNL A   1      41.316  29.322  32.485  1.00  0.00    -0.354 N 
ATOM     47  N   UNL A   1      40.965  31.143  34.762  1.00  0.00    -0.248 NA
ATOM     48  C   UNL A   1      41.557  31.857  36.904  1.00  0.00     0.031 C 
ATOM     49  C   UNL A   1      42.957  27.828  32.577  1.00  0.00     0.029 A 
ATOM     50  C   UNL A   1      42.346  28.851  33.285  1.00  0.00     0.049 A 
ATOM     51  H   UNL A   1      40.699  30.050  32.728  1.00  0.00     0.167 HD
ATOM     52  C   UNL A   1      42.037  30.383  35.212  1.00  0.00     0.074 A 
ATOM     53  C   UNL A   1      42.380  30.889  36.525  1.00  0.00     0.031 C 
ATOM     54  C   UNL A   1      42.678  29.362  34.592  1.00  0.00     0.037 A 
BRANCH  41  55
ATOM     55  C   UNL A   1      40.341  27.903  29.053  1.00  0.00     0.064 A 
ATOM     56  C   UNL A   1      39.625  26.696  29.026  1.00  0.00     0.173 A 
ATOM     57  C   UNL A   1      41.085  28.244  27.913  1.00  0.00     0.173 A 
ATOM     58  F   UNL A   1      38.903  26.315  30.091  1.00  0.00    -0.203 F 
ATOM     59  C   UNL A   1      39.688  25.845  27.925  1.00  0.00     0.198 A 
ATOM     60  C   UNL A   1      41.116  27.410  26.798  1.00  0.00     0.198 A 
ATOM     61  F   UNL A   1      41.784  29.390  27.878  1.00  0.00    -0.203 F 
ATOM     62  F   UNL A   1      39.050  24.667  27.952  1.00  0.00    -0.200 F 
ATOM     63  C   UNL A   1      40.429  26.206  26.810  1.00  0.00     0.200 A 
ATOM     64  F   UNL A   1      41.819  27.769  25.714  1.00  0.00    -0.200 F 
ATOM     65  F   UNL A   1      40.489  25.388  25.749  1.00  0.00    -0.200 F 
ENDBRANCH  41  55
BRANCH  42  66
ATOM     66  C   UNL A   1      39.507  33.956  36.955  1.00  0.00     0.064 A 
ATOM     67  C   UNL A   1      38.761  33.541  38.066  1.00  0.00     0.173 A 
ATOM     68  C   UNL A   1      40.124  35.215  37.017  1.00  0.00     0.173 A 
ATOM     69  F   UNL A   1      38.137  32.354  38.048  1.00  0.00    -0.203 F 
ATOM     70  C   UNL A   1      38.624  34.358  39.187  1.00  0.00     0.198 A 
ATOM     71  C   UNL A   1      40.012  36.017  38.150  1.00  0.00     0.198 A 
ATOM     72  F   UNL A   1      40.854  35.656  35.982  1.00  0.00    -0.203 F 
ATOM     73  F   UNL A   1      37.870  33.953  40.219  1.00  0.00    -0.200 F 
ATOM     74  C   UNL A   1      39.256  35.590  39.232  1.00  0.00     0.200 A 
ATOM     75  F   UNL A   1      40.638  37.200  38.196  1.00  0.00    -0.200 F 
ATOM     76  F   UNL A   1      39.132  36.370  40.315  1.00  0.00    -0.200 F 
ENDBRANCH  42  66
BRANCH  54  77
ATOM     77  C   UNL A   1      43.845  28.742  35.310  1.00  0.00     0.064 A 
ATOM     78  C   UNL A   1      45.156  29.206  35.128  1.00  0.00     0.173 A 
ATOM     79  C   UNL A   1      43.639  27.699  36.226  1.00  0.00     0.173 A 
ATOM     80  F   UNL A   1      45.410  30.191  34.255  1.00  0.00    -0.203 F 
ATOM     81  C   UNL A   1      46.221  28.627  35.816  1.00  0.00     0.198 A 
ATOM     82  C   UNL A   1      44.701  27.148  36.937  1.00  0.00     0.198 A 
ATOM     83  F   UNL A   1      42.403  27.223  36.443  1.00  0.00    -0.203 F 
ATOM     84  F   UNL A   1      47.472  29.050  35.587  1.00  0.00    -0.200 F 
ATOM     85  C   UNL A   1      45.991  27.606  36.725  1.00  0.00     0.200 A 
ATOM     86  F   UNL A   1      44.473  26.173  37.828  1.00  0.00    -0.200 F 
ATOM     87  F   UNL A   1      47.016  27.058  37.393  1.00  0.00    -0.200 F 
ENDBRANCH  54  77
ENDBRANCH  28  29
ENDBRANCH  20  23
ENDBRANCH  18  19
ENDBRANCH   1  18
TORSDOF 12
ENDMDL
