MODEL 1
REMARK VINA RESULT:     -12.5      0.000      0.000
REMARK SMILES CC1(C)[C@@H](CCc2ccccc2)CC[C@]1(C)C(=O)NCCCNC(=O)c1ccc(-c2c3nc(c(-c4c(F)c(F)c(F)c(F)c4F)c4ccc([nH]4)c(-c4c(F)c(F)c(F)c(F)c4F)c4nc(c(-c5c(F)c(F)c(F)c(F)c5F)c5ccc2[nH]5)C=C4)C=C3)cc1
REMARK SMILES IDX 20 1 19 2 17 3 18 4 15 6 1 7 2 8 3 9 4 10 13 11 14 12 16 13
REMARK SMILES IDX 5 14 6 15 7 16 8 17 12 18 9 19 11 20 10 21 21 22 22 23 23 24
REMARK SMILES IDX 24 25 25 27 26 28 27 29 88 30 28 31 87 32 29 33 30 34 31 35
REMARK SMILES IDX 81 36 32 37 86 38 80 39 82 40 33 41 85 42 79 43 78 44 34 46
REMARK SMILES IDX 66 47 46 48 65 49 47 50 50 51 64 52 83 53 48 54 49 55 63 57
REMARK SMILES IDX 84 58 51 59 35 60 36 61 44 62 37 63 38 64 42 65 45 66 39 67
REMARK SMILES IDX 40 68 43 69 41 70 67 71 68 72 76 73 69 74 70 75 74 76 77 77
REMARK SMILES IDX 71 78 72 79 75 80 73 81 52 82 53 83 61 84 54 85 55 86 59 87
REMARK SMILES IDX 62 88 56 89 57 90 60 91 58 92
REMARK H PARENT 19 5 23 26 82 45 50 56
REMARK Flexibility Score: inf
ROOT
ATOM      1  C   UNL A   1      36.535  20.426  24.825  1.00  0.00     0.117 C 
ENDROOT
BRANCH   1   2
ATOM      2  N   UNL A   1      35.279  19.721  25.004  1.00  0.00    -0.356 N 
ATOM      3  C   UNL A   1      33.978  20.095  25.109  1.00  0.00     0.226 C 
ATOM      4  O   UNL A   1      33.198  19.147  25.264  1.00  0.00    -0.274 OA
ATOM      5  H   UNL A   1      35.397  18.745  25.063  1.00  0.00     0.163 HD
BRANCH   3   6
ATOM      6  C   UNL A   1      33.468  21.569  25.068  1.00  0.00     0.052 C 
ATOM      7  C   UNL A   1      35.174  23.167  26.293  1.00  0.00     0.012 C 
ATOM      8  C   UNL A   1      33.840  22.417  26.347  1.00  0.00    -0.018 C 
ATOM      9  C   UNL A   1      33.898  21.516  27.617  1.00  0.00     0.012 C 
ATOM     10  C   UNL A   1      32.638  23.409  26.535  1.00  0.00    -0.004 C 
ATOM     11  C   UNL A   1      31.430  22.539  26.183  1.00  0.00     0.005 C 
ATOM     12  C   UNL A   1      31.893  21.565  25.103  1.00  0.00     0.017 C 
ATOM     13  C   UNL A   1      33.844  22.194  23.708  1.00  0.00     0.022 C 
BRANCH  10  14
ATOM     14  C   UNL A   1      32.663  24.720  25.701  1.00  0.00     0.009 C 
BRANCH  14  15
ATOM     15  C   UNL A   1      31.669  25.795  26.186  1.00  0.00     0.036 C 
BRANCH  15  16
ATOM     16  C   UNL A   1      32.288  27.129  26.530  1.00  0.00    -0.048 A 
ATOM     17  C   UNL A   1      31.523  28.156  27.105  1.00  0.00     0.004 A 
ATOM     18  C   UNL A   1      33.635  27.379  26.232  1.00  0.00     0.004 A 
ATOM     19  C   UNL A   1      32.083  29.418  27.323  1.00  0.00     0.000 A 
ATOM     20  C   UNL A   1      34.195  28.637  26.459  1.00  0.00     0.000 A 
ATOM     21  C   UNL A   1      33.414  29.661  26.992  1.00  0.00     0.000 A 
ENDBRANCH  15  16
ENDBRANCH  14  15
ENDBRANCH  10  14
ENDBRANCH   3   6
ENDBRANCH   1   2
BRANCH   1  22
ATOM     22  C   UNL A   1      37.746  19.508  24.989  1.00  0.00     0.042 C 
BRANCH  22  23
ATOM     23  C   UNL A   1      38.915  20.135  25.728  1.00  0.00     0.118 C 
BRANCH  23  24
ATOM     24  N   UNL A   1      40.031  19.213  25.873  1.00  0.00    -0.352 N 
ATOM     25  C   UNL A   1      41.361  19.457  26.100  1.00  0.00     0.251 C 
ATOM     26  H   UNL A   1      39.793  18.261  25.797  1.00  0.00     0.163 HD
ATOM     27  O   UNL A   1      42.172  18.539  25.957  1.00  0.00    -0.269 OA
BRANCH  25  28
ATOM     28  C   UNL A   1      41.847  20.798  26.498  1.00  0.00     0.039 A 
ATOM     29  C   UNL A   1      42.036  21.071  27.858  1.00  0.00     0.014 A 
ATOM     30  C   UNL A   1      42.056  21.812  25.560  1.00  0.00     0.014 A 
ATOM     31  C   UNL A   1      42.480  22.333  28.267  1.00  0.00     0.010 A 
ATOM     32  C   UNL A   1      42.589  23.036  25.957  1.00  0.00     0.010 A 
ATOM     33  C   UNL A   1      42.786  23.318  27.316  1.00  0.00    -0.014 A 
BRANCH  33  34
ATOM     34  C   UNL A   1      43.274  24.662  27.719  1.00  0.00     0.031 A 
ATOM     35  C   UNL A   1      42.291  25.735  28.103  1.00  0.00     0.074 A 
ATOM     36  C   UNL A   1      44.591  24.940  27.680  1.00  0.00     0.049 A 
ATOM     37  N   UNL A   1      42.509  26.991  28.407  1.00  0.00    -0.248 NA
ATOM     38  C   UNL A   1      40.871  25.354  28.115  1.00  0.00     0.031 C 
ATOM     39  C   UNL A   1      45.641  24.001  27.286  1.00  0.00     0.029 A 
ATOM     40  N   UNL A   1      45.269  26.097  27.968  1.00  0.00    -0.354 N 
ATOM     41  C   UNL A   1      41.255  27.550  28.618  1.00  0.00     0.074 A 
ATOM     42  C   UNL A   1      40.281  26.515  28.356  1.00  0.00     0.031 C 
ATOM     43  C   UNL A   1      46.834  24.608  27.388  1.00  0.00     0.029 A 
ATOM     44  C   UNL A   1      46.629  25.989  27.816  1.00  0.00     0.049 A 
ATOM     45  H   UNL A   1      44.823  26.926  28.256  1.00  0.00     0.167 HD
ATOM     46  C   UNL A   1      40.944  28.807  29.019  1.00  0.00     0.037 A 
ATOM     47  C   UNL A   1      47.602  26.902  28.001  1.00  0.00     0.037 A 
ATOM     48  C   UNL A   1      41.917  29.825  29.316  1.00  0.00     0.049 A 
ATOM     49  C   UNL A   1      47.234  28.291  28.446  1.00  0.00     0.074 A 
ATOM     50  C   UNL A   1      41.709  31.104  29.799  1.00  0.00     0.029 A 
ATOM     51  N   UNL A   1      43.287  29.675  29.156  1.00  0.00    -0.354 N 
ATOM     52  N   UNL A   1      46.050  28.791  28.703  1.00  0.00    -0.248 NA
ATOM     53  C   UNL A   1      48.341  29.239  28.629  1.00  0.00     0.031 C 
ATOM     54  C   UNL A   1      42.951  31.742  29.894  1.00  0.00     0.029 A 
ATOM     55  C   UNL A   1      43.936  30.847  29.512  1.00  0.00     0.049 A 
ATOM     56  H   UNL A   1      43.732  28.856  28.839  1.00  0.00     0.167 HD
ATOM     57  C   UNL A   1      46.269  30.103  29.101  1.00  0.00     0.074 A 
ATOM     58  C   UNL A   1      47.701  30.318  29.061  1.00  0.00     0.031 C 
ATOM     59  C   UNL A   1      45.363  31.042  29.468  1.00  0.00     0.037 A 
BRANCH  46  60
ATOM     60  C   UNL A   1      39.487  29.143  29.155  1.00  0.00     0.064 A 
ATOM     61  C   UNL A   1      38.722  29.572  28.059  1.00  0.00     0.173 A 
ATOM     62  C   UNL A   1      38.845  29.037  30.399  1.00  0.00     0.173 A 
ATOM     63  F   UNL A   1      39.291  29.703  26.850  1.00  0.00    -0.203 F 
ATOM     64  C   UNL A   1      37.384  29.924  28.210  1.00  0.00     0.198 A 
ATOM     65  C   UNL A   1      37.498  29.358  30.540  1.00  0.00     0.198 A 
ATOM     66  F   UNL A   1      39.526  28.625  31.478  1.00  0.00    -0.203 F 
ATOM     67  F   UNL A   1      36.694  30.394  27.162  1.00  0.00    -0.200 F 
ATOM     68  C   UNL A   1      36.771  29.813  29.449  1.00  0.00     0.200 A 
ATOM     69  F   UNL A   1      36.904  29.240  31.735  1.00  0.00    -0.200 F 
ATOM     70  F   UNL A   1      35.485  30.156  29.595  1.00  0.00    -0.200 F 
ENDBRANCH  46  60
BRANCH  47  71
ATOM     71  C   UNL A   1      49.021  26.511  27.811  1.00  0.00     0.064 A 
ATOM     72  C   UNL A   1      49.569  26.423  26.523  1.00  0.00     0.173 A 
ATOM     73  C   UNL A   1      49.863  26.245  28.900  1.00  0.00     0.173 A 
ATOM     74  F   UNL A   1      48.795  26.650  25.451  1.00  0.00    -0.203 F 
ATOM     75  C   UNL A   1      50.905  26.079  26.332  1.00  0.00     0.198 A 
ATOM     76  C   UNL A   1      51.205  25.922  28.707  1.00  0.00     0.198 A 
ATOM     77  F   UNL A   1      49.387  26.320  30.151  1.00  0.00    -0.203 F 
ATOM     78  F   UNL A   1      51.396  25.975  25.089  1.00  0.00    -0.200 F 
ATOM     79  C   UNL A   1      51.723  25.835  27.424  1.00  0.00     0.200 A 
ATOM     80  F   UNL A   1      51.996  25.703  29.766  1.00  0.00    -0.200 F 
ATOM     81  F   UNL A   1      53.012  25.516  27.240  1.00  0.00    -0.200 F 
ENDBRANCH  47  71
BRANCH  59  82
ATOM     82  C   UNL A   1      45.896  32.382  29.884  1.00  0.00     0.064 A 
ATOM     83  C   UNL A   1      46.275  32.643  31.208  1.00  0.00     0.173 A 
ATOM     84  C   UNL A   1      46.067  33.403  28.936  1.00  0.00     0.173 A 
ATOM     85  F   UNL A   1      46.114  31.704  32.153  1.00  0.00    -0.203 F 
ATOM     86  C   UNL A   1      46.786  33.885  31.574  1.00  0.00     0.198 A 
ATOM     87  C   UNL A   1      46.603  34.634  29.300  1.00  0.00     0.198 A 
ATOM     88  F   UNL A   1      45.725  33.201  27.655  1.00  0.00    -0.203 F 
ATOM     89  F   UNL A   1      47.101  34.127  32.853  1.00  0.00    -0.200 F 
ATOM     90  C   UNL A   1      46.956  34.877  30.619  1.00  0.00     0.200 A 
ATOM     91  F   UNL A   1      46.777  35.588  28.375  1.00  0.00    -0.200 F 
ATOM     92  F   UNL A   1      47.454  36.069  30.972  1.00  0.00    -0.200 F 
ENDBRANCH  59  82
ENDBRANCH  33  34
ENDBRANCH  25  28
ENDBRANCH  23  24
ENDBRANCH  22  23
ENDBRANCH   1  22
TORSDOF 13
ENDMDL
MODEL 2
REMARK VINA RESULT:     -12.5      0.251      2.043
REMARK SMILES CC1(C)[C@@H](CCc2ccccc2)CC[C@]1(C)C(=O)NCCCNC(=O)c1ccc(-c2c3nc(c(-c4c(F)c(F)c(F)c(F)c4F)c4ccc([nH]4)c(-c4c(F)c(F)c(F)c(F)c4F)c4nc(c(-c5c(F)c(F)c(F)c(F)c5F)c5ccc2[nH]5)C=C4)C=C3)cc1
REMARK SMILES IDX 20 1 19 2 17 3 18 4 15 6 1 7 2 8 3 9 4 10 13 11 14 12 16 13
REMARK SMILES IDX 5 14 6 15 7 16 8 17 12 18 9 19 11 20 10 21 21 22 22 23 23 24
REMARK SMILES IDX 24 25 25 27 26 28 27 29 88 30 28 31 87 32 29 33 30 34 31 35
REMARK SMILES IDX 81 36 32 37 86 38 80 39 82 40 33 41 85 42 79 43 78 44 34 46
REMARK SMILES IDX 66 47 46 48 65 49 47 50 50 51 64 52 83 53 48 54 49 55 63 57
REMARK SMILES IDX 84 58 51 59 35 60 36 61 44 62 37 63 38 64 42 65 45 66 39 67
REMARK SMILES IDX 40 68 43 69 41 70 67 71 68 72 76 73 69 74 70 75 74 76 77 77
REMARK SMILES IDX 71 78 72 79 75 80 73 81 52 82 53 83 61 84 54 85 55 86 59 87
REMARK SMILES IDX 62 88 56 89 57 90 60 91 58 92
REMARK H PARENT 19 5 23 26 82 45 50 56
REMARK Flexibility Score: inf
ROOT
ATOM      1  C   UNL A   1      36.562  20.481  24.888  1.00  0.00     0.117 C 
ENDROOT
BRANCH   1   2
ATOM      2  N   UNL A   1      35.306  19.763  25.007  1.00  0.00    -0.356 N 
ATOM      3  C   UNL A   1      33.998  20.123  25.066  1.00  0.00     0.226 C 
ATOM      4  O   UNL A   1      33.222  19.166  25.177  1.00  0.00    -0.274 OA
ATOM      5  H   UNL A   1      35.432  18.787  25.058  1.00  0.00     0.163 HD
BRANCH   3   6
ATOM      6  C   UNL A   1      33.476  21.592  25.025  1.00  0.00     0.052 C 
ATOM      7  C   UNL A   1      35.152  23.200  26.279  1.00  0.00     0.012 C 
ATOM      8  C   UNL A   1      33.825  22.438  26.312  1.00  0.00    -0.018 C 
ATOM      9  C   UNL A   1      33.874  21.531  27.579  1.00  0.00     0.012 C 
ATOM     10  C   UNL A   1      32.611  23.419  26.489  1.00  0.00    -0.004 C 
ATOM     11  C   UNL A   1      31.415  22.539  26.118  1.00  0.00     0.005 C 
ATOM     12  C   UNL A   1      31.901  21.574  25.040  1.00  0.00     0.017 C 
ATOM     13  C   UNL A   1      33.864  22.227  23.673  1.00  0.00     0.022 C 
BRANCH  10  14
ATOM     14  C   UNL A   1      32.636  24.733  25.661  1.00  0.00     0.009 C 
BRANCH  14  15
ATOM     15  C   UNL A   1      31.660  25.816  26.169  1.00  0.00     0.036 C 
BRANCH  15  16
ATOM     16  C   UNL A   1      32.294  27.151  26.479  1.00  0.00    -0.048 A 
ATOM     17  C   UNL A   1      31.551  28.187  27.064  1.00  0.00     0.004 A 
ATOM     18  C   UNL A   1      33.633  27.392  26.138  1.00  0.00     0.004 A 
ATOM     19  C   UNL A   1      32.121  29.450  27.251  1.00  0.00     0.000 A 
ATOM     20  C   UNL A   1      34.204  28.651  26.334  1.00  0.00     0.000 A 
ATOM     21  C   UNL A   1      33.443  29.684  26.879  1.00  0.00     0.000 A 
ENDBRANCH  15  16
ENDBRANCH  14  15
ENDBRANCH  10  14
ENDBRANCH   3   6
ENDBRANCH   1   2
BRANCH   1  22
ATOM     22  C   UNL A   1      37.774  19.556  24.989  1.00  0.00     0.042 C 
BRANCH  22  23
ATOM     23  C   UNL A   1      38.922  20.112  25.813  1.00  0.00     0.118 C 
BRANCH  23  24
ATOM     24  N   UNL A   1      40.055  19.202  25.860  1.00  0.00    -0.352 N 
ATOM     25  C   UNL A   1      41.395  19.458  26.004  1.00  0.00     0.251 C 
ATOM     26  H   UNL A   1      39.824  18.249  25.775  1.00  0.00     0.163 HD
ATOM     27  O   UNL A   1      42.205  18.554  25.785  1.00  0.00    -0.269 OA
BRANCH  25  28
ATOM     28  C   UNL A   1      41.892  20.795  26.403  1.00  0.00     0.039 A 
ATOM     29  C   UNL A   1      42.243  21.710  25.403  1.00  0.00     0.014 A 
ATOM     30  C   UNL A   1      42.080  21.139  27.744  1.00  0.00     0.014 A 
ATOM     31  C   UNL A   1      42.729  22.975  25.748  1.00  0.00     0.010 A 
ATOM     32  C   UNL A   1      42.472  22.430  28.088  1.00  0.00     0.010 A 
ATOM     33  C   UNL A   1      42.821  23.355  27.095  1.00  0.00    -0.014 A 
BRANCH  33  34
ATOM     34  C   UNL A   1      43.320  24.698  27.491  1.00  0.00     0.031 A 
ATOM     35  C   UNL A   1      42.350  25.764  27.923  1.00  0.00     0.074 A 
ATOM     36  C   UNL A   1      44.633  24.981  27.403  1.00  0.00     0.049 A 
ATOM     37  N   UNL A   1      42.575  27.017  28.230  1.00  0.00    -0.248 NA
ATOM     38  C   UNL A   1      40.932  25.377  27.988  1.00  0.00     0.031 C 
ATOM     39  C   UNL A   1      45.671  24.049  26.959  1.00  0.00     0.029 A 
ATOM     40  N   UNL A   1      45.318  26.138  27.674  1.00  0.00    -0.354 N 
ATOM     41  C   UNL A   1      41.328  27.570  28.495  1.00  0.00     0.074 A 
ATOM     42  C   UNL A   1      40.348  26.533  28.262  1.00  0.00     0.031 C 
ATOM     43  C   UNL A   1      46.864  24.660  27.019  1.00  0.00     0.029 A 
ATOM     44  C   UNL A   1      46.672  26.036  27.467  1.00  0.00     0.049 A 
ATOM     45  H   UNL A   1      44.881  26.963  27.986  1.00  0.00     0.167 HD
ATOM     46  C   UNL A   1      41.028  28.822  28.919  1.00  0.00     0.037 A 
ATOM     47  C   UNL A   1      47.648  26.952  27.622  1.00  0.00     0.037 A 
ATOM     48  C   UNL A   1      42.009  29.841  29.187  1.00  0.00     0.049 A 
ATOM     49  C   UNL A   1      47.293  28.335  28.094  1.00  0.00     0.074 A 
ATOM     50  C   UNL A   1      41.816  31.115  29.689  1.00  0.00     0.029 A 
ATOM     51  N   UNL A   1      43.372  29.698  28.972  1.00  0.00    -0.354 N 
ATOM     52  N   UNL A   1      46.118  28.828  28.401  1.00  0.00    -0.248 NA
ATOM     53  C   UNL A   1      48.403  29.286  28.241  1.00  0.00     0.031 C 
ATOM     54  C   UNL A   1      43.059  31.757  29.740  1.00  0.00     0.029 A 
ATOM     55  C   UNL A   1      44.031  30.869  29.311  1.00  0.00     0.049 A 
ATOM     56  H   UNL A   1      43.807  28.883  28.629  1.00  0.00     0.167 HD
ATOM     57  C   UNL A   1      46.348  30.137  28.802  1.00  0.00     0.074 A 
ATOM     58  C   UNL A   1      47.776  30.358  28.708  1.00  0.00     0.031 C 
ATOM     59  C   UNL A   1      45.454  31.070  29.213  1.00  0.00     0.037 A 
BRANCH  46  60
ATOM     60  C   UNL A   1      39.577  29.152  29.116  1.00  0.00     0.064 A 
ATOM     61  C   UNL A   1      38.960  29.046  30.372  1.00  0.00     0.173 A 
ATOM     62  C   UNL A   1      38.790  29.578  28.035  1.00  0.00     0.173 A 
ATOM     63  F   UNL A   1      39.664  28.631  31.437  1.00  0.00    -0.203 F 
ATOM     64  C   UNL A   1      37.602  29.311  30.531  1.00  0.00     0.198 A 
ATOM     65  C   UNL A   1      37.440  29.873  28.204  1.00  0.00     0.198 A 
ATOM     66  F   UNL A   1      39.330  29.703  26.813  1.00  0.00    -0.203 F 
ATOM     67  F   UNL A   1      37.023  29.139  31.727  1.00  0.00    -0.200 F 
ATOM     68  C   UNL A   1      36.844  29.728  29.447  1.00  0.00     0.200 A 
ATOM     69  F   UNL A   1      36.711  30.288  27.158  1.00  0.00    -0.200 F 
ATOM     70  F   UNL A   1      35.537  29.979  29.599  1.00  0.00    -0.200 F 
ENDBRANCH  46  60
BRANCH  47  71
ATOM     71  C   UNL A   1      49.059  26.568  27.372  1.00  0.00     0.064 A 
ATOM     72  C   UNL A   1      49.910  26.250  28.440  1.00  0.00     0.173 A 
ATOM     73  C   UNL A   1      49.579  26.483  26.073  1.00  0.00     0.173 A 
ATOM     74  F   UNL A   1      49.461  26.336  29.701  1.00  0.00    -0.203 F 
ATOM     75  C   UNL A   1      51.231  25.866  28.218  1.00  0.00     0.198 A 
ATOM     76  C   UNL A   1      50.894  26.078  25.852  1.00  0.00     0.198 A 
ATOM     77  F   UNL A   1      48.804  26.773  25.018  1.00  0.00    -0.203 F 
ATOM     78  F   UNL A   1      52.031  25.594  29.259  1.00  0.00    -0.200 F 
ATOM     79  C   UNL A   1      51.720  25.774  26.924  1.00  0.00     0.200 A 
ATOM     80  F   UNL A   1      51.359  25.975  24.599  1.00  0.00    -0.200 F 
ATOM     81  F   UNL A   1      52.987  25.394  26.711  1.00  0.00    -0.200 F 
ENDBRANCH  47  71
BRANCH  59  82
ATOM     82  C   UNL A   1      45.999  32.408  29.620  1.00  0.00     0.064 A 
ATOM     83  C   UNL A   1      46.116  33.463  28.704  1.00  0.00     0.173 A 
ATOM     84  C   UNL A   1      46.371  32.647  30.952  1.00  0.00     0.173 A 
ATOM     85  F   UNL A   1      45.789  33.277  27.416  1.00  0.00    -0.203 F 
ATOM     86  C   UNL A   1      46.605  34.704  29.102  1.00  0.00     0.198 A 
ATOM     87  C   UNL A   1      46.834  33.897  31.351  1.00  0.00     0.198 A 
ATOM     88  F   UNL A   1      46.273  31.672  31.867  1.00  0.00    -0.203 F 
ATOM     89  F   UNL A   1      46.749  35.685  28.201  1.00  0.00    -0.200 F 
ATOM     90  C   UNL A   1      46.958  34.922  30.426  1.00  0.00     0.200 A 
ATOM     91  F   UNL A   1      47.164  34.109  32.633  1.00  0.00    -0.200 F 
ATOM     92  F   UNL A   1      47.423  36.119  30.808  1.00  0.00    -0.200 F 
ENDBRANCH  59  82
ENDBRANCH  33  34
ENDBRANCH  25  28
ENDBRANCH  23  24
ENDBRANCH  22  23
ENDBRANCH   1  22
TORSDOF 13
ENDMDL
MODEL 3
REMARK VINA RESULT:     -12.4      5.796     10.824
REMARK SMILES CC1(C)[C@@H](CCc2ccccc2)CC[C@]1(C)C(=O)NCCCNC(=O)c1ccc(-c2c3nc(c(-c4c(F)c(F)c(F)c(F)c4F)c4ccc([nH]4)c(-c4c(F)c(F)c(F)c(F)c4F)c4nc(c(-c5c(F)c(F)c(F)c(F)c5F)c5ccc2[nH]5)C=C4)C=C3)cc1
REMARK SMILES IDX 20 1 19 2 17 3 18 4 15 6 1 7 2 8 3 9 4 10 13 11 14 12 16 13
REMARK SMILES IDX 5 14 6 15 7 16 8 17 12 18 9 19 11 20 10 21 21 22 22 23 23 24
REMARK SMILES IDX 24 25 25 27 26 28 27 29 88 30 28 31 87 32 29 33 30 34 31 35
REMARK SMILES IDX 81 36 32 37 86 38 80 39 82 40 33 41 85 42 79 43 78 44 34 46
REMARK SMILES IDX 66 47 46 48 65 49 47 50 50 51 64 52 83 53 48 54 49 55 63 57
REMARK SMILES IDX 84 58 51 59 35 60 36 61 44 62 37 63 38 64 42 65 45 66 39 67
REMARK SMILES IDX 40 68 43 69 41 70 67 71 68 72 76 73 69 74 70 75 74 76 77 77
REMARK SMILES IDX 71 78 72 79 75 80 73 81 52 82 53 83 61 84 54 85 55 86 59 87
REMARK SMILES IDX 62 88 56 89 57 90 60 91 58 92
REMARK H PARENT 19 5 23 26 82 45 50 56
REMARK Flexibility Score: inf
ROOT
ATOM      1  C   UNL A   1      31.496  30.801  26.388  1.00  0.00     0.117 C 
ENDROOT
BRANCH   1   2
ATOM      2  N   UNL A   1      31.100  30.394  25.053  1.00  0.00    -0.356 N 
ATOM      3  C   UNL A   1      31.189  29.245  24.335  1.00  0.00     0.226 C 
ATOM      4  O   UNL A   1      30.718  29.332  23.194  1.00  0.00    -0.274 OA
ATOM      5  H   UNL A   1      30.667  31.122  24.549  1.00  0.00     0.163 HD
BRANCH   3   6
ATOM      6  C   UNL A   1      31.835  27.922  24.849  1.00  0.00     0.052 C 
ATOM      7  C   UNL A   1      34.099  28.431  26.105  1.00  0.00     0.012 C 
ATOM      8  C   UNL A   1      33.414  27.925  24.833  1.00  0.00    -0.018 C 
ATOM      9  C   UNL A   1      33.959  28.804  23.666  1.00  0.00     0.012 C 
ATOM     10  C   UNL A   1      33.817  26.439  24.523  1.00  0.00    -0.004 C 
ATOM     11  C   UNL A   1      32.769  26.020  23.489  1.00  0.00     0.005 C 
ATOM     12  C   UNL A   1      31.483  26.759  23.846  1.00  0.00     0.017 C 
ATOM     13  C   UNL A   1      31.173  27.523  26.184  1.00  0.00     0.022 C 
BRANCH  10  14
ATOM     14  C   UNL A   1      33.865  25.454  25.723  1.00  0.00     0.009 C 
BRANCH  14  15
ATOM     15  C   UNL A   1      33.807  23.966  25.319  1.00  0.00     0.036 C 
BRANCH  15  16
ATOM     16  C   UNL A   1      35.149  23.286  25.191  1.00  0.00    -0.048 A 
ATOM     17  C   UNL A   1      35.252  21.969  24.719  1.00  0.00     0.004 A 
ATOM     18  C   UNL A   1      36.318  23.951  25.592  1.00  0.00     0.004 A 
ATOM     19  C   UNL A   1      36.488  21.316  24.702  1.00  0.00     0.000 A 
ATOM     20  C   UNL A   1      37.553  23.301  25.567  1.00  0.00     0.000 A 
ATOM     21  C   UNL A   1      37.636  21.979  25.134  1.00  0.00     0.000 A 
ENDBRANCH  15  16
ENDBRANCH  14  15
ENDBRANCH  10  14
ENDBRANCH   3   6
ENDBRANCH   1   2
BRANCH   1  22
ATOM     22  C   UNL A   1      31.436  32.316  26.579  1.00  0.00     0.042 C 
BRANCH  22  23
ATOM     23  C   UNL A   1      32.738  32.943  27.046  1.00  0.00     0.118 C 
BRANCH  23  24
ATOM     24  N   UNL A   1      32.537  34.266  27.614  1.00  0.00    -0.352 N 
ATOM     25  C   UNL A   1      33.077  34.844  28.734  1.00  0.00     0.251 C 
ATOM     26  H   UNL A   1      31.914  34.840  27.113  1.00  0.00     0.163 HD
ATOM     27  O   UNL A   1      32.592  35.895  29.160  1.00  0.00    -0.269 OA
BRANCH  25  28
ATOM     28  C   UNL A   1      34.219  34.229  29.451  1.00  0.00     0.039 A 
ATOM     29  C   UNL A   1      35.517  34.482  28.995  1.00  0.00     0.014 A 
ATOM     30  C   UNL A   1      34.027  33.355  30.524  1.00  0.00     0.014 A 
ATOM     31  C   UNL A   1      36.614  33.905  29.641  1.00  0.00     0.010 A 
ATOM     32  C   UNL A   1      35.121  32.857  31.227  1.00  0.00     0.010 A 
ATOM     33  C   UNL A   1      36.426  33.108  30.781  1.00  0.00    -0.014 A 
BRANCH  33  34
ATOM     34  C   UNL A   1      37.573  32.493  31.497  1.00  0.00     0.031 A 
ATOM     35  C   UNL A   1      38.306  31.329  30.886  1.00  0.00     0.074 A 
ATOM     36  C   UNL A   1      37.917  32.936  32.721  1.00  0.00     0.049 A 
ATOM     37  N   UNL A   1      39.277  30.605  31.384  1.00  0.00    -0.248 NA
ATOM     38  C   UNL A   1      37.866  30.902  29.549  1.00  0.00     0.031 C 
ATOM     39  C   UNL A   1      37.261  34.028  33.441  1.00  0.00     0.029 A 
ATOM     40  N   UNL A   1      38.900  32.514  33.580  1.00  0.00    -0.354 N 
ATOM     41  C   UNL A   1      39.541  29.625  30.436  1.00  0.00     0.074 A 
ATOM     42  C   UNL A   1      38.595  29.814  29.358  1.00  0.00     0.031 C 
ATOM     43  C   UNL A   1      37.879  34.212  34.618  1.00  0.00     0.029 A 
ATOM     44  C   UNL A   1      38.949  33.228  34.752  1.00  0.00     0.049 A 
ATOM     45  H   UNL A   1      39.513  31.771  33.376  1.00  0.00     0.167 HD
ATOM     46  C   UNL A   1      40.502  28.669  30.448  1.00  0.00     0.037 A 
ATOM     47  C   UNL A   1      39.764  33.100  35.817  1.00  0.00     0.037 A 
ATOM     48  C   UNL A   1      41.468  28.508  31.503  1.00  0.00     0.049 A 
ATOM     49  C   UNL A   1      40.825  32.034  35.809  1.00  0.00     0.074 A 
ATOM     50  C   UNL A   1      42.526  27.621  31.578  1.00  0.00     0.029 A 
ATOM     51  N   UNL A   1      41.488  29.255  32.672  1.00  0.00    -0.354 N 
ATOM     52  N   UNL A   1      41.105  31.153  34.880  1.00  0.00    -0.248 NA
ATOM     53  C   UNL A   1      41.680  31.946  37.000  1.00  0.00     0.031 C 
ATOM     54  C   UNL A   1      43.164  27.804  32.810  1.00  0.00     0.029 A 
ATOM     55  C   UNL A   1      42.530  28.835  33.485  1.00  0.00     0.049 A 
ATOM     56  H   UNL A   1      40.857  29.979  32.892  1.00  0.00     0.167 HD
ATOM     57  C   UNL A   1      42.185  30.423  35.360  1.00  0.00     0.074 A 
ATOM     58  C   UNL A   1      42.514  30.972  36.660  1.00  0.00     0.031 C 
ATOM     59  C   UNL A   1      42.844  29.394  34.775  1.00  0.00     0.037 A 
BRANCH  46  60
ATOM     60  C   UNL A   1      40.549  27.727  29.280  1.00  0.00     0.064 A 
ATOM     61  C   UNL A   1      41.418  27.936  28.198  1.00  0.00     0.173 A 
ATOM     62  C   UNL A   1      39.714  26.600  29.241  1.00  0.00     0.173 A 
ATOM     63  F   UNL A   1      42.229  29.005  28.180  1.00  0.00    -0.203 F 
ATOM     64  C   UNL A   1      41.418  27.078  27.101  1.00  0.00     0.198 A 
ATOM     65  C   UNL A   1      39.740  25.726  28.157  1.00  0.00     0.198 A 
ATOM     66  F   UNL A   1      38.869  26.348  30.252  1.00  0.00    -0.203 F 
ATOM     67  F   UNL A   1      42.210  27.336  26.051  1.00  0.00    -0.200 F 
ATOM     68  C   UNL A   1      40.582  25.972  27.083  1.00  0.00     0.200 A 
ATOM     69  F   UNL A   1      38.940  24.651  28.146  1.00  0.00    -0.200 F 
ATOM     70  F   UNL A   1      40.580  25.150  26.026  1.00  0.00    -0.200 F 
ENDBRANCH  46  60
BRANCH  47  71
ATOM     71  C   UNL A   1      39.637  34.044  36.955  1.00  0.00     0.064 A 
ATOM     72  C   UNL A   1      38.866  33.706  38.077  1.00  0.00     0.173 A 
ATOM     73  C   UNL A   1      40.298  35.280  36.962  1.00  0.00     0.173 A 
ATOM     74  F   UNL A   1      38.201  32.542  38.104  1.00  0.00    -0.203 F 
ATOM     75  C   UNL A   1      38.757  34.574  39.161  1.00  0.00     0.198 A 
ATOM     76  C   UNL A   1      40.205  36.137  38.057  1.00  0.00     0.198 A 
ATOM     77  F   UNL A   1      41.051  35.646  35.915  1.00  0.00    -0.203 F 
ATOM     78  F   UNL A   1      37.991  34.239  40.209  1.00  0.00    -0.200 F 
ATOM     79  C   UNL A   1      39.431  35.785  39.154  1.00  0.00     0.200 A 
ATOM     80  F   UNL A   1      40.870  37.300  38.053  1.00  0.00    -0.200 F 
ATOM     81  F   UNL A   1      39.335  36.614  40.203  1.00  0.00    -0.200 F 
ENDBRANCH  47  71
BRANCH  59  82
ATOM     82  C   UNL A   1      44.007  28.811  35.523  1.00  0.00     0.064 A 
ATOM     83  C   UNL A   1      45.309  29.302  35.355  1.00  0.00     0.173 A 
ATOM     84  C   UNL A   1      43.808  27.775  36.448  1.00  0.00     0.173 A 
ATOM     85  F   UNL A   1      45.552  30.280  34.469  1.00  0.00    -0.203 F 
ATOM     86  C   UNL A   1      46.374  28.762  36.071  1.00  0.00     0.198 A 
ATOM     87  C   UNL A   1      44.870  27.257  37.182  1.00  0.00     0.198 A 
ATOM     88  F   UNL A   1      42.580  27.274  36.649  1.00  0.00    -0.203 F 
ATOM     89  F   UNL A   1      47.617  29.218  35.863  1.00  0.00    -0.200 F 
ATOM     90  C   UNL A   1      46.154  27.746  36.988  1.00  0.00     0.200 A 
ATOM     91  F   UNL A   1      44.654  26.282  38.076  1.00  0.00    -0.200 F 
ATOM     92  F   UNL A   1      47.179  27.233  37.681  1.00  0.00    -0.200 F 
ENDBRANCH  59  82
ENDBRANCH  33  34
ENDBRANCH  25  28
ENDBRANCH  23  24
ENDBRANCH  22  23
ENDBRANCH   1  22
TORSDOF 13
ENDMDL
