MODEL 1
REMARK VINA RESULT:     -12.7      0.000      0.000
REMARK SMILES C[C@@H](NC(=O)[C@H]1CC=CC[C@@H]1C(=O)NCCCNC(=O)c1ccc(-c2c3nc(c(-c4c(F)c(F)c(F)c(F)c4F)c4ccc([nH]4)c(-c4c(F)c(F)c(F)c(F)c4F)c4nc(c(-c5c(F)c(F)c(F)c(F)c5F)c5ccc2[nH]5)C=C4)C=C3)cc1)c1ccc(-n2ccnc2)cc1
REMARK SMILES IDX 15 1 14 2 12 3 13 4 11 6 6 7 7 8 8 9 10 10 9 11 4 12 3 13
REMARK SMILES IDX 5 15 2 16 1 17 84 18 85 19 94 20 86 21 93 22 87 23 88 24
REMARK SMILES IDX 89 25 92 26 90 27 91 28 16 29 17 30 18 31 19 32 20 34 21 35
REMARK SMILES IDX 22 36 83 37 23 38 82 39 24 40 25 41 26 42 76 43 27 44 81 45
REMARK SMILES IDX 75 46 77 47 28 48 80 49 74 50 73 51 29 53 61 54 41 55 60 56
REMARK SMILES IDX 42 57 45 58 59 59 78 60 43 61 44 62 58 64 79 65 46 66 30 67
REMARK SMILES IDX 31 68 39 69 32 70 33 71 37 72 40 73 34 74 35 75 38 76 36 77
REMARK SMILES IDX 62 78 63 79 71 80 64 81 65 82 69 83 72 84 66 85 67 86 70 87
REMARK SMILES IDX 68 88 47 89 48 90 56 91 49 92 50 93 54 94 57 95 51 96 52 97
REMARK SMILES IDX 55 98 53 99
REMARK H PARENT 14 5 3 14 18 33 77 52 45 63
REMARK Flexibility Score: inf
ROOT
ATOM      1  C   UNL A   1      31.866  27.048  26.175  1.00  0.00     0.117 C 
ENDROOT
BRANCH   1   2
ATOM      2  N   UNL A   1      31.426  25.806  26.791  1.00  0.00    -0.356 N 
ATOM      3  C   UNL A   1      31.981  24.561  26.810  1.00  0.00     0.224 C 
ATOM      4  O   UNL A   1      31.405  23.702  27.481  1.00  0.00    -0.275 OA
ATOM      5  H   UNL A   1      30.576  25.878  27.282  1.00  0.00     0.163 HD
BRANCH   3   6
ATOM      6  C   UNL A   1      33.210  24.240  25.965  1.00  0.00     0.095 C 
ATOM      7  C   UNL A   1      32.731  23.700  24.597  1.00  0.00     0.095 C 
ATOM      8  C   UNL A   1      32.364  22.207  24.633  1.00  0.00     0.041 C 
ATOM      9  C   UNL A   1      33.130  21.349  25.585  1.00  0.00    -0.030 C 
ATOM     10  C   UNL A   1      34.171  23.305  26.724  1.00  0.00     0.041 C 
ATOM     11  C   UNL A   1      33.948  21.841  26.520  1.00  0.00    -0.030 C 
BRANCH   7  12
ATOM     12  C   UNL A   1      33.748  24.005  23.508  1.00  0.00     0.224 C 
ATOM     13  N   UNL A   1      33.467  24.759  22.414  1.00  0.00    -0.349 N 
ATOM     14  H   UNL A   1      34.292  25.067  21.973  1.00  0.00     0.164 HD
ATOM     15  O   UNL A   1      34.918  23.617  23.602  1.00  0.00    -0.275 OA
BRANCH  13  16
ATOM     16  C   UNL A   1      32.269  25.245  21.699  1.00  0.00     0.109 C 
ATOM     17  C   UNL A   1      32.701  25.626  20.274  1.00  0.00     0.036 C 
BRANCH  16  18
ATOM     18  C   UNL A   1      31.501  26.365  22.371  1.00  0.00    -0.026 A 
ATOM     19  C   UNL A   1      32.049  27.657  22.371  1.00  0.00     0.008 A 
ATOM     20  C   UNL A   1      30.231  26.187  22.939  1.00  0.00     0.008 A 
ATOM     21  C   UNL A   1      31.266  28.764  22.694  1.00  0.00     0.027 A 
ATOM     22  C   UNL A   1      29.476  27.286  23.365  1.00  0.00     0.027 A 
ATOM     23  C   UNL A   1      29.958  28.577  23.139  1.00  0.00     0.046 A 
BRANCH  23  24
ATOM     24  N   UNL A   1      29.086  29.684  23.244  1.00  0.00    -0.306 N 
ATOM     25  C   UNL A   1      29.375  30.937  23.735  1.00  0.00     0.113 A 
ATOM     26  C   UNL A   1      27.732  29.678  22.987  1.00  0.00     0.204 A 
ATOM     27  C   UNL A   1      28.188  31.629  23.708  1.00  0.00     0.131 A 
ATOM     28  N   UNL A   1      27.171  30.835  23.260  1.00  0.00    -0.245 NA
ENDBRANCH  23  24
ENDBRANCH  16  18
ENDBRANCH  13  16
ENDBRANCH   7  12
ENDBRANCH   3   6
ENDBRANCH   1   2
BRANCH   1  29
ATOM     29  C   UNL A   1      33.133  27.609  26.812  1.00  0.00     0.042 C 
BRANCH  29  30
ATOM     30  C   UNL A   1      33.884  28.647  25.977  1.00  0.00     0.118 C 
BRANCH  30  31
ATOM     31  N   UNL A   1      33.667  30.008  26.438  1.00  0.00    -0.352 N 
ATOM     32  C   UNL A   1      34.326  30.754  27.378  1.00  0.00     0.251 C 
ATOM     33  H   UNL A   1      32.918  30.472  26.000  1.00  0.00     0.163 HD
ATOM     34  O   UNL A   1      33.850  31.846  27.709  1.00  0.00    -0.269 OA
BRANCH  32  35
ATOM     35  C   UNL A   1      35.575  30.291  28.030  1.00  0.00     0.039 A 
ATOM     36  C   UNL A   1      36.771  30.408  27.312  1.00  0.00     0.014 A 
ATOM     37  C   UNL A   1      35.587  29.676  29.286  1.00  0.00     0.014 A 
ATOM     38  C   UNL A   1      37.974  29.957  27.865  1.00  0.00     0.010 A 
ATOM     39  C   UNL A   1      36.799  29.274  29.862  1.00  0.00     0.010 A 
ATOM     40  C   UNL A   1      38.005  29.409  29.157  1.00  0.00    -0.014 A 
BRANCH  40  41
ATOM     41  C   UNL A   1      39.300  29.001  29.767  1.00  0.00     0.031 A 
ATOM     42  C   UNL A   1      39.846  29.704  30.979  1.00  0.00     0.074 A 
ATOM     43  C   UNL A   1      40.002  27.992  29.213  1.00  0.00     0.049 A 
ATOM     44  N   UNL A   1      40.949  29.465  31.646  1.00  0.00    -0.248 NA
ATOM     45  C   UNL A   1      39.060  30.830  31.503  1.00  0.00     0.031 C 
ATOM     46  C   UNL A   1      39.609  27.251  28.015  1.00  0.00     0.029 A 
ATOM     47  N   UNL A   1      41.192  27.416  29.585  1.00  0.00    -0.354 N 
ATOM     48  C   UNL A   1      40.993  30.413  32.661  1.00  0.00     0.074 A 
ATOM     49  C   UNL A   1      39.829  31.258  32.496  1.00  0.00     0.031 C 
ATOM     50  C   UNL A   1      40.526  26.302  27.765  1.00  0.00     0.029 A 
ATOM     51  C   UNL A   1      41.584  26.383  28.769  1.00  0.00     0.049 A 
ATOM     52  H   UNL A   1      41.714  27.714  30.365  1.00  0.00     0.167 HD
ATOM     53  C   UNL A   1      41.908  30.554  33.652  1.00  0.00     0.037 A 
ATOM     54  C   UNL A   1      42.669  25.588  28.820  1.00  0.00     0.037 A 
ATOM     55  C   UNL A   1      43.056  29.702  33.835  1.00  0.00     0.049 A 
ATOM     56  C   UNL A   1      43.667  25.764  29.931  1.00  0.00     0.074 A 
ATOM     57  C   UNL A   1      44.003  29.735  34.847  1.00  0.00     0.029 A 
ATOM     58  N   UNL A   1      43.418  28.667  32.987  1.00  0.00    -0.354 N 
ATOM     59  N   UNL A   1      43.658  26.620  30.923  1.00  0.00    -0.248 NA
ATOM     60  C   UNL A   1      44.821  24.854  29.935  1.00  0.00     0.031 C 
ATOM     61  C   UNL A   1      44.958  28.745  34.588  1.00  0.00     0.029 A 
ATOM     62  C   UNL A   1      44.585  28.069  33.439  1.00  0.00     0.049 A 
ATOM     63  H   UNL A   1      42.920  28.396  32.182  1.00  0.00     0.167 HD
ATOM     64  C   UNL A   1      44.789  26.341  31.677  1.00  0.00     0.074 A 
ATOM     65  C   UNL A   1      45.451  25.221  31.041  1.00  0.00     0.031 C 
ATOM     66  C   UNL A   1      45.239  26.958  32.797  1.00  0.00     0.037 A 
BRANCH  53  67
ATOM     67  C   UNL A   1      41.705  31.675  34.629  1.00  0.00     0.064 A 
ATOM     68  C   UNL A   1      42.348  32.912  34.469  1.00  0.00     0.173 A 
ATOM     69  C   UNL A   1      40.816  31.531  35.705  1.00  0.00     0.173 A 
ATOM     70  F   UNL A   1      43.212  33.097  33.460  1.00  0.00    -0.203 F 
ATOM     71  C   UNL A   1      42.129  33.954  35.366  1.00  0.00     0.198 A 
ATOM     72  C   UNL A   1      40.580  32.584  36.586  1.00  0.00     0.198 A 
ATOM     73  F   UNL A   1      40.168  30.373  35.897  1.00  0.00    -0.203 F 
ATOM     74  F   UNL A   1      42.786  35.113  35.216  1.00  0.00    -0.200 F 
ATOM     75  C   UNL A   1      41.241  33.792  36.418  1.00  0.00     0.200 A 
ATOM     76  F   UNL A   1      39.712  32.431  37.594  1.00  0.00    -0.200 F 
ATOM     77  F   UNL A   1      41.026  34.800  37.276  1.00  0.00    -0.200 F 
ENDBRANCH  53  67
BRANCH  54  78
ATOM     78  C   UNL A   1      42.856  24.527  27.798  1.00  0.00     0.064 A 
ATOM     79  C   UNL A   1      43.433  24.820  26.555  1.00  0.00     0.173 A 
ATOM     80  C   UNL A   1      42.460  23.205  28.042  1.00  0.00     0.173 A 
ATOM     81  F   UNL A   1      43.805  26.076  26.269  1.00  0.00    -0.203 F 
ATOM     82  C   UNL A   1      43.591  23.832  25.586  1.00  0.00     0.198 A 
ATOM     83  C   UNL A   1      42.644  22.212  27.082  1.00  0.00     0.198 A 
ATOM     84  F   UNL A   1      41.908  22.874  29.219  1.00  0.00    -0.203 F 
ATOM     85  F   UNL A   1      44.108  24.146  24.390  1.00  0.00    -0.200 F 
ATOM     86  C   UNL A   1      43.202  22.528  25.853  1.00  0.00     0.200 A 
ATOM     87  F   UNL A   1      42.278  20.950  27.348  1.00  0.00    -0.200 F 
ATOM     88  F   UNL A   1      43.360  21.577  24.922  1.00  0.00    -0.200 F 
ENDBRANCH  54  78
BRANCH  66  89
ATOM     89  C   UNL A   1      46.499  26.425  33.414  1.00  0.00     0.064 A 
ATOM     90  C   UNL A   1      46.471  25.392  34.362  1.00  0.00     0.173 A 
ATOM     91  C   UNL A   1      47.749  26.941  33.041  1.00  0.00     0.173 A 
ATOM     92  F   UNL A   1      45.299  24.878  34.764  1.00  0.00    -0.203 F 
ATOM     93  C   UNL A   1      47.646  24.914  34.936  1.00  0.00     0.198 A 
ATOM     94  C   UNL A   1      48.925  26.443  33.597  1.00  0.00     0.198 A 
ATOM     95  F   UNL A   1      47.832  27.927  32.136  1.00  0.00    -0.203 F 
ATOM     96  F   UNL A   1      47.591  23.962  35.877  1.00  0.00    -0.200 F 
ATOM     97  C   UNL A   1      48.871  25.436  34.549  1.00  0.00     0.200 A 
ATOM     98  F   UNL A   1      50.109  26.942  33.216  1.00  0.00    -0.200 F 
ATOM     99  F   UNL A   1      50.002  24.976  35.104  1.00  0.00    -0.200 F 
ENDBRANCH  66  89
ENDBRANCH  40  41
ENDBRANCH  32  35
ENDBRANCH  30  31
ENDBRANCH  29  30
ENDBRANCH   1  29
TORSDOF 14
ENDMDL
MODEL 2
REMARK VINA RESULT:     -12.7      3.787      9.134
REMARK SMILES C[C@@H](NC(=O)[C@H]1CC=CC[C@@H]1C(=O)NCCCNC(=O)c1ccc(-c2c3nc(c(-c4c(F)c(F)c(F)c(F)c4F)c4ccc([nH]4)c(-c4c(F)c(F)c(F)c(F)c4F)c4nc(c(-c5c(F)c(F)c(F)c(F)c5F)c5ccc2[nH]5)C=C4)C=C3)cc1)c1ccc(-n2ccnc2)cc1
REMARK SMILES IDX 15 1 14 2 12 3 13 4 11 6 6 7 7 8 8 9 10 10 9 11 4 12 3 13
REMARK SMILES IDX 5 15 2 16 1 17 84 18 85 19 94 20 86 21 93 22 87 23 88 24
REMARK SMILES IDX 89 25 92 26 90 27 91 28 16 29 17 30 18 31 19 32 20 34 21 35
REMARK SMILES IDX 22 36 83 37 23 38 82 39 24 40 25 41 26 42 76 43 27 44 81 45
REMARK SMILES IDX 75 46 77 47 28 48 80 49 74 50 73 51 29 53 61 54 41 55 60 56
REMARK SMILES IDX 42 57 45 58 59 59 78 60 43 61 44 62 58 64 79 65 46 66 30 67
REMARK SMILES IDX 31 68 39 69 32 70 33 71 37 72 40 73 34 74 35 75 38 76 36 77
REMARK SMILES IDX 62 78 63 79 71 80 64 81 65 82 69 83 72 84 66 85 67 86 70 87
REMARK SMILES IDX 68 88 47 89 48 90 56 91 49 92 50 93 54 94 57 95 51 96 52 97
REMARK SMILES IDX 55 98 53 99
REMARK H PARENT 14 5 3 14 18 33 77 52 45 63
REMARK Flexibility Score: inf
ROOT
ATOM      1  C   UNL A   1      34.386  23.900  23.702  1.00  0.00     0.117 C 
ENDROOT
BRANCH   1   2
ATOM      2  N   UNL A   1      34.058  25.053  22.880  1.00  0.00    -0.356 N 
ATOM      3  C   UNL A   1      33.653  26.312  23.210  1.00  0.00     0.224 C 
ATOM      4  O   UNL A   1      33.509  27.114  22.285  1.00  0.00    -0.275 OA
ATOM      5  H   UNL A   1      34.144  24.896  21.912  1.00  0.00     0.163 HD
BRANCH   3   6
ATOM      6  C   UNL A   1      33.314  26.671  24.654  1.00  0.00     0.095 C 
ATOM      7  C   UNL A   1      31.814  26.373  24.888  1.00  0.00     0.095 C 
ATOM      8  C   UNL A   1      30.891  27.497  24.391  1.00  0.00     0.041 C 
ATOM      9  C   UNL A   1      31.429  28.889  24.457  1.00  0.00    -0.030 C 
ATOM     10  C   UNL A   1      33.740  28.116  24.976  1.00  0.00     0.041 C 
ATOM     11  C   UNL A   1      32.708  29.168  24.728  1.00  0.00    -0.030 C 
BRANCH   7  12
ATOM     12  C   UNL A   1      31.551  26.032  26.347  1.00  0.00     0.224 C 
ATOM     13  N   UNL A   1      31.129  24.810  26.764  1.00  0.00    -0.349 N 
ATOM     14  H   UNL A   1      31.272  24.696  27.732  1.00  0.00     0.164 HD
ATOM     15  O   UNL A   1      31.770  26.855  27.243  1.00  0.00    -0.275 OA
BRANCH  13  16
ATOM     16  C   UNL A   1      30.515  23.604  26.171  1.00  0.00     0.109 C 
ATOM     17  C   UNL A   1      29.639  22.951  27.251  1.00  0.00     0.036 C 
BRANCH  16  18
ATOM     18  C   UNL A   1      31.471  22.609  25.546  1.00  0.00    -0.026 A 
ATOM     19  C   UNL A   1      32.452  22.012  26.354  1.00  0.00     0.008 A 
ATOM     20  C   UNL A   1      31.383  22.201  24.207  1.00  0.00     0.008 A 
ATOM     21  C   UNL A   1      33.145  20.883  25.919  1.00  0.00     0.027 A 
ATOM     22  C   UNL A   1      32.153  21.134  23.730  1.00  0.00     0.027 A 
ATOM     23  C   UNL A   1      32.951  20.414  24.621  1.00  0.00     0.046 A 
BRANCH  23  24
ATOM     24  N   UNL A   1      33.463  19.150  24.247  1.00  0.00    -0.306 N 
ATOM     25  C   UNL A   1      32.818  18.156  23.549  1.00  0.00     0.113 A 
ATOM     26  C   UNL A   1      34.679  18.623  24.626  1.00  0.00     0.204 A 
ATOM     27  C   UNL A   1      33.696  17.099  23.510  1.00  0.00     0.131 A 
ATOM     28  N   UNL A   1      34.841  17.392  24.196  1.00  0.00    -0.245 NA
ENDBRANCH  23  24
ENDBRANCH  16  18
ENDBRANCH  13  16
ENDBRANCH   7  12
ENDBRANCH   3   6
ENDBRANCH   1   2
BRANCH   1  29
ATOM     29  C   UNL A   1      35.889  23.663  23.818  1.00  0.00     0.042 C 
BRANCH  29  30
ATOM     30  C   UNL A   1      36.470  23.800  25.226  1.00  0.00     0.118 C 
BRANCH  30  31
ATOM     31  N   UNL A   1      37.481  22.798  25.520  1.00  0.00    -0.352 N 
ATOM     32  C   UNL A   1      38.700  22.905  26.134  1.00  0.00     0.251 C 
ATOM     33  H   UNL A   1      37.248  21.887  25.229  1.00  0.00     0.163 HD
ATOM     34  O   UNL A   1      39.454  21.926  26.128  1.00  0.00    -0.269 OA
BRANCH  32  35
ATOM     35  C   UNL A   1      39.158  24.157  26.783  1.00  0.00     0.039 A 
ATOM     36  C   UNL A   1      39.947  25.036  26.031  1.00  0.00     0.014 A 
ATOM     37  C   UNL A   1      38.901  24.447  28.127  1.00  0.00     0.014 A 
ATOM     38  C   UNL A   1      40.433  26.215  26.603  1.00  0.00     0.010 A 
ATOM     39  C   UNL A   1      39.343  25.653  28.684  1.00  0.00     0.010 A 
ATOM     40  C   UNL A   1      40.115  26.550  27.929  1.00  0.00    -0.014 A 
BRANCH  40  41
ATOM     41  C   UNL A   1      40.575  27.842  28.506  1.00  0.00     0.031 A 
ATOM     42  C   UNL A   1      42.026  28.082  28.821  1.00  0.00     0.074 A 
ATOM     43  C   UNL A   1      39.672  28.809  28.765  1.00  0.00     0.049 A 
ATOM     44  N   UNL A   1      42.600  29.154  29.311  1.00  0.00    -0.248 NA
ATOM     45  C   UNL A   1      42.952  26.969  28.568  1.00  0.00     0.031 C 
ATOM     46  C   UNL A   1      38.230  28.696  28.545  1.00  0.00     0.029 A 
ATOM     47  N   UNL A   1      39.833  30.078  29.267  1.00  0.00    -0.354 N 
ATOM     48  C   UNL A   1      43.949  28.844  29.430  1.00  0.00     0.074 A 
ATOM     49  C   UNL A   1      44.101  27.468  29.003  1.00  0.00     0.031 C 
ATOM     50  C   UNL A   1      37.642  29.854  28.885  1.00  0.00     0.029 A 
ATOM     51  C   UNL A   1      38.660  30.783  29.371  1.00  0.00     0.049 A 
ATOM     52  H   UNL A   1      40.709  30.447  29.526  1.00  0.00     0.167 HD
ATOM     53  C   UNL A   1      44.969  29.637  29.838  1.00  0.00     0.037 A 
ATOM     54  C   UNL A   1      38.425  32.036  29.805  1.00  0.00     0.037 A 
ATOM     55  C   UNL A   1      44.827  31.013  30.244  1.00  0.00     0.049 A 
ATOM     56  C   UNL A   1      39.576  32.896  30.249  1.00  0.00     0.074 A 
ATOM     57  C   UNL A   1      45.816  31.910  30.615  1.00  0.00     0.029 A 
ATOM     58  N   UNL A   1      43.621  31.691  30.334  1.00  0.00    -0.354 N 
ATOM     59  N   UNL A   1      40.854  32.611  30.290  1.00  0.00    -0.248 NA
ATOM     60  C   UNL A   1      39.250  34.257  30.698  1.00  0.00     0.031 C 
ATOM     61  C   UNL A   1      45.204  33.118  30.968  1.00  0.00     0.029 A 
ATOM     62  C   UNL A   1      43.838  32.987  30.778  1.00  0.00     0.049 A 
ATOM     63  H   UNL A   1      42.740  31.309  30.116  1.00  0.00     0.167 HD
ATOM     64  C   UNL A   1      41.486  33.759  30.749  1.00  0.00     0.074 A 
ATOM     65  C   UNL A   1      40.452  34.752  30.952  1.00  0.00     0.031 C 
ATOM     66  C   UNL A   1      42.804  33.968  30.981  1.00  0.00     0.037 A 
BRANCH  53  67
ATOM     67  C   UNL A   1      46.346  29.038  29.865  1.00  0.00     0.064 A 
ATOM     68  C   UNL A   1      46.845  28.402  31.012  1.00  0.00     0.173 A 
ATOM     69  C   UNL A   1      47.152  29.052  28.717  1.00  0.00     0.173 A 
ATOM     70  F   UNL A   1      46.116  28.368  32.136  1.00  0.00    -0.203 F 
ATOM     71  C   UNL A   1      48.112  27.824  31.015  1.00  0.00     0.198 A 
ATOM     72  C   UNL A   1      48.408  28.451  28.716  1.00  0.00     0.198 A 
ATOM     73  F   UNL A   1      46.717  29.638  27.592  1.00  0.00    -0.203 F 
ATOM     74  F   UNL A   1      48.585  27.257  32.133  1.00  0.00    -0.200 F 
ATOM     75  C   UNL A   1      48.889  27.843  29.866  1.00  0.00     0.200 A 
ATOM     76  F   UNL A   1      49.152  28.458  27.602  1.00  0.00    -0.200 F 
ATOM     77  F   UNL A   1      50.106  27.279  29.870  1.00  0.00    -0.200 F 
ENDBRANCH  53  67
BRANCH  54  78
ATOM     78  C   UNL A   1      37.038  32.567  29.812  1.00  0.00     0.064 A 
ATOM     79  C   UNL A   1      36.526  33.254  28.703  1.00  0.00     0.173 A 
ATOM     80  C   UNL A   1      36.201  32.401  30.924  1.00  0.00     0.173 A 
ATOM     81  F   UNL A   1      37.298  33.456  27.626  1.00  0.00    -0.203 F 
ATOM     82  C   UNL A   1      35.232  33.771  28.713  1.00  0.00     0.198 A 
ATOM     83  C   UNL A   1      34.899  32.895  30.922  1.00  0.00     0.198 A 
ATOM     84  F   UNL A   1      36.645  31.746  32.008  1.00  0.00    -0.203 F 
ATOM     85  F   UNL A   1      34.780  34.459  27.656  1.00  0.00    -0.200 F 
ATOM     86  C   UNL A   1      34.418  33.586  29.820  1.00  0.00     0.200 A 
ATOM     87  F   UNL A   1      34.111  32.703  31.989  1.00  0.00    -0.200 F 
ATOM     88  F   UNL A   1      33.172  34.078  29.827  1.00  0.00    -0.200 F 
ENDBRANCH  54  78
BRANCH  66  89
ATOM     89  C   UNL A   1      43.205  35.331  31.466  1.00  0.00     0.064 A 
ATOM     90  C   UNL A   1      43.153  35.670  32.826  1.00  0.00     0.173 A 
ATOM     91  C   UNL A   1      43.663  36.303  30.563  1.00  0.00     0.173 A 
ATOM     92  F   UNL A   1      42.707  34.781  33.726  1.00  0.00    -0.203 F 
ATOM     93  C   UNL A   1      43.517  36.942  33.261  1.00  0.00     0.198 A 
ATOM     94  C   UNL A   1      44.051  37.565  31.005  1.00  0.00     0.198 A 
ATOM     95  F   UNL A   1      43.734  36.029  29.252  1.00  0.00    -0.203 F 
ATOM     96  F   UNL A   1      43.411  37.260  34.558  1.00  0.00    -0.200 F 
ATOM     97  C   UNL A   1      43.970  37.886  32.352  1.00  0.00     0.200 A 
ATOM     98  F   UNL A   1      44.496  38.474  30.126  1.00  0.00    -0.200 F 
ATOM     99  F   UNL A   1      44.318  39.110  32.772  1.00  0.00    -0.200 F 
ENDBRANCH  66  89
ENDBRANCH  40  41
ENDBRANCH  32  35
ENDBRANCH  30  31
ENDBRANCH  29  30
ENDBRANCH   1  29
TORSDOF 14
ENDMDL
MODEL 3
REMARK VINA RESULT:     -12.6      0.280      1.980
REMARK SMILES C[C@@H](NC(=O)[C@H]1CC=CC[C@@H]1C(=O)NCCCNC(=O)c1ccc(-c2c3nc(c(-c4c(F)c(F)c(F)c(F)c4F)c4ccc([nH]4)c(-c4c(F)c(F)c(F)c(F)c4F)c4nc(c(-c5c(F)c(F)c(F)c(F)c5F)c5ccc2[nH]5)C=C4)C=C3)cc1)c1ccc(-n2ccnc2)cc1
REMARK SMILES IDX 15 1 14 2 12 3 13 4 11 6 6 7 7 8 8 9 10 10 9 11 4 12 3 13
REMARK SMILES IDX 5 15 2 16 1 17 84 18 85 19 94 20 86 21 93 22 87 23 88 24
REMARK SMILES IDX 89 25 92 26 90 27 91 28 16 29 17 30 18 31 19 32 20 34 21 35
REMARK SMILES IDX 22 36 83 37 23 38 82 39 24 40 25 41 26 42 76 43 27 44 81 45
REMARK SMILES IDX 75 46 77 47 28 48 80 49 74 50 73 51 29 53 61 54 41 55 60 56
REMARK SMILES IDX 42 57 45 58 59 59 78 60 43 61 44 62 58 64 79 65 46 66 30 67
REMARK SMILES IDX 31 68 39 69 32 70 33 71 37 72 40 73 34 74 35 75 38 76 36 77
REMARK SMILES IDX 62 78 63 79 71 80 64 81 65 82 69 83 72 84 66 85 67 86 70 87
REMARK SMILES IDX 68 88 47 89 48 90 56 91 49 92 50 93 54 94 57 95 51 96 52 97
REMARK SMILES IDX 55 98 53 99
REMARK H PARENT 14 5 3 14 18 33 77 52 45 63
REMARK Flexibility Score: inf
ROOT
ATOM      1  C   UNL A   1      31.631  26.672  26.335  1.00  0.00     0.117 C 
ENDROOT
BRANCH   1   2
ATOM      2  N   UNL A   1      31.264  25.384  26.902  1.00  0.00    -0.356 N 
ATOM      3  C   UNL A   1      31.910  24.183  26.908  1.00  0.00     0.224 C 
ATOM      4  O   UNL A   1      31.377  23.266  27.536  1.00  0.00    -0.275 OA
ATOM      5  H   UNL A   1      30.395  25.380  27.365  1.00  0.00     0.163 HD
BRANCH   3   6
ATOM      6  C   UNL A   1      33.186  23.978  26.099  1.00  0.00     0.095 C 
ATOM      7  C   UNL A   1      32.793  23.459  24.696  1.00  0.00     0.095 C 
ATOM      8  C   UNL A   1      32.528  21.945  24.664  1.00  0.00     0.041 C 
ATOM      9  C   UNL A   1      33.318  21.104  25.613  1.00  0.00    -0.030 C 
ATOM     10  C   UNL A   1      34.182  23.081  26.859  1.00  0.00     0.041 C 
ATOM     11  C   UNL A   1      34.067  21.614  26.595  1.00  0.00    -0.030 C 
BRANCH   7  12
ATOM     12  C   UNL A   1      33.824  23.872  23.656  1.00  0.00     0.224 C 
ATOM     13  N   UNL A   1      33.532  24.657  22.587  1.00  0.00    -0.349 N 
ATOM     14  H   UNL A   1      34.352  25.033  22.188  1.00  0.00     0.164 HD
ATOM     15  O   UNL A   1      35.012  23.551  23.774  1.00  0.00    -0.275 OA
BRANCH  13  16
ATOM     16  C   UNL A   1      32.331  25.104  21.853  1.00  0.00     0.109 C 
ATOM     17  C   UNL A   1      32.761  25.439  20.416  1.00  0.00     0.036 C 
BRANCH  16  18
ATOM     18  C   UNL A   1      31.549  26.239  22.483  1.00  0.00    -0.026 A 
ATOM     19  C   UNL A   1      32.080  27.538  22.431  1.00  0.00     0.008 A 
ATOM     20  C   UNL A   1      30.283  26.067  23.061  1.00  0.00     0.008 A 
ATOM     21  C   UNL A   1      31.283  28.647  22.713  1.00  0.00     0.027 A 
ATOM     22  C   UNL A   1      29.515  27.172  23.445  1.00  0.00     0.027 A 
ATOM     23  C   UNL A   1      29.979  28.459  23.168  1.00  0.00     0.046 A 
BRANCH  23  24
ATOM     24  N   UNL A   1      29.093  29.559  23.233  1.00  0.00    -0.306 N 
ATOM     25  C   UNL A   1      29.355  30.821  23.711  1.00  0.00     0.113 A 
ATOM     26  C   UNL A   1      27.746  29.533  22.939  1.00  0.00     0.204 A 
ATOM     27  C   UNL A   1      28.161  31.500  23.641  1.00  0.00     0.131 A 
ATOM     28  N   UNL A   1      27.165  30.688  23.178  1.00  0.00    -0.245 NA
ENDBRANCH  23  24
ENDBRANCH  16  18
ENDBRANCH  13  16
ENDBRANCH   7  12
ENDBRANCH   3   6
ENDBRANCH   1   2
BRANCH   1  29
ATOM     29  C   UNL A   1      32.417  27.546  27.308  1.00  0.00     0.042 C 
BRANCH  29  30
ATOM     30  C   UNL A   1      33.605  28.295  26.704  1.00  0.00     0.118 C 
BRANCH  30  31
ATOM     31  N   UNL A   1      33.507  29.737  26.869  1.00  0.00    -0.352 N 
ATOM     32  C   UNL A   1      34.332  30.627  27.502  1.00  0.00     0.251 C 
ATOM     33  H   UNL A   1      32.711  30.141  26.454  1.00  0.00     0.163 HD
ATOM     34  O   UNL A   1      33.950  31.794  27.642  1.00  0.00    -0.269 OA
BRANCH  32  35
ATOM     35  C   UNL A   1      35.656  30.238  28.045  1.00  0.00     0.039 A 
ATOM     36  C   UNL A   1      35.713  29.774  29.365  1.00  0.00     0.014 A 
ATOM     37  C   UNL A   1      36.844  30.394  27.323  1.00  0.00     0.014 A 
ATOM     38  C   UNL A   1      36.939  29.426  29.940  1.00  0.00     0.010 A 
ATOM     39  C   UNL A   1      38.065  29.994  27.880  1.00  0.00     0.010 A 
ATOM     40  C   UNL A   1      38.125  29.506  29.194  1.00  0.00    -0.014 A 
BRANCH  40  41
ATOM     41  C   UNL A   1      39.416  29.062  29.790  1.00  0.00     0.031 A 
ATOM     42  C   UNL A   1      39.998  29.755  30.991  1.00  0.00     0.074 A 
ATOM     43  C   UNL A   1      40.080  28.030  29.232  1.00  0.00     0.049 A 
ATOM     44  N   UNL A   1      41.103  29.487  31.645  1.00  0.00    -0.248 NA
ATOM     45  C   UNL A   1      39.254  30.907  31.518  1.00  0.00     0.031 C 
ATOM     46  C   UNL A   1      39.649  27.295  28.043  1.00  0.00     0.029 A 
ATOM     47  N   UNL A   1      41.257  27.420  29.592  1.00  0.00    -0.354 N 
ATOM     48  C   UNL A   1      41.188  30.438  32.654  1.00  0.00     0.074 A 
ATOM     49  C   UNL A   1      40.048  31.316  32.498  1.00  0.00     0.031 C 
ATOM     50  C   UNL A   1      40.534  26.318  27.787  1.00  0.00     0.029 A 
ATOM     51  C   UNL A   1      41.607  26.372  28.777  1.00  0.00     0.049 A 
ATOM     52  H   UNL A   1      41.798  27.707  30.364  1.00  0.00     0.167 HD
ATOM     53  C   UNL A   1      42.119  30.556  33.631  1.00  0.00     0.037 A 
ATOM     54  C   UNL A   1      42.669  25.545  28.819  1.00  0.00     0.037 A 
ATOM     55  C   UNL A   1      43.244  29.672  33.805  1.00  0.00     0.049 A 
ATOM     56  C   UNL A   1      43.685  25.697  29.916  1.00  0.00     0.074 A 
ATOM     57  C   UNL A   1      44.204  29.681  34.804  1.00  0.00     0.029 A 
ATOM     58  N   UNL A   1      43.563  28.622  32.958  1.00  0.00    -0.354 N 
ATOM     59  N   UNL A   1      43.715  26.558  30.903  1.00  0.00    -0.248 NA
ATOM     60  C   UNL A   1      44.812  24.752  29.909  1.00  0.00     0.031 C 
ATOM     61  C   UNL A   1      45.126  28.662  34.539  1.00  0.00     0.029 A 
ATOM     62  C   UNL A   1      44.718  27.991  33.398  1.00  0.00     0.049 A 
ATOM     63  H   UNL A   1      43.047  28.362  32.161  1.00  0.00     0.167 HD
ATOM     64  C   UNL A   1      44.847  26.248  31.644  1.00  0.00     0.074 A 
ATOM     65  C   UNL A   1      45.467  25.106  31.005  1.00  0.00     0.031 C 
ATOM     66  C   UNL A   1      45.330  26.858  32.754  1.00  0.00     0.037 A 
BRANCH  53  67
ATOM     67  C   UNL A   1      41.963  31.689  34.605  1.00  0.00     0.064 A 
ATOM     68  C   UNL A   1      41.219  31.543  35.785  1.00  0.00     0.173 A 
ATOM     69  C   UNL A   1      42.609  32.915  34.382  1.00  0.00     0.173 A 
ATOM     70  F   UNL A   1      40.577  30.394  36.040  1.00  0.00    -0.203 F 
ATOM     71  C   UNL A   1      41.105  32.592  36.694  1.00  0.00     0.198 A 
ATOM     72  C   UNL A   1      42.514  33.953  35.306  1.00  0.00     0.198 A 
ATOM     73  F   UNL A   1      43.341  33.103  33.274  1.00  0.00    -0.203 F 
ATOM     74  F   UNL A   1      40.356  32.443  37.795  1.00  0.00    -0.200 F 
ATOM     75  C   UNL A   1      41.758  33.792  36.457  1.00  0.00     0.200 A 
ATOM     76  F   UNL A   1      43.156  35.107  35.083  1.00  0.00    -0.200 F 
ATOM     77  F   UNL A   1      41.654  34.798  37.338  1.00  0.00    -0.200 F 
ENDBRANCH  53  67
BRANCH  54  78
ATOM     78  C   UNL A   1      42.810  24.473  27.800  1.00  0.00     0.064 A 
ATOM     79  C   UNL A   1      42.416  23.158  28.082  1.00  0.00     0.173 A 
ATOM     80  C   UNL A   1      43.341  24.741  26.531  1.00  0.00     0.173 A 
ATOM     81  F   UNL A   1      41.925  22.851  29.291  1.00  0.00    -0.203 F 
ATOM     82  C   UNL A   1      42.566  22.145  27.137  1.00  0.00     0.198 A 
ATOM     83  C   UNL A   1      43.464  23.734  25.578  1.00  0.00     0.198 A 
ATOM     84  F   UNL A   1      43.727  25.986  26.212  1.00  0.00    -0.203 F 
ATOM     85  F   UNL A   1      42.220  20.888  27.445  1.00  0.00    -0.200 F 
ATOM     86  C   UNL A   1      43.084  22.435  25.884  1.00  0.00     0.200 A 
ATOM     87  F   UNL A   1      43.953  24.020  24.363  1.00  0.00    -0.200 F 
ATOM     88  F   UNL A   1      43.221  21.462  24.973  1.00  0.00    -0.200 F 
ENDBRANCH  54  78
BRANCH  66  89
ATOM     89  C   UNL A   1      46.581  26.290  33.358  1.00  0.00     0.064 A 
ATOM     90  C   UNL A   1      47.842  26.841  33.086  1.00  0.00     0.173 A 
ATOM     91  C   UNL A   1      46.517  25.193  34.231  1.00  0.00     0.173 A 
ATOM     92  F   UNL A   1      47.957  27.879  32.245  1.00  0.00    -0.203 F 
ATOM     93  C   UNL A   1      48.996  26.297  33.644  1.00  0.00     0.198 A 
ATOM     94  C   UNL A   1      47.671  24.668  34.807  1.00  0.00     0.198 A 
ATOM     95  F   UNL A   1      45.335  24.631  34.526  1.00  0.00    -0.203 F 
ATOM     96  F   UNL A   1      50.194  26.808  33.330  1.00  0.00    -0.200 F 
ATOM     97  C   UNL A   1      48.909  25.215  34.507  1.00  0.00     0.200 A 
ATOM     98  F   UNL A   1      47.585  23.628  35.648  1.00  0.00    -0.200 F 
ATOM     99  F   UNL A   1      50.021  24.692  35.042  1.00  0.00    -0.200 F 
ENDBRANCH  66  89
ENDBRANCH  40  41
ENDBRANCH  32  35
ENDBRANCH  30  31
ENDBRANCH  29  30
ENDBRANCH   1  29
TORSDOF 14
ENDMDL
