MODEL 1
REMARK VINA RESULT:     -13.1      0.000      0.000
REMARK SMILES C[N@H+]1Cc2ccccc2C[C@@H]1C(=O)NCCC(=O)NCC(=O)NCCCNC(=O)c1ccc(-c2c3nc(c(-c4c(F)c(F)c(F)c(F)c4F)c4ccc([nH]4)c(-c4c(F)c(F)c(F)c(F)c4F)c4nc(c(-c5c(F)c(F)c(F)c(F)c5F)c5ccc2[nH]5)C=C4)C=C3)cc1
REMARK SMILES IDX 21 1 22 2 23 3 20 5 19 6 17 7 18 8 16 10 15 11 14 12 12 13
REMARK SMILES IDX 13 14 11 16 1 17 2 18 3 19 4 21 10 22 5 23 9 24 6 25 8 26
REMARK SMILES IDX 7 27 24 28 25 29 26 30 27 31 28 32 29 34 30 35 31 36 92 37
REMARK SMILES IDX 32 38 91 39 33 40 34 41 35 42 85 43 36 44 90 45 84 46 86 47
REMARK SMILES IDX 37 48 89 49 83 50 82 51 38 53 70 54 50 55 69 56 51 57 54 58
REMARK SMILES IDX 68 59 87 60 52 61 53 62 67 64 88 65 55 66 39 67 40 68 48 69
REMARK SMILES IDX 41 70 42 71 46 72 49 73 43 74 44 75 47 76 45 77 71 78 72 79
REMARK SMILES IDX 80 80 73 81 74 82 78 83 81 84 75 85 76 86 79 87 77 88 56 89
REMARK SMILES IDX 57 90 65 91 58 92 59 93 63 94 66 95 60 96 61 97 64 98 62 99
REMARK H PARENT 23 4 19 9 14 15 2 20 27 33 86 52 54 63
REMARK Flexibility Score: inf
ROOT
ATOM      1  C   UNL A   1      30.836  29.377  24.086  1.00  0.00     0.239 C 
ATOM      2  O   UNL A   1      30.009  29.527  23.180  1.00  0.00    -0.273 OA
ATOM      3  N   UNL A   1      31.030  30.447  24.907  1.00  0.00    -0.355 N 
ATOM      4  H   UNL A   1      30.502  31.237  24.645  1.00  0.00     0.163 HD
ENDROOT
BRANCH   1   5
ATOM      5  C   UNL A   1      31.442  27.984  24.345  1.00  0.00     0.216 C 
BRANCH   5   6
ATOM      6  N   UNL A   1      30.872  27.219  25.440  1.00  0.00    -0.347 N 
ATOM      7  C   UNL A   1      30.331  25.970  25.459  1.00  0.00     0.222 C 
ATOM      8  O   UNL A   1      29.810  25.583  26.506  1.00  0.00    -0.275 OA
ATOM      9  H   UNL A   1      30.878  27.678  26.310  1.00  0.00     0.164 HD
BRANCH   7  10
ATOM     10  C   UNL A   1      30.320  25.100  24.219  1.00  0.00     0.121 C 
BRANCH  10  11
ATOM     11  C   UNL A   1      31.479  24.099  24.174  1.00  0.00     0.126 C 
BRANCH  11  12
ATOM     12  N   UNL A   1      32.096  23.915  25.482  1.00  0.00    -0.350 N 
ATOM     13  C   UNL A   1      32.135  22.814  26.276  1.00  0.00     0.278 C 
ATOM     14  O   UNL A   1      31.691  22.975  27.421  1.00  0.00    -0.268 OA
ATOM     15  H   UNL A   1      32.553  24.708  25.845  1.00  0.00     0.163 HD
BRANCH  13  16
ATOM     16  C   UNL A   1      32.864  21.513  25.880  1.00  0.00     0.278 C 
ATOM     17  C   UNL A   1      34.998  22.695  26.373  1.00  0.00     0.333 C 
ATOM     18  N   UNL A   1      34.289  21.772  25.481  1.00  0.00    -0.323 N 
ATOM     19  C   UNL A   1      35.018  20.483  25.469  1.00  0.00     0.299 C 
ATOM     20  H   UNL A   1      34.259  22.211  24.561  1.00  0.00     0.348 HD
ATOM     21  C   UNL A   1      34.319  19.388  24.693  1.00  0.00     0.010 A 
ATOM     22  C   UNL A   1      32.194  20.734  24.742  1.00  0.00     0.111 C 
ATOM     23  C   UNL A   1      35.012  18.216  24.364  1.00  0.00     0.010 A 
ATOM     24  C   UNL A   1      32.962  19.498  24.355  1.00  0.00    -0.033 A 
ATOM     25  C   UNL A   1      34.371  17.186  23.673  1.00  0.00     0.001 A 
ATOM     26  C   UNL A   1      32.333  18.475  23.634  1.00  0.00     0.004 A 
ATOM     27  C   UNL A   1      33.037  17.321  23.299  1.00  0.00     0.000 A 
ENDBRANCH  13  16
ENDBRANCH  11  12
ENDBRANCH  10  11
ENDBRANCH   7  10
ENDBRANCH   5   6
ENDBRANCH   1   5
BRANCH   3  28
ATOM     28  C   UNL A   1      31.852  30.672  26.085  1.00  0.00     0.117 C 
BRANCH  28  29
ATOM     29  C   UNL A   1      31.497  31.942  26.830  1.00  0.00     0.042 C 
BRANCH  29  30
ATOM     30  C   UNL A   1      32.727  32.691  27.314  1.00  0.00     0.118 C 
BRANCH  30  31
ATOM     31  N   UNL A   1      32.459  34.097  27.609  1.00  0.00    -0.352 N 
ATOM     32  C   UNL A   1      33.006  34.941  28.545  1.00  0.00     0.251 C 
ATOM     33  H   UNL A   1      31.768  34.509  27.041  1.00  0.00     0.163 HD
ATOM     34  O   UNL A   1      32.511  36.050  28.733  1.00  0.00    -0.269 OA
BRANCH  32  35
ATOM     35  C   UNL A   1      34.166  34.514  29.355  1.00  0.00     0.039 A 
ATOM     36  C   UNL A   1      33.948  33.847  30.565  1.00  0.00     0.014 A 
ATOM     37  C   UNL A   1      35.469  34.758  28.923  1.00  0.00     0.014 A 
ATOM     38  C   UNL A   1      35.034  33.336  31.280  1.00  0.00     0.010 A 
ATOM     39  C   UNL A   1      36.535  34.144  29.566  1.00  0.00     0.010 A 
ATOM     40  C   UNL A   1      36.332  33.428  30.754  1.00  0.00    -0.014 A 
BRANCH  40  41
ATOM     41  C   UNL A   1      37.501  32.798  31.419  1.00  0.00     0.031 A 
ATOM     42  C   UNL A   1      38.210  31.648  30.755  1.00  0.00     0.074 A 
ATOM     43  C   UNL A   1      37.856  33.184  32.660  1.00  0.00     0.049 A 
ATOM     44  N   UNL A   1      39.138  30.858  31.233  1.00  0.00    -0.248 NA
ATOM     45  C   UNL A   1      37.783  31.311  29.387  1.00  0.00     0.031 C 
ATOM     46  C   UNL A   1      37.207  34.240  33.439  1.00  0.00     0.029 A 
ATOM     47  N   UNL A   1      38.841  32.716  33.495  1.00  0.00    -0.354 N 
ATOM     48  C   UNL A   1      39.376  29.916  30.241  1.00  0.00     0.074 A 
ATOM     49  C   UNL A   1      38.457  30.194  29.160  1.00  0.00     0.031 C 
ATOM     50  C   UNL A   1      37.824  34.355  34.626  1.00  0.00     0.029 A 
ATOM     51  C   UNL A   1      38.882  33.354  34.710  1.00  0.00     0.049 A 
ATOM     52  H   UNL A   1      39.458  31.991  33.246  1.00  0.00     0.167 HD
ATOM     53  C   UNL A   1      40.299  28.925  30.219  1.00  0.00     0.037 A 
ATOM     54  C   UNL A   1      39.677  33.148  35.777  1.00  0.00     0.037 A 
ATOM     55  C   UNL A   1      41.248  28.685  31.271  1.00  0.00     0.049 A 
ATOM     56  C   UNL A   1      40.723  32.068  35.712  1.00  0.00     0.074 A 
ATOM     57  C   UNL A   1      42.272  27.755  31.317  1.00  0.00     0.029 A 
ATOM     58  N   UNL A   1      41.298  29.395  32.463  1.00  0.00    -0.354 N 
ATOM     59  N   UNL A   1      40.976  31.220  34.746  1.00  0.00    -0.248 NA
ATOM     60  C   UNL A   1      41.596  31.921  36.885  1.00  0.00     0.031 C 
ATOM     61  C   UNL A   1      42.921  27.882  32.549  1.00  0.00     0.029 A 
ATOM     62  C   UNL A   1      42.329  28.917  33.255  1.00  0.00     0.049 A 
ATOM     63  H   UNL A   1      40.690  30.129  32.709  1.00  0.00     0.167 HD
ATOM     64  C   UNL A   1      42.049  30.455  35.181  1.00  0.00     0.074 A 
ATOM     65  C   UNL A   1      42.409  30.950  36.494  1.00  0.00     0.031 C 
ATOM     66  C   UNL A   1      42.677  29.431  34.554  1.00  0.00     0.037 A 
BRANCH  53  67
ATOM     67  C   UNL A   1      40.336  28.040  29.007  1.00  0.00     0.064 A 
ATOM     68  C   UNL A   1      39.616  26.837  28.955  1.00  0.00     0.173 A 
ATOM     69  C   UNL A   1      41.081  28.408  27.877  1.00  0.00     0.173 A 
ATOM     70  F   UNL A   1      38.899  26.433  30.014  1.00  0.00    -0.203 F 
ATOM     71  C   UNL A   1      39.666  26.020  27.829  1.00  0.00     0.198 A 
ATOM     72  C   UNL A   1      41.105  27.603  26.741  1.00  0.00     0.198 A 
ATOM     73  F   UNL A   1      41.786  29.550  27.872  1.00  0.00    -0.203 F 
ATOM     74  F   UNL A   1      39.014  24.848  27.823  1.00  0.00    -0.200 F 
ATOM     75  C   UNL A   1      40.405  26.406  26.721  1.00  0.00     0.200 A 
ATOM     76  F   UNL A   1      41.811  27.983  25.666  1.00  0.00    -0.200 F 
ATOM     77  F   UNL A   1      40.450  25.620  25.637  1.00  0.00    -0.200 F 
ENDBRANCH  53  67
BRANCH  54  78
ATOM     78  C   UNL A   1      39.534  34.000  36.985  1.00  0.00     0.064 A 
ATOM     79  C   UNL A   1      38.766  33.571  38.076  1.00  0.00     0.173 A 
ATOM     80  C   UNL A   1      40.159  35.251  37.078  1.00  0.00     0.173 A 
ATOM     81  F   UNL A   1      38.132  32.390  38.026  1.00  0.00    -0.203 F 
ATOM     82  C   UNL A   1      38.610  34.371  39.207  1.00  0.00     0.198 A 
ATOM     83  C   UNL A   1      40.025  36.039  38.219  1.00  0.00     0.198 A 
ATOM     84  F   UNL A   1      40.910  35.703  36.062  1.00  0.00    -0.203 F 
ATOM     85  F   UNL A   1      37.836  33.956  40.218  1.00  0.00    -0.200 F 
ATOM     86  C   UNL A   1      39.246  35.601  39.280  1.00  0.00     0.200 A 
ATOM     87  F   UNL A   1      40.650  37.222  38.291  1.00  0.00    -0.200 F 
ATOM     88  F   UNL A   1      39.100  36.369  40.368  1.00  0.00    -0.200 F 
ENDBRANCH  54  78
BRANCH  66  89
ATOM     89  C   UNL A   1      43.836  28.799  35.263  1.00  0.00     0.064 A 
ATOM     90  C   UNL A   1      45.149  29.251  35.069  1.00  0.00     0.173 A 
ATOM     91  C   UNL A   1      43.624  27.760  36.181  1.00  0.00     0.173 A 
ATOM     92  F   UNL A   1      45.402  30.232  34.190  1.00  0.00    -0.203 F 
ATOM     93  C   UNL A   1      46.212  28.671  35.756  1.00  0.00     0.198 A 
ATOM     94  C   UNL A   1      44.686  27.201  36.885  1.00  0.00     0.198 A 
ATOM     95  F   UNL A   1      42.385  27.297  36.404  1.00  0.00    -0.203 F 
ATOM     96  F   UNL A   1      47.464  29.091  35.526  1.00  0.00    -0.200 F 
ATOM     97  C   UNL A   1      45.979  27.653  36.667  1.00  0.00     0.200 A 
ATOM     98  F   UNL A   1      44.458  26.224  37.775  1.00  0.00    -0.200 F 
ATOM     99  F   UNL A   1      47.002  27.101  37.334  1.00  0.00    -0.200 F 
ENDBRANCH  66  89
ENDBRANCH  40  41
ENDBRANCH  32  35
ENDBRANCH  30  31
ENDBRANCH  29  30
ENDBRANCH  28  29
ENDBRANCH   3  28
TORSDOF 15
ENDMDL
MODEL 2
REMARK VINA RESULT:     -13.0      5.271     10.629
REMARK SMILES C[N@H+]1Cc2ccccc2C[C@@H]1C(=O)NCCC(=O)NCC(=O)NCCCNC(=O)c1ccc(-c2c3nc(c(-c4c(F)c(F)c(F)c(F)c4F)c4ccc([nH]4)c(-c4c(F)c(F)c(F)c(F)c4F)c4nc(c(-c5c(F)c(F)c(F)c(F)c5F)c5ccc2[nH]5)C=C4)C=C3)cc1
REMARK SMILES IDX 21 1 22 2 23 3 20 5 19 6 17 7 18 8 16 10 15 11 14 12 12 13
REMARK SMILES IDX 13 14 11 16 1 17 2 18 3 19 4 21 10 22 5 23 9 24 6 25 8 26
REMARK SMILES IDX 7 27 24 28 25 29 26 30 27 31 28 32 29 34 30 35 31 36 92 37
REMARK SMILES IDX 32 38 91 39 33 40 34 41 35 42 85 43 36 44 90 45 84 46 86 47
REMARK SMILES IDX 37 48 89 49 83 50 82 51 38 53 70 54 50 55 69 56 51 57 54 58
REMARK SMILES IDX 68 59 87 60 52 61 53 62 67 64 88 65 55 66 39 67 40 68 48 69
REMARK SMILES IDX 41 70 42 71 46 72 49 73 43 74 44 75 47 76 45 77 71 78 72 79
REMARK SMILES IDX 80 80 73 81 74 82 78 83 81 84 75 85 76 86 79 87 77 88 56 89
REMARK SMILES IDX 57 90 65 91 58 92 59 93 63 94 66 95 60 96 61 97 64 98 62 99
REMARK H PARENT 23 4 19 9 14 15 2 20 27 33 86 52 54 63
REMARK Flexibility Score: inf
ROOT
ATOM      1  C   UNL A   1      43.033  18.462  26.406  1.00  0.00     0.239 C 
ATOM      2  O   UNL A   1      43.730  17.495  26.734  1.00  0.00    -0.273 OA
ATOM      3  N   UNL A   1      42.111  18.876  27.320  1.00  0.00    -0.355 N 
ATOM      4  H   UNL A   1      42.090  18.317  28.130  1.00  0.00     0.163 HD
ENDROOT
BRANCH   1   5
ATOM      5  C   UNL A   1      43.356  19.233  25.111  1.00  0.00     0.216 C 
BRANCH   5   6
ATOM      6  N   UNL A   1      44.762  19.440  24.809  1.00  0.00    -0.347 N 
ATOM      7  C   UNL A   1      45.585  20.482  25.105  1.00  0.00     0.222 C 
ATOM      8  O   UNL A   1      46.724  20.468  24.637  1.00  0.00    -0.275 OA
ATOM      9  H   UNL A   1      45.188  18.708  24.310  1.00  0.00     0.164 HD
BRANCH   7  10
ATOM     10  C   UNL A   1      45.103  21.652  25.939  1.00  0.00     0.121 C 
BRANCH  10  11
ATOM     11  C   UNL A   1      45.093  22.978  25.170  1.00  0.00     0.126 C 
BRANCH  11  12
ATOM     12  N   UNL A   1      46.406  23.613  25.155  1.00  0.00    -0.350 N 
ATOM     13  C   UNL A   1      46.764  24.852  24.732  1.00  0.00     0.278 C 
ATOM     14  O   UNL A   1      47.653  24.878  23.870  1.00  0.00    -0.268 OA
ATOM     15  H   UNL A   1      47.142  23.060  25.503  1.00  0.00     0.163 HD
BRANCH  13  16
ATOM     16  C   UNL A   1      46.274  26.150  25.409  1.00  0.00     0.278 C 
ATOM     17  C   UNL A   1      48.111  25.847  27.061  1.00  0.00     0.333 C 
ATOM     18  N   UNL A   1      46.712  26.231  26.843  1.00  0.00    -0.323 N 
ATOM     19  C   UNL A   1      46.532  27.623  27.314  1.00  0.00     0.299 C 
ATOM     20  H   UNL A   1      46.138  25.567  27.362  1.00  0.00     0.348 HD
ATOM     21  C   UNL A   1      45.163  28.199  27.024  1.00  0.00     0.010 A 
ATOM     22  C   UNL A   1      44.754  26.346  25.372  1.00  0.00     0.111 C 
ATOM     23  C   UNL A   1      44.760  29.387  27.649  1.00  0.00     0.010 A 
ATOM     24  C   UNL A   1      44.313  27.599  26.084  1.00  0.00    -0.033 A 
ATOM     25  C   UNL A   1      43.512  29.944  27.368  1.00  0.00     0.001 A 
ATOM     26  C   UNL A   1      43.049  28.144  25.830  1.00  0.00     0.004 A 
ATOM     27  C   UNL A   1      42.653  29.317  26.469  1.00  0.00     0.000 A 
ENDBRANCH  13  16
ENDBRANCH  11  12
ENDBRANCH  10  11
ENDBRANCH   7  10
ENDBRANCH   5   6
ENDBRANCH   1   5
BRANCH   3  28
ATOM     28  C   UNL A   1      41.151  19.968  27.351  1.00  0.00     0.117 C 
BRANCH  28  29
ATOM     29  C   UNL A   1      41.794  21.326  27.543  1.00  0.00     0.042 C 
BRANCH  29  30
ATOM     30  C   UNL A   1      41.586  22.238  26.347  1.00  0.00     0.118 C 
BRANCH  30  31
ATOM     31  N   UNL A   1      40.216  22.208  25.838  1.00  0.00    -0.352 N 
ATOM     32  C   UNL A   1      39.159  23.062  26.045  1.00  0.00     0.251 C 
ATOM     33  H   UNL A   1      40.017  21.447  25.247  1.00  0.00     0.163 HD
ATOM     34  O   UNL A   1      38.037  22.754  25.649  1.00  0.00    -0.269 OA
BRANCH  32  35
ATOM     35  C   UNL A   1      39.352  24.334  26.772  1.00  0.00     0.039 A 
ATOM     36  C   UNL A   1      38.902  24.443  28.092  1.00  0.00     0.014 A 
ATOM     37  C   UNL A   1      39.985  25.416  26.163  1.00  0.00     0.014 A 
ATOM     38  C   UNL A   1      39.182  25.598  28.826  1.00  0.00     0.010 A 
ATOM     39  C   UNL A   1      40.372  26.508  26.928  1.00  0.00     0.010 A 
ATOM     40  C   UNL A   1      39.973  26.615  28.268  1.00  0.00    -0.014 A 
BRANCH  40  41
ATOM     41  C   UNL A   1      40.395  27.806  29.048  1.00  0.00     0.031 A 
ATOM     42  C   UNL A   1      41.756  27.835  29.692  1.00  0.00     0.074 A 
ATOM     43  C   UNL A   1      39.522  28.808  29.270  1.00  0.00     0.049 A 
ATOM     44  N   UNL A   1      42.254  28.696  30.543  1.00  0.00    -0.248 NA
ATOM     45  C   UNL A   1      42.660  26.718  29.374  1.00  0.00     0.031 C 
ATOM     46  C   UNL A   1      38.152  28.868  28.758  1.00  0.00     0.029 A 
ATOM     47  N   UNL A   1      39.653  29.962  30.002  1.00  0.00    -0.354 N 
ATOM     48  C   UNL A   1      43.507  28.206  30.883  1.00  0.00     0.074 A 
ATOM     49  C   UNL A   1      43.672  26.944  30.197  1.00  0.00     0.031 C 
ATOM     50  C   UNL A   1      37.577  30.009  29.172  1.00  0.00     0.029 A 
ATOM     51  C   UNL A   1      38.520  30.738  30.012  1.00  0.00     0.049 A 
ATOM     52  H   UNL A   1      40.480  30.209  30.475  1.00  0.00     0.167 HD
ATOM     53  C   UNL A   1      44.450  28.772  31.675  1.00  0.00     0.037 A 
ATOM     54  C   UNL A   1      38.267  31.904  30.638  1.00  0.00     0.037 A 
ATOM     55  C   UNL A   1      44.305  30.051  32.312  1.00  0.00     0.049 A 
ATOM     56  C   UNL A   1      39.346  32.532  31.478  1.00  0.00     0.074 A 
ATOM     57  C   UNL A   1      45.227  30.747  33.074  1.00  0.00     0.029 A 
ATOM     58  N   UNL A   1      43.163  30.837  32.248  1.00  0.00    -0.354 N 
ATOM     59  N   UNL A   1      40.549  32.086  31.747  1.00  0.00    -0.248 NA
ATOM     60  C   UNL A   1      39.032  33.828  32.096  1.00  0.00     0.031 C 
ATOM     61  C   UNL A   1      44.632  31.940  33.497  1.00  0.00     0.029 A 
ATOM     62  C   UNL A   1      43.354  32.006  32.965  1.00  0.00     0.049 A 
ATOM     63  H   UNL A   1      42.339  30.599  31.765  1.00  0.00     0.167 HD
ATOM     64  C   UNL A   1      41.144  33.053  32.546  1.00  0.00     0.074 A 
ATOM     65  C   UNL A   1      40.174  34.118  32.704  1.00  0.00     0.031 C 
ATOM     66  C   UNL A   1      42.379  33.058  33.101  1.00  0.00     0.037 A 
BRANCH  53  67
ATOM     67  C   UNL A   1      45.730  28.013  31.876  1.00  0.00     0.064 A 
ATOM     68  C   UNL A   1      46.873  28.285  31.109  1.00  0.00     0.173 A 
ATOM     69  C   UNL A   1      45.822  27.019  32.861  1.00  0.00     0.173 A 
ATOM     70  F   UNL A   1      46.832  29.217  30.145  1.00  0.00    -0.203 F 
ATOM     71  C   UNL A   1      48.051  27.568  31.299  1.00  0.00     0.198 A 
ATOM     72  C   UNL A   1      47.012  26.324  33.069  1.00  0.00     0.198 A 
ATOM     73  F   UNL A   1      44.760  26.720  33.625  1.00  0.00    -0.203 F 
ATOM     74  F   UNL A   1      49.113  27.808  30.517  1.00  0.00    -0.200 F 
ATOM     75  C   UNL A   1      48.121  26.593  32.283  1.00  0.00     0.200 A 
ATOM     76  F   UNL A   1      47.082  25.389  34.028  1.00  0.00    -0.200 F 
ATOM     77  F   UNL A   1      49.257  25.906  32.466  1.00  0.00    -0.200 F 
ENDBRANCH  53  67
BRANCH  54  78
ATOM     78  C   UNL A   1      36.947  32.564  30.472  1.00  0.00     0.064 A 
ATOM     79  C   UNL A   1      36.665  33.322  29.328  1.00  0.00     0.173 A 
ATOM     80  C   UNL A   1      35.944  32.451  31.445  1.00  0.00     0.173 A 
ATOM     81  F   UNL A   1      37.600  33.476  28.379  1.00  0.00    -0.203 F 
ATOM     82  C   UNL A   1      35.436  33.960  29.171  1.00  0.00     0.198 A 
ATOM     83  C   UNL A   1      34.706  33.067  31.275  1.00  0.00     0.198 A 
ATOM     84  F   UNL A   1      36.164  31.731  32.555  1.00  0.00    -0.203 F 
ATOM     85  F   UNL A   1      35.207  34.713  28.087  1.00  0.00    -0.200 F 
ATOM     86  C   UNL A   1      34.455  33.826  30.142  1.00  0.00     0.200 A 
ATOM     87  F   UNL A   1      33.756  32.926  32.210  1.00  0.00    -0.200 F 
ATOM     88  F   UNL A   1      33.272  34.436  29.990  1.00  0.00    -0.200 F 
ENDBRANCH  54  78
BRANCH  66  89
ATOM     89  C   UNL A   1      42.766  34.263  33.905  1.00  0.00     0.064 A 
ATOM     90  C   UNL A   1      43.354  35.385  33.306  1.00  0.00     0.173 A 
ATOM     91  C   UNL A   1      42.502  34.310  35.282  1.00  0.00     0.173 A 
ATOM     92  F   UNL A   1      43.640  35.380  31.996  1.00  0.00    -0.203 F 
ATOM     93  C   UNL A   1      43.682  36.507  34.063  1.00  0.00     0.198 A 
ATOM     94  C   UNL A   1      42.807  35.443  36.029  1.00  0.00     0.198 A 
ATOM     95  F   UNL A   1      41.935  33.262  35.899  1.00  0.00    -0.203 F 
ATOM     96  F   UNL A   1      44.281  37.555  33.479  1.00  0.00    -0.200 F 
ATOM     97  C   UNL A   1      43.402  36.538  35.421  1.00  0.00     0.200 A 
ATOM     98  F   UNL A   1      42.525  35.476  37.340  1.00  0.00    -0.200 F 
ATOM     99  F   UNL A   1      43.711  37.622  36.146  1.00  0.00    -0.200 F 
ENDBRANCH  66  89
ENDBRANCH  40  41
ENDBRANCH  32  35
ENDBRANCH  30  31
ENDBRANCH  29  30
ENDBRANCH  28  29
ENDBRANCH   3  28
TORSDOF 15
ENDMDL
MODEL 3
REMARK VINA RESULT:     -12.9      0.829      1.835
REMARK SMILES C[N@H+]1Cc2ccccc2C[C@@H]1C(=O)NCCC(=O)NCC(=O)NCCCNC(=O)c1ccc(-c2c3nc(c(-c4c(F)c(F)c(F)c(F)c4F)c4ccc([nH]4)c(-c4c(F)c(F)c(F)c(F)c4F)c4nc(c(-c5c(F)c(F)c(F)c(F)c5F)c5ccc2[nH]5)C=C4)C=C3)cc1
REMARK SMILES IDX 21 1 22 2 23 3 20 5 19 6 17 7 18 8 16 10 15 11 14 12 12 13
REMARK SMILES IDX 13 14 11 16 1 17 2 18 3 19 4 21 10 22 5 23 9 24 6 25 8 26
REMARK SMILES IDX 7 27 24 28 25 29 26 30 27 31 28 32 29 34 30 35 31 36 92 37
REMARK SMILES IDX 32 38 91 39 33 40 34 41 35 42 85 43 36 44 90 45 84 46 86 47
REMARK SMILES IDX 37 48 89 49 83 50 82 51 38 53 70 54 50 55 69 56 51 57 54 58
REMARK SMILES IDX 68 59 87 60 52 61 53 62 67 64 88 65 55 66 39 67 40 68 48 69
REMARK SMILES IDX 41 70 42 71 46 72 49 73 43 74 44 75 47 76 45 77 71 78 72 79
REMARK SMILES IDX 80 80 73 81 74 82 78 83 81 84 75 85 76 86 79 87 77 88 56 89
REMARK SMILES IDX 57 90 65 91 58 92 59 93 63 94 66 95 60 96 61 97 64 98 62 99
REMARK H PARENT 23 4 19 9 14 15 2 20 27 33 86 52 54 63
REMARK Flexibility Score: inf
ROOT
ATOM      1  C   UNL A   1      31.624  29.200  23.992  1.00  0.00     0.239 C 
ATOM      2  O   UNL A   1      30.875  29.139  23.010  1.00  0.00    -0.273 OA
ATOM      3  N   UNL A   1      31.318  30.145  24.924  1.00  0.00    -0.355 N 
ATOM      4  H   UNL A   1      30.542  30.698  24.676  1.00  0.00     0.163 HD
ENDROOT
BRANCH   1   5
ATOM      5  C   UNL A   1      32.711  28.126  24.192  1.00  0.00     0.216 C 
BRANCH   5   6
ATOM      6  N   UNL A   1      33.264  27.526  22.990  1.00  0.00    -0.347 N 
ATOM      7  C   UNL A   1      32.869  26.431  22.287  1.00  0.00     0.222 C 
ATOM      8  O   UNL A   1      33.578  26.058  21.351  1.00  0.00    -0.275 OA
ATOM      9  H   UNL A   1      34.053  27.987  22.625  1.00  0.00     0.164 HD
BRANCH   7  10
ATOM     10  C   UNL A   1      31.624  25.657  22.672  1.00  0.00     0.121 C 
BRANCH  10  11
ATOM     11  C   UNL A   1      31.923  24.228  23.140  1.00  0.00     0.126 C 
BRANCH  11  12
ATOM     12  N   UNL A   1      32.475  24.197  24.489  1.00  0.00    -0.350 N 
ATOM     13  C   UNL A   1      32.374  23.239  25.446  1.00  0.00     0.278 C 
ATOM     14  O   UNL A   1      31.912  23.623  26.529  1.00  0.00    -0.268 OA
ATOM     15  H   UNL A   1      32.999  24.990  24.746  1.00  0.00     0.163 HD
BRANCH  13  16
ATOM     16  C   UNL A   1      32.977  21.827  25.294  1.00  0.00     0.278 C 
ATOM     17  C   UNL A   1      35.148  22.801  26.023  1.00  0.00     0.333 C 
ATOM     18  N   UNL A   1      34.467  21.874  25.113  1.00  0.00    -0.323 N 
ATOM     19  C   UNL A   1      35.013  20.515  25.337  1.00  0.00     0.299 C 
ATOM     20  H   UNL A   1      34.636  22.210  24.165  1.00  0.00     0.348 HD
ATOM     21  C   UNL A   1      34.303  19.430  24.558  1.00  0.00     0.010 A 
ATOM     22  C   UNL A   1      32.390  21.010  24.136  1.00  0.00     0.111 C 
ATOM     23  C   UNL A   1      34.877  18.157  24.454  1.00  0.00     0.010 A 
ATOM     24  C   UNL A   1      33.039  19.659  23.993  1.00  0.00    -0.033 A 
ATOM     25  C   UNL A   1      34.218  17.139  23.763  1.00  0.00     0.001 A 
ATOM     26  C   UNL A   1      32.397  18.643  23.273  1.00  0.00     0.004 A 
ATOM     27  C   UNL A   1      32.986  17.385  23.163  1.00  0.00     0.000 A 
ENDBRANCH  13  16
ENDBRANCH  11  12
ENDBRANCH  10  11
ENDBRANCH   7  10
ENDBRANCH   5   6
ENDBRANCH   1   5
BRANCH   3  28
ATOM     28  C   UNL A   1      31.895  30.511  26.209  1.00  0.00     0.117 C 
BRANCH  28  29
ATOM     29  C   UNL A   1      31.537  31.916  26.647  1.00  0.00     0.042 C 
BRANCH  29  30
ATOM     30  C   UNL A   1      32.699  32.625  27.320  1.00  0.00     0.118 C 
BRANCH  30  31
ATOM     31  N   UNL A   1      32.417  34.029  27.615  1.00  0.00    -0.352 N 
ATOM     32  C   UNL A   1      32.968  34.883  28.539  1.00  0.00     0.251 C 
ATOM     33  H   UNL A   1      31.712  34.429  27.056  1.00  0.00     0.163 HD
ATOM     34  O   UNL A   1      32.461  35.986  28.732  1.00  0.00    -0.269 OA
BRANCH  32  35
ATOM     35  C   UNL A   1      34.146  34.474  29.332  1.00  0.00     0.039 A 
ATOM     36  C   UNL A   1      33.959  33.951  30.616  1.00  0.00     0.014 A 
ATOM     37  C   UNL A   1      35.434  34.592  28.813  1.00  0.00     0.014 A 
ATOM     38  C   UNL A   1      35.054  33.454  31.327  1.00  0.00     0.010 A 
ATOM     39  C   UNL A   1      36.499  33.986  29.464  1.00  0.00     0.010 A 
ATOM     40  C   UNL A   1      36.324  33.412  30.731  1.00  0.00    -0.014 A 
BRANCH  40  41
ATOM     41  C   UNL A   1      37.492  32.786  31.402  1.00  0.00     0.031 A 
ATOM     42  C   UNL A   1      38.202  31.632  30.745  1.00  0.00     0.074 A 
ATOM     43  C   UNL A   1      37.844  33.178  32.641  1.00  0.00     0.049 A 
ATOM     44  N   UNL A   1      39.129  30.845  31.228  1.00  0.00    -0.248 NA
ATOM     45  C   UNL A   1      37.777  31.288  29.378  1.00  0.00     0.031 C 
ATOM     46  C   UNL A   1      37.193  34.238  33.413  1.00  0.00     0.029 A 
ATOM     47  N   UNL A   1      38.828  32.715  33.480  1.00  0.00    -0.354 N 
ATOM     48  C   UNL A   1      39.370  29.898  30.242  1.00  0.00     0.074 A 
ATOM     49  C   UNL A   1      38.452  30.170  29.158  1.00  0.00     0.031 C 
ATOM     50  C   UNL A   1      37.808  34.360  34.601  1.00  0.00     0.029 A 
ATOM     51  C   UNL A   1      38.866  33.359  34.692  1.00  0.00     0.049 A 
ATOM     52  H   UNL A   1      39.446  31.988  33.236  1.00  0.00     0.167 HD
ATOM     53  C   UNL A   1      40.293  28.907  30.227  1.00  0.00     0.037 A 
ATOM     54  C   UNL A   1      39.660  33.159  35.761  1.00  0.00     0.037 A 
ATOM     55  C   UNL A   1      41.240  28.673  31.282  1.00  0.00     0.049 A 
ATOM     56  C   UNL A   1      40.706  32.079  35.704  1.00  0.00     0.074 A 
ATOM     57  C   UNL A   1      42.264  27.744  31.334  1.00  0.00     0.029 A 
ATOM     58  N   UNL A   1      41.287  29.389  32.470  1.00  0.00    -0.354 N 
ATOM     59  N   UNL A   1      40.962  31.226  34.742  1.00  0.00    -0.248 NA
ATOM     60  C   UNL A   1      41.577  31.939  36.879  1.00  0.00     0.031 C 
ATOM     61  C   UNL A   1      42.911  27.877  32.567  1.00  0.00     0.029 A 
ATOM     62  C   UNL A   1      42.317  28.915  33.266  1.00  0.00     0.049 A 
ATOM     63  H   UNL A   1      40.679  30.124  32.711  1.00  0.00     0.167 HD
ATOM     64  C   UNL A   1      42.033  30.463  35.184  1.00  0.00     0.074 A 
ATOM     65  C   UNL A   1      42.392  30.966  36.495  1.00  0.00     0.031 C 
ATOM     66  C   UNL A   1      42.663  29.437  34.563  1.00  0.00     0.037 A 
BRANCH  53  67
ATOM     67  C   UNL A   1      40.333  28.016  29.019  1.00  0.00     0.064 A 
ATOM     68  C   UNL A   1      41.079  28.356  27.880  1.00  0.00     0.173 A 
ATOM     69  C   UNL A   1      39.636  26.799  29.008  1.00  0.00     0.173 A 
ATOM     70  F   UNL A   1      41.751  29.515  27.836  1.00  0.00    -0.203 F 
ATOM     71  C   UNL A   1      41.099  27.526  26.763  1.00  0.00     0.198 A 
ATOM     72  C   UNL A   1      39.684  25.956  27.900  1.00  0.00     0.198 A 
ATOM     73  F   UNL A   1      38.910  26.423  30.072  1.00  0.00    -0.203 F 
ATOM     74  F   UNL A   1      41.774  27.898  25.666  1.00  0.00    -0.200 F 
ATOM     75  C   UNL A   1      40.408  26.324  26.776  1.00  0.00     0.200 A 
ATOM     76  F   UNL A   1      39.023  24.789  27.918  1.00  0.00    -0.200 F 
ATOM     77  F   UNL A   1      40.431  25.525  25.701  1.00  0.00    -0.200 F 
ENDBRANCH  53  67
BRANCH  54  78
ATOM     78  C   UNL A   1      39.514  34.017  36.965  1.00  0.00     0.064 A 
ATOM     79  C   UNL A   1      40.131  35.273  37.028  1.00  0.00     0.173 A 
ATOM     80  C   UNL A   1      38.756  33.605  38.071  1.00  0.00     0.173 A 
ATOM     81  F   UNL A   1      40.883  35.702  36.004  1.00  0.00    -0.203 F 
ATOM     82  C   UNL A   1      40.014  36.078  38.160  1.00  0.00     0.198 A 
ATOM     83  C   UNL A   1      38.618  34.421  39.191  1.00  0.00     0.198 A 
ATOM     84  F   UNL A   1      38.140  32.413  38.056  1.00  0.00    -0.203 F 
ATOM     85  F   UNL A   1      40.650  37.255  38.211  1.00  0.00    -0.200 F 
ATOM     86  C   UNL A   1      39.252  35.653  39.238  1.00  0.00     0.200 A 
ATOM     87  F   UNL A   1      37.871  34.013  40.226  1.00  0.00    -0.200 F 
ATOM     88  F   UNL A   1      39.137  36.428  40.325  1.00  0.00    -0.200 F 
ENDBRANCH  54  78
BRANCH  66  89
ATOM     89  C   UNL A   1      43.821  28.809  35.277  1.00  0.00     0.064 A 
ATOM     90  C   UNL A   1      45.137  29.239  35.059  1.00  0.00     0.173 A 
ATOM     91  C   UNL A   1      43.605  27.796  36.224  1.00  0.00     0.173 A 
ATOM     92  F   UNL A   1      45.394  30.194  34.152  1.00  0.00    -0.203 F 
ATOM     93  C   UNL A   1      46.200  28.664  35.751  1.00  0.00     0.198 A 
ATOM     94  C   UNL A   1      44.667  27.243  36.932  1.00  0.00     0.198 A 
ATOM     95  F   UNL A   1      42.363  27.355  36.471  1.00  0.00    -0.203 F 
ATOM     96  F   UNL A   1      47.454  29.062  35.499  1.00  0.00    -0.200 F 
ATOM     97  C   UNL A   1      45.963  27.672  36.691  1.00  0.00     0.200 A 
ATOM     98  F   UNL A   1      44.435  26.292  37.849  1.00  0.00    -0.200 F 
ATOM     99  F   UNL A   1      46.986  27.126  37.362  1.00  0.00    -0.200 F 
ENDBRANCH  66  89
ENDBRANCH  40  41
ENDBRANCH  32  35
ENDBRANCH  30  31
ENDBRANCH  29  30
ENDBRANCH  28  29
ENDBRANCH   3  28
TORSDOF 15
ENDMDL
