MODEL 1
REMARK VINA RESULT:     -10.5      0.000      0.000
REMARK SMILES C[C@H](C(=O)NCCCNC(=O)c1ccc(-c2c3nc(c(-c4c(F)c(F)c(F)c(F)c4F)c4ccc([nH]4)c(-c4c(F)c(F)c(F)c(F)c4F)c4nc(c(-c5c(F)c(F)c(F)c(F)c5F)c5ccc2[nH]5)C=C4)C=C3)cc1)[C@H](C)[N@@H+]1CC[C@H]([NH+]2CCCCC2)C1
REMARK SMILES IDX 6 1 5 2 3 3 4 4 2 6 1 7 75 8 76 9 77 10 78 11 87 12 79 14
REMARK SMILES IDX 80 15 81 16 82 17 86 18 83 20 85 21 84 22 7 23 8 24 9 25
REMARK SMILES IDX 10 26 11 28 12 29 13 30 74 31 14 32 73 33 15 34 16 35 17 36
REMARK SMILES IDX 67 37 18 38 72 39 66 40 68 41 19 42 71 43 65 44 64 45 20 47
REMARK SMILES IDX 52 48 32 49 51 50 33 51 36 52 50 53 69 54 34 55 35 56 49 58
REMARK SMILES IDX 70 59 37 60 21 61 22 62 30 63 23 64 24 65 28 66 31 67 25 68
REMARK SMILES IDX 26 69 29 70 27 71 53 72 54 73 62 74 55 75 56 76 60 77 63 78
REMARK SMILES IDX 57 79 58 80 61 81 59 82 38 83 39 84 47 85 40 86 41 87 45 88
REMARK SMILES IDX 48 89 42 90 43 91 46 92 44 93
REMARK H PARENT 5 5 77 13 81 19 9 27 68 46 36 57
REMARK Flexibility Score: inf
ROOT
ATOM      1  C   UNL A   1      33.756  35.099  29.599  1.00  0.00     0.117 C 
ENDROOT
BRANCH   1   2
ATOM      2  N   UNL A   1      33.595  34.139  30.674  1.00  0.00    -0.356 N 
ATOM      3  C   UNL A   1      34.331  33.818  31.764  1.00  0.00     0.228 C 
ATOM      4  O   UNL A   1      33.971  32.765  32.314  1.00  0.00    -0.275 OA
ATOM      5  H   UNL A   1      32.773  33.604  30.594  1.00  0.00     0.163 HD
BRANCH   3   6
ATOM      6  C   UNL A   1      35.399  34.707  32.436  1.00  0.00     0.133 C 
ATOM      7  C   UNL A   1      34.910  35.019  33.872  1.00  0.00     0.024 C 
BRANCH   6   8
ATOM      8  C   UNL A   1      36.904  34.308  32.503  1.00  0.00     0.193 C 
ATOM      9  C   UNL A   1      37.317  33.690  31.142  1.00  0.00     0.076 C 
BRANCH   8  10
ATOM     10  N   UNL A   1      37.307  33.548  33.699  1.00  0.00    -0.327 N 
ATOM     11  C   UNL A   1      38.690  33.815  34.117  1.00  0.00     0.269 C 
ATOM     12  C   UNL A   1      37.154  32.095  33.570  1.00  0.00     0.328 C 
ATOM     13  H   UNL A   1      36.657  33.887  34.408  1.00  0.00     0.348 HD
ATOM     14  C   UNL A   1      39.333  32.486  34.488  1.00  0.00     0.132 C 
ATOM     15  C   UNL A   1      38.212  31.447  34.479  1.00  0.00     0.245 C 
BRANCH  15  16
ATOM     16  N   UNL A   1      38.606  30.055  34.132  1.00  0.00    -0.328 N 
ATOM     17  C   UNL A   1      37.733  29.440  33.116  1.00  0.00     0.262 C 
ATOM     18  C   UNL A   1      40.030  29.976  33.766  1.00  0.00     0.262 C 
ATOM     19  H   UNL A   1      38.472  29.499  34.976  1.00  0.00     0.348 HD
ATOM     20  C   UNL A   1      38.152  28.029  32.714  1.00  0.00     0.062 C 
ATOM     21  C   UNL A   1      40.474  28.561  33.386  1.00  0.00     0.062 C 
ATOM     22  C   UNL A   1      39.603  27.996  32.275  1.00  0.00     0.012 C 
ENDBRANCH  15  16
ENDBRANCH   8  10
ENDBRANCH   6   8
ENDBRANCH   3   6
ENDBRANCH   1   2
BRANCH   1  23
ATOM     23  C   UNL A   1      33.999  34.411  28.252  1.00  0.00     0.042 C 
BRANCH  23  24
ATOM     24  C   UNL A   1      34.788  33.109  28.332  1.00  0.00     0.118 C 
BRANCH  24  25
ATOM     25  N   UNL A   1      33.954  31.950  28.082  1.00  0.00    -0.352 N 
ATOM     26  C   UNL A   1      34.293  30.647  27.829  1.00  0.00     0.251 C 
ATOM     27  H   UNL A   1      32.985  32.127  28.097  1.00  0.00     0.163 HD
ATOM     28  O   UNL A   1      33.413  29.882  27.424  1.00  0.00    -0.269 OA
BRANCH  26  29
ATOM     29  C   UNL A   1      35.668  30.117  28.031  1.00  0.00     0.039 A 
ATOM     30  C   UNL A   1      36.022  29.688  29.318  1.00  0.00     0.014 A 
ATOM     31  C   UNL A   1      36.649  30.148  27.035  1.00  0.00     0.014 A 
ATOM     32  C   UNL A   1      37.338  29.312  29.607  1.00  0.00     0.010 A 
ATOM     33  C   UNL A   1      37.948  29.704  27.305  1.00  0.00     0.010 A 
ATOM     34  C   UNL A   1      38.318  29.323  28.605  1.00  0.00    -0.014 A 
BRANCH  34  35
ATOM     35  C   UNL A   1      39.742  29.037  28.931  1.00  0.00     0.031 A 
ATOM     36  C   UNL A   1      40.543  30.027  29.739  1.00  0.00     0.074 A 
ATOM     37  C   UNL A   1      40.328  27.901  28.507  1.00  0.00     0.049 A 
ATOM     38  N   UNL A   1      41.800  29.978  30.108  1.00  0.00    -0.248 NA
ATOM     39  C   UNL A   1      39.843  31.247  30.169  1.00  0.00     0.031 C 
ATOM     40  C   UNL A   1      39.684  26.873  27.689  1.00  0.00     0.029 A 
ATOM     41  N   UNL A   1      41.601  27.424  28.703  1.00  0.00    -0.354 N 
ATOM     42  C   UNL A   1      42.042  31.163  30.791  1.00  0.00     0.074 A 
ATOM     43  C   UNL A   1      40.818  31.934  30.745  1.00  0.00     0.031 C 
ATOM     44  C   UNL A   1      40.559  25.879  27.469  1.00  0.00     0.029 A 
ATOM     45  C   UNL A   1      41.831  26.206  28.111  1.00  0.00     0.049 A 
ATOM     46  H   UNL A   1      42.284  27.909  29.220  1.00  0.00     0.167 HD
ATOM     47  C   UNL A   1      43.172  31.568  31.422  1.00  0.00     0.037 A 
ATOM     48  C   UNL A   1      42.938  25.440  28.091  1.00  0.00     0.037 A 
ATOM     49  C   UNL A   1      44.380  30.792  31.506  1.00  0.00     0.049 A 
ATOM     50  C   UNL A   1      44.166  25.887  28.836  1.00  0.00     0.074 A 
ATOM     51  C   UNL A   1      45.565  31.102  32.151  1.00  0.00     0.029 A 
ATOM     52  N   UNL A   1      44.554  29.540  30.934  1.00  0.00    -0.354 N 
ATOM     53  N   UNL A   1      44.368  26.991  29.512  1.00  0.00    -0.248 NA
ATOM     54  C   UNL A   1      45.315  24.971  28.831  1.00  0.00     0.031 C 
ATOM     55  C   UNL A   1      46.464  30.047  31.950  1.00  0.00     0.029 A 
ATOM     56  C   UNL A   1      45.826  29.066  31.211  1.00  0.00     0.049 A 
ATOM     57  H   UNL A   1      43.873  29.060  30.409  1.00  0.00     0.167 HD
ATOM     58  C   UNL A   1      45.651  26.893  30.032  1.00  0.00     0.074 A 
ATOM     59  C   UNL A   1      46.178  25.613  29.605  1.00  0.00     0.031 C 
ATOM     60  C   UNL A   1      46.332  27.785  30.792  1.00  0.00     0.037 A 
BRANCH  47  61
ATOM     61  C   UNL A   1      43.148  32.917  32.079  1.00  0.00     0.064 A 
ATOM     62  C   UNL A   1      42.891  33.062  33.451  1.00  0.00     0.173 A 
ATOM     63  C   UNL A   1      43.400  34.079  31.333  1.00  0.00     0.173 A 
ATOM     64  F   UNL A   1      42.631  31.983  34.205  1.00  0.00    -0.203 F 
ATOM     65  C   UNL A   1      42.856  34.320  34.046  1.00  0.00     0.198 A 
ATOM     66  C   UNL A   1      43.393  35.334  31.937  1.00  0.00     0.198 A 
ATOM     67  F   UNL A   1      43.658  33.998  30.019  1.00  0.00    -0.203 F 
ATOM     68  F   UNL A   1      42.556  34.436  35.347  1.00  0.00    -0.200 F 
ATOM     69  C   UNL A   1      43.111  35.453  33.290  1.00  0.00     0.200 A 
ATOM     70  F   UNL A   1      43.652  36.428  31.209  1.00  0.00    -0.200 F 
ATOM     71  F   UNL A   1      43.077  36.665  33.865  1.00  0.00    -0.200 F 
ENDBRANCH  47  61
BRANCH  48  72
ATOM     72  C   UNL A   1      42.920  24.143  27.367  1.00  0.00     0.064 A 
ATOM     73  C   UNL A   1      43.316  24.062  26.025  1.00  0.00     0.173 A 
ATOM     74  C   UNL A   1      42.514  22.962  28.002  1.00  0.00     0.173 A 
ATOM     75  F   UNL A   1      43.692  25.171  25.370  1.00  0.00    -0.203 F 
ATOM     76  C   UNL A   1      43.294  22.849  25.340  1.00  0.00     0.198 A 
ATOM     77  C   UNL A   1      42.515  21.745  27.324  1.00  0.00     0.198 A 
ATOM     78  F   UNL A   1      42.128  22.987  29.286  1.00  0.00    -0.203 F 
ATOM     79  F   UNL A   1      43.642  22.805  24.048  1.00  0.00    -0.200 F 
ATOM     80  C   UNL A   1      42.899  21.691  25.992  1.00  0.00     0.200 A 
ATOM     81  F   UNL A   1      42.143  20.626  27.959  1.00  0.00    -0.200 F 
ATOM     82  F   UNL A   1      42.883  20.522  25.335  1.00  0.00    -0.200 F 
ENDBRANCH  48  72
BRANCH  60  83
ATOM     83  C   UNL A   1      47.707  27.394  31.245  1.00  0.00     0.064 A 
ATOM     84  C   UNL A   1      47.909  26.605  32.387  1.00  0.00     0.173 A 
ATOM     85  C   UNL A   1      48.836  27.787  30.508  1.00  0.00     0.173 A 
ATOM     86  F   UNL A   1      46.863  26.218  33.132  1.00  0.00    -0.203 F 
ATOM     87  C   UNL A   1      49.192  26.244  32.788  1.00  0.00     0.198 A 
ATOM     88  C   UNL A   1      50.115  27.403  30.898  1.00  0.00     0.198 A 
ATOM     89  F   UNL A   1      48.694  28.538  29.405  1.00  0.00    -0.203 F 
ATOM     90  F   UNL A   1      49.365  25.525  33.906  1.00  0.00    -0.200 F 
ATOM     91  C   UNL A   1      50.293  26.638  32.041  1.00  0.00     0.200 A 
ATOM     92  F   UNL A   1      51.176  27.778  30.171  1.00  0.00    -0.200 F 
ATOM     93  F   UNL A   1      51.528  26.287  32.427  1.00  0.00    -0.200 F 
ENDBRANCH  60  83
ENDBRANCH  34  35
ENDBRANCH  26  29
ENDBRANCH  24  25
ENDBRANCH  23  24
ENDBRANCH   1  23
TORSDOF 13
ENDMDL
MODEL 2
REMARK VINA RESULT:     -10.5      4.213     10.611
REMARK SMILES C[C@H](C(=O)NCCCNC(=O)c1ccc(-c2c3nc(c(-c4c(F)c(F)c(F)c(F)c4F)c4ccc([nH]4)c(-c4c(F)c(F)c(F)c(F)c4F)c4nc(c(-c5c(F)c(F)c(F)c(F)c5F)c5ccc2[nH]5)C=C4)C=C3)cc1)[C@H](C)[N@@H+]1CC[C@H]([NH+]2CCCCC2)C1
REMARK SMILES IDX 6 1 5 2 3 3 4 4 2 6 1 7 75 8 76 9 77 10 78 11 87 12 79 14
REMARK SMILES IDX 80 15 81 16 82 17 86 18 83 20 85 21 84 22 7 23 8 24 9 25
REMARK SMILES IDX 10 26 11 28 12 29 13 30 74 31 14 32 73 33 15 34 16 35 17 36
REMARK SMILES IDX 67 37 18 38 72 39 66 40 68 41 19 42 71 43 65 44 64 45 20 47
REMARK SMILES IDX 52 48 32 49 51 50 33 51 36 52 50 53 69 54 34 55 35 56 49 58
REMARK SMILES IDX 70 59 37 60 21 61 22 62 30 63 23 64 24 65 28 66 31 67 25 68
REMARK SMILES IDX 26 69 29 70 27 71 53 72 54 73 62 74 55 75 56 76 60 77 63 78
REMARK SMILES IDX 57 79 58 80 61 81 59 82 38 83 39 84 47 85 40 86 41 87 45 88
REMARK SMILES IDX 48 89 42 90 43 91 46 92 44 93
REMARK H PARENT 5 5 77 13 81 19 9 27 68 46 36 57
REMARK Flexibility Score: inf
ROOT
ATOM      1  C   UNL A   1      31.617  30.775  26.022  1.00  0.00     0.117 C 
ENDROOT
BRANCH   1   2
ATOM      2  N   UNL A   1      31.688  29.756  27.052  1.00  0.00    -0.356 N 
ATOM      3  C   UNL A   1      31.703  28.403  27.033  1.00  0.00     0.228 C 
ATOM      4  O   UNL A   1      31.527  27.889  28.150  1.00  0.00    -0.275 OA
ATOM      5  H   UNL A   1      31.737  30.130  27.961  1.00  0.00     0.163 HD
BRANCH   3   6
ATOM      6  C   UNL A   1      32.082  27.511  25.832  1.00  0.00     0.133 C 
ATOM      7  C   UNL A   1      33.284  26.635  26.261  1.00  0.00     0.024 C 
BRANCH   6   8
ATOM      8  C   UNL A   1      31.047  26.606  25.098  1.00  0.00     0.193 C 
ATOM      9  C   UNL A   1      31.457  25.123  25.290  1.00  0.00     0.076 C 
BRANCH   8  10
ATOM     10  N   UNL A   1      30.721  27.006  23.717  1.00  0.00    -0.327 N 
ATOM     11  C   UNL A   1      31.788  27.780  23.070  1.00  0.00     0.269 C 
ATOM     12  C   UNL A   1      29.477  27.774  23.591  1.00  0.00     0.328 C 
ATOM     13  H   UNL A   1      30.604  26.110  23.247  1.00  0.00     0.348 HD
ATOM     14  C   UNL A   1      31.142  28.934  22.317  1.00  0.00     0.132 C 
ATOM     15  C   UNL A   1      29.634  28.690  22.366  1.00  0.00     0.245 C 
BRANCH  15  16
ATOM     16  N   UNL A   1      28.770  29.901  22.342  1.00  0.00    -0.328 N 
ATOM     17  C   UNL A   1      28.903  30.735  23.549  1.00  0.00     0.262 C 
ATOM     18  C   UNL A   1      28.965  30.675  21.105  1.00  0.00     0.262 C 
ATOM     19  H   UNL A   1      27.806  29.567  22.350  1.00  0.00     0.348 HD
ATOM     20  C   UNL A   1      28.059  32.006  23.519  1.00  0.00     0.062 C 
ATOM     21  C   UNL A   1      28.104  31.939  21.045  1.00  0.00     0.062 C 
ATOM     22  C   UNL A   1      28.336  32.815  22.267  1.00  0.00     0.012 C 
ENDBRANCH  15  16
ENDBRANCH   8  10
ENDBRANCH   6   8
ENDBRANCH   3   6
ENDBRANCH   1   2
BRANCH   1  23
ATOM     23  C   UNL A   1      31.402  32.170  26.615  1.00  0.00     0.042 C 
BRANCH  23  24
ATOM     24  C   UNL A   1      32.624  32.769  27.303  1.00  0.00     0.118 C 
BRANCH  24  25
ATOM     25  N   UNL A   1      32.444  34.174  27.608  1.00  0.00    -0.352 N 
ATOM     26  C   UNL A   1      32.977  34.943  28.609  1.00  0.00     0.251 C 
ATOM     27  H   UNL A   1      31.839  34.656  26.997  1.00  0.00     0.163 HD
ATOM     28  O   UNL A   1      32.499  36.065  28.802  1.00  0.00    -0.269 OA
BRANCH  26  29
ATOM     29  C   UNL A   1      34.108  34.488  29.461  1.00  0.00     0.039 A 
ATOM     30  C   UNL A   1      35.388  34.461  28.890  1.00  0.00     0.014 A 
ATOM     31  C   UNL A   1      33.930  33.973  30.749  1.00  0.00     0.014 A 
ATOM     32  C   UNL A   1      36.468  33.913  29.589  1.00  0.00     0.010 A 
ATOM     33  C   UNL A   1      35.024  33.490  31.476  1.00  0.00     0.010 A 
ATOM     34  C   UNL A   1      36.296  33.414  30.888  1.00  0.00    -0.014 A 
BRANCH  34  35
ATOM     35  C   UNL A   1      37.413  32.724  31.591  1.00  0.00     0.031 A 
ATOM     36  C   UNL A   1      38.136  31.584  30.920  1.00  0.00     0.074 A 
ATOM     37  C   UNL A   1      37.783  33.105  32.829  1.00  0.00     0.049 A 
ATOM     38  N   UNL A   1      39.116  30.839  31.370  1.00  0.00    -0.248 NA
ATOM     39  C   UNL A   1      37.681  31.218  29.570  1.00  0.00     0.031 C 
ATOM     40  C   UNL A   1      37.149  34.168  33.610  1.00  0.00     0.029 A 
ATOM     41  N   UNL A   1      38.781  32.637  33.648  1.00  0.00    -0.354 N 
ATOM     42  C   UNL A   1      39.376  29.909  30.372  1.00  0.00     0.074 A 
ATOM     43  C   UNL A   1      38.421  30.150  29.311  1.00  0.00     0.031 C 
ATOM     44  C   UNL A   1      37.786  34.282  34.787  1.00  0.00     0.029 A 
ATOM     45  C   UNL A   1      38.857  33.291  34.854  1.00  0.00     0.049 A 
ATOM     46  H   UNL A   1      39.386  31.904  33.394  1.00  0.00     0.167 HD
ATOM     47  C   UNL A   1      40.336  28.953  30.325  1.00  0.00     0.037 A 
ATOM     48  C   UNL A   1      39.696  33.113  35.891  1.00  0.00     0.037 A 
ATOM     49  C   UNL A   1      41.313  28.731  31.357  1.00  0.00     0.049 A 
ATOM     50  C   UNL A   1      40.784  32.078  35.801  1.00  0.00     0.074 A 
ATOM     51  C   UNL A   1      42.347  27.810  31.387  1.00  0.00     0.029 A 
ATOM     52  N   UNL A   1      41.386  29.449  32.541  1.00  0.00    -0.354 N 
ATOM     53  N   UNL A   1      41.044  31.233  34.834  1.00  0.00    -0.248 NA
ATOM     54  C   UNL A   1      41.708  31.985  36.940  1.00  0.00     0.031 C 
ATOM     55  C   UNL A   1      43.030  27.956  32.600  1.00  0.00     0.029 A 
ATOM     56  C   UNL A   1      42.445  28.991  33.309  1.00  0.00     0.049 A 
ATOM     57  H   UNL A   1      40.774  30.177  32.798  1.00  0.00     0.167 HD
ATOM     58  C   UNL A   1      42.171  30.528  35.233  1.00  0.00     0.074 A 
ATOM     59  C   UNL A   1      42.555  31.053  36.527  1.00  0.00     0.031 C 
ATOM     60  C   UNL A   1      42.825  29.532  34.587  1.00  0.00     0.037 A 
BRANCH  47  61
ATOM     61  C   UNL A   1      40.377  28.076  29.108  1.00  0.00     0.064 A 
ATOM     62  C   UNL A   1      41.145  28.416  27.984  1.00  0.00     0.173 A 
ATOM     63  C   UNL A   1      39.654  26.874  29.070  1.00  0.00     0.173 A 
ATOM     64  F   UNL A   1      41.844  29.561  27.966  1.00  0.00    -0.203 F 
ATOM     65  C   UNL A   1      41.162  27.602  26.854  1.00  0.00     0.198 A 
ATOM     66  C   UNL A   1      39.697  26.047  27.949  1.00  0.00     0.198 A 
ATOM     67  F   UNL A   1      38.910  26.497  30.120  1.00  0.00    -0.203 F 
ATOM     68  F   UNL A   1      41.861  27.974  25.773  1.00  0.00    -0.200 F 
ATOM     69  C   UNL A   1      40.443  26.417  26.840  1.00  0.00     0.200 A 
ATOM     70  F   UNL A   1      39.011  24.896  27.940  1.00  0.00    -0.200 F 
ATOM     71  F   UNL A   1      40.462  25.634  25.751  1.00  0.00    -0.200 F 
ENDBRANCH  47  61
BRANCH  48  72
ATOM     72  C   UNL A   1      39.563  33.970  37.098  1.00  0.00     0.064 A 
ATOM     73  C   UNL A   1      38.831  33.537  38.211  1.00  0.00     0.173 A 
ATOM     74  C   UNL A   1      40.169  35.232  37.164  1.00  0.00     0.173 A 
ATOM     75  F   UNL A   1      38.214  32.345  38.185  1.00  0.00    -0.203 F 
ATOM     76  C   UNL A   1      38.698  34.340  39.342  1.00  0.00     0.198 A 
ATOM     77  C   UNL A   1      40.055  36.024  38.303  1.00  0.00     0.198 A 
ATOM     78  F   UNL A   1      40.883  35.690  36.125  1.00  0.00    -0.203 F 
ATOM     79  F   UNL A   1      37.961  33.919  40.378  1.00  0.00    -0.200 F 
ATOM     80  C   UNL A   1      39.315  35.581  39.388  1.00  0.00     0.200 A 
ATOM     81  F   UNL A   1      40.662  37.218  38.350  1.00  0.00    -0.200 F 
ATOM     82  F   UNL A   1      39.192  36.352  40.478  1.00  0.00    -0.200 F 
ENDBRANCH  48  72
BRANCH  60  83
ATOM     83  C   UNL A   1      44.048  28.970  35.249  1.00  0.00     0.064 A 
ATOM     84  C   UNL A   1      45.326  29.490  34.996  1.00  0.00     0.173 A 
ATOM     85  C   UNL A   1      43.936  27.920  36.173  1.00  0.00     0.173 A 
ATOM     86  F   UNL A   1      45.486  30.484  34.110  1.00  0.00    -0.203 F 
ATOM     87  C   UNL A   1      46.449  28.963  35.626  1.00  0.00     0.198 A 
ATOM     88  C   UNL A   1      45.058  27.412  36.820  1.00  0.00     0.198 A 
ATOM     89  F   UNL A   1      42.734  27.392  36.453  1.00  0.00    -0.203 F 
ATOM     90  F   UNL A   1      47.666  29.446  35.338  1.00  0.00    -0.200 F 
ATOM     91  C   UNL A   1      46.314  27.928  36.541  1.00  0.00     0.200 A 
ATOM     92  F   UNL A   1      44.925  26.418  37.710  1.00  0.00    -0.200 F 
ATOM     93  F   UNL A   1      47.397  27.423  37.149  1.00  0.00    -0.200 F 
ENDBRANCH  60  83
ENDBRANCH  34  35
ENDBRANCH  26  29
ENDBRANCH  24  25
ENDBRANCH  23  24
ENDBRANCH   1  23
TORSDOF 13
ENDMDL
MODEL 3
REMARK VINA RESULT:     -10.4      5.870     10.281
REMARK SMILES C[C@H](C(=O)NCCCNC(=O)c1ccc(-c2c3nc(c(-c4c(F)c(F)c(F)c(F)c4F)c4ccc([nH]4)c(-c4c(F)c(F)c(F)c(F)c4F)c4nc(c(-c5c(F)c(F)c(F)c(F)c5F)c5ccc2[nH]5)C=C4)C=C3)cc1)[C@H](C)[N@@H+]1CC[C@H]([NH+]2CCCCC2)C1
REMARK SMILES IDX 6 1 5 2 3 3 4 4 2 6 1 7 75 8 76 9 77 10 78 11 87 12 79 14
REMARK SMILES IDX 80 15 81 16 82 17 86 18 83 20 85 21 84 22 7 23 8 24 9 25
REMARK SMILES IDX 10 26 11 28 12 29 13 30 74 31 14 32 73 33 15 34 16 35 17 36
REMARK SMILES IDX 67 37 18 38 72 39 66 40 68 41 19 42 71 43 65 44 64 45 20 47
REMARK SMILES IDX 52 48 32 49 51 50 33 51 36 52 50 53 69 54 34 55 35 56 49 58
REMARK SMILES IDX 70 59 37 60 21 61 22 62 30 63 23 64 24 65 28 66 31 67 25 68
REMARK SMILES IDX 26 69 29 70 27 71 53 72 54 73 62 74 55 75 56 76 60 77 63 78
REMARK SMILES IDX 57 79 58 80 61 81 59 82 38 83 39 84 47 85 40 86 41 87 45 88
REMARK SMILES IDX 48 89 42 90 43 91 46 92 44 93
REMARK H PARENT 5 5 77 13 81 19 9 27 68 46 36 57
REMARK Flexibility Score: inf
ROOT
ATOM      1  C   UNL A   1      36.750  20.619  24.973  1.00  0.00     0.117 C 
ENDROOT
BRANCH   1   2
ATOM      2  N   UNL A   1      36.983  21.746  24.091  1.00  0.00    -0.356 N 
ATOM      3  C   UNL A   1      36.182  22.688  23.539  1.00  0.00     0.228 C 
ATOM      4  O   UNL A   1      36.732  23.342  22.639  1.00  0.00    -0.275 OA
ATOM      5  H   UNL A   1      37.929  21.849  23.837  1.00  0.00     0.163 HD
BRANCH   3   6
ATOM      6  C   UNL A   1      34.784  23.104  24.043  1.00  0.00     0.133 C 
ATOM      7  C   UNL A   1      34.779  24.646  24.187  1.00  0.00     0.024 C 
BRANCH   6   8
ATOM      8  C   UNL A   1      33.469  22.670  23.326  1.00  0.00     0.193 C 
ATOM      9  C   UNL A   1      32.775  23.932  22.750  1.00  0.00     0.076 C 
BRANCH   8  10
ATOM     10  N   UNL A   1      32.603  21.755  24.090  1.00  0.00    -0.327 N 
ATOM     11  C   UNL A   1      32.988  21.635  25.503  1.00  0.00     0.269 C 
ATOM     12  C   UNL A   1      32.521  20.399  23.535  1.00  0.00     0.328 C 
ATOM     13  H   UNL A   1      31.688  22.198  24.014  1.00  0.00     0.348 HD
ATOM     14  C   UNL A   1      32.905  20.165  25.889  1.00  0.00     0.132 C 
ATOM     15  C   UNL A   1      32.249  19.446  24.711  1.00  0.00     0.245 C 
BRANCH  15  16
ATOM     16  N   UNL A   1      32.642  18.026  24.504  1.00  0.00    -0.328 N 
ATOM     17  C   UNL A   1      33.965  17.875  23.871  1.00  0.00     0.262 C 
ATOM     18  C   UNL A   1      32.528  17.251  25.750  1.00  0.00     0.262 C 
ATOM     19  H   UNL A   1      31.977  17.638  23.835  1.00  0.00     0.348 HD
ATOM     20  C   UNL A   1      34.403  16.424  23.695  1.00  0.00     0.062 C 
ATOM     21  C   UNL A   1      32.938  15.785  25.584  1.00  0.00     0.062 C 
ATOM     22  C   UNL A   1      34.342  15.673  25.011  1.00  0.00     0.012 C 
ENDBRANCH  15  16
ENDBRANCH   8  10
ENDBRANCH   6   8
ENDBRANCH   3   6
ENDBRANCH   1   2
BRANCH   1  23
ATOM     23  C   UNL A   1      37.951  19.670  25.015  1.00  0.00     0.042 C 
BRANCH  23  24
ATOM     24  C   UNL A   1      39.170  20.212  25.752  1.00  0.00     0.118 C 
BRANCH  24  25
ATOM     25  N   UNL A   1      40.168  19.186  25.982  1.00  0.00    -0.352 N 
ATOM     26  C   UNL A   1      41.527  19.283  26.126  1.00  0.00     0.251 C 
ATOM     27  H   UNL A   1      39.811  18.270  26.046  1.00  0.00     0.163 HD
ATOM     28  O   UNL A   1      42.194  18.244  26.089  1.00  0.00    -0.269 OA
BRANCH  26  29
ATOM     29  C   UNL A   1      42.226  20.578  26.336  1.00  0.00     0.039 A 
ATOM     30  C   UNL A   1      42.276  21.093  27.638  1.00  0.00     0.014 A 
ATOM     31  C   UNL A   1      42.718  21.356  25.282  1.00  0.00     0.014 A 
ATOM     32  C   UNL A   1      42.794  22.369  27.881  1.00  0.00     0.010 A 
ATOM     33  C   UNL A   1      43.301  22.603  25.533  1.00  0.00     0.010 A 
ATOM     34  C   UNL A   1      43.305  23.142  26.829  1.00  0.00    -0.014 A 
BRANCH  34  35
ATOM     35  C   UNL A   1      43.748  24.545  27.062  1.00  0.00     0.031 A 
ATOM     36  C   UNL A   1      42.767  25.570  27.569  1.00  0.00     0.074 A 
ATOM     37  C   UNL A   1      45.021  24.910  26.818  1.00  0.00     0.049 A 
ATOM     38  N   UNL A   1      42.946  26.846  27.813  1.00  0.00    -0.248 NA
ATOM     39  C   UNL A   1      41.393  25.105  27.812  1.00  0.00     0.031 C 
ATOM     40  C   UNL A   1      46.067  24.031  26.293  1.00  0.00     0.029 A 
ATOM     41  N   UNL A   1      45.650  26.120  26.977  1.00  0.00    -0.354 N 
ATOM     42  C   UNL A   1      41.709  27.334  28.215  1.00  0.00     0.074 A 
ATOM     43  C   UNL A   1      40.776  26.231  28.138  1.00  0.00     0.031 C 
ATOM     44  C   UNL A   1      47.211  24.727  26.191  1.00  0.00     0.029 A 
ATOM     45  C   UNL A   1      46.977  26.104  26.623  1.00  0.00     0.049 A 
ATOM     46  H   UNL A   1      45.194  26.924  27.315  1.00  0.00     0.167 HD
ATOM     47  C   UNL A   1      41.380  28.580  28.635  1.00  0.00     0.037 A 
ATOM     48  C   UNL A   1      47.900  27.084  26.646  1.00  0.00     0.037 A 
ATOM     49  C   UNL A   1      42.309  29.672  28.751  1.00  0.00     0.049 A 
ATOM     50  C   UNL A   1      47.524  28.448  27.159  1.00  0.00     0.074 A 
ATOM     51  C   UNL A   1      42.078  30.962  29.199  1.00  0.00     0.029 A 
ATOM     52  N   UNL A   1      43.656  29.598  28.429  1.00  0.00    -0.354 N 
ATOM     53  N   UNL A   1      46.361  28.884  27.575  1.00  0.00    -0.248 NA
ATOM     54  C   UNL A   1      48.597  29.451  27.223  1.00  0.00     0.031 C 
ATOM     55  C   UNL A   1      43.281  31.674  29.124  1.00  0.00     0.029 A 
ATOM     56  C   UNL A   1      44.267  30.818  28.666  1.00  0.00     0.049 A 
ATOM     57  H   UNL A   1      44.110  28.796  28.082  1.00  0.00     0.167 HD
ATOM     58  C   UNL A   1      46.564  30.198  27.973  1.00  0.00     0.074 A 
ATOM     59  C   UNL A   1      47.968  30.486  27.762  1.00  0.00     0.031 C 
ATOM     60  C   UNL A   1      45.667  31.087  28.465  1.00  0.00     0.037 A 
BRANCH  47  61
ATOM     61  C   UNL A   1      39.946  28.825  29.005  1.00  0.00     0.064 A 
ATOM     62  C   UNL A   1      39.486  28.641  30.318  1.00  0.00     0.173 A 
ATOM     63  C   UNL A   1      39.025  29.265  28.043  1.00  0.00     0.173 A 
ATOM     64  F   UNL A   1      40.324  28.209  31.272  1.00  0.00    -0.203 F 
ATOM     65  C   UNL A   1      38.150  28.857  30.646  1.00  0.00     0.198 A 
ATOM     66  C   UNL A   1      37.696  29.508  28.381  1.00  0.00     0.198 A 
ATOM     67  F   UNL A   1      39.414  29.464  26.774  1.00  0.00    -0.203 F 
ATOM     68  F   UNL A   1      37.722  28.623  31.895  1.00  0.00    -0.200 F 
ATOM     69  C   UNL A   1      37.258  29.294  29.680  1.00  0.00     0.200 A 
ATOM     70  F   UNL A   1      36.837  29.942  27.449  1.00  0.00    -0.200 F 
ATOM     71  F   UNL A   1      35.972  29.502  29.998  1.00  0.00    -0.200 F 
ENDBRANCH  47  61
BRANCH  48  72
ATOM     72  C   UNL A   1      49.288  26.796  26.204  1.00  0.00     0.064 A 
ATOM     73  C   UNL A   1      50.246  26.312  27.106  1.00  0.00     0.173 A 
ATOM     74  C   UNL A   1      49.683  26.991  24.874  1.00  0.00     0.173 A 
ATOM     75  F   UNL A   1      49.919  26.131  28.396  1.00  0.00    -0.203 F 
ATOM     76  C   UNL A   1      51.551  26.048  26.698  1.00  0.00     0.198 A 
ATOM     77  C   UNL A   1      50.982  26.704  24.461  1.00  0.00     0.198 A 
ATOM     78  F   UNL A   1      48.803  27.450  23.972  1.00  0.00    -0.203 F 
ATOM     79  F   UNL A   1      52.456  25.623  27.588  1.00  0.00    -0.200 F 
ATOM     80  C   UNL A   1      51.916  26.239  25.374  1.00  0.00     0.200 A 
ATOM     81  F   UNL A   1      51.329  26.879  23.178  1.00  0.00    -0.200 F 
ATOM     82  F   UNL A   1      53.171  25.979  24.979  1.00  0.00    -0.200 F 
ENDBRANCH  48  72
BRANCH  60  83
ATOM     83  C   UNL A   1      46.181  32.443  28.847  1.00  0.00     0.064 A 
ATOM     84  C   UNL A   1      46.670  32.709  30.135  1.00  0.00     0.173 A 
ATOM     85  C   UNL A   1      46.216  33.481  27.902  1.00  0.00     0.173 A 
ATOM     86  F   UNL A   1      46.643  31.753  31.076  1.00  0.00    -0.203 F 
ATOM     87  C   UNL A   1      47.152  33.971  30.470  1.00  0.00     0.198 A 
ATOM     88  C   UNL A   1      46.722  34.734  28.234  1.00  0.00     0.198 A 
ATOM     89  F   UNL A   1      45.766  33.274  26.655  1.00  0.00    -0.203 F 
ATOM     90  F   UNL A   1      47.574  34.215  31.718  1.00  0.00    -0.200 F 
ATOM     91  C   UNL A   1      47.183  34.980  29.518  1.00  0.00     0.200 A 
ATOM     92  F   UNL A   1      46.759  35.705  27.311  1.00  0.00    -0.200 F 
ATOM     93  F   UNL A   1      47.650  36.195  29.842  1.00  0.00    -0.200 F 
ENDBRANCH  60  83
ENDBRANCH  34  35
ENDBRANCH  26  29
ENDBRANCH  24  25
ENDBRANCH  23  24
ENDBRANCH   1  23
TORSDOF 13
ENDMDL
