MODEL 1
REMARK VINA RESULT:     -11.8      0.000      0.000
REMARK SMILES CCC[C@H](C)C[NH+]1CC(n2cc(C(=O)NCCCNC(=O)c3ccc(-c4c5nc(c(-c6c(F)c(F)c(F)c(F)c6F)c6ccc([nH]6)c(-c6c(F)c(F)c(F)c(F)c6F)c6nc(c(-c7c(F)c(F)c(F)c(F)c7F)c7ccc4[nH]7)C=C6)C=C5)cc3)nn2)C1
REMARK SMILES IDX 13 1 14 2 15 3 12 5 10 6 11 7 86 8 85 9 9 10 7 11 8 12 87 13
REMARK SMILES IDX 6 15 4 16 5 17 3 18 2 19 1 20 16 21 17 22 18 23 19 24 20 25
REMARK SMILES IDX 21 27 22 28 23 29 84 30 24 31 83 32 25 33 26 34 27 35 77 36
REMARK SMILES IDX 28 37 82 38 76 39 78 40 29 41 81 42 75 43 74 44 30 46 62 47
REMARK SMILES IDX 42 48 61 49 43 50 46 51 60 52 79 53 44 54 45 55 59 57 80 58
REMARK SMILES IDX 47 59 31 60 32 61 40 62 33 63 34 64 38 65 41 66 35 67 36 68
REMARK SMILES IDX 39 69 37 70 63 71 64 72 72 73 65 74 66 75 70 76 73 77 67 78
REMARK SMILES IDX 68 79 71 80 69 81 48 82 49 83 57 84 50 85 51 86 55 87 58 88
REMARK SMILES IDX 52 89 53 90 56 91 54 92
REMARK H PARENT 15 4 7 14 19 26 78 45 46 56
REMARK Flexibility Score: inf
ROOT
ATOM      1  C   UNL A   1      31.456  28.803  24.887  1.00  0.00     0.273 C 
ATOM      2  O   UNL A   1      30.576  29.054  24.046  1.00  0.00    -0.267 OA
ATOM      3  N   UNL A   1      32.233  29.854  25.312  1.00  0.00    -0.351 N 
ATOM      4  H   UNL A   1      32.121  30.688  24.801  1.00  0.00     0.163 HD
ENDROOT
BRANCH   1   5
ATOM      5  C   UNL A   1      31.649  27.468  25.426  1.00  0.00     0.170 A 
ATOM      6  N   UNL A   1      32.312  25.456  25.896  1.00  0.00    -0.237 N 
ATOM      7  C   UNL A   1      32.436  26.435  24.954  1.00  0.00     0.145 A 
ATOM      8  N   UNL A   1      31.452  25.810  26.857  1.00  0.00    -0.066 NA
ATOM      9  N   UNL A   1      31.007  27.025  26.561  1.00  0.00    -0.125 NA
BRANCH   6  10
ATOM     10  C   UNL A   1      33.056  24.245  25.842  1.00  0.00     0.218 C 
ATOM     11  N   UNL A   1      33.016  22.233  25.344  1.00  0.00    -0.331 N 
ATOM     12  C   UNL A   1      33.070  23.474  24.504  1.00  0.00     0.295 C 
ATOM     13  C   UNL A   1      32.203  23.035  26.311  1.00  0.00     0.295 C 
ATOM     14  H   UNL A   1      33.856  21.722  25.616  1.00  0.00     0.348 HD
BRANCH  11  15
ATOM     15  C   UNL A   1      32.222  21.169  24.724  1.00  0.00     0.265 C 
BRANCH  15  16
ATOM     16  C   UNL A   1      33.184  20.088  24.168  1.00  0.00     0.041 C 
ATOM     17  C   UNL A   1      34.529  20.126  24.912  1.00  0.00     0.013 C 
BRANCH  16  18
ATOM     18  C   UNL A   1      32.532  18.692  24.259  1.00  0.00     0.009 C 
BRANCH  18  19
ATOM     19  C   UNL A   1      32.856  17.766  23.076  1.00  0.00    -0.003 C 
ATOM     20  C   UNL A   1      33.840  16.650  23.380  1.00  0.00     0.004 C 
ENDBRANCH  18  19
ENDBRANCH  16  18
ENDBRANCH  15  16
ENDBRANCH  11  15
ENDBRANCH   6  10
ENDBRANCH   1   5
BRANCH   3  21
ATOM     21  C   UNL A   1      33.196  29.925  26.402  1.00  0.00     0.118 C 
BRANCH  21  22
ATOM     22  C   UNL A   1      33.005  31.170  27.274  1.00  0.00     0.042 C 
BRANCH  22  23
ATOM     23  C   UNL A   1      34.323  31.832  27.647  1.00  0.00     0.118 C 
BRANCH  23  24
ATOM     24  N   UNL A   1      34.329  32.324  29.027  1.00  0.00    -0.352 N 
ATOM     25  C   UNL A   1      35.150  31.955  30.070  1.00  0.00     0.251 C 
ATOM     26  H   UNL A   1      33.656  33.010  29.236  1.00  0.00     0.163 HD
ATOM     27  O   UNL A   1      34.827  32.194  31.233  1.00  0.00    -0.269 OA
BRANCH  25  28
ATOM     28  C   UNL A   1      36.407  31.249  29.783  1.00  0.00     0.039 A 
ATOM     29  C   UNL A   1      37.594  31.956  29.581  1.00  0.00     0.014 A 
ATOM     30  C   UNL A   1      36.398  29.857  29.773  1.00  0.00     0.014 A 
ATOM     31  C   UNL A   1      38.786  31.246  29.477  1.00  0.00     0.010 A 
ATOM     32  C   UNL A   1      37.585  29.170  29.833  1.00  0.00     0.010 A 
ATOM     33  C   UNL A   1      38.784  29.850  29.643  1.00  0.00    -0.014 A 
BRANCH  33  34
ATOM     34  C   UNL A   1      40.048  29.125  29.757  1.00  0.00     0.031 A 
ATOM     35  C   UNL A   1      40.508  28.930  31.159  1.00  0.00     0.074 A 
ATOM     36  C   UNL A   1      40.656  28.493  28.727  1.00  0.00     0.049 A 
ATOM     37  N   UNL A   1      41.536  29.466  31.728  1.00  0.00    -0.248 NA
ATOM     38  C   UNL A   1      39.660  28.154  32.079  1.00  0.00     0.031 C 
ATOM     39  C   UNL A   1      40.134  28.296  27.369  1.00  0.00     0.029 A 
ATOM     40  N   UNL A   1      41.827  27.788  28.701  1.00  0.00    -0.354 N 
ATOM     41  C   UNL A   1      41.598  28.907  33.003  1.00  0.00     0.074 A 
ATOM     42  C   UNL A   1      40.327  28.276  33.231  1.00  0.00     0.031 C 
ATOM     43  C   UNL A   1      40.837  27.326  26.748  1.00  0.00     0.029 A 
ATOM     44  C   UNL A   1      41.978  26.985  27.575  1.00  0.00     0.049 A 
ATOM     45  H   UNL A   1      42.504  27.845  29.414  1.00  0.00     0.167 HD
ATOM     46  C   UNL A   1      42.806  28.743  33.612  1.00  0.00     0.037 A 
ATOM     47  C   UNL A   1      42.969  26.097  27.328  1.00  0.00     0.037 A 
ATOM     48  C   UNL A   1      43.826  29.488  32.919  1.00  0.00     0.049 A 
ATOM     49  C   UNL A   1      44.131  26.476  28.158  1.00  0.00     0.074 A 
ATOM     50  C   UNL A   1      44.259  30.792  32.843  1.00  0.00     0.029 A 
ATOM     51  N   UNL A   1      44.332  28.827  31.836  1.00  0.00    -0.354 N 
ATOM     52  N   UNL A   1      44.817  27.570  27.982  1.00  0.00    -0.248 NA
ATOM     53  C   UNL A   1      44.368  25.780  29.419  1.00  0.00     0.031 C 
ATOM     54  C   UNL A   1      44.961  30.911  31.605  1.00  0.00     0.029 A 
ATOM     55  C   UNL A   1      44.971  29.671  30.974  1.00  0.00     0.049 A 
ATOM     56  H   UNL A   1      44.246  27.856  31.695  1.00  0.00     0.167 HD
ATOM     57  C   UNL A   1      45.217  27.920  29.254  1.00  0.00     0.074 A 
ATOM     58  C   UNL A   1      45.089  26.708  30.052  1.00  0.00     0.031 C 
ATOM     59  C   UNL A   1      45.264  29.229  29.631  1.00  0.00     0.037 A 
BRANCH  46  60
ATOM     60  C   UNL A   1      43.204  27.547  34.462  1.00  0.00     0.064 A 
ATOM     61  C   UNL A   1      43.480  27.754  35.833  1.00  0.00     0.173 A 
ATOM     62  C   UNL A   1      43.651  26.315  33.939  1.00  0.00     0.173 A 
ATOM     63  F   UNL A   1      43.118  28.894  36.439  1.00  0.00    -0.203 F 
ATOM     64  C   UNL A   1      44.217  26.836  36.590  1.00  0.00     0.198 A 
ATOM     65  C   UNL A   1      44.342  25.380  34.711  1.00  0.00     0.198 A 
ATOM     66  F   UNL A   1      43.547  26.009  32.642  1.00  0.00    -0.203 F 
ATOM     67  F   UNL A   1      44.561  27.134  37.850  1.00  0.00    -0.200 F 
ATOM     68  C   UNL A   1      44.653  25.653  36.025  1.00  0.00     0.200 A 
ATOM     69  F   UNL A   1      44.777  24.248  34.139  1.00  0.00    -0.200 F 
ATOM     70  F   UNL A   1      45.411  24.800  36.727  1.00  0.00    -0.200 F 
ENDBRANCH  46  60
BRANCH  47  71
ATOM     71  C   UNL A   1      42.928  24.824  26.574  1.00  0.00     0.064 A 
ATOM     72  C   UNL A   1      43.669  24.668  25.391  1.00  0.00     0.173 A 
ATOM     73  C   UNL A   1      42.422  23.648  27.160  1.00  0.00     0.173 A 
ATOM     74  F   UNL A   1      44.203  25.737  24.783  1.00  0.00    -0.203 F 
ATOM     75  C   UNL A   1      43.945  23.406  24.860  1.00  0.00     0.198 A 
ATOM     76  C   UNL A   1      42.692  22.388  26.624  1.00  0.00     0.198 A 
ATOM     77  F   UNL A   1      41.748  23.693  28.317  1.00  0.00    -0.203 F 
ATOM     78  F   UNL A   1      44.728  23.293  23.778  1.00  0.00    -0.200 F 
ATOM     79  C   UNL A   1      43.472  22.266  25.488  1.00  0.00     0.200 A 
ATOM     80  F   UNL A   1      42.256  21.289  27.257  1.00  0.00    -0.200 F 
ATOM     81  F   UNL A   1      43.806  21.052  25.027  1.00  0.00    -0.200 F 
ENDBRANCH  47  71
BRANCH  59  82
ATOM     82  C   UNL A   1      45.481  30.248  28.562  1.00  0.00     0.064 A 
ATOM     83  C   UNL A   1      44.459  30.888  27.843  1.00  0.00     0.173 A 
ATOM     84  C   UNL A   1      46.803  30.623  28.287  1.00  0.00     0.173 A 
ATOM     85  F   UNL A   1      43.169  30.633  28.102  1.00  0.00    -0.203 F 
ATOM     86  C   UNL A   1      44.757  31.832  26.862  1.00  0.00     0.198 A 
ATOM     87  C   UNL A   1      47.096  31.591  27.334  1.00  0.00     0.198 A 
ATOM     88  F   UNL A   1      47.815  30.065  28.970  1.00  0.00    -0.203 F 
ATOM     89  F   UNL A   1      43.769  32.415  26.167  1.00  0.00    -0.200 F 
ATOM     90  C   UNL A   1      46.075  32.185  26.612  1.00  0.00     0.200 A 
ATOM     91  F   UNL A   1      48.369  31.954  27.126  1.00  0.00    -0.200 F 
ATOM     92  F   UNL A   1      46.361  33.113  25.688  1.00  0.00    -0.200 F 
ENDBRANCH  59  82
ENDBRANCH  33  34
ENDBRANCH  25  28
ENDBRANCH  23  24
ENDBRANCH  22  23
ENDBRANCH  21  22
ENDBRANCH   3  21
TORSDOF 15
ENDMDL
MODEL 2
REMARK VINA RESULT:     -11.7      1.097      2.112
REMARK SMILES CCC[C@H](C)C[NH+]1CC(n2cc(C(=O)NCCCNC(=O)c3ccc(-c4c5nc(c(-c6c(F)c(F)c(F)c(F)c6F)c6ccc([nH]6)c(-c6c(F)c(F)c(F)c(F)c6F)c6nc(c(-c7c(F)c(F)c(F)c(F)c7F)c7ccc4[nH]7)C=C6)C=C5)cc3)nn2)C1
REMARK SMILES IDX 13 1 14 2 15 3 12 5 10 6 11 7 86 8 85 9 9 10 7 11 8 12 87 13
REMARK SMILES IDX 6 15 4 16 5 17 3 18 2 19 1 20 16 21 17 22 18 23 19 24 20 25
REMARK SMILES IDX 21 27 22 28 23 29 84 30 24 31 83 32 25 33 26 34 27 35 77 36
REMARK SMILES IDX 28 37 82 38 76 39 78 40 29 41 81 42 75 43 74 44 30 46 62 47
REMARK SMILES IDX 42 48 61 49 43 50 46 51 60 52 79 53 44 54 45 55 59 57 80 58
REMARK SMILES IDX 47 59 31 60 32 61 40 62 33 63 34 64 38 65 41 66 35 67 36 68
REMARK SMILES IDX 39 69 37 70 63 71 64 72 72 73 65 74 66 75 70 76 73 77 67 78
REMARK SMILES IDX 68 79 71 80 69 81 48 82 49 83 57 84 50 85 51 86 55 87 58 88
REMARK SMILES IDX 52 89 53 90 56 91 54 92
REMARK H PARENT 15 4 7 14 19 26 78 45 46 56
REMARK Flexibility Score: inf
ROOT
ATOM      1  C   UNL A   1      31.459  28.992  24.864  1.00  0.00     0.273 C 
ATOM      2  O   UNL A   1      30.531  29.417  24.156  1.00  0.00    -0.267 OA
ATOM      3  N   UNL A   1      32.403  29.904  25.273  1.00  0.00    -0.351 N 
ATOM      4  H   UNL A   1      32.342  30.788  24.843  1.00  0.00     0.163 HD
ENDROOT
BRANCH   1   5
ATOM      5  C   UNL A   1      31.541  27.601  25.274  1.00  0.00     0.170 A 
ATOM      6  N   UNL A   1      32.014  25.499  25.527  1.00  0.00    -0.237 N 
ATOM      7  C   UNL A   1      32.187  26.542  24.666  1.00  0.00     0.145 A 
ATOM      8  N   UNL A   1      31.251  25.847  26.570  1.00  0.00    -0.066 NA
ATOM      9  N   UNL A   1      30.920  27.123  26.408  1.00  0.00    -0.125 NA
BRANCH   6  10
ATOM     10  C   UNL A   1      32.622  24.229  25.323  1.00  0.00     0.218 C 
ATOM     11  N   UNL A   1      34.288  23.051  25.687  1.00  0.00    -0.331 N 
ATOM     12  C   UNL A   1      33.152  23.482  26.567  1.00  0.00     0.295 C 
ATOM     13  C   UNL A   1      34.134  24.370  24.998  1.00  0.00     0.295 C 
ATOM     14  H   UNL A   1      34.283  22.160  25.189  1.00  0.00     0.348 HD
BRANCH  11  15
ATOM     15  C   UNL A   1      35.558  22.965  26.413  1.00  0.00     0.265 C 
BRANCH  15  16
ATOM     16  C   UNL A   1      36.412  21.829  25.794  1.00  0.00     0.041 C 
ATOM     17  C   UNL A   1      35.678  21.185  24.607  1.00  0.00     0.013 C 
BRANCH  16  18
ATOM     18  C   UNL A   1      37.796  22.367  25.372  1.00  0.00     0.009 C 
BRANCH  18  19
ATOM     19  C   UNL A   1      38.623  22.954  26.525  1.00  0.00    -0.003 C 
ATOM     20  C   UNL A   1      38.867  24.451  26.450  1.00  0.00     0.004 C 
ENDBRANCH  18  19
ENDBRANCH  16  18
ENDBRANCH  15  16
ENDBRANCH  11  15
ENDBRANCH   6  10
ENDBRANCH   1   5
BRANCH   3  21
ATOM     21  C   UNL A   1      33.481  29.765  26.243  1.00  0.00     0.118 C 
BRANCH  21  22
ATOM     22  C   UNL A   1      33.245  30.601  27.504  1.00  0.00     0.042 C 
BRANCH  22  23
ATOM     23  C   UNL A   1      34.283  31.699  27.683  1.00  0.00     0.118 C 
BRANCH  23  24
ATOM     24  N   UNL A   1      34.305  32.229  29.048  1.00  0.00    -0.352 N 
ATOM     25  C   UNL A   1      35.163  31.919  30.080  1.00  0.00     0.251 C 
ATOM     26  H   UNL A   1      33.613  32.898  29.255  1.00  0.00     0.163 HD
ATOM     27  O   UNL A   1      34.860  32.179  31.244  1.00  0.00    -0.269 OA
BRANCH  25  28
ATOM     28  C   UNL A   1      36.437  31.249  29.781  1.00  0.00     0.039 A 
ATOM     29  C   UNL A   1      37.608  31.987  29.601  1.00  0.00     0.014 A 
ATOM     30  C   UNL A   1      36.459  29.857  29.737  1.00  0.00     0.014 A 
ATOM     31  C   UNL A   1      38.817  31.307  29.484  1.00  0.00     0.010 A 
ATOM     32  C   UNL A   1      37.662  29.196  29.785  1.00  0.00     0.010 A 
ATOM     33  C   UNL A   1      38.845  29.908  29.617  1.00  0.00    -0.014 A 
BRANCH  33  34
ATOM     34  C   UNL A   1      40.125  29.208  29.718  1.00  0.00     0.031 A 
ATOM     35  C   UNL A   1      40.601  29.021  31.115  1.00  0.00     0.074 A 
ATOM     36  C   UNL A   1      40.737  28.591  28.682  1.00  0.00     0.049 A 
ATOM     37  N   UNL A   1      41.623  29.577  31.676  1.00  0.00    -0.248 NA
ATOM     38  C   UNL A   1      39.777  28.226  32.042  1.00  0.00     0.031 C 
ATOM     39  C   UNL A   1      40.207  28.386  27.328  1.00  0.00     0.029 A 
ATOM     40  N   UNL A   1      41.922  27.911  28.644  1.00  0.00    -0.354 N 
ATOM     41  C   UNL A   1      41.708  29.018  32.950  1.00  0.00     0.074 A 
ATOM     42  C   UNL A   1      40.453  28.361  33.188  1.00  0.00     0.031 C 
ATOM     43  C   UNL A   1      40.924  27.431  26.699  1.00  0.00     0.029 A 
ATOM     44  C   UNL A   1      42.080  27.112  27.516  1.00  0.00     0.049 A 
ATOM     45  H   UNL A   1      42.604  27.980  29.352  1.00  0.00     0.167 HD
ATOM     46  C   UNL A   1      42.924  28.877  33.548  1.00  0.00     0.037 A 
ATOM     47  C   UNL A   1      43.086  26.246  27.258  1.00  0.00     0.037 A 
ATOM     48  C   UNL A   1      43.922  29.645  32.848  1.00  0.00     0.049 A 
ATOM     49  C   UNL A   1      44.248  26.647  28.078  1.00  0.00     0.074 A 
ATOM     50  C   UNL A   1      44.328  30.958  32.770  1.00  0.00     0.029 A 
ATOM     51  N   UNL A   1      44.432  28.996  31.759  1.00  0.00    -0.354 N 
ATOM     52  N   UNL A   1      44.909  27.756  27.899  1.00  0.00    -0.248 NA
ATOM     53  C   UNL A   1      44.511  25.955  29.336  1.00  0.00     0.031 C 
ATOM     54  C   UNL A   1      45.016  31.093  31.525  1.00  0.00     0.029 A 
ATOM     55  C   UNL A   1      45.046  29.854  30.892  1.00  0.00     0.049 A 
ATOM     56  H   UNL A   1      44.365  28.024  31.616  1.00  0.00     0.167 HD
ATOM     57  C   UNL A   1      45.313  28.112  29.168  1.00  0.00     0.074 A 
ATOM     58  C   UNL A   1      45.217  26.897  29.964  1.00  0.00     0.031 C 
ATOM     59  C   UNL A   1      45.336  29.420  29.546  1.00  0.00     0.037 A 
BRANCH  46  60
ATOM     60  C   UNL A   1      43.355  27.689  34.393  1.00  0.00     0.064 A 
ATOM     61  C   UNL A   1      43.445  26.420  33.778  1.00  0.00     0.173 A 
ATOM     62  C   UNL A   1      43.346  27.673  35.804  1.00  0.00     0.173 A 
ATOM     63  F   UNL A   1      43.447  26.306  32.441  1.00  0.00    -0.203 F 
ATOM     64  C   UNL A   1      43.440  25.232  34.518  1.00  0.00     0.198 A 
ATOM     65  C   UNL A   1      43.391  26.488  36.540  1.00  0.00     0.198 A 
ATOM     66  F   UNL A   1      43.173  28.782  36.531  1.00  0.00    -0.203 F 
ATOM     67  F   UNL A   1      43.399  24.052  33.885  1.00  0.00    -0.200 F 
ATOM     68  C   UNL A   1      43.406  25.268  35.899  1.00  0.00     0.200 A 
ATOM     69  F   UNL A   1      43.334  26.543  37.878  1.00  0.00    -0.200 F 
ATOM     70  F   UNL A   1      43.340  24.135  36.610  1.00  0.00    -0.200 F 
ENDBRANCH  46  60
BRANCH  47  71
ATOM     71  C   UNL A   1      43.065  24.973  26.503  1.00  0.00     0.064 A 
ATOM     72  C   UNL A   1      43.858  24.808  25.356  1.00  0.00     0.173 A 
ATOM     73  C   UNL A   1      42.518  23.803  27.063  1.00  0.00     0.173 A 
ATOM     74  F   UNL A   1      44.434  25.871  24.774  1.00  0.00    -0.203 F 
ATOM     75  C   UNL A   1      44.144  23.542  24.837  1.00  0.00     0.198 A 
ATOM     76  C   UNL A   1      42.797  22.540  26.540  1.00  0.00     0.198 A 
ATOM     77  F   UNL A   1      41.791  23.857  28.188  1.00  0.00    -0.203 F 
ATOM     78  F   UNL A   1      44.976  23.420  23.794  1.00  0.00    -0.200 F 
ATOM     79  C   UNL A   1      43.628  22.408  25.442  1.00  0.00     0.200 A 
ATOM     80  F   UNL A   1      42.318  21.447  27.151  1.00  0.00    -0.200 F 
ATOM     81  F   UNL A   1      43.968  21.190  24.996  1.00  0.00    -0.200 F 
ENDBRANCH  47  71
BRANCH  59  82
ATOM     82  C   UNL A   1      45.522  30.446  28.477  1.00  0.00     0.064 A 
ATOM     83  C   UNL A   1      44.481  31.067  27.770  1.00  0.00     0.173 A 
ATOM     84  C   UNL A   1      46.834  30.847  28.189  1.00  0.00     0.173 A 
ATOM     85  F   UNL A   1      43.199  30.787  28.042  1.00  0.00    -0.203 F 
ATOM     86  C   UNL A   1      44.751  32.019  26.788  1.00  0.00     0.198 A 
ATOM     87  C   UNL A   1      47.098  31.821  27.235  1.00  0.00     0.198 A 
ATOM     88  F   UNL A   1      47.863  30.307  28.860  1.00  0.00    -0.203 F 
ATOM     89  F   UNL A   1      43.745  32.584  26.104  1.00  0.00    -0.200 F 
ATOM     90  C   UNL A   1      46.059  32.398  26.525  1.00  0.00     0.200 A 
ATOM     91  F   UNL A   1      48.362  32.210  27.014  1.00  0.00    -0.200 F 
ATOM     92  F   UNL A   1      46.317  33.332  25.599  1.00  0.00    -0.200 F 
ENDBRANCH  59  82
ENDBRANCH  33  34
ENDBRANCH  25  28
ENDBRANCH  23  24
ENDBRANCH  22  23
ENDBRANCH  21  22
ENDBRANCH   3  21
TORSDOF 15
ENDMDL
MODEL 3
REMARK VINA RESULT:     -11.6      4.116      6.830
REMARK SMILES CCC[C@H](C)C[NH+]1CC(n2cc(C(=O)NCCCNC(=O)c3ccc(-c4c5nc(c(-c6c(F)c(F)c(F)c(F)c6F)c6ccc([nH]6)c(-c6c(F)c(F)c(F)c(F)c6F)c6nc(c(-c7c(F)c(F)c(F)c(F)c7F)c7ccc4[nH]7)C=C6)C=C5)cc3)nn2)C1
REMARK SMILES IDX 13 1 14 2 15 3 12 5 10 6 11 7 86 8 85 9 9 10 7 11 8 12 87 13
REMARK SMILES IDX 6 15 4 16 5 17 3 18 2 19 1 20 16 21 17 22 18 23 19 24 20 25
REMARK SMILES IDX 21 27 22 28 23 29 84 30 24 31 83 32 25 33 26 34 27 35 77 36
REMARK SMILES IDX 28 37 82 38 76 39 78 40 29 41 81 42 75 43 74 44 30 46 62 47
REMARK SMILES IDX 42 48 61 49 43 50 46 51 60 52 79 53 44 54 45 55 59 57 80 58
REMARK SMILES IDX 47 59 31 60 32 61 40 62 33 63 34 64 38 65 41 66 35 67 36 68
REMARK SMILES IDX 39 69 37 70 63 71 64 72 72 73 65 74 66 75 70 76 73 77 67 78
REMARK SMILES IDX 68 79 71 80 69 81 48 82 49 83 57 84 50 85 51 86 55 87 58 88
REMARK SMILES IDX 52 89 53 90 56 91 54 92
REMARK H PARENT 15 4 7 14 19 26 78 45 46 56
REMARK Flexibility Score: inf
ROOT
ATOM      1  C   UNL A   1      33.086  36.600  31.012  1.00  0.00     0.273 C 
ATOM      2  O   UNL A   1      32.889  37.760  31.410  1.00  0.00    -0.267 OA
ATOM      3  N   UNL A   1      32.769  36.325  29.702  1.00  0.00    -0.351 N 
ATOM      4  H   UNL A   1      32.274  37.037  29.236  1.00  0.00     0.163 HD
ENDROOT
BRANCH   1   5
ATOM      5  C   UNL A   1      33.650  35.574  31.872  1.00  0.00     0.170 A 
ATOM      6  N   UNL A   1      34.901  34.337  33.142  1.00  0.00    -0.237 N 
ATOM      7  C   UNL A   1      34.960  35.383  32.268  1.00  0.00     0.145 A 
ATOM      8  N   UNL A   1      33.659  33.850  33.238  1.00  0.00    -0.066 NA
ATOM      9  N   UNL A   1      32.888  34.574  32.435  1.00  0.00    -0.125 NA
BRANCH   6  10
ATOM     10  C   UNL A   1      36.037  33.882  33.868  1.00  0.00     0.218 C 
ATOM     11  N   UNL A   1      37.932  33.054  33.738  1.00  0.00    -0.331 N 
ATOM     12  C   UNL A   1      37.418  34.434  33.453  1.00  0.00     0.295 C 
ATOM     13  C   UNL A   1      36.597  32.562  33.275  1.00  0.00     0.295 C 
ATOM     14  H   UNL A   1      38.336  32.799  34.639  1.00  0.00     0.348 HD
BRANCH  11  15
ATOM     15  C   UNL A   1      39.003  32.654  32.821  1.00  0.00     0.265 C 
BRANCH  15  16
ATOM     16  C   UNL A   1      40.353  32.692  33.583  1.00  0.00     0.041 C 
ATOM     17  C   UNL A   1      40.912  34.123  33.623  1.00  0.00     0.013 C 
BRANCH  16  18
ATOM     18  C   UNL A   1      40.183  32.117  35.005  1.00  0.00     0.009 C 
BRANCH  18  19
ATOM     19  C   UNL A   1      41.493  32.000  35.799  1.00  0.00    -0.003 C 
ATOM     20  C   UNL A   1      41.437  32.536  37.219  1.00  0.00     0.004 C 
ENDBRANCH  18  19
ENDBRANCH  16  18
ENDBRANCH  15  16
ENDBRANCH  11  15
ENDBRANCH   6  10
ENDBRANCH   1   5
BRANCH   3  21
ATOM     21  C   UNL A   1      33.054  35.145  28.898  1.00  0.00     0.118 C 
BRANCH  21  22
ATOM     22  C   UNL A   1      34.429  35.211  28.226  1.00  0.00     0.042 C 
BRANCH  22  23
ATOM     23  C   UNL A   1      35.244  33.943  28.432  1.00  0.00     0.118 C 
BRANCH  23  24
ATOM     24  N   UNL A   1      34.408  32.741  28.462  1.00  0.00    -0.352 N 
ATOM     25  C   UNL A   1      34.777  31.429  28.267  1.00  0.00     0.251 C 
ATOM     26  H   UNL A   1      33.453  32.892  28.648  1.00  0.00     0.163 HD
ATOM     27  O   UNL A   1      33.934  30.577  27.988  1.00  0.00    -0.269 OA
BRANCH  25  28
ATOM     28  C   UNL A   1      36.195  31.057  28.371  1.00  0.00     0.039 A 
ATOM     29  C   UNL A   1      37.018  31.637  29.338  1.00  0.00     0.014 A 
ATOM     30  C   UNL A   1      36.685  30.069  27.520  1.00  0.00     0.014 A 
ATOM     31  C   UNL A   1      38.306  31.138  29.509  1.00  0.00     0.010 A 
ATOM     32  C   UNL A   1      37.891  29.472  27.796  1.00  0.00     0.010 A 
ATOM     33  C   UNL A   1      38.727  30.025  28.761  1.00  0.00    -0.014 A 
BRANCH  33  34
ATOM     34  C   UNL A   1      39.987  29.358  29.087  1.00  0.00     0.031 A 
ATOM     35  C   UNL A   1      40.226  29.202  30.547  1.00  0.00     0.074 A 
ATOM     36  C   UNL A   1      40.777  28.741  28.179  1.00  0.00     0.049 A 
ATOM     37  N   UNL A   1      41.127  29.790  31.261  1.00  0.00    -0.248 NA
ATOM     38  C   UNL A   1      39.276  28.400  31.337  1.00  0.00     0.031 C 
ATOM     39  C   UNL A   1      40.486  28.504  26.759  1.00  0.00     0.029 A 
ATOM     40  N   UNL A   1      41.966  28.089  28.352  1.00  0.00    -0.354 N 
ATOM     41  C   UNL A   1      41.009  29.251  32.541  1.00  0.00     0.074 A 
ATOM     42  C   UNL A   1      39.746  28.567  32.577  1.00  0.00     0.031 C 
ATOM     43  C   UNL A   1      41.319  27.559  26.276  1.00  0.00     0.029 A 
ATOM     44  C   UNL A   1      42.328  27.280  27.280  1.00  0.00     0.049 A 
ATOM     45  H   UNL A   1      42.518  28.185  29.162  1.00  0.00     0.167 HD
ATOM     46  C   UNL A   1      42.111  29.149  33.337  1.00  0.00     0.037 A 
ATOM     47  C   UNL A   1      43.381  26.434  27.210  1.00  0.00     0.037 A 
ATOM     48  C   UNL A   1      43.196  29.931  32.799  1.00  0.00     0.049 A 
ATOM     49  C   UNL A   1      44.380  26.875  28.206  1.00  0.00     0.074 A 
ATOM     50  C   UNL A   1      43.580  31.252  32.767  1.00  0.00     0.029 A 
ATOM     51  N   UNL A   1      43.895  29.279  31.823  1.00  0.00    -0.354 N 
ATOM     52  N   UNL A   1      45.039  27.997  28.120  1.00  0.00    -0.248 NA
ATOM     53  C   UNL A   1      44.443  26.206  29.502  1.00  0.00     0.031 C 
ATOM     54  C   UNL A   1      44.464  31.386  31.653  1.00  0.00     0.029 A 
ATOM     55  C   UNL A   1      44.626  30.139  31.056  1.00  0.00     0.049 A 
ATOM     56  H   UNL A   1      43.873  28.303  31.689  1.00  0.00     0.167 HD
ATOM     57  C   UNL A   1      45.216  28.380  29.431  1.00  0.00     0.074 A 
ATOM     58  C   UNL A   1      45.014  27.174  30.222  1.00  0.00     0.031 C 
ATOM     59  C   UNL A   1      45.147  29.694  29.786  1.00  0.00     0.037 A 
BRANCH  46  60
ATOM     60  C   UNL A   1      42.419  27.983  34.262  1.00  0.00     0.064 A 
ATOM     61  C   UNL A   1      42.961  26.802  33.705  1.00  0.00     0.173 A 
ATOM     62  C   UNL A   1      41.902  27.848  35.568  1.00  0.00     0.173 A 
ATOM     63  F   UNL A   1      43.469  26.803  32.464  1.00  0.00    -0.203 F 
ATOM     64  C   UNL A   1      42.910  25.574  34.372  1.00  0.00     0.198 A 
ATOM     65  C   UNL A   1      41.898  26.630  36.250  1.00  0.00     0.198 A 
ATOM     66  F   UNL A   1      41.274  28.848  36.196  1.00  0.00    -0.203 F 
ATOM     67  F   UNL A   1      43.322  24.460  33.752  1.00  0.00    -0.200 F 
ATOM     68  C   UNL A   1      42.371  25.488  35.642  1.00  0.00     0.200 A 
ATOM     69  F   UNL A   1      41.350  26.563  37.472  1.00  0.00    -0.200 F 
ATOM     70  F   UNL A   1      42.264  24.305  36.260  1.00  0.00    -0.200 F 
ENDBRANCH  46  60
BRANCH  47  71
ATOM     71  C   UNL A   1      43.515  25.150  26.485  1.00  0.00     0.064 A 
ATOM     72  C   UNL A   1      44.443  25.011  25.440  1.00  0.00     0.173 A 
ATOM     73  C   UNL A   1      42.968  23.961  27.004  1.00  0.00     0.173 A 
ATOM     74  F   UNL A   1      45.026  26.095  24.906  1.00  0.00    -0.203 F 
ATOM     75  C   UNL A   1      44.853  23.756  24.986  1.00  0.00     0.198 A 
ATOM     76  C   UNL A   1      43.371  22.707  26.543  1.00  0.00     0.198 A 
ATOM     77  F   UNL A   1      42.114  23.993  28.035  1.00  0.00    -0.203 F 
ATOM     78  F   UNL A   1      45.805  23.663  24.047  1.00  0.00    -0.200 F 
ATOM     79  C   UNL A   1      44.330  22.604  25.550  1.00  0.00     0.200 A 
ATOM     80  F   UNL A   1      42.883  21.599  27.118  1.00  0.00    -0.200 F 
ATOM     81  F   UNL A   1      44.783  21.400  25.173  1.00  0.00    -0.200 F 
ENDBRANCH  47  71
BRANCH  59  82
ATOM     82  C   UNL A   1      45.488  30.708  28.744  1.00  0.00     0.064 A 
ATOM     83  C   UNL A   1      44.567  31.292  27.860  1.00  0.00     0.173 A 
ATOM     84  C   UNL A   1      46.820  31.139  28.675  1.00  0.00     0.173 A 
ATOM     85  F   UNL A   1      43.264  30.983  27.916  1.00  0.00    -0.203 F 
ATOM     86  C   UNL A   1      44.978  32.237  26.920  1.00  0.00     0.198 A 
ATOM     87  C   UNL A   1      47.219  32.107  27.761  1.00  0.00     0.198 A 
ATOM     88  F   UNL A   1      47.733  30.636  29.521  1.00  0.00    -0.203 F 
ATOM     89  F   UNL A   1      44.089  32.765  26.066  1.00  0.00    -0.200 F 
ATOM     90  C   UNL A   1      46.302  32.645  26.875  1.00  0.00     0.200 A 
ATOM     91  F   UNL A   1      48.492  32.525  27.750  1.00  0.00    -0.200 F 
ATOM     92  F   UNL A   1      46.692  33.573  25.990  1.00  0.00    -0.200 F 
ENDBRANCH  59  82
ENDBRANCH  33  34
ENDBRANCH  25  28
ENDBRANCH  23  24
ENDBRANCH  22  23
ENDBRANCH  21  22
ENDBRANCH   3  21
TORSDOF 15
ENDMDL
