MODEL 1
REMARK VINA RESULT:     -12.6      0.000      0.000
REMARK SMILES Cc1csc(C[C@@H](Cc2ccc(Br)cc2)C(=O)NCCCNC(=O)c2ccc(-c3c4nc(c(-c5c(F)c(F)c(F)c(F)c5F)c5ccc([nH]5)c(-c5c(F)c(F)c(F)c(F)c5F)c5nc(c(-c6c(F)c(F)c(F)c(F)c6F)c6ccc3[nH]6)C=C5)C=C4)cc2)n1
REMARK SMILES IDX 20 1 19 2 18 3 16 4 17 5 7 7 6 8 5 9 1 10 2 11 3 12 88 13
REMARK SMILES IDX 4 14 8 15 9 16 10 17 15 18 11 19 14 20 12 21 13 22 21 23
REMARK SMILES IDX 22 24 23 25 24 27 25 28 26 29 87 30 27 31 86 32 28 33 29 34
REMARK SMILES IDX 30 35 80 36 31 37 85 38 79 39 81 40 32 41 84 42 78 43 77 44
REMARK SMILES IDX 33 46 65 47 45 48 64 49 46 50 49 51 63 52 82 53 47 54 48 55
REMARK SMILES IDX 62 57 83 58 50 59 34 60 35 61 43 62 36 63 37 64 41 65 44 66
REMARK SMILES IDX 38 67 39 68 42 69 40 70 66 71 67 72 75 73 68 74 69 75 73 76
REMARK SMILES IDX 76 77 70 78 71 79 74 80 72 81 51 82 52 83 60 84 53 85 54 86
REMARK SMILES IDX 58 87 61 88 55 89 56 90 59 91 57 92
REMARK H PARENT 18 6 22 26 81 45 49 56
REMARK Flexibility Score: inf
ROOT
ATOM      1  C   UNL A   1      31.558  31.928  26.480  1.00  0.00     0.042 C 
ENDROOT
BRANCH   1   2
ATOM      2  C   UNL A   1      31.782  30.446  26.288  1.00  0.00     0.117 C 
BRANCH   2   3
ATOM      3  N   UNL A   1      32.808  30.085  25.338  1.00  0.00    -0.356 N 
ATOM      4  C   UNL A   1      32.707  29.258  24.259  1.00  0.00     0.223 C 
ATOM      5  O   UNL A   1      33.601  29.332  23.411  1.00  0.00    -0.275 OA
ATOM      6  H   UNL A   1      33.694  30.488  25.489  1.00  0.00     0.163 HD
BRANCH   4   7
ATOM      7  C   UNL A   1      31.582  28.231  24.105  1.00  0.00     0.089 C 
BRANCH   7   8
ATOM      8  C   UNL A   1      31.122  28.178  22.638  1.00  0.00     0.081 C 
BRANCH   8   9
ATOM      9  C   UNL A   1      29.828  28.878  22.365  1.00  0.00     0.094 A 
ATOM     10  C   UNL A   1      28.159  31.670  20.848  1.00  0.00     0.067 C 
ATOM     11  C   UNL A   1      28.442  30.451  21.645  1.00  0.00     0.048 A 
ATOM     12  C   UNL A   1      27.580  29.763  22.473  1.00  0.00     0.090 A 
ATOM     13  N   UNL A   1      29.718  29.931  21.588  1.00  0.00    -0.247 NA
ATOM     14  S   UNL A   1      28.388  28.431  23.189  1.00  0.00    -0.127 S 
ENDBRANCH   8   9
ENDBRANCH   7   8
BRANCH   7  15
ATOM     15  C   UNL A   1      31.797  26.924  24.921  1.00  0.00     0.049 C 
BRANCH  15  16
ATOM     16  C   UNL A   1      32.963  26.010  24.614  1.00  0.00    -0.047 A 
ATOM     17  C   UNL A   1      33.950  25.737  25.575  1.00  0.00     0.005 A 
ATOM     18  C   UNL A   1      33.056  25.376  23.363  1.00  0.00     0.005 A 
ATOM     19  C   UNL A   1      34.928  24.768  25.341  1.00  0.00     0.016 A 
ATOM     20  C   UNL A   1      34.043  24.412  23.124  1.00  0.00     0.016 A 
ATOM     21  C   UNL A   1      34.955  24.091  24.125  1.00  0.00     0.017 A 
ATOM     22  Br  UNL A   1      36.207  22.701  23.855  1.00  0.00    -0.051 Br
ENDBRANCH  15  16
ENDBRANCH   7  15
ENDBRANCH   4   7
ENDBRANCH   2   3
ENDBRANCH   1   2
BRANCH   1  23
ATOM     23  C   UNL A   1      32.681  32.598  27.248  1.00  0.00     0.118 C 
BRANCH  23  24
ATOM     24  N   UNL A   1      32.404  33.994  27.583  1.00  0.00    -0.352 N 
ATOM     25  C   UNL A   1      32.959  34.837  28.520  1.00  0.00     0.251 C 
ATOM     26  H   UNL A   1      31.692  34.407  27.041  1.00  0.00     0.163 HD
ATOM     27  O   UNL A   1      32.470  35.940  28.716  1.00  0.00    -0.269 OA
BRANCH  25  28
ATOM     28  C   UNL A   1      34.131  34.399  29.305  1.00  0.00     0.039 A 
ATOM     29  C   UNL A   1      33.940  33.839  30.571  1.00  0.00     0.014 A 
ATOM     30  C   UNL A   1      35.418  34.531  28.789  1.00  0.00     0.014 A 
ATOM     31  C   UNL A   1      35.035  33.328  31.273  1.00  0.00     0.010 A 
ATOM     32  C   UNL A   1      36.481  33.907  29.422  1.00  0.00     0.010 A 
ATOM     33  C   UNL A   1      36.307  33.312  30.679  1.00  0.00    -0.014 A 
BRANCH  33  34
ATOM     34  C   UNL A   1      37.488  32.713  31.348  1.00  0.00     0.031 A 
ATOM     35  C   UNL A   1      38.215  31.572  30.686  1.00  0.00     0.074 A 
ATOM     36  C   UNL A   1      37.835  33.112  32.587  1.00  0.00     0.049 A 
ATOM     37  N   UNL A   1      39.160  30.802  31.161  1.00  0.00    -0.248 NA
ATOM     38  C   UNL A   1      37.785  31.218  29.323  1.00  0.00     0.031 C 
ATOM     39  C   UNL A   1      37.165  34.159  33.361  1.00  0.00     0.029 A 
ATOM     40  N   UNL A   1      38.828  32.667  33.423  1.00  0.00    -0.354 N 
ATOM     41  C   UNL A   1      39.401  29.853  30.176  1.00  0.00     0.074 A 
ATOM     42  C   UNL A   1      38.466  30.104  29.104  1.00  0.00     0.031 C 
ATOM     43  C   UNL A   1      37.779  34.292  34.548  1.00  0.00     0.029 A 
ATOM     44  C   UNL A   1      38.858  33.313  34.635  1.00  0.00     0.049 A 
ATOM     45  H   UNL A   1      39.459  31.953  33.178  1.00  0.00     0.167 HD
ATOM     46  C   UNL A   1      40.339  28.877  30.155  1.00  0.00     0.037 A 
ATOM     47  C   UNL A   1      39.662  33.127  35.700  1.00  0.00     0.037 A 
ATOM     48  C   UNL A   1      41.309  28.676  31.197  1.00  0.00     0.049 A 
ATOM     49  C   UNL A   1      40.729  32.069  35.631  1.00  0.00     0.074 A 
ATOM     50  C   UNL A   1      42.361  27.779  31.236  1.00  0.00     0.029 A 
ATOM     51  N   UNL A   1      41.348  29.393  32.384  1.00  0.00    -0.354 N 
ATOM     52  N   UNL A   1      40.996  31.224  34.664  1.00  0.00    -0.248 NA
ATOM     53  C   UNL A   1      41.615  31.945  36.797  1.00  0.00     0.031 C 
ATOM     54  C   UNL A   1      43.015  27.927  32.463  1.00  0.00     0.029 A 
ATOM     55  C   UNL A   1      42.399  28.949  33.168  1.00  0.00     0.049 A 
ATOM     56  H   UNL A   1      40.722  30.112  32.630  1.00  0.00     0.167 HD
ATOM     57  C   UNL A   1      42.093  30.489  35.092  1.00  0.00     0.074 A 
ATOM     58  C   UNL A   1      42.452  30.998  36.399  1.00  0.00     0.031 C 
ATOM     59  C   UNL A   1      42.744  29.481  34.462  1.00  0.00     0.037 A 
BRANCH  46  60
ATOM     60  C   UNL A   1      40.371  27.967  28.962  1.00  0.00     0.064 A 
ATOM     61  C   UNL A   1      41.129  28.272  27.820  1.00  0.00     0.173 A 
ATOM     62  C   UNL A   1      39.655  26.760  28.968  1.00  0.00     0.173 A 
ATOM     63  F   UNL A   1      41.821  29.419  27.755  1.00  0.00    -0.203 F 
ATOM     64  C   UNL A   1      41.142  27.420  26.719  1.00  0.00     0.198 A 
ATOM     65  C   UNL A   1      39.697  25.895  27.878  1.00  0.00     0.198 A 
ATOM     66  F   UNL A   1      38.917  26.417  30.035  1.00  0.00    -0.203 F 
ATOM     67  F   UNL A   1      41.829  27.761  25.619  1.00  0.00    -0.200 F 
ATOM     68  C   UNL A   1      40.433  26.229  26.752  1.00  0.00     0.200 A 
ATOM     69  F   UNL A   1      39.022  24.738  27.917  1.00  0.00    -0.200 F 
ATOM     70  F   UNL A   1      40.453  25.407  25.694  1.00  0.00    -0.200 F 
ENDBRANCH  46  60
BRANCH  47  71
ATOM     71  C   UNL A   1      39.508  33.981  36.906  1.00  0.00     0.064 A 
ATOM     72  C   UNL A   1      40.120  35.240  36.977  1.00  0.00     0.173 A 
ATOM     73  C   UNL A   1      38.754  33.560  38.012  1.00  0.00     0.173 A 
ATOM     74  F   UNL A   1      40.866  35.679  35.952  1.00  0.00    -0.203 F 
ATOM     75  C   UNL A   1      40.003  36.037  38.114  1.00  0.00     0.198 A 
ATOM     76  C   UNL A   1      38.615  34.368  39.139  1.00  0.00     0.198 A 
ATOM     77  F   UNL A   1      38.143  32.366  37.993  1.00  0.00    -0.203 F 
ATOM     78  F   UNL A   1      40.637  37.215  38.172  1.00  0.00    -0.200 F 
ATOM     79  C   UNL A   1      39.247  35.602  39.192  1.00  0.00     0.200 A 
ATOM     80  F   UNL A   1      37.871  33.953  40.171  1.00  0.00    -0.200 F 
ATOM     81  F   UNL A   1      39.132  36.368  40.285  1.00  0.00    -0.200 F 
ENDBRANCH  47  71
BRANCH  59  82
ATOM     82  C   UNL A   1      43.932  28.888  35.160  1.00  0.00     0.064 A 
ATOM     83  C   UNL A   1      45.231  29.366  34.936  1.00  0.00     0.173 A 
ATOM     84  C   UNL A   1      43.761  27.858  36.098  1.00  0.00     0.173 A 
ATOM     85  F   UNL A   1      45.446  30.339  34.039  1.00  0.00    -0.203 F 
ATOM     86  C   UNL A   1      46.319  28.817  35.608  1.00  0.00     0.198 A 
ATOM     87  C   UNL A   1      44.847  27.333  36.789  1.00  0.00     0.198 A 
ATOM     88  F   UNL A   1      42.537  27.372  36.353  1.00  0.00    -0.203 F 
ATOM     89  F   UNL A   1      47.557  29.257  35.345  1.00  0.00    -0.200 F 
ATOM     90  C   UNL A   1      46.126  27.807  36.539  1.00  0.00     0.200 A 
ATOM     91  F   UNL A   1      44.657  26.367  37.700  1.00  0.00    -0.200 F 
ATOM     92  F   UNL A   1      47.174  27.286  37.191  1.00  0.00    -0.200 F 
ENDBRANCH  59  82
ENDBRANCH  33  34
ENDBRANCH  25  28
ENDBRANCH  23  24
ENDBRANCH   1  23
TORSDOF 14
ENDMDL
MODEL 2
REMARK VINA RESULT:     -12.6      2.727      4.727
REMARK SMILES Cc1csc(C[C@@H](Cc2ccc(Br)cc2)C(=O)NCCCNC(=O)c2ccc(-c3c4nc(c(-c5c(F)c(F)c(F)c(F)c5F)c5ccc([nH]5)c(-c5c(F)c(F)c(F)c(F)c5F)c5nc(c(-c6c(F)c(F)c(F)c(F)c6F)c6ccc3[nH]6)C=C5)C=C4)cc2)n1
REMARK SMILES IDX 20 1 19 2 18 3 16 4 17 5 7 7 6 8 5 9 1 10 2 11 3 12 88 13
REMARK SMILES IDX 4 14 8 15 9 16 10 17 15 18 11 19 14 20 12 21 13 22 21 23
REMARK SMILES IDX 22 24 23 25 24 27 25 28 26 29 87 30 27 31 86 32 28 33 29 34
REMARK SMILES IDX 30 35 80 36 31 37 85 38 79 39 81 40 32 41 84 42 78 43 77 44
REMARK SMILES IDX 33 46 65 47 45 48 64 49 46 50 49 51 63 52 82 53 47 54 48 55
REMARK SMILES IDX 62 57 83 58 50 59 34 60 35 61 43 62 36 63 37 64 41 65 44 66
REMARK SMILES IDX 38 67 39 68 42 69 40 70 66 71 67 72 75 73 68 74 69 75 73 76
REMARK SMILES IDX 76 77 70 78 71 79 74 80 72 81 51 82 52 83 60 84 53 85 54 86
REMARK SMILES IDX 58 87 61 88 55 89 56 90 59 91 57 92
REMARK H PARENT 18 6 22 26 81 45 49 56
REMARK Flexibility Score: inf
ROOT
ATOM      1  C   UNL A   1      31.967  27.904  25.736  1.00  0.00     0.042 C 
ENDROOT
BRANCH   1   2
ATOM      2  C   UNL A   1      32.480  26.571  26.226  1.00  0.00     0.117 C 
BRANCH   2   3
ATOM      3  N   UNL A   1      31.486  25.685  26.788  1.00  0.00    -0.356 N 
ATOM      4  C   UNL A   1      31.243  24.381  26.475  1.00  0.00     0.223 C 
ATOM      5  O   UNL A   1      30.574  23.727  27.281  1.00  0.00    -0.275 OA
ATOM      6  H   UNL A   1      30.911  26.074  27.487  1.00  0.00     0.163 HD
BRANCH   4   7
ATOM      7  C   UNL A   1      31.713  23.741  25.166  1.00  0.00     0.089 C 
BRANCH   7   8
ATOM      8  C   UNL A   1      32.353  22.373  25.455  1.00  0.00     0.081 C 
BRANCH   8   9
ATOM      9  C   UNL A   1      33.838  22.329  25.283  1.00  0.00     0.094 A 
ATOM     10  C   UNL A   1      36.651  22.886  23.125  1.00  0.00     0.067 C 
ATOM     11  C   UNL A   1      35.805  22.472  24.272  1.00  0.00     0.048 A 
ATOM     12  C   UNL A   1      36.191  21.782  25.401  1.00  0.00     0.090 A 
ATOM     13  N   UNL A   1      34.462  22.783  24.221  1.00  0.00    -0.247 NA
ATOM     14  S   UNL A   1      34.839  21.525  26.424  1.00  0.00    -0.127 S 
ENDBRANCH   8   9
ENDBRANCH   7   8
BRANCH   7  15
ATOM     15  C   UNL A   1      30.728  23.926  23.978  1.00  0.00     0.049 C 
BRANCH  15  16
ATOM     16  C   UNL A   1      30.432  25.307  23.433  1.00  0.00    -0.047 A 
ATOM     17  C   UNL A   1      29.291  26.021  23.830  1.00  0.00     0.005 A 
ATOM     18  C   UNL A   1      31.329  25.924  22.543  1.00  0.00     0.005 A 
ATOM     19  C   UNL A   1      29.111  27.354  23.452  1.00  0.00     0.016 A 
ATOM     20  C   UNL A   1      31.145  27.257  22.156  1.00  0.00     0.016 A 
ATOM     21  C   UNL A   1      30.053  27.974  22.637  1.00  0.00     0.017 A 
ATOM     22  Br  UNL A   1      29.869  29.808  22.222  1.00  0.00    -0.051 Br
ENDBRANCH  15  16
ENDBRANCH   7  15
ENDBRANCH   4   7
ENDBRANCH   2   3
ENDBRANCH   1   2
BRANCH   1  23
ATOM     23  C   UNL A   1      33.054  28.958  25.651  1.00  0.00     0.118 C 
BRANCH  23  24
ATOM     24  N   UNL A   1      32.614  30.284  26.086  1.00  0.00    -0.352 N 
ATOM     25  C   UNL A   1      33.153  31.176  26.985  1.00  0.00     0.251 C 
ATOM     26  H   UNL A   1      31.783  30.595  25.657  1.00  0.00     0.163 HD
ATOM     27  O   UNL A   1      32.533  32.183  27.293  1.00  0.00    -0.269 OA
BRANCH  25  28
ATOM     28  C   UNL A   1      34.471  30.905  27.594  1.00  0.00     0.039 A 
ATOM     29  C   UNL A   1      35.389  31.949  27.739  1.00  0.00     0.014 A 
ATOM     30  C   UNL A   1      34.800  29.624  28.031  1.00  0.00     0.014 A 
ATOM     31  C   UNL A   1      36.594  31.722  28.409  1.00  0.00     0.010 A 
ATOM     32  C   UNL A   1      35.930  29.430  28.809  1.00  0.00     0.010 A 
ATOM     33  C   UNL A   1      36.849  30.472  28.994  1.00  0.00    -0.014 A 
BRANCH  33  34
ATOM     34  C   UNL A   1      38.078  30.200  29.781  1.00  0.00     0.031 A 
ATOM     35  C   UNL A   1      39.119  29.263  29.227  1.00  0.00     0.074 A 
ATOM     36  C   UNL A   1      38.205  30.697  31.026  1.00  0.00     0.049 A 
ATOM     37  N   UNL A   1      40.179  28.761  29.808  1.00  0.00    -0.248 NA
ATOM     38  C   UNL A   1      38.911  28.785  27.850  1.00  0.00     0.031 C 
ATOM     39  C   UNL A   1      37.233  31.561  31.699  1.00  0.00     0.029 A 
ATOM     40  N   UNL A   1      39.200  30.531  31.957  1.00  0.00    -0.354 N 
ATOM     41  C   UNL A   1      40.732  27.883  28.886  1.00  0.00     0.074 A 
ATOM     42  C   UNL A   1      39.862  27.871  27.733  1.00  0.00     0.031 C 
ATOM     43  C   UNL A   1      37.688  31.866  32.925  1.00  0.00     0.029 A 
ATOM     44  C   UNL A   1      38.963  31.188  33.139  1.00  0.00     0.049 A 
ATOM     45  H   UNL A   1      40.006  29.991  31.793  1.00  0.00     0.167 HD
ATOM     46  C   UNL A   1      41.879  27.170  28.981  1.00  0.00     0.037 A 
ATOM     47  C   UNL A   1      39.690  31.230  34.272  1.00  0.00     0.037 A 
ATOM     48  C   UNL A   1      42.774  27.238  30.106  1.00  0.00     0.049 A 
ATOM     49  C   UNL A   1      40.987  30.470  34.333  1.00  0.00     0.074 A 
ATOM     50  C   UNL A   1      44.006  26.633  30.266  1.00  0.00     0.029 A 
ATOM     51  N   UNL A   1      42.530  27.967  31.261  1.00  0.00    -0.354 N 
ATOM     52  N   UNL A   1      41.538  29.699  33.427  1.00  0.00    -0.248 NA
ATOM     53  C   UNL A   1      41.770  30.593  35.571  1.00  0.00     0.031 C 
ATOM     54  C   UNL A   1      44.492  26.964  31.534  1.00  0.00     0.029 A 
ATOM     55  C   UNL A   1      43.585  27.814  32.145  1.00  0.00     0.049 A 
ATOM     56  H   UNL A   1      41.726  28.512  31.426  1.00  0.00     0.167 HD
ATOM     57  C   UNL A   1      42.740  29.268  33.972  1.00  0.00     0.074 A 
ATOM     58  C   UNL A   1      42.846  29.877  35.281  1.00  0.00     0.031 C 
ATOM     59  C   UNL A   1      43.672  28.441  33.438  1.00  0.00     0.037 A 
BRANCH  46  60
ATOM     60  C   UNL A   1      42.240  26.273  27.833  1.00  0.00     0.064 A 
ATOM     61  C   UNL A   1      41.672  24.998  27.684  1.00  0.00     0.173 A 
ATOM     62  C   UNL A   1      43.149  26.702  26.854  1.00  0.00     0.173 A 
ATOM     63  F   UNL A   1      40.808  24.533  28.600  1.00  0.00    -0.203 F 
ATOM     64  C   UNL A   1      42.023  24.175  26.618  1.00  0.00     0.198 A 
ATOM     65  C   UNL A   1      43.473  25.889  25.771  1.00  0.00     0.198 A 
ATOM     66  F   UNL A   1      43.720  27.912  26.945  1.00  0.00    -0.203 F 
ATOM     67  F   UNL A   1      41.508  22.941  26.529  1.00  0.00    -0.200 F 
ATOM     68  C   UNL A   1      42.917  24.624  25.658  1.00  0.00     0.200 A 
ATOM     69  F   UNL A   1      44.327  26.330  24.837  1.00  0.00    -0.200 F 
ATOM     70  F   UNL A   1      43.249  23.834  24.628  1.00  0.00    -0.200 F 
ENDBRANCH  46  60
BRANCH  47  71
ATOM     71  C   UNL A   1      39.225  32.043  35.426  1.00  0.00     0.064 A 
ATOM     72  C   UNL A   1      38.451  31.467  36.443  1.00  0.00     0.173 A 
ATOM     73  C   UNL A   1      39.537  33.406  35.536  1.00  0.00     0.173 A 
ATOM     74  F   UNL A   1      38.110  30.172  36.373  1.00  0.00    -0.203 F 
ATOM     75  C   UNL A   1      37.988  32.227  37.515  1.00  0.00     0.198 A 
ATOM     76  C   UNL A   1      39.097  34.159  36.623  1.00  0.00     0.198 A 
ATOM     77  F   UNL A   1      40.281  34.003  34.594  1.00  0.00    -0.203 F 
ATOM     78  F   UNL A   1      37.211  31.662  38.449  1.00  0.00    -0.200 F 
ATOM     79  C   UNL A   1      38.316  33.571  37.607  1.00  0.00     0.200 A 
ATOM     80  F   UNL A   1      39.428  35.453  36.717  1.00  0.00    -0.200 F 
ATOM     81  F   UNL A   1      37.872  34.302  38.639  1.00  0.00    -0.200 F 
ENDBRANCH  47  71
BRANCH  59  82
ATOM     82  C   UNL A   1      44.904  28.177  34.254  1.00  0.00     0.064 A 
ATOM     83  C   UNL A   1      44.981  27.091  35.138  1.00  0.00     0.173 A 
ATOM     84  C   UNL A   1      46.034  28.996  34.115  1.00  0.00     0.173 A 
ATOM     85  F   UNL A   1      43.921  26.289  35.316  1.00  0.00    -0.203 F 
ATOM     86  C   UNL A   1      46.138  26.849  35.871  1.00  0.00     0.198 A 
ATOM     87  C   UNL A   1      47.199  28.734  34.828  1.00  0.00     0.198 A 
ATOM     88  F   UNL A   1      46.013  30.042  33.276  1.00  0.00    -0.203 F 
ATOM     89  F   UNL A   1      46.175  25.834  36.745  1.00  0.00    -0.200 F 
ATOM     90  C   UNL A   1      47.248  27.666  35.711  1.00  0.00     0.200 A 
ATOM     91  F   UNL A   1      48.276  29.514  34.659  1.00  0.00    -0.200 F 
ATOM     92  F   UNL A   1      48.365  27.426  36.412  1.00  0.00    -0.200 F 
ENDBRANCH  59  82
ENDBRANCH  33  34
ENDBRANCH  25  28
ENDBRANCH  23  24
ENDBRANCH   1  23
TORSDOF 14
ENDMDL
MODEL 3
REMARK VINA RESULT:     -12.6      0.512      1.774
REMARK SMILES Cc1csc(C[C@@H](Cc2ccc(Br)cc2)C(=O)NCCCNC(=O)c2ccc(-c3c4nc(c(-c5c(F)c(F)c(F)c(F)c5F)c5ccc([nH]5)c(-c5c(F)c(F)c(F)c(F)c5F)c5nc(c(-c6c(F)c(F)c(F)c(F)c6F)c6ccc3[nH]6)C=C5)C=C4)cc2)n1
REMARK SMILES IDX 20 1 19 2 18 3 16 4 17 5 7 7 6 8 5 9 1 10 2 11 3 12 88 13
REMARK SMILES IDX 4 14 8 15 9 16 10 17 15 18 11 19 14 20 12 21 13 22 21 23
REMARK SMILES IDX 22 24 23 25 24 27 25 28 26 29 87 30 27 31 86 32 28 33 29 34
REMARK SMILES IDX 30 35 80 36 31 37 85 38 79 39 81 40 32 41 84 42 78 43 77 44
REMARK SMILES IDX 33 46 65 47 45 48 64 49 46 50 49 51 63 52 82 53 47 54 48 55
REMARK SMILES IDX 62 57 83 58 50 59 34 60 35 61 43 62 36 63 37 64 41 65 44 66
REMARK SMILES IDX 38 67 39 68 42 69 40 70 66 71 67 72 75 73 68 74 69 75 73 76
REMARK SMILES IDX 76 77 70 78 71 79 74 80 72 81 51 82 52 83 60 84 53 85 54 86
REMARK SMILES IDX 58 87 61 88 55 89 56 90 59 91 57 92
REMARK H PARENT 18 6 22 26 81 45 49 56
REMARK Flexibility Score: inf
ROOT
ATOM      1  C   UNL A   1      31.572  32.013  26.549  1.00  0.00     0.042 C 
ENDROOT
BRANCH   1   2
ATOM      2  C   UNL A   1      31.734  30.513  26.489  1.00  0.00     0.117 C 
BRANCH   2   3
ATOM      3  N   UNL A   1      32.617  30.018  25.457  1.00  0.00    -0.356 N 
ATOM      4  C   UNL A   1      32.289  29.361  24.309  1.00  0.00     0.223 C 
ATOM      5  O   UNL A   1      33.153  29.308  23.428  1.00  0.00    -0.275 OA
ATOM      6  H   UNL A   1      33.578  30.176  25.603  1.00  0.00     0.163 HD
BRANCH   4   7
ATOM      7  C   UNL A   1      30.943  28.659  24.111  1.00  0.00     0.089 C 
BRANCH   7   8
ATOM      8  C   UNL A   1      30.477  28.825  22.655  1.00  0.00     0.081 C 
BRANCH   8   9
ATOM      9  C   UNL A   1      29.547  29.975  22.425  1.00  0.00     0.094 A 
ATOM     10  C   UNL A   1      27.880  32.089  20.052  1.00  0.00     0.067 C 
ATOM     11  C   UNL A   1      28.405  31.517  21.316  1.00  0.00     0.048 A 
ATOM     12  C   UNL A   1      28.284  32.030  22.591  1.00  0.00     0.090 A 
ATOM     13  N   UNL A   1      29.122  30.341  21.238  1.00  0.00    -0.247 NA
ATOM     14  S   UNL A   1      29.082  31.009  23.714  1.00  0.00    -0.127 S 
ENDBRANCH   8   9
ENDBRANCH   7   8
BRANCH   7  15
ATOM     15  C   UNL A   1      30.829  27.286  24.833  1.00  0.00     0.049 C 
BRANCH  15  16
ATOM     16  C   UNL A   1      31.903  26.234  24.657  1.00  0.00    -0.047 A 
ATOM     17  C   UNL A   1      32.019  25.500  23.466  1.00  0.00     0.005 A 
ATOM     18  C   UNL A   1      32.842  26.003  25.677  1.00  0.00     0.005 A 
ATOM     19  C   UNL A   1      33.108  24.653  23.250  1.00  0.00     0.016 A 
ATOM     20  C   UNL A   1      33.929  25.146  25.466  1.00  0.00     0.016 A 
ATOM     21  C   UNL A   1      34.072  24.499  24.242  1.00  0.00     0.017 A 
ATOM     22  Br  UNL A   1      35.603  23.444  23.904  1.00  0.00    -0.051 Br
ENDBRANCH  15  16
ENDBRANCH   7  15
ENDBRANCH   4   7
ENDBRANCH   2   3
ENDBRANCH   1   2
BRANCH   1  23
ATOM     23  C   UNL A   1      32.723  32.702  27.256  1.00  0.00     0.118 C 
BRANCH  23  24
ATOM     24  N   UNL A   1      32.437  34.090  27.618  1.00  0.00    -0.352 N 
ATOM     25  C   UNL A   1      32.982  34.915  28.575  1.00  0.00     0.251 C 
ATOM     26  H   UNL A   1      31.726  34.510  27.081  1.00  0.00     0.163 HD
ATOM     27  O   UNL A   1      32.487  36.011  28.791  1.00  0.00    -0.269 OA
BRANCH  25  28
ATOM     28  C   UNL A   1      34.152  34.467  29.358  1.00  0.00     0.039 A 
ATOM     29  C   UNL A   1      33.958  33.885  30.613  1.00  0.00     0.014 A 
ATOM     30  C   UNL A   1      35.441  34.612  28.850  1.00  0.00     0.014 A 
ATOM     31  C   UNL A   1      35.052  33.364  31.311  1.00  0.00     0.010 A 
ATOM     32  C   UNL A   1      36.503  33.980  29.476  1.00  0.00     0.010 A 
ATOM     33  C   UNL A   1      36.326  33.362  30.722  1.00  0.00    -0.014 A 
BRANCH  33  34
ATOM     34  C   UNL A   1      37.506  32.755  31.386  1.00  0.00     0.031 A 
ATOM     35  C   UNL A   1      38.227  31.615  30.717  1.00  0.00     0.074 A 
ATOM     36  C   UNL A   1      37.857  33.147  32.626  1.00  0.00     0.049 A 
ATOM     37  N   UNL A   1      39.169  30.838  31.186  1.00  0.00    -0.248 NA
ATOM     38  C   UNL A   1      37.792  31.269  29.353  1.00  0.00     0.031 C 
ATOM     39  C   UNL A   1      37.194  34.194  33.406  1.00  0.00     0.029 A 
ATOM     40  N   UNL A   1      38.850  32.694  33.458  1.00  0.00    -0.354 N 
ATOM     41  C   UNL A   1      39.403  29.893  30.197  1.00  0.00     0.074 A 
ATOM     42  C   UNL A   1      38.467  30.152  29.128  1.00  0.00     0.031 C 
ATOM     43  C   UNL A   1      37.811  34.319  34.592  1.00  0.00     0.029 A 
ATOM     44  C   UNL A   1      38.886  33.335  34.673  1.00  0.00     0.049 A 
ATOM     45  H   UNL A   1      39.477  31.978  33.208  1.00  0.00     0.167 HD
ATOM     46  C   UNL A   1      40.337  28.912  30.169  1.00  0.00     0.037 A 
ATOM     47  C   UNL A   1      39.691  33.140  35.734  1.00  0.00     0.037 A 
ATOM     48  C   UNL A   1      41.309  28.702  31.208  1.00  0.00     0.049 A 
ATOM     49  C   UNL A   1      40.754  32.078  35.658  1.00  0.00     0.074 A 
ATOM     50  C   UNL A   1      42.357  27.801  31.241  1.00  0.00     0.029 A 
ATOM     51  N   UNL A   1      41.354  29.414  32.398  1.00  0.00    -0.354 N 
ATOM     52  N   UNL A   1      41.015  31.237  34.687  1.00  0.00    -0.248 NA
ATOM     53  C   UNL A   1      41.641  31.945  36.822  1.00  0.00     0.031 C 
ATOM     54  C   UNL A   1      43.014  27.941  32.467  1.00  0.00     0.029 A 
ATOM     55  C   UNL A   1      42.405  28.962  33.178  1.00  0.00     0.049 A 
ATOM     56  H   UNL A   1      40.731  30.135  32.649  1.00  0.00     0.167 HD
ATOM     57  C   UNL A   1      42.109  30.494  35.110  1.00  0.00     0.074 A 
ATOM     58  C   UNL A   1      42.474  30.996  36.418  1.00  0.00     0.031 C 
ATOM     59  C   UNL A   1      42.755  29.486  34.473  1.00  0.00     0.037 A 
BRANCH  46  60
ATOM     60  C   UNL A   1      40.363  28.007  28.972  1.00  0.00     0.064 A 
ATOM     61  C   UNL A   1      41.123  28.311  27.832  1.00  0.00     0.173 A 
ATOM     62  C   UNL A   1      39.637  26.806  28.973  1.00  0.00     0.173 A 
ATOM     63  F   UNL A   1      41.825  29.454  27.773  1.00  0.00    -0.203 F 
ATOM     64  C   UNL A   1      41.130  27.465  26.727  1.00  0.00     0.198 A 
ATOM     65  C   UNL A   1      39.673  25.946  27.879  1.00  0.00     0.198 A 
ATOM     66  F   UNL A   1      38.896  26.465  30.037  1.00  0.00    -0.203 F 
ATOM     67  F   UNL A   1      41.820  27.805  25.629  1.00  0.00    -0.200 F 
ATOM     68  C   UNL A   1      40.412  26.279  26.754  1.00  0.00     0.200 A 
ATOM     69  F   UNL A   1      38.988  24.794  27.912  1.00  0.00    -0.200 F 
ATOM     70  F   UNL A   1      40.426  25.461  25.693  1.00  0.00    -0.200 F 
ENDBRANCH  46  60
BRANCH  47  71
ATOM     71  C   UNL A   1      39.544  33.989  36.945  1.00  0.00     0.064 A 
ATOM     72  C   UNL A   1      38.782  33.553  38.039  1.00  0.00     0.173 A 
ATOM     73  C   UNL A   1      40.152  35.250  37.036  1.00  0.00     0.173 A 
ATOM     74  F   UNL A   1      38.165  32.363  37.992  1.00  0.00    -0.203 F 
ATOM     75  C   UNL A   1      38.617  34.353  39.167  1.00  0.00     0.198 A 
ATOM     76  C   UNL A   1      40.009  36.038  38.177  1.00  0.00     0.198 A 
ATOM     77  F   UNL A   1      40.897  35.711  36.021  1.00  0.00    -0.203 F 
ATOM     78  F   UNL A   1      37.845  33.931  40.178  1.00  0.00    -0.200 F 
ATOM     79  C   UNL A   1      39.234  35.593  39.237  1.00  0.00     0.200 A 
ATOM     80  F   UNL A   1      40.620  37.228  38.248  1.00  0.00    -0.200 F 
ATOM     81  F   UNL A   1      39.077  36.362  40.324  1.00  0.00    -0.200 F 
ENDBRANCH  47  71
BRANCH  59  82
ATOM     82  C   UNL A   1      43.942  28.885  35.166  1.00  0.00     0.064 A 
ATOM     83  C   UNL A   1      43.813  27.780  36.020  1.00  0.00     0.173 A 
ATOM     84  C   UNL A   1      45.228  29.395  34.938  1.00  0.00     0.173 A 
ATOM     85  F   UNL A   1      42.602  27.266  36.280  1.00  0.00    -0.203 F 
ATOM     86  C   UNL A   1      44.928  27.222  36.638  1.00  0.00     0.198 A 
ATOM     87  C   UNL A   1      46.344  28.817  35.534  1.00  0.00     0.198 A 
ATOM     88  F   UNL A   1      45.404  30.447  34.123  1.00  0.00    -0.203 F 
ATOM     89  F   UNL A   1      44.777  26.196  37.486  1.00  0.00    -0.200 F 
ATOM     90  C   UNL A   1      46.192  27.736  36.390  1.00  0.00     0.200 A 
ATOM     91  F   UNL A   1      47.566  29.305  35.281  1.00  0.00    -0.200 F 
ATOM     92  F   UNL A   1      47.266  27.192  36.980  1.00  0.00    -0.200 F 
ENDBRANCH  59  82
ENDBRANCH  33  34
ENDBRANCH  25  28
ENDBRANCH  23  24
ENDBRANCH   1  23
TORSDOF 14
ENDMDL
