MODEL 1
REMARK VINA RESULT:     -11.6      0.000      0.000
REMARK SMILES CN(Cc1ccc(C(=O)NCCCNC(=O)c2ccc(-c3c4nc(c(-c5c(F)c(F)c(F)c(F)c5F)c5ccc([nH]5)c(-c5c(F)c(F)c(F)c(F)c5F)c5nc(c(-c6c(F)c(F)c(F)c(F)c6F)c6ccc3[nH]6)C=C5)C=C4)cc2)cc1)c1ccccc1N
REMARK SMILES IDX 11 1 10 2 8 3 9 4 7 6 4 7 5 8 81 9 6 10 80 11 3 12 2 13 1 14
REMARK SMILES IDX 82 15 83 16 87 17 84 18 86 19 85 20 88 21 12 24 13 25 14 26
REMARK SMILES IDX 15 27 16 29 17 30 18 31 79 32 19 33 78 34 20 35 21 36 22 37
REMARK SMILES IDX 72 38 23 39 77 40 71 41 73 42 24 43 76 44 70 45 69 46 25 48
REMARK SMILES IDX 57 49 37 50 56 51 38 52 41 53 55 54 74 55 39 56 40 57 54 59
REMARK SMILES IDX 75 60 42 61 26 62 27 63 35 64 28 65 29 66 33 67 36 68 30 69
REMARK SMILES IDX 31 70 34 71 32 72 58 73 59 74 67 75 60 76 61 77 65 78 68 79
REMARK SMILES IDX 62 80 63 81 66 82 64 83 43 84 44 85 52 86 45 87 46 88 50 89
REMARK SMILES IDX 53 90 47 91 48 92 51 93 49 94
REMARK H PARENT 10 5 88 22 88 23 14 28 73 47 41 58
REMARK Flexibility Score: inf
ROOT
ATOM      1  C   UNL A   1      37.231  20.694  24.693  1.00  0.00     0.118 C 
ENDROOT
BRANCH   1   2
ATOM      2  N   UNL A   1      37.742  21.980  25.125  1.00  0.00    -0.352 N 
ATOM      3  C   UNL A   1      37.102  23.158  25.413  1.00  0.00     0.251 C 
ATOM      4  O   UNL A   1      37.770  24.078  25.883  1.00  0.00    -0.269 OA
ATOM      5  H   UNL A   1      38.721  22.015  25.229  1.00  0.00     0.163 HD
BRANCH   3   6
ATOM      6  C   UNL A   1      35.644  23.358  25.195  1.00  0.00     0.039 A 
ATOM      7  C   UNL A   1      32.911  24.017  24.958  1.00  0.00    -0.029 A 
ATOM      8  C   UNL A   1      33.454  23.679  26.207  1.00  0.00     0.006 A 
ATOM      9  C   UNL A   1      33.730  23.941  23.825  1.00  0.00     0.006 A 
ATOM     10  C   UNL A   1      34.812  23.359  26.322  1.00  0.00     0.014 A 
ATOM     11  C   UNL A   1      35.089  23.658  23.949  1.00  0.00     0.014 A 
BRANCH   7  12
ATOM     12  C   UNL A   1      31.512  24.596  24.860  1.00  0.00     0.151 C 
BRANCH  12  13
ATOM     13  N   UNL A   1      31.523  26.027  24.511  1.00  0.00    -0.369 N 
ATOM     14  C   UNL A   1      30.825  26.439  23.305  1.00  0.00     0.144 C 
BRANCH  13  15
ATOM     15  C   UNL A   1      32.081  26.959  25.392  1.00  0.00     0.060 A 
ATOM     16  C   UNL A   1      31.419  27.251  26.606  1.00  0.00     0.028 A 
ATOM     17  C   UNL A   1      33.299  27.647  25.161  1.00  0.00     0.055 A 
ATOM     18  C   UNL A   1      31.875  28.203  27.519  1.00  0.00     0.002 A 
ATOM     19  C   UNL A   1      33.743  28.619  26.083  1.00  0.00     0.027 A 
ATOM     20  C   UNL A   1      33.038  28.900  27.251  1.00  0.00     0.002 A 
BRANCH  17  21
ATOM     21  N   UNL A   1      34.028  27.530  23.979  1.00  0.00    -0.397 N 
ATOM     22  H   UNL A   1      33.595  27.181  23.165  1.00  0.00     0.156 HD
ATOM     23  H   UNL A   1      34.976  27.795  23.956  1.00  0.00     0.156 HD
ENDBRANCH  17  21
ENDBRANCH  13  15
ENDBRANCH  12  13
ENDBRANCH   7  12
ENDBRANCH   3   6
ENDBRANCH   1   2
BRANCH   1  24
ATOM     24  C   UNL A   1      38.249  19.578  24.929  1.00  0.00     0.042 C 
BRANCH  24  25
ATOM     25  C   UNL A   1      39.237  19.885  26.049  1.00  0.00     0.118 C 
BRANCH  25  26
ATOM     26  N   UNL A   1      40.393  19.002  26.005  1.00  0.00    -0.352 N 
ATOM     27  C   UNL A   1      41.731  19.293  26.024  1.00  0.00     0.251 C 
ATOM     28  H   UNL A   1      40.179  18.042  25.953  1.00  0.00     0.163 HD
ATOM     29  O   UNL A   1      42.542  18.413  25.751  1.00  0.00    -0.269 OA
BRANCH  27  30
ATOM     30  C   UNL A   1      42.213  20.650  26.365  1.00  0.00     0.039 A 
ATOM     31  C   UNL A   1      42.278  21.012  27.714  1.00  0.00     0.014 A 
ATOM     32  C   UNL A   1      42.521  21.588  25.376  1.00  0.00     0.014 A 
ATOM     33  C   UNL A   1      42.679  22.300  28.073  1.00  0.00     0.010 A 
ATOM     34  C   UNL A   1      42.985  22.853  25.735  1.00  0.00     0.010 A 
ATOM     35  C   UNL A   1      43.051  23.225  27.087  1.00  0.00    -0.014 A 
BRANCH  35  36
ATOM     36  C   UNL A   1      43.485  24.596  27.453  1.00  0.00     0.031 A 
ATOM     37  C   UNL A   1      42.467  25.635  27.833  1.00  0.00     0.074 A 
ATOM     38  C   UNL A   1      44.792  24.915  27.399  1.00  0.00     0.049 A 
ATOM     39  N   UNL A   1      42.643  26.897  28.134  1.00  0.00    -0.248 NA
ATOM     40  C   UNL A   1      41.060  25.203  27.854  1.00  0.00     0.031 C 
ATOM     41  C   UNL A   1      45.867  24.005  27.007  1.00  0.00     0.029 A 
ATOM     42  N   UNL A   1      45.436  26.096  27.668  1.00  0.00    -0.354 N 
ATOM     43  C   UNL A   1      41.373  27.411  28.363  1.00  0.00     0.074 A 
ATOM     44  C   UNL A   1      40.432  26.339  28.120  1.00  0.00     0.031 C 
ATOM     45  C   UNL A   1      47.041  24.653  27.080  1.00  0.00     0.029 A 
ATOM     46  C   UNL A   1      46.796  26.032  27.493  1.00  0.00     0.049 A 
ATOM     47  H   UNL A   1      44.968  26.912  27.959  1.00  0.00     0.167 HD
ATOM     48  C   UNL A   1      41.026  28.658  28.761  1.00  0.00     0.037 A 
ATOM     49  C   UNL A   1      47.739  26.981  27.645  1.00  0.00     0.037 A 
ATOM     50  C   UNL A   1      41.969  29.713  29.029  1.00  0.00     0.049 A 
ATOM     51  C   UNL A   1      47.328  28.358  28.093  1.00  0.00     0.074 A 
ATOM     52  C   UNL A   1      41.724  30.995  29.490  1.00  0.00     0.029 A 
ATOM     53  N   UNL A   1      43.341  29.604  28.860  1.00  0.00    -0.354 N 
ATOM     54  N   UNL A   1      46.130  28.815  28.365  1.00  0.00    -0.248 NA
ATOM     55  C   UNL A   1      48.401  29.346  28.262  1.00  0.00     0.031 C 
ATOM     56  C   UNL A   1      42.945  31.674  29.563  1.00  0.00     0.029 A 
ATOM     57  C   UNL A   1      43.955  30.801  29.191  1.00  0.00     0.049 A 
ATOM     58  H   UNL A   1      43.810  28.795  28.550  1.00  0.00     0.167 HD
ATOM     59  C   UNL A   1      46.308  30.133  28.764  1.00  0.00     0.074 A 
ATOM     60  C   UNL A   1      47.730  30.398  28.710  1.00  0.00     0.031 C 
ATOM     61  C   UNL A   1      45.375  31.042  29.141  1.00  0.00     0.037 A 
BRANCH  48  62
ATOM     62  C   UNL A   1      39.565  28.950  28.936  1.00  0.00     0.064 A 
ATOM     63  C   UNL A   1      38.939  28.850  30.189  1.00  0.00     0.173 A 
ATOM     64  C   UNL A   1      38.784  29.364  27.846  1.00  0.00     0.173 A 
ATOM     65  F   UNL A   1      39.638  28.447  31.261  1.00  0.00    -0.203 F 
ATOM     66  C   UNL A   1      37.583  29.125  30.337  1.00  0.00     0.198 A 
ATOM     67  C   UNL A   1      37.434  29.666  28.003  1.00  0.00     0.198 A 
ATOM     68  F   UNL A   1      39.332  29.481  26.627  1.00  0.00    -0.203 F 
ATOM     69  F   UNL A   1      36.998  28.975  31.534  1.00  0.00    -0.200 F 
ATOM     70  C   UNL A   1      36.832  29.539  29.246  1.00  0.00     0.200 A 
ATOM     71  F   UNL A   1      36.714  30.078  26.951  1.00  0.00    -0.200 F 
ATOM     72  F   UNL A   1      35.528  29.808  29.392  1.00  0.00    -0.200 F 
ENDBRANCH  48  62
BRANCH  49  73
ATOM     73  C   UNL A   1      49.166  26.651  27.404  1.00  0.00     0.064 A 
ATOM     74  C   UNL A   1      50.037  26.407  28.476  1.00  0.00     0.173 A 
ATOM     75  C   UNL A   1      49.688  26.566  26.106  1.00  0.00     0.173 A 
ATOM     76  F   UNL A   1      49.587  26.496  29.736  1.00  0.00    -0.203 F 
ATOM     77  C   UNL A   1      51.380  26.107  28.258  1.00  0.00     0.198 A 
ATOM     78  C   UNL A   1      51.026  26.241  25.889  1.00  0.00     0.198 A 
ATOM     79  F   UNL A   1      48.895  26.786  25.047  1.00  0.00    -0.203 F 
ATOM     80  F   UNL A   1      52.199  25.918  29.301  1.00  0.00    -0.200 F 
ATOM     81  C   UNL A   1      51.871  26.019  26.964  1.00  0.00     0.200 A 
ATOM     82  F   UNL A   1      51.494  26.143  24.637  1.00  0.00    -0.200 F 
ATOM     83  F   UNL A   1      53.161  25.725  26.756  1.00  0.00    -0.200 F 
ENDBRANCH  49  73
BRANCH  61  84
ATOM     84  C   UNL A   1      45.867  32.396  29.558  1.00  0.00     0.064 A 
ATOM     85  C   UNL A   1      45.969  33.455  28.645  1.00  0.00     0.173 A 
ATOM     86  C   UNL A   1      46.205  32.645  30.897  1.00  0.00     0.173 A 
ATOM     87  F   UNL A   1      45.673  33.262  27.351  1.00  0.00    -0.203 F 
ATOM     88  C   UNL A   1      46.412  34.710  29.053  1.00  0.00     0.198 A 
ATOM     89  C   UNL A   1      46.621  33.908  31.307  1.00  0.00     0.198 A 
ATOM     90  F   UNL A   1      46.119  31.666  31.810  1.00  0.00    -0.203 F 
ATOM     91  F   UNL A   1      46.544  35.697  28.156  1.00  0.00    -0.200 F 
ATOM     92  C   UNL A   1      46.732  34.937  30.384  1.00  0.00     0.200 A 
ATOM     93  F   UNL A   1      46.918  34.130  32.595  1.00  0.00    -0.200 F 
ATOM     94  F   UNL A   1      47.152  36.148  30.776  1.00  0.00    -0.200 F 
ENDBRANCH  61  84
ENDBRANCH  35  36
ENDBRANCH  27  30
ENDBRANCH  25  26
ENDBRANCH  24  25
ENDBRANCH   1  24
TORSDOF 14
ENDMDL
MODEL 2
REMARK VINA RESULT:     -11.6      5.351      9.672
REMARK SMILES CN(Cc1ccc(C(=O)NCCCNC(=O)c2ccc(-c3c4nc(c(-c5c(F)c(F)c(F)c(F)c5F)c5ccc([nH]5)c(-c5c(F)c(F)c(F)c(F)c5F)c5nc(c(-c6c(F)c(F)c(F)c(F)c6F)c6ccc3[nH]6)C=C5)C=C4)cc2)cc1)c1ccccc1N
REMARK SMILES IDX 11 1 10 2 8 3 9 4 7 6 4 7 5 8 81 9 6 10 80 11 3 12 2 13 1 14
REMARK SMILES IDX 82 15 83 16 87 17 84 18 86 19 85 20 88 21 12 24 13 25 14 26
REMARK SMILES IDX 15 27 16 29 17 30 18 31 79 32 19 33 78 34 20 35 21 36 22 37
REMARK SMILES IDX 72 38 23 39 77 40 71 41 73 42 24 43 76 44 70 45 69 46 25 48
REMARK SMILES IDX 57 49 37 50 56 51 38 52 41 53 55 54 74 55 39 56 40 57 54 59
REMARK SMILES IDX 75 60 42 61 26 62 27 63 35 64 28 65 29 66 33 67 36 68 30 69
REMARK SMILES IDX 31 70 34 71 32 72 58 73 59 74 67 75 60 76 61 77 65 78 68 79
REMARK SMILES IDX 62 80 63 81 66 82 64 83 43 84 44 85 52 86 45 87 46 88 50 89
REMARK SMILES IDX 53 90 47 91 48 92 51 93 49 94
REMARK H PARENT 10 5 88 22 88 23 14 28 73 47 41 58
REMARK Flexibility Score: inf
ROOT
ATOM      1  C   UNL A   1      31.598  30.728  26.516  1.00  0.00     0.118 C 
ENDROOT
BRANCH   1   2
ATOM      2  N   UNL A   1      31.391  30.389  25.121  1.00  0.00    -0.352 N 
ATOM      3  C   UNL A   1      31.419  29.183  24.470  1.00  0.00     0.251 C 
ATOM      4  O   UNL A   1      31.084  29.159  23.286  1.00  0.00    -0.269 OA
ATOM      5  H   UNL A   1      31.198  31.160  24.540  1.00  0.00     0.163 HD
BRANCH   3   6
ATOM      6  C   UNL A   1      31.820  27.915  25.136  1.00  0.00     0.039 A 
ATOM      7  C   UNL A   1      32.422  25.354  26.153  1.00  0.00    -0.029 A 
ATOM      8  C   UNL A   1      31.098  25.815  26.129  1.00  0.00     0.006 A 
ATOM      9  C   UNL A   1      33.443  26.218  25.740  1.00  0.00     0.006 A 
ATOM     10  C   UNL A   1      30.801  27.083  25.619  1.00  0.00     0.014 A 
ATOM     11  C   UNL A   1      33.140  27.466  25.197  1.00  0.00     0.014 A 
BRANCH   7  12
ATOM     12  C   UNL A   1      32.726  23.902  26.475  1.00  0.00     0.151 C 
BRANCH  12  13
ATOM     13  N   UNL A   1      33.070  23.123  25.273  1.00  0.00    -0.369 N 
ATOM     14  C   UNL A   1      32.006  22.819  24.332  1.00  0.00     0.144 C 
BRANCH  13  15
ATOM     15  C   UNL A   1      34.405  22.806  25.002  1.00  0.00     0.060 A 
ATOM     16  C   UNL A   1      34.999  23.266  23.806  1.00  0.00     0.028 A 
ATOM     17  C   UNL A   1      35.236  22.044  25.862  1.00  0.00     0.055 A 
ATOM     18  C   UNL A   1      36.307  22.955  23.429  1.00  0.00     0.002 A 
ATOM     19  C   UNL A   1      36.551  21.723  25.465  1.00  0.00     0.027 A 
ATOM     20  C   UNL A   1      37.084  22.169  24.257  1.00  0.00     0.002 A 
BRANCH  17  21
ATOM     21  N   UNL A   1      34.777  21.453  27.038  1.00  0.00    -0.397 N 
ATOM     22  H   UNL A   1      35.389  20.911  27.588  1.00  0.00     0.156 HD
ATOM     23  H   UNL A   1      33.841  21.576  27.320  1.00  0.00     0.156 HD
ENDBRANCH  17  21
ENDBRANCH  13  15
ENDBRANCH  12  13
ENDBRANCH   7  12
ENDBRANCH   3   6
ENDBRANCH   1   2
BRANCH   1  24
ATOM     24  C   UNL A   1      31.421  32.227  26.761  1.00  0.00     0.042 C 
BRANCH  24  25
ATOM     25  C   UNL A   1      32.739  32.972  26.943  1.00  0.00     0.118 C 
BRANCH  25  26
ATOM     26  N   UNL A   1      32.550  34.244  27.624  1.00  0.00    -0.352 N 
ATOM     27  C   UNL A   1      33.093  34.714  28.790  1.00  0.00     0.251 C 
ATOM     28  H   UNL A   1      31.932  34.866  27.175  1.00  0.00     0.163 HD
ATOM     29  O   UNL A   1      32.628  35.725  29.305  1.00  0.00    -0.269 OA
BRANCH  27  30
ATOM     30  C   UNL A   1      34.230  34.021  29.436  1.00  0.00     0.039 A 
ATOM     31  C   UNL A   1      35.528  34.376  29.055  1.00  0.00     0.014 A 
ATOM     32  C   UNL A   1      34.031  32.978  30.346  1.00  0.00     0.014 A 
ATOM     33  C   UNL A   1      36.624  33.710  29.606  1.00  0.00     0.010 A 
ATOM     34  C   UNL A   1      35.126  32.358  30.944  1.00  0.00     0.010 A 
ATOM     35  C   UNL A   1      36.432  32.706  30.567  1.00  0.00    -0.014 A 
BRANCH  35  36
ATOM     36  C   UNL A   1      37.587  31.993  31.165  1.00  0.00     0.031 A 
ATOM     37  C   UNL A   1      38.044  32.331  32.557  1.00  0.00     0.074 A 
ATOM     38  C   UNL A   1      38.250  31.074  30.438  1.00  0.00     0.049 A 
ATOM     39  N   UNL A   1      39.061  31.857  33.233  1.00  0.00    -0.248 NA
ATOM     40  C   UNL A   1      37.271  33.356  33.276  1.00  0.00     0.031 C 
ATOM     41  C   UNL A   1      37.924  30.690  29.065  1.00  0.00     0.029 A 
ATOM     42  N   UNL A   1      39.340  30.302  30.751  1.00  0.00    -0.354 N 
ATOM     43  C   UNL A   1      39.057  32.537  34.444  1.00  0.00     0.074 A 
ATOM     44  C   UNL A   1      37.968  33.488  34.394  1.00  0.00     0.031 C 
ATOM     45  C   UNL A   1      38.782  29.740  28.659  1.00  0.00     0.029 A 
ATOM     46  C   UNL A   1      39.735  29.472  29.731  1.00  0.00     0.049 A 
ATOM     47  H   UNL A   1      39.795  30.339  31.623  1.00  0.00     0.167 HD
ATOM     48  C   UNL A   1      39.875  32.366  35.511  1.00  0.00     0.037 A 
ATOM     49  C   UNL A   1      40.757  28.597  29.668  1.00  0.00     0.037 A 
ATOM     50  C   UNL A   1      40.939  31.397  35.567  1.00  0.00     0.049 A 
ATOM     51  C   UNL A   1      41.647  28.422  30.869  1.00  0.00     0.074 A 
ATOM     52  C   UNL A   1      41.789  31.107  36.620  1.00  0.00     0.029 A 
ATOM     53  N   UNL A   1      41.297  30.560  34.521  1.00  0.00    -0.354 N 
ATOM     54  N   UNL A   1      41.597  29.026  32.031  1.00  0.00    -0.248 NA
ATOM     55  C   UNL A   1      42.732  27.439  30.750  1.00  0.00     0.031 C 
ATOM     56  C   UNL A   1      42.686  30.120  36.198  1.00  0.00     0.029 A 
ATOM     57  C   UNL A   1      42.367  29.764  34.898  1.00  0.00     0.049 A 
ATOM     58  H   UNL A   1      40.857  30.535  33.640  1.00  0.00     0.167 HD
ATOM     59  C   UNL A   1      42.621  28.477  32.790  1.00  0.00     0.074 A 
ATOM     60  C   UNL A   1      43.269  27.483  31.961  1.00  0.00     0.031 C 
ATOM     61  C   UNL A   1      42.992  28.772  34.060  1.00  0.00     0.037 A 
BRANCH  48  62
ATOM     62  C   UNL A   1      39.648  33.242  36.707  1.00  0.00     0.064 A 
ATOM     63  C   UNL A   1      38.739  32.888  37.717  1.00  0.00     0.173 A 
ATOM     64  C   UNL A   1      40.367  34.437  36.864  1.00  0.00     0.173 A 
ATOM     65  F   UNL A   1      38.018  31.762  37.610  1.00  0.00    -0.203 F 
ATOM     66  C   UNL A   1      38.540  33.709  38.823  1.00  0.00     0.198 A 
ATOM     67  C   UNL A   1      40.186  35.242  37.986  1.00  0.00     0.198 A 
ATOM     68  F   UNL A   1      41.252  34.821  35.932  1.00  0.00    -0.203 F 
ATOM     69  F   UNL A   1      37.632  33.373  39.750  1.00  0.00    -0.200 F 
ATOM     70  C   UNL A   1      39.268  34.882  38.960  1.00  0.00     0.200 A 
ATOM     71  F   UNL A   1      40.899  36.368  38.123  1.00  0.00    -0.200 F 
ATOM     72  F   UNL A   1      39.077  35.669  40.028  1.00  0.00    -0.200 F 
ENDBRANCH  48  62
BRANCH  49  73
ATOM     73  C   UNL A   1      40.969  27.795  28.437  1.00  0.00     0.064 A 
ATOM     74  C   UNL A   1      40.308  26.572  28.254  1.00  0.00     0.173 A 
ATOM     75  C   UNL A   1      41.826  28.233  27.418  1.00  0.00     0.173 A 
ATOM     76  F   UNL A   1      39.493  26.103  29.211  1.00  0.00    -0.203 F 
ATOM     77  C   UNL A   1      40.510  25.809  27.107  1.00  0.00     0.198 A 
ATOM     78  C   UNL A   1      42.007  27.481  26.258  1.00  0.00     0.198 A 
ATOM     79  F   UNL A   1      42.477  29.398  27.542  1.00  0.00    -0.203 F 
ATOM     80  F   UNL A   1      39.896  24.625  26.976  1.00  0.00    -0.200 F 
ATOM     81  C   UNL A   1      41.355  26.267  26.107  1.00  0.00     0.200 A 
ATOM     82  F   UNL A   1      42.813  27.933  25.289  1.00  0.00    -0.200 F 
ATOM     83  F   UNL A   1      41.544  25.536  25.001  1.00  0.00    -0.200 F 
ENDBRANCH  49  73
BRANCH  61  84
ATOM     84  C   UNL A   1      44.128  27.983  34.643  1.00  0.00     0.064 A 
ATOM     85  C   UNL A   1      45.450  28.445  34.583  1.00  0.00     0.173 A 
ATOM     86  C   UNL A   1      43.883  26.769  35.302  1.00  0.00     0.173 A 
ATOM     87  F   UNL A   1      45.736  29.593  33.949  1.00  0.00    -0.203 F 
ATOM     88  C   UNL A   1      46.490  27.709  35.144  1.00  0.00     0.198 A 
ATOM     89  C   UNL A   1      44.921  26.050  35.885  1.00  0.00     0.198 A 
ATOM     90  F   UNL A   1      42.633  26.288  35.391  1.00  0.00    -0.203 F 
ATOM     91  F   UNL A   1      47.752  28.147  35.037  1.00  0.00    -0.200 F 
ATOM     92  C   UNL A   1      46.224  26.516  35.799  1.00  0.00     0.200 A 
ATOM     93  F   UNL A   1      44.661  24.903  36.529  1.00  0.00    -0.200 F 
ATOM     94  F   UNL A   1      47.226  25.812  36.344  1.00  0.00    -0.200 F 
ENDBRANCH  61  84
ENDBRANCH  35  36
ENDBRANCH  27  30
ENDBRANCH  25  26
ENDBRANCH  24  25
ENDBRANCH   1  24
TORSDOF 14
ENDMDL
MODEL 3
REMARK VINA RESULT:     -11.6      0.793      1.916
REMARK SMILES CN(Cc1ccc(C(=O)NCCCNC(=O)c2ccc(-c3c4nc(c(-c5c(F)c(F)c(F)c(F)c5F)c5ccc([nH]5)c(-c5c(F)c(F)c(F)c(F)c5F)c5nc(c(-c6c(F)c(F)c(F)c(F)c6F)c6ccc3[nH]6)C=C5)C=C4)cc2)cc1)c1ccccc1N
REMARK SMILES IDX 11 1 10 2 8 3 9 4 7 6 4 7 5 8 81 9 6 10 80 11 3 12 2 13 1 14
REMARK SMILES IDX 82 15 83 16 87 17 84 18 86 19 85 20 88 21 12 24 13 25 14 26
REMARK SMILES IDX 15 27 16 29 17 30 18 31 79 32 19 33 78 34 20 35 21 36 22 37
REMARK SMILES IDX 72 38 23 39 77 40 71 41 73 42 24 43 76 44 70 45 69 46 25 48
REMARK SMILES IDX 57 49 37 50 56 51 38 52 41 53 55 54 74 55 39 56 40 57 54 59
REMARK SMILES IDX 75 60 42 61 26 62 27 63 35 64 28 65 29 66 33 67 36 68 30 69
REMARK SMILES IDX 31 70 34 71 32 72 58 73 59 74 67 75 60 76 61 77 65 78 68 79
REMARK SMILES IDX 62 80 63 81 66 82 64 83 43 84 44 85 52 86 45 87 46 88 50 89
REMARK SMILES IDX 53 90 47 91 48 92 51 93 49 94
REMARK H PARENT 10 5 88 22 88 23 14 28 73 47 41 58
REMARK Flexibility Score: inf
ROOT
ATOM      1  C   UNL A   1      37.408  20.736  24.696  1.00  0.00     0.118 C 
ENDROOT
BRANCH   1   2
ATOM      2  N   UNL A   1      37.926  21.985  25.220  1.00  0.00    -0.352 N 
ATOM      3  C   UNL A   1      37.308  23.177  25.494  1.00  0.00     0.251 C 
ATOM      4  O   UNL A   1      37.965  24.053  26.055  1.00  0.00    -0.269 OA
ATOM      5  H   UNL A   1      38.892  21.975  25.413  1.00  0.00     0.163 HD
BRANCH   3   6
ATOM      6  C   UNL A   1      35.884  23.445  25.153  1.00  0.00     0.039 A 
ATOM      7  C   UNL A   1      33.218  24.235  24.679  1.00  0.00    -0.029 A 
ATOM      8  C   UNL A   1      33.641  23.902  25.974  1.00  0.00     0.006 A 
ATOM      9  C   UNL A   1      34.121  24.089  23.619  1.00  0.00     0.006 A 
ATOM     10  C   UNL A   1      34.965  23.516  26.208  1.00  0.00     0.014 A 
ATOM     11  C   UNL A   1      35.449  23.741  23.860  1.00  0.00     0.014 A 
BRANCH   7  12
ATOM     12  C   UNL A   1      31.864  24.881  24.454  1.00  0.00     0.151 C 
BRANCH  12  13
ATOM     13  N   UNL A   1      31.967  26.334  24.235  1.00  0.00    -0.369 N 
ATOM     14  C   UNL A   1      31.424  26.876  23.002  1.00  0.00     0.144 C 
BRANCH  13  15
ATOM     15  C   UNL A   1      32.459  27.163  25.249  1.00  0.00     0.060 A 
ATOM     16  C   UNL A   1      33.671  27.862  25.047  1.00  0.00     0.028 A 
ATOM     17  C   UNL A   1      31.815  27.370  26.495  1.00  0.00     0.055 A 
ATOM     18  C   UNL A   1      34.262  28.669  26.021  1.00  0.00     0.002 A 
ATOM     19  C   UNL A   1      32.429  28.176  27.477  1.00  0.00     0.027 A 
ATOM     20  C   UNL A   1      33.644  28.817  27.248  1.00  0.00     0.002 A 
BRANCH  17  21
ATOM     21  N   UNL A   1      30.657  26.694  26.876  1.00  0.00    -0.397 N 
ATOM     22  H   UNL A   1      29.983  26.452  26.199  1.00  0.00     0.156 HD
ATOM     23  H   UNL A   1      30.514  26.457  27.821  1.00  0.00     0.156 HD
ENDBRANCH  17  21
ENDBRANCH  13  15
ENDBRANCH  12  13
ENDBRANCH   7  12
ENDBRANCH   3   6
ENDBRANCH   1   2
BRANCH   1  24
ATOM     24  C   UNL A   1      38.352  19.570  24.987  1.00  0.00     0.042 C 
BRANCH  24  25
ATOM     25  C   UNL A   1      39.318  19.843  26.136  1.00  0.00     0.118 C 
BRANCH  25  26
ATOM     26  N   UNL A   1      40.471  18.957  26.094  1.00  0.00    -0.352 N 
ATOM     27  C   UNL A   1      41.808  19.245  26.042  1.00  0.00     0.251 C 
ATOM     28  H   UNL A   1      40.255  17.996  26.104  1.00  0.00     0.163 HD
ATOM     29  O   UNL A   1      42.607  18.350  25.785  1.00  0.00    -0.269 OA
BRANCH  27  30
ATOM     30  C   UNL A   1      42.303  20.619  26.287  1.00  0.00     0.039 A 
ATOM     31  C   UNL A   1      42.420  21.055  27.610  1.00  0.00     0.014 A 
ATOM     32  C   UNL A   1      42.574  21.499  25.236  1.00  0.00     0.014 A 
ATOM     33  C   UNL A   1      42.835  22.361  27.881  1.00  0.00     0.010 A 
ATOM     34  C   UNL A   1      43.052  22.780  25.506  1.00  0.00     0.010 A 
ATOM     35  C   UNL A   1      43.169  23.228  26.830  1.00  0.00    -0.014 A 
BRANCH  35  36
ATOM     36  C   UNL A   1      43.618  24.616  27.102  1.00  0.00     0.031 A 
ATOM     37  C   UNL A   1      42.641  25.639  27.611  1.00  0.00     0.074 A 
ATOM     38  C   UNL A   1      44.893  24.963  26.847  1.00  0.00     0.049 A 
ATOM     39  N   UNL A   1      42.828  26.912  27.860  1.00  0.00    -0.248 NA
ATOM     40  C   UNL A   1      41.265  25.176  27.851  1.00  0.00     0.031 C 
ATOM     41  C   UNL A   1      45.921  24.069  26.315  1.00  0.00     0.029 A 
ATOM     42  N   UNL A   1      45.540  26.165  26.995  1.00  0.00    -0.354 N 
ATOM     43  C   UNL A   1      41.594  27.401  28.266  1.00  0.00     0.074 A 
ATOM     44  C   UNL A   1      40.654  26.303  28.188  1.00  0.00     0.031 C 
ATOM     45  C   UNL A   1      47.075  24.746  26.199  1.00  0.00     0.029 A 
ATOM     46  C   UNL A   1      46.859  26.127  26.619  1.00  0.00     0.049 A 
ATOM     47  H   UNL A   1      45.099  26.976  27.337  1.00  0.00     0.167 HD
ATOM     48  C   UNL A   1      41.278  28.649  28.689  1.00  0.00     0.037 A 
ATOM     49  C   UNL A   1      47.790  27.101  26.610  1.00  0.00     0.037 A 
ATOM     50  C   UNL A   1      42.223  29.731  28.793  1.00  0.00     0.049 A 
ATOM     51  C   UNL A   1      47.415  28.477  27.089  1.00  0.00     0.074 A 
ATOM     52  C   UNL A   1      42.016  31.016  29.262  1.00  0.00     0.029 A 
ATOM     53  N   UNL A   1      43.557  29.649  28.422  1.00  0.00    -0.354 N 
ATOM     54  N   UNL A   1      46.259  28.913  27.530  1.00  0.00    -0.248 NA
ATOM     55  C   UNL A   1      48.475  29.493  27.077  1.00  0.00     0.031 C 
ATOM     56  C   UNL A   1      43.217  31.725  29.139  1.00  0.00     0.029 A 
ATOM     57  C   UNL A   1      44.182  30.867  28.636  1.00  0.00     0.049 A 
ATOM     58  H   UNL A   1      43.995  28.845  28.060  1.00  0.00     0.167 HD
ATOM     59  C   UNL A   1      46.461  30.244  27.873  1.00  0.00     0.074 A 
ATOM     60  C   UNL A   1      47.852  30.539  27.601  1.00  0.00     0.031 C 
ATOM     61  C   UNL A   1      45.571  31.139  28.368  1.00  0.00     0.037 A 
BRANCH  48  62
ATOM     62  C   UNL A   1      39.852  28.911  29.076  1.00  0.00     0.064 A 
ATOM     63  C   UNL A   1      38.910  29.374  28.143  1.00  0.00     0.173 A 
ATOM     64  C   UNL A   1      39.411  28.670  30.386  1.00  0.00     0.173 A 
ATOM     65  F   UNL A   1      39.282  29.631  26.880  1.00  0.00    -0.203 F 
ATOM     66  C   UNL A   1      37.590  29.610  28.515  1.00  0.00     0.198 A 
ATOM     67  C   UNL A   1      38.084  28.880  30.747  1.00  0.00     0.198 A 
ATOM     68  F   UNL A   1      40.269  28.222  31.316  1.00  0.00    -0.203 F 
ATOM     69  F   UNL A   1      36.721  30.099  27.618  1.00  0.00    -0.200 F 
ATOM     70  C   UNL A   1      37.176  29.358  29.814  1.00  0.00     0.200 A 
ATOM     71  F   UNL A   1      37.682  28.624  32.000  1.00  0.00    -0.200 F 
ATOM     72  F   UNL A   1      35.903  29.583  30.168  1.00  0.00    -0.200 F 
ENDBRANCH  48  62
BRANCH  49  73
ATOM     73  C   UNL A   1      49.173  26.799  26.164  1.00  0.00     0.064 A 
ATOM     74  C   UNL A   1      49.560  27.011  24.833  1.00  0.00     0.173 A 
ATOM     75  C   UNL A   1      50.135  26.301  27.053  1.00  0.00     0.173 A 
ATOM     76  F   UNL A   1      48.667  27.467  23.942  1.00  0.00    -0.203 F 
ATOM     77  C   UNL A   1      50.853  26.719  24.404  1.00  0.00     0.198 A 
ATOM     78  C   UNL A   1      51.436  26.035  26.628  1.00  0.00     0.198 A 
ATOM     79  F   UNL A   1      49.817  26.087  28.337  1.00  0.00    -0.203 F 
ATOM     80  F   UNL A   1      51.184  26.893  23.118  1.00  0.00    -0.200 F 
ATOM     81  C   UNL A   1      51.791  26.237  25.304  1.00  0.00     0.200 A 
ATOM     82  F   UNL A   1      52.344  25.582  27.503  1.00  0.00    -0.200 F 
ATOM     83  F   UNL A   1      53.036  25.962  24.892  1.00  0.00    -0.200 F 
ENDBRANCH  49  73
BRANCH  61  84
ATOM     84  C   UNL A   1      46.086  32.513  28.682  1.00  0.00     0.064 A 
ATOM     85  C   UNL A   1      46.092  33.533  27.720  1.00  0.00     0.173 A 
ATOM     86  C   UNL A   1      46.541  32.821  29.973  1.00  0.00     0.173 A 
ATOM     87  F   UNL A   1      45.681  33.283  26.468  1.00  0.00    -0.203 F 
ATOM     88  C   UNL A   1      46.557  34.807  28.033  1.00  0.00     0.198 A 
ATOM     89  C   UNL A   1      46.980  34.103  30.289  1.00  0.00     0.198 A 
ATOM     90  F   UNL A   1      46.550  31.881  30.930  1.00  0.00    -0.203 F 
ATOM     91  F   UNL A   1      46.597  35.756  27.088  1.00  0.00    -0.200 F 
ATOM     92  C   UNL A   1      46.995  35.093  29.319  1.00  0.00     0.200 A 
ATOM     93  F   UNL A   1      47.391  34.381  31.535  1.00  0.00    -0.200 F 
ATOM     94  F   UNL A   1      47.436  36.322  29.619  1.00  0.00    -0.200 F 
ENDBRANCH  61  84
ENDBRANCH  35  36
ENDBRANCH  27  30
ENDBRANCH  25  26
ENDBRANCH  24  25
ENDBRANCH   1  24
TORSDOF 14
ENDMDL
