MODEL 1
REMARK VINA RESULT:     -13.1      0.000      0.000
REMARK SMILES Cc1nc(N2CCN(c3ccccc3)CC2)nc(OCC(=O)NCCCNC(=O)c2ccc(-c3c4nc(c(-c5c(F)c(F)c(F)c(F)c5F)c5ccc([nH]5)c(-c5c(F)c(F)c(F)c(F)c5F)c5nc(c(-c6c(F)c(F)c(F)c(F)c6F)c6ccc3[nH]6)C=C5)C=C4)cc2)c1C
REMARK SMILES IDX 24 1 23 2 21 3 22 4 20 6 19 7 18 8 1 9 2 10 3 11 93 12 4 13
REMARK SMILES IDX 94 14 17 15 5 16 6 17 16 18 7 19 15 20 8 21 9 22 10 23 14 24
REMARK SMILES IDX 11 25 13 26 12 27 25 28 26 29 27 30 28 31 29 33 30 34 31 35
REMARK SMILES IDX 92 36 32 37 91 38 33 39 34 40 35 41 85 42 36 43 90 44 84 45
REMARK SMILES IDX 86 46 37 47 89 48 83 49 82 50 38 52 70 53 50 54 69 55 51 56
REMARK SMILES IDX 54 57 68 58 87 59 52 60 53 61 67 63 88 64 55 65 39 66 40 67
REMARK SMILES IDX 48 68 41 69 42 70 46 71 49 72 43 73 44 74 47 75 45 76 71 77
REMARK SMILES IDX 72 78 80 79 73 80 74 81 78 82 81 83 75 84 76 85 79 86 77 87
REMARK SMILES IDX 56 88 57 89 65 90 58 91 59 92 63 93 66 94 60 95 61 96 64 97
REMARK SMILES IDX 62 98
REMARK H PARENT 23 5 27 32 86 51 54 62
REMARK Flexibility Score: inf
ROOT
ATOM      1  C   UNL A   1      37.469  21.071  24.678  1.00  0.00     0.117 C 
ENDROOT
BRANCH   1   2
ATOM      2  N   UNL A   1      38.021  22.265  25.286  1.00  0.00    -0.353 N 
ATOM      3  C   UNL A   1      37.398  23.441  25.572  1.00  0.00     0.258 C 
ATOM      4  O   UNL A   1      37.999  24.261  26.270  1.00  0.00    -0.271 OA
ATOM      5  H   UNL A   1      38.975  22.218  25.525  1.00  0.00     0.163 HD
BRANCH   3   6
ATOM      6  C   UNL A   1      35.966  23.699  25.085  1.00  0.00     0.331 C 
BRANCH   6   7
ATOM      7  O   UNL A   1      35.073  24.437  25.879  1.00  0.00    -0.467 OA
BRANCH   7   8
ATOM      8  C   UNL A   1      33.722  24.354  25.845  1.00  0.00     0.221 A 
ATOM      9  C   UNL A   1      30.389  23.001  26.985  1.00  0.00     0.067 C 
ATOM     10  C   UNL A   1      31.507  23.768  26.333  1.00  0.00     0.050 A 
ATOM     11  N   UNL A   1      31.065  24.811  25.609  1.00  0.00    -0.218 NA
ATOM     12  C   UNL A   1      32.862  23.458  26.468  1.00  0.00     0.033 A 
ATOM     13  C   UNL A   1      31.954  25.576  24.980  1.00  0.00     0.229 A 
ATOM     14  C   UNL A   1      33.250  22.271  27.288  1.00  0.00     0.052 C 
ATOM     15  N   UNL A   1      33.266  25.363  25.068  1.00  0.00    -0.177 NA
BRANCH  13  16
ATOM     16  N   UNL A   1      31.514  26.714  24.345  1.00  0.00    -0.337 N 
ATOM     17  C   UNL A   1      31.082  27.808  25.216  1.00  0.00     0.141 C 
ATOM     18  C   UNL A   1      30.733  26.547  23.113  1.00  0.00     0.141 C 
ATOM     19  C   UNL A   1      31.133  29.130  24.434  1.00  0.00     0.138 C 
ATOM     20  C   UNL A   1      30.608  27.888  22.336  1.00  0.00     0.138 C 
ATOM     21  N   UNL A   1      30.293  29.011  23.237  1.00  0.00    -0.368 N 
BRANCH  21  22
ATOM     22  C   UNL A   1      29.507  30.071  22.846  1.00  0.00     0.037 A 
ATOM     23  C   UNL A   1      29.029  30.196  21.535  1.00  0.00     0.026 A 
ATOM     24  C   UNL A   1      29.238  31.116  23.738  1.00  0.00     0.026 A 
ATOM     25  C   UNL A   1      28.331  31.334  21.119  1.00  0.00     0.002 A 
ATOM     26  C   UNL A   1      28.558  32.265  23.326  1.00  0.00     0.002 A 
ATOM     27  C   UNL A   1      28.107  32.375  22.013  1.00  0.00     0.000 A 
ENDBRANCH  21  22
ENDBRANCH  13  16
ENDBRANCH   7   8
ENDBRANCH   6   7
ENDBRANCH   3   6
ENDBRANCH   1   2
BRANCH   1  28
ATOM     28  C   UNL A   1      38.311  19.829  24.929  1.00  0.00     0.042 C 
BRANCH  28  29
ATOM     29  C   UNL A   1      39.294  19.947  26.091  1.00  0.00     0.118 C 
BRANCH  29  30
ATOM     30  N   UNL A   1      40.436  19.047  25.982  1.00  0.00    -0.352 N 
ATOM     31  C   UNL A   1      41.786  19.300  26.015  1.00  0.00     0.251 C 
ATOM     32  H   UNL A   1      40.201  18.099  25.863  1.00  0.00     0.163 HD
ATOM     33  O   UNL A   1      42.580  18.403  25.752  1.00  0.00    -0.269 OA
BRANCH  31  34
ATOM     34  C   UNL A   1      42.294  20.651  26.341  1.00  0.00     0.039 A 
ATOM     35  C   UNL A   1      42.588  21.529  25.293  1.00  0.00     0.014 A 
ATOM     36  C   UNL A   1      42.502  21.048  27.663  1.00  0.00     0.014 A 
ATOM     37  C   UNL A   1      43.012  22.829  25.576  1.00  0.00     0.010 A 
ATOM     38  C   UNL A   1      42.845  22.368  27.946  1.00  0.00     0.010 A 
ATOM     39  C   UNL A   1      43.100  23.273  26.905  1.00  0.00    -0.014 A 
BRANCH  39  40
ATOM     40  C   UNL A   1      43.450  24.680  27.226  1.00  0.00     0.031 A 
ATOM     41  C   UNL A   1      44.854  25.177  27.024  1.00  0.00     0.074 A 
ATOM     42  C   UNL A   1      42.513  25.496  27.745  1.00  0.00     0.049 A 
ATOM     43  N   UNL A   1      45.363  26.351  27.301  1.00  0.00    -0.248 NA
ATOM     44  C   UNL A   1      45.819  24.224  26.456  1.00  0.00     0.031 C 
ATOM     45  C   UNL A   1      41.124  25.121  28.014  1.00  0.00     0.029 A 
ATOM     46  N   UNL A   1      42.585  26.809  28.142  1.00  0.00    -0.354 N 
ATOM     47  C   UNL A   1      46.702  26.276  26.941  1.00  0.00     0.074 A 
ATOM     48  C   UNL A   1      46.944  24.924  26.485  1.00  0.00     0.031 C 
ATOM     49  C   UNL A   1      40.466  26.187  28.497  1.00  0.00     0.029 A 
ATOM     50  C   UNL A   1      41.395  27.307  28.616  1.00  0.00     0.049 A 
ATOM     51  H   UNL A   1      43.411  27.342  28.092  1.00  0.00     0.167 HD
ATOM     52  C   UNL A   1      47.637  27.255  26.962  1.00  0.00     0.037 A 
ATOM     53  C   UNL A   1      41.088  28.529  29.096  1.00  0.00     0.037 A 
ATOM     54  C   UNL A   1      47.389  28.602  27.405  1.00  0.00     0.049 A 
ATOM     55  C   UNL A   1      42.158  29.584  29.152  1.00  0.00     0.074 A 
ATOM     56  C   UNL A   1      48.265  29.673  27.438  1.00  0.00     0.029 A 
ATOM     57  N   UNL A   1      46.175  29.063  27.893  1.00  0.00    -0.354 N 
ATOM     58  N   UNL A   1      43.410  29.515  28.769  1.00  0.00    -0.248 NA
ATOM     59  C   UNL A   1      41.774  30.891  29.705  1.00  0.00     0.031 C 
ATOM     60  C   UNL A   1      47.598  30.766  27.994  1.00  0.00     0.029 A 
ATOM     61  C   UNL A   1      46.288  30.397  28.251  1.00  0.00     0.049 A 
ATOM     62  H   UNL A   1      45.356  28.523  27.975  1.00  0.00     0.167 HD
ATOM     63  C   UNL A   1      43.954  30.770  29.004  1.00  0.00     0.074 A 
ATOM     64  C   UNL A   1      42.891  31.588  29.552  1.00  0.00     0.031 C 
ATOM     65  C   UNL A   1      45.218  31.205  28.785  1.00  0.00     0.037 A 
BRANCH  52  66
ATOM     66  C   UNL A   1      49.016  26.916  26.475  1.00  0.00     0.064 A 
ATOM     67  C   UNL A   1      49.984  26.377  27.336  1.00  0.00     0.173 A 
ATOM     68  C   UNL A   1      49.355  27.064  25.121  1.00  0.00     0.173 A 
ATOM     69  F   UNL A   1      49.717  26.225  28.642  1.00  0.00    -0.203 F 
ATOM     70  C   UNL A   1      51.244  26.016  26.865  1.00  0.00     0.198 A 
ATOM     71  C   UNL A   1      50.604  26.672  24.647  1.00  0.00     0.198 A 
ATOM     72  F   UNL A   1      48.465  27.568  24.253  1.00  0.00    -0.203 F 
ATOM     73  F   UNL A   1      52.165  25.540  27.715  1.00  0.00    -0.200 F 
ATOM     74  C   UNL A   1      51.548  26.153  25.519  1.00  0.00     0.200 A 
ATOM     75  F   UNL A   1      50.892  26.789  23.343  1.00  0.00    -0.200 F 
ATOM     76  F   UNL A   1      52.755  25.787  25.064  1.00  0.00    -0.200 F 
ENDBRANCH  52  66
BRANCH  53  77
ATOM     77  C   UNL A   1      39.696  28.824  29.527  1.00  0.00     0.064 A 
ATOM     78  C   UNL A   1      38.762  29.351  28.624  1.00  0.00     0.173 A 
ATOM     79  C   UNL A   1      39.264  28.567  30.836  1.00  0.00     0.173 A 
ATOM     80  F   UNL A   1      39.134  29.635  27.367  1.00  0.00    -0.203 F 
ATOM     81  C   UNL A   1      37.453  29.619  29.017  1.00  0.00     0.198 A 
ATOM     82  C   UNL A   1      37.947  28.807  31.220  1.00  0.00     0.198 A 
ATOM     83  F   UNL A   1      40.120  28.062  31.735  1.00  0.00    -0.203 F 
ATOM     84  F   UNL A   1      36.591  30.159  28.144  1.00  0.00    -0.200 F 
ATOM     85  C   UNL A   1      37.043  29.338  30.312  1.00  0.00     0.200 A 
ATOM     86  F   UNL A   1      37.551  28.520  32.467  1.00  0.00    -0.200 F 
ATOM     87  F   UNL A   1      35.780  29.584  30.685  1.00  0.00    -0.200 F 
ENDBRANCH  53  77
BRANCH  65  88
ATOM     88  C   UNL A   1      45.530  32.640  29.101  1.00  0.00     0.064 A 
ATOM     89  C   UNL A   1      46.073  33.020  30.335  1.00  0.00     0.173 A 
ATOM     90  C   UNL A   1      45.355  33.634  28.125  1.00  0.00     0.173 A 
ATOM     91  F   UNL A   1      46.248  32.111  31.305  1.00  0.00    -0.203 F 
ATOM     92  C   UNL A   1      46.415  34.347  30.588  1.00  0.00     0.198 A 
ATOM     93  C   UNL A   1      45.729  34.953  28.368  1.00  0.00     0.198 A 
ATOM     94  F   UNL A   1      44.847  33.321  26.923  1.00  0.00    -0.203 F 
ATOM     95  F   UNL A   1      46.898  34.694  31.788  1.00  0.00    -0.200 F 
ATOM     96  C   UNL A   1      46.255  35.308  29.601  1.00  0.00     0.200 A 
ATOM     97  F   UNL A   1      45.591  35.876  27.407  1.00  0.00    -0.200 F 
ATOM     98  F   UNL A   1      46.604  36.580  29.839  1.00  0.00    -0.200 F 
ENDBRANCH  65  88
ENDBRANCH  39  40
ENDBRANCH  31  34
ENDBRANCH  29  30
ENDBRANCH  28  29
ENDBRANCH   1  28
TORSDOF 14
ENDMDL
MODEL 2
REMARK VINA RESULT:     -13.0      1.171      7.318
REMARK SMILES Cc1nc(N2CCN(c3ccccc3)CC2)nc(OCC(=O)NCCCNC(=O)c2ccc(-c3c4nc(c(-c5c(F)c(F)c(F)c(F)c5F)c5ccc([nH]5)c(-c5c(F)c(F)c(F)c(F)c5F)c5nc(c(-c6c(F)c(F)c(F)c(F)c6F)c6ccc3[nH]6)C=C5)C=C4)cc2)c1C
REMARK SMILES IDX 24 1 23 2 21 3 22 4 20 6 19 7 18 8 1 9 2 10 3 11 93 12 4 13
REMARK SMILES IDX 94 14 17 15 5 16 6 17 16 18 7 19 15 20 8 21 9 22 10 23 14 24
REMARK SMILES IDX 11 25 13 26 12 27 25 28 26 29 27 30 28 31 29 33 30 34 31 35
REMARK SMILES IDX 92 36 32 37 91 38 33 39 34 40 35 41 85 42 36 43 90 44 84 45
REMARK SMILES IDX 86 46 37 47 89 48 83 49 82 50 38 52 70 53 50 54 69 55 51 56
REMARK SMILES IDX 54 57 68 58 87 59 52 60 53 61 67 63 88 64 55 65 39 66 40 67
REMARK SMILES IDX 48 68 41 69 42 70 46 71 49 72 43 73 44 74 47 75 45 76 71 77
REMARK SMILES IDX 72 78 80 79 73 80 74 81 78 82 81 83 75 84 76 85 79 86 77 87
REMARK SMILES IDX 56 88 57 89 65 90 58 91 59 92 63 93 66 94 60 95 61 96 64 97
REMARK SMILES IDX 62 98
REMARK H PARENT 23 5 27 32 86 51 54 62
REMARK Flexibility Score: inf
ROOT
ATOM      1  C   UNL A   1      36.681  20.495  25.045  1.00  0.00     0.117 C 
ENDROOT
BRANCH   1   2
ATOM      2  N   UNL A   1      36.754  21.941  25.109  1.00  0.00    -0.353 N 
ATOM      3  C   UNL A   1      36.088  22.791  25.938  1.00  0.00     0.258 C 
ATOM      4  O   UNL A   1      36.442  23.972  25.962  1.00  0.00    -0.271 OA
ATOM      5  H   UNL A   1      37.369  22.365  24.467  1.00  0.00     0.163 HD
BRANCH   3   6
ATOM      6  C   UNL A   1      34.974  22.268  26.853  1.00  0.00     0.331 C 
BRANCH   6   7
ATOM      7  O   UNL A   1      33.628  22.411  26.479  1.00  0.00    -0.467 OA
BRANCH   7   8
ATOM      8  C   UNL A   1      33.158  22.499  25.212  1.00  0.00     0.221 A 
ATOM      9  C   UNL A   1      31.899  21.043  21.967  1.00  0.00     0.067 C 
ATOM     10  C   UNL A   1      32.306  21.940  23.102  1.00  0.00     0.050 A 
ATOM     11  N   UNL A   1      31.959  23.224  22.897  1.00  0.00    -0.218 NA
ATOM     12  C   UNL A   1      32.955  21.507  24.260  1.00  0.00     0.033 A 
ATOM     13  C   UNL A   1      32.261  24.125  23.828  1.00  0.00     0.229 A 
ATOM     14  C   UNL A   1      33.305  20.060  24.389  1.00  0.00     0.052 C 
ATOM     15  N   UNL A   1      32.864  23.796  24.969  1.00  0.00    -0.177 NA
BRANCH  13  16
ATOM     16  N   UNL A   1      31.796  25.411  23.677  1.00  0.00    -0.337 N 
ATOM     17  C   UNL A   1      31.009  25.944  24.789  1.00  0.00     0.141 C 
ATOM     18  C   UNL A   1      31.350  25.819  22.338  1.00  0.00     0.141 C 
ATOM     19  C   UNL A   1      31.020  27.480  24.729  1.00  0.00     0.138 C 
ATOM     20  C   UNL A   1      31.187  27.362  22.243  1.00  0.00     0.138 C 
ATOM     21  N   UNL A   1      30.500  27.911  23.426  1.00  0.00    -0.368 N 
BRANCH  21  22
ATOM     22  C   UNL A   1      29.661  29.000  23.351  1.00  0.00     0.037 A 
ATOM     23  C   UNL A   1      30.022  30.251  23.868  1.00  0.00     0.026 A 
ATOM     24  C   UNL A   1      28.368  28.859  22.833  1.00  0.00     0.026 A 
ATOM     25  C   UNL A   1      29.118  31.317  23.892  1.00  0.00     0.002 A 
ATOM     26  C   UNL A   1      27.452  29.914  22.871  1.00  0.00     0.002 A 
ATOM     27  C   UNL A   1      27.828  31.144  23.405  1.00  0.00     0.000 A 
ENDBRANCH  21  22
ENDBRANCH  13  16
ENDBRANCH   7   8
ENDBRANCH   6   7
ENDBRANCH   3   6
ENDBRANCH   1   2
BRANCH   1  28
ATOM     28  C   UNL A   1      38.028  19.840  24.774  1.00  0.00     0.042 C 
BRANCH  28  29
ATOM     29  C   UNL A   1      39.129  20.210  25.765  1.00  0.00     0.118 C 
BRANCH  29  30
ATOM     30  N   UNL A   1      40.171  19.197  25.883  1.00  0.00    -0.352 N 
ATOM     31  C   UNL A   1      41.524  19.318  26.093  1.00  0.00     0.251 C 
ATOM     32  H   UNL A   1      39.852  18.270  25.797  1.00  0.00     0.163 HD
ATOM     33  O   UNL A   1      42.243  18.329  26.008  1.00  0.00    -0.269 OA
BRANCH  31  34
ATOM     34  C   UNL A   1      42.126  20.635  26.395  1.00  0.00     0.039 A 
ATOM     35  C   UNL A   1      42.515  21.456  25.331  1.00  0.00     0.014 A 
ATOM     36  C   UNL A   1      42.331  21.055  27.711  1.00  0.00     0.014 A 
ATOM     37  C   UNL A   1      43.031  22.727  25.589  1.00  0.00     0.010 A 
ATOM     38  C   UNL A   1      42.768  22.352  27.966  1.00  0.00     0.010 A 
ATOM     39  C   UNL A   1      43.120  23.203  26.907  1.00  0.00    -0.014 A 
BRANCH  39  40
ATOM     40  C   UNL A   1      43.570  24.588  27.198  1.00  0.00     0.031 A 
ATOM     41  C   UNL A   1      42.605  25.600  27.747  1.00  0.00     0.074 A 
ATOM     42  C   UNL A   1      44.838  24.946  26.920  1.00  0.00     0.049 A 
ATOM     43  N   UNL A   1      42.795  26.868  28.007  1.00  0.00    -0.248 NA
ATOM     44  C   UNL A   1      41.237  25.130  28.021  1.00  0.00     0.031 C 
ATOM     45  C   UNL A   1      45.860  24.062  26.357  1.00  0.00     0.029 A 
ATOM     46  N   UNL A   1      45.485  26.148  27.069  1.00  0.00    -0.354 N 
ATOM     47  C   UNL A   1      41.578  27.345  28.474  1.00  0.00     0.074 A 
ATOM     48  C   UNL A   1      40.636  26.249  28.403  1.00  0.00     0.031 C 
ATOM     49  C   UNL A   1      47.013  24.740  26.242  1.00  0.00     0.029 A 
ATOM     50  C   UNL A   1      46.803  26.117  26.679  1.00  0.00     0.049 A 
ATOM     51  H   UNL A   1      45.047  26.956  27.422  1.00  0.00     0.167 HD
ATOM     52  C   UNL A   1      41.280  28.578  28.948  1.00  0.00     0.037 A 
ATOM     53  C   UNL A   1      47.735  27.090  26.670  1.00  0.00     0.037 A 
ATOM     54  C   UNL A   1      42.223  29.664  29.028  1.00  0.00     0.049 A 
ATOM     55  C   UNL A   1      47.365  28.464  27.158  1.00  0.00     0.074 A 
ATOM     56  C   UNL A   1      42.024  30.942  29.518  1.00  0.00     0.029 A 
ATOM     57  N   UNL A   1      43.543  29.597  28.608  1.00  0.00    -0.354 N 
ATOM     58  N   UNL A   1      46.222  28.893  27.636  1.00  0.00    -0.248 NA
ATOM     59  C   UNL A   1      48.414  29.493  27.106  1.00  0.00     0.031 C 
ATOM     60  C   UNL A   1      43.206  31.665  29.346  1.00  0.00     0.029 A 
ATOM     61  C   UNL A   1      44.163  30.821  28.807  1.00  0.00     0.049 A 
ATOM     62  H   UNL A   1      43.975  28.800  28.224  1.00  0.00     0.167 HD
ATOM     63  C   UNL A   1      46.421  30.225  27.971  1.00  0.00     0.074 A 
ATOM     64  C   UNL A   1      47.800  30.533  27.651  1.00  0.00     0.031 C 
ATOM     65  C   UNL A   1      45.541  31.111  28.495  1.00  0.00     0.037 A 
BRANCH  52  66
ATOM     66  C   UNL A   1      39.881  28.823  29.434  1.00  0.00     0.064 A 
ATOM     67  C   UNL A   1      38.879  29.297  28.573  1.00  0.00     0.173 A 
ATOM     68  C   UNL A   1      39.518  28.515  30.754  1.00  0.00     0.173 A 
ATOM     69  F   UNL A   1      39.175  29.617  27.304  1.00  0.00    -0.203 F 
ATOM     70  C   UNL A   1      37.572  29.471  29.019  1.00  0.00     0.198 A 
ATOM     71  C   UNL A   1      38.202  28.659  31.188  1.00  0.00     0.198 A 
ATOM     72  F   UNL A   1      40.434  28.053  31.618  1.00  0.00    -0.203 F 
ATOM     73  F   UNL A   1      36.641  29.961  28.189  1.00  0.00    -0.200 F 
ATOM     74  C   UNL A   1      37.232  29.140  30.323  1.00  0.00     0.200 A 
ATOM     75  F   UNL A   1      37.871  28.324  32.443  1.00  0.00    -0.200 F 
ATOM     76  F   UNL A   1      35.969  29.290  30.744  1.00  0.00    -0.200 F 
ENDBRANCH  52  66
BRANCH  53  77
ATOM     77  C   UNL A   1      49.117  26.784  26.217  1.00  0.00     0.064 A 
ATOM     78  C   UNL A   1      50.064  26.257  27.106  1.00  0.00     0.173 A 
ATOM     79  C   UNL A   1      49.515  26.988  24.888  1.00  0.00     0.173 A 
ATOM     80  F   UNL A   1      49.739  26.065  28.393  1.00  0.00    -0.203 F 
ATOM     81  C   UNL A   1      51.358  25.956  26.685  1.00  0.00     0.198 A 
ATOM     82  C   UNL A   1      50.799  26.659  24.461  1.00  0.00     0.198 A 
ATOM     83  F   UNL A   1      48.644  27.489  24.000  1.00  0.00    -0.203 F 
ATOM     84  F   UNL A   1      52.254  25.489  27.566  1.00  0.00    -0.200 F 
ATOM     85  C   UNL A   1      51.722  26.148  25.361  1.00  0.00     0.200 A 
ATOM     86  F   UNL A   1      51.142  26.831  23.177  1.00  0.00    -0.200 F 
ATOM     87  F   UNL A   1      52.962  25.846  24.955  1.00  0.00    -0.200 F 
ENDBRANCH  53  77
BRANCH  65  88
ATOM     88  C   UNL A   1      46.038  32.497  28.796  1.00  0.00     0.064 A 
ATOM     89  C   UNL A   1      46.651  32.810  30.016  1.00  0.00     0.173 A 
ATOM     90  C   UNL A   1      45.970  33.501  27.817  1.00  0.00     0.173 A 
ATOM     91  F   UNL A   1      46.731  31.890  30.988  1.00  0.00    -0.203 F 
ATOM     92  C   UNL A   1      47.164  34.084  30.253  1.00  0.00     0.198 A 
ATOM     93  C   UNL A   1      46.513  34.763  28.045  1.00  0.00     0.198 A 
ATOM     94  F   UNL A   1      45.400  33.251  26.628  1.00  0.00    -0.203 F 
ATOM     95  F   UNL A   1      47.713  34.372  31.441  1.00  0.00    -0.200 F 
ATOM     96  C   UNL A   1      47.105  35.054  29.264  1.00  0.00     0.200 A 
ATOM     97  F   UNL A   1      46.472  35.692  27.080  1.00  0.00    -0.200 F 
ATOM     98  F   UNL A   1      47.619  36.272  29.486  1.00  0.00    -0.200 F 
ENDBRANCH  65  88
ENDBRANCH  39  40
ENDBRANCH  31  34
ENDBRANCH  29  30
ENDBRANCH  28  29
ENDBRANCH   1  28
TORSDOF 14
ENDMDL
MODEL 3
REMARK VINA RESULT:     -12.5      5.099     11.478
REMARK SMILES Cc1nc(N2CCN(c3ccccc3)CC2)nc(OCC(=O)NCCCNC(=O)c2ccc(-c3c4nc(c(-c5c(F)c(F)c(F)c(F)c5F)c5ccc([nH]5)c(-c5c(F)c(F)c(F)c(F)c5F)c5nc(c(-c6c(F)c(F)c(F)c(F)c6F)c6ccc3[nH]6)C=C5)C=C4)cc2)c1C
REMARK SMILES IDX 24 1 23 2 21 3 22 4 20 6 19 7 18 8 1 9 2 10 3 11 93 12 4 13
REMARK SMILES IDX 94 14 17 15 5 16 6 17 16 18 7 19 15 20 8 21 9 22 10 23 14 24
REMARK SMILES IDX 11 25 13 26 12 27 25 28 26 29 27 30 28 31 29 33 30 34 31 35
REMARK SMILES IDX 92 36 32 37 91 38 33 39 34 40 35 41 85 42 36 43 90 44 84 45
REMARK SMILES IDX 86 46 37 47 89 48 83 49 82 50 38 52 70 53 50 54 69 55 51 56
REMARK SMILES IDX 54 57 68 58 87 59 52 60 53 61 67 63 88 64 55 65 39 66 40 67
REMARK SMILES IDX 48 68 41 69 42 70 46 71 49 72 43 73 44 74 47 75 45 76 71 77
REMARK SMILES IDX 72 78 80 79 73 80 74 81 78 82 81 83 75 84 76 85 79 86 77 87
REMARK SMILES IDX 56 88 57 89 65 90 58 91 59 92 63 93 66 94 60 95 61 96 64 97
REMARK SMILES IDX 62 98
REMARK H PARENT 23 5 27 32 86 51 54 62
REMARK Flexibility Score: inf
ROOT
ATOM      1  C   UNL A   1      34.801  33.478  31.376  1.00  0.00     0.117 C 
ENDROOT
BRANCH   1   2
ATOM      2  N   UNL A   1      36.097  34.033  31.714  1.00  0.00    -0.353 N 
ATOM      3  C   UNL A   1      37.243  33.378  32.046  1.00  0.00     0.258 C 
ATOM      4  O   UNL A   1      38.287  34.032  32.106  1.00  0.00    -0.271 OA
ATOM      5  H   UNL A   1      36.154  35.016  31.702  1.00  0.00     0.163 HD
BRANCH   3   6
ATOM      6  C   UNL A   1      37.232  31.862  32.275  1.00  0.00     0.331 C 
BRANCH   6   7
ATOM      7  O   UNL A   1      37.193  31.345  33.580  1.00  0.00    -0.467 OA
BRANCH   7   8
ATOM      8  C   UNL A   1      38.152  31.493  34.524  1.00  0.00     0.221 A 
ATOM      9  C   UNL A   1      39.523  32.860  37.763  1.00  0.00     0.067 C 
ATOM     10  C   UNL A   1      39.289  32.122  36.474  1.00  0.00     0.050 A 
ATOM     11  N   UNL A   1      40.227  31.188  36.235  1.00  0.00    -0.218 NA
ATOM     12  C   UNL A   1      38.212  32.352  35.616  1.00  0.00     0.033 A 
ATOM     13  C   UNL A   1      40.137  30.460  35.125  1.00  0.00     0.229 A 
ATOM     14  C   UNL A   1      37.228  33.420  35.966  1.00  0.00     0.052 C 
ATOM     15  N   UNL A   1      39.133  30.601  34.260  1.00  0.00    -0.177 NA
BRANCH  13  16
ATOM     16  N   UNL A   1      41.021  29.421  34.944  1.00  0.00    -0.337 N 
ATOM     17  C   UNL A   1      40.831  28.620  33.734  1.00  0.00     0.141 C 
ATOM     18  C   UNL A   1      41.442  28.672  36.134  1.00  0.00     0.141 C 
ATOM     19  C   UNL A   1      42.139  27.888  33.399  1.00  0.00     0.138 C 
ATOM     20  C   UNL A   1      42.680  27.780  35.832  1.00  0.00     0.138 C 
ATOM     21  N   UNL A   1      42.536  27.068  34.549  1.00  0.00    -0.368 N 
BRANCH  21  22
ATOM     22  C   UNL A   1      43.053  25.809  34.345  1.00  0.00     0.037 A 
ATOM     23  C   UNL A   1      43.942  25.532  33.298  1.00  0.00     0.026 A 
ATOM     24  C   UNL A   1      42.623  24.734  35.133  1.00  0.00     0.026 A 
ATOM     25  C   UNL A   1      44.367  24.228  33.028  1.00  0.00     0.002 A 
ATOM     26  C   UNL A   1      43.028  23.425  34.859  1.00  0.00     0.002 A 
ATOM     27  C   UNL A   1      43.900  23.172  33.802  1.00  0.00     0.000 A 
ENDBRANCH  21  22
ENDBRANCH  13  16
ENDBRANCH   7   8
ENDBRANCH   6   7
ENDBRANCH   3   6
ENDBRANCH   1   2
BRANCH   1  28
ATOM     28  C   UNL A   1      34.383  33.770  29.942  1.00  0.00     0.042 C 
BRANCH  28  29
ATOM     29  C   UNL A   1      35.097  32.933  28.884  1.00  0.00     0.118 C 
BRANCH  29  30
ATOM     30  N   UNL A   1      34.285  31.841  28.360  1.00  0.00    -0.352 N 
ATOM     31  C   UNL A   1      34.623  30.552  28.021  1.00  0.00     0.251 C 
ATOM     32  H   UNL A   1      33.337  32.064  28.226  1.00  0.00     0.163 HD
ATOM     33  O   UNL A   1      33.803  29.839  27.453  1.00  0.00    -0.269 OA
BRANCH  31  34
ATOM     34  C   UNL A   1      35.973  30.024  28.312  1.00  0.00     0.039 A 
ATOM     35  C   UNL A   1      36.947  30.082  27.309  1.00  0.00     0.014 A 
ATOM     36  C   UNL A   1      36.279  29.455  29.549  1.00  0.00     0.014 A 
ATOM     37  C   UNL A   1      38.245  29.644  27.578  1.00  0.00     0.010 A 
ATOM     38  C   UNL A   1      37.592  29.094  29.842  1.00  0.00     0.010 A 
ATOM     39  C   UNL A   1      38.589  29.189  28.860  1.00  0.00    -0.014 A 
BRANCH  39  40
ATOM     40  C   UNL A   1      39.987  28.814  29.196  1.00  0.00     0.031 A 
ATOM     41  C   UNL A   1      40.845  29.740  30.010  1.00  0.00     0.074 A 
ATOM     42  C   UNL A   1      40.497  27.661  28.723  1.00  0.00     0.049 A 
ATOM     43  N   UNL A   1      42.103  29.614  30.353  1.00  0.00    -0.248 NA
ATOM     44  C   UNL A   1      40.215  30.981  30.486  1.00  0.00     0.031 C 
ATOM     45  C   UNL A   1      39.773  26.694  27.896  1.00  0.00     0.029 A 
ATOM     46  N   UNL A   1      41.745  27.105  28.866  1.00  0.00    -0.354 N 
ATOM     47  C   UNL A   1      42.410  30.755  31.082  1.00  0.00     0.074 A 
ATOM     48  C   UNL A   1      41.230  31.592  31.080  1.00  0.00     0.031 C 
ATOM     49  C   UNL A   1      40.574  25.650  27.636  1.00  0.00     0.029 A 
ATOM     50  C   UNL A   1      41.883  25.891  28.236  1.00  0.00     0.049 A 
ATOM     51  H   UNL A   1      42.472  27.536  29.370  1.00  0.00     0.167 HD
ATOM     52  C   UNL A   1      43.565  31.062  31.720  1.00  0.00     0.037 A 
ATOM     53  C   UNL A   1      42.946  25.068  28.150  1.00  0.00     0.037 A 
ATOM     54  C   UNL A   1      44.733  30.222  31.729  1.00  0.00     0.049 A 
ATOM     55  C   UNL A   1      44.231  25.456  28.828  1.00  0.00     0.074 A 
ATOM     56  C   UNL A   1      45.941  30.433  32.370  1.00  0.00     0.029 A 
ATOM     57  N   UNL A   1      44.839  29.007  31.066  1.00  0.00    -0.354 N 
ATOM     58  N   UNL A   1      44.498  26.517  29.550  1.00  0.00    -0.248 NA
ATOM     59  C   UNL A   1      45.365  24.532  28.683  1.00  0.00     0.031 C 
ATOM     60  C   UNL A   1      46.796  29.375  32.052  1.00  0.00     0.029 A 
ATOM     61  C   UNL A   1      46.101  28.471  31.265  1.00  0.00     0.049 A 
ATOM     62  H   UNL A   1      44.124  28.589  30.533  1.00  0.00     0.167 HD
ATOM     63  C   UNL A   1      45.814  26.375  29.970  1.00  0.00     0.074 A 
ATOM     64  C   UNL A   1      46.289  25.117  29.431  1.00  0.00     0.031 C 
ATOM     65  C   UNL A   1      46.559  27.211  30.733  1.00  0.00     0.037 A 
BRANCH  52  66
ATOM     66  C   UNL A   1      43.622  32.357  32.479  1.00  0.00     0.064 A 
ATOM     67  C   UNL A   1      43.498  32.391  33.876  1.00  0.00     0.173 A 
ATOM     68  C   UNL A   1      43.871  33.567  31.814  1.00  0.00     0.173 A 
ATOM     69  F   UNL A   1      43.248  31.265  34.561  1.00  0.00    -0.203 F 
ATOM     70  C   UNL A   1      43.605  33.590  34.577  1.00  0.00     0.198 A 
ATOM     71  C   UNL A   1      44.009  34.759  32.521  1.00  0.00     0.198 A 
ATOM     72  F   UNL A   1      44.003  33.590  30.479  1.00  0.00    -0.203 F 
ATOM     73  F   UNL A   1      43.446  33.603  35.908  1.00  0.00    -0.200 F 
ATOM     74  C   UNL A   1      43.872  34.770  33.900  1.00  0.00     0.200 A 
ATOM     75  F   UNL A   1      44.284  35.896  31.867  1.00  0.00    -0.200 F 
ATOM     76  F   UNL A   1      43.994  35.920  34.578  1.00  0.00    -0.200 F 
ENDBRANCH  52  66
BRANCH  53  77
ATOM     77  C   UNL A   1      42.824  23.779  27.419  1.00  0.00     0.064 A 
ATOM     78  C   UNL A   1      43.215  23.675  26.077  1.00  0.00     0.173 A 
ATOM     79  C   UNL A   1      42.337  22.624  28.047  1.00  0.00     0.173 A 
ATOM     80  F   UNL A   1      43.666  24.757  25.426  1.00  0.00    -0.203 F 
ATOM     81  C   UNL A   1      43.115  22.467  25.389  1.00  0.00     0.198 A 
ATOM     82  C   UNL A   1      42.265  21.410  27.368  1.00  0.00     0.198 A 
ATOM     83  F   UNL A   1      41.952  22.673  29.330  1.00  0.00    -0.203 F 
ATOM     84  F   UNL A   1      43.460  22.405  24.096  1.00  0.00    -0.200 F 
ATOM     85  C   UNL A   1      42.649  21.333  26.038  1.00  0.00     0.200 A 
ATOM     86  F   UNL A   1      41.829  20.313  28.002  1.00  0.00    -0.200 F 
ATOM     87  F   UNL A   1      42.565  20.170  25.379  1.00  0.00    -0.200 F 
ENDBRANCH  53  77
BRANCH  65  88
ATOM     88  C   UNL A   1      47.961  26.789  31.069  1.00  0.00     0.064 A 
ATOM     89  C   UNL A   1      48.242  25.998  32.191  1.00  0.00     0.173 A 
ATOM     90  C   UNL A   1      49.024  27.115  30.212  1.00  0.00     0.173 A 
ATOM     91  F   UNL A   1      47.264  25.668  33.048  1.00  0.00    -0.203 F 
ATOM     92  C   UNL A   1      49.539  25.562  32.452  1.00  0.00     0.198 A 
ATOM     93  C   UNL A   1      50.313  26.651  30.457  1.00  0.00     0.198 A 
ATOM     94  F   UNL A   1      48.807  27.864  29.119  1.00  0.00    -0.203 F 
ATOM     95  F   UNL A   1      49.791  24.837  33.551  1.00  0.00    -0.200 F 
ATOM     96  C   UNL A   1      50.570  25.878  31.579  1.00  0.00     0.200 A 
ATOM     97  F   UNL A   1      51.303  26.942  29.602  1.00  0.00    -0.200 F 
ATOM     98  F   UNL A   1      51.813  25.440  31.821  1.00  0.00    -0.200 F 
ENDBRANCH  65  88
ENDBRANCH  39  40
ENDBRANCH  31  34
ENDBRANCH  29  30
ENDBRANCH  28  29
ENDBRANCH   1  28
TORSDOF 14
ENDMDL
