MODEL 1
REMARK VINA RESULT:     -11.4      0.000      0.000
REMARK SMILES O=C(NCCCNC(=O)[C@@H]1C=C[C@@H]([NH+]2CC3(CC3)C2)C1)c1ccc(-c2c3nc(c(-c4c(F)c(F)c(F)c(F)c4F)c4ccc([nH]4)c(-c4c(F)c(F)c(F)c(F)c4F)c4nc(c(-c5c(F)c(F)c(F)c(F)c5F)c5ccc2[nH]5)C=C4)C=C3)cc1
REMARK SMILES IDX 4 1 3 2 1 3 2 4 21 6 22 7 83 8 23 9 82 10 24 11 25 12 26 13
REMARK SMILES IDX 76 14 27 15 81 16 75 17 77 18 28 19 80 20 74 21 73 22 29 24
REMARK SMILES IDX 61 25 41 26 60 27 42 28 45 29 59 30 78 31 43 32 44 33 58 35
REMARK SMILES IDX 79 36 46 37 30 38 31 39 39 40 32 41 33 42 37 43 40 44 34 45
REMARK SMILES IDX 35 46 38 47 36 48 62 49 63 50 71 51 64 52 65 53 69 54 72 55
REMARK SMILES IDX 66 56 67 57 70 58 68 59 47 60 48 61 56 62 49 63 50 64 54 65
REMARK SMILES IDX 57 66 51 67 52 68 55 69 53 70 5 71 6 72 7 73 8 74 9 76 10 77
REMARK SMILES IDX 11 78 20 79 12 80 13 81 14 82 15 83 19 84 16 86 17 87 18 88
REMARK H PARENT 3 5 77 23 45 34 7 75 14 85
REMARK Flexibility Score: inf
ROOT
ATOM      1  C   UNL A   1      40.953  21.956  26.765  1.00  0.00     0.118 C 
ENDROOT
BRANCH   1   2
ATOM      2  N   UNL A   1      39.748  22.288  26.015  1.00  0.00    -0.352 N 
ATOM      3  O   UNL A   1      37.824  23.367  25.562  1.00  0.00    -0.269 OA
ATOM      4  C   UNL A   1      38.924  23.379  26.111  1.00  0.00     0.251 C 
ATOM      5  H   UNL A   1      39.485  21.626  25.336  1.00  0.00     0.163 HD
BRANCH   4   6
ATOM      6  C   UNL A   1      39.354  24.569  26.875  1.00  0.00     0.039 A 
ATOM      7  C   UNL A   1      39.021  24.697  28.224  1.00  0.00     0.014 A 
ATOM      8  C   UNL A   1      40.131  25.547  26.248  1.00  0.00     0.014 A 
ATOM      9  C   UNL A   1      39.330  25.867  28.902  1.00  0.00     0.010 A 
ATOM     10  C   UNL A   1      40.540  26.673  26.967  1.00  0.00     0.010 A 
ATOM     11  C   UNL A   1      40.123  26.852  28.294  1.00  0.00    -0.014 A 
BRANCH  11  12
ATOM     12  C   UNL A   1      40.569  28.009  29.110  1.00  0.00     0.031 A 
ATOM     13  C   UNL A   1      41.977  28.107  29.619  1.00  0.00     0.074 A 
ATOM     14  C   UNL A   1      39.684  28.997  29.347  1.00  0.00     0.049 A 
ATOM     15  N   UNL A   1      42.531  29.065  30.322  1.00  0.00    -0.248 NA
ATOM     16  C   UNL A   1      42.881  26.990  29.310  1.00  0.00     0.031 C 
ATOM     17  C   UNL A   1      38.284  28.995  28.909  1.00  0.00     0.029 A 
ATOM     18  N   UNL A   1      39.826  30.199  29.989  1.00  0.00    -0.354 N 
ATOM     19  C   UNL A   1      43.842  28.665  30.541  1.00  0.00     0.074 A 
ATOM     20  C   UNL A   1      43.992  27.359  29.933  1.00  0.00     0.031 C 
ATOM     21  C   UNL A   1      37.714  30.158  29.248  1.00  0.00     0.029 A 
ATOM     22  C   UNL A   1      38.679  30.955  29.994  1.00  0.00     0.049 A 
ATOM     23  H   UNL A   1      40.668  30.493  30.406  1.00  0.00     0.167 HD
ATOM     24  C   UNL A   1      44.832  29.336  31.179  1.00  0.00     0.037 A 
ATOM     25  C   UNL A   1      38.423  32.148  30.559  1.00  0.00     0.037 A 
ATOM     26  C   UNL A   1      44.667  30.634  31.784  1.00  0.00     0.049 A 
ATOM     27  C   UNL A   1      39.529  32.844  31.302  1.00  0.00     0.074 A 
ATOM     28  C   UNL A   1      45.606  31.401  32.454  1.00  0.00     0.029 A 
ATOM     29  N   UNL A   1      43.482  31.356  31.799  1.00  0.00    -0.354 N 
ATOM     30  N   UNL A   1      40.772  32.468  31.477  1.00  0.00    -0.248 NA
ATOM     31  C   UNL A   1      39.194  34.130  31.925  1.00  0.00     0.031 C 
ATOM     32  C   UNL A   1      44.977  32.562  32.915  1.00  0.00     0.029 A 
ATOM     33  C   UNL A   1      43.661  32.550  32.481  1.00  0.00     0.049 A 
ATOM     34  H   UNL A   1      42.638  31.064  31.385  1.00  0.00     0.167 HD
ATOM     35  C   UNL A   1      41.375  33.479  32.210  1.00  0.00     0.074 A 
ATOM     36  C   UNL A   1      40.366  34.497  32.422  1.00  0.00     0.031 C 
ATOM     37  C   UNL A   1      42.646  33.555  32.676  1.00  0.00     0.037 A 
BRANCH  24  38
ATOM     38  C   UNL A   1      46.181  28.678  31.264  1.00  0.00     0.064 A 
ATOM     39  C   UNL A   1      46.515  27.823  32.325  1.00  0.00     0.173 A 
ATOM     40  C   UNL A   1      47.131  28.861  30.248  1.00  0.00     0.173 A 
ATOM     41  F   UNL A   1      45.649  27.621  33.329  1.00  0.00    -0.203 F 
ATOM     42  C   UNL A   1      47.758  27.195  32.377  1.00  0.00     0.198 A 
ATOM     43  C   UNL A   1      48.361  28.207  30.288  1.00  0.00     0.198 A 
ATOM     44  F   UNL A   1      46.863  29.663  29.206  1.00  0.00    -0.203 F 
ATOM     45  F   UNL A   1      48.070  26.418  33.423  1.00  0.00    -0.200 F 
ATOM     46  C   UNL A   1      48.676  27.380  31.355  1.00  0.00     0.200 A 
ATOM     47  F   UNL A   1      49.240  28.377  29.290  1.00  0.00    -0.200 F 
ATOM     48  F   UNL A   1      49.866  26.766  31.400  1.00  0.00    -0.200 F 
ENDBRANCH  24  38
BRANCH  25  49
ATOM     49  C   UNL A   1      37.064  32.742  30.463  1.00  0.00     0.064 A 
ATOM     50  C   UNL A   1      36.687  33.522  29.362  1.00  0.00     0.173 A 
ATOM     51  C   UNL A   1      36.117  32.553  31.482  1.00  0.00     0.173 A 
ATOM     52  F   UNL A   1      37.560  33.746  28.368  1.00  0.00    -0.203 F 
ATOM     53  C   UNL A   1      35.428  34.117  29.298  1.00  0.00     0.198 A 
ATOM     54  C   UNL A   1      34.846  33.115  31.399  1.00  0.00     0.198 A 
ATOM     55  F   UNL A   1      36.423  31.807  32.554  1.00  0.00    -0.203 F 
ATOM     56  F   UNL A   1      35.116  34.908  28.263  1.00  0.00    -0.200 F 
ATOM     57  C   UNL A   1      34.507  33.907  30.313  1.00  0.00     0.200 A 
ATOM     58  F   UNL A   1      33.953  32.890  32.372  1.00  0.00    -0.200 F 
ATOM     59  F   UNL A   1      33.297  34.478  30.251  1.00  0.00    -0.200 F 
ENDBRANCH  25  49
BRANCH  37  60
ATOM     60  C   UNL A   1      43.022  34.803  33.420  1.00  0.00     0.064 A 
ATOM     61  C   UNL A   1      43.461  35.957  32.753  1.00  0.00     0.173 A 
ATOM     62  C   UNL A   1      42.931  34.848  34.820  1.00  0.00     0.173 A 
ATOM     63  F   UNL A   1      43.582  35.961  31.418  1.00  0.00    -0.203 F 
ATOM     64  C   UNL A   1      43.831  37.096  33.463  1.00  0.00     0.198 A 
ATOM     65  C   UNL A   1      43.267  36.000  35.524  1.00  0.00     0.198 A 
ATOM     66  F   UNL A   1      42.511  33.774  35.505  1.00  0.00    -0.203 F 
ATOM     67  F   UNL A   1      44.309  38.164  32.810  1.00  0.00    -0.200 F 
ATOM     68  C   UNL A   1      43.728  37.119  34.846  1.00  0.00     0.200 A 
ATOM     69  F   UNL A   1      43.152  36.025  36.858  1.00  0.00    -0.200 F 
ATOM     70  F   UNL A   1      44.082  38.217  35.528  1.00  0.00    -0.200 F 
ENDBRANCH  37  60
ENDBRANCH  11  12
ENDBRANCH   4   6
ENDBRANCH   1   2
BRANCH   1  71
ATOM     71  C   UNL A   1      40.943  20.513  27.250  1.00  0.00     0.042 C 
BRANCH  71  72
ATOM     72  C   UNL A   1      41.108  19.510  26.116  1.00  0.00     0.117 C 
BRANCH  72  73
ATOM     73  N   UNL A   1      42.168  18.562  26.381  1.00  0.00    -0.356 N 
ATOM     74  C   UNL A   1      43.456  18.520  25.954  1.00  0.00     0.227 C 
ATOM     75  H   UNL A   1      41.912  17.821  26.974  1.00  0.00     0.163 HD
ATOM     76  O   UNL A   1      44.158  17.614  26.417  1.00  0.00    -0.274 OA
BRANCH  74  77
ATOM     77  C   UNL A   1      44.055  19.513  24.951  1.00  0.00     0.107 C 
ATOM     78  C   UNL A   1      45.457  19.246  24.505  1.00  0.00    -0.012 C 
ATOM     79  C   UNL A   1      44.078  20.984  25.375  1.00  0.00     0.087 C 
ATOM     80  C   UNL A   1      46.258  20.297  24.712  1.00  0.00     0.033 C 
ATOM     81  C   UNL A   1      45.565  21.413  25.438  1.00  0.00     0.208 C 
BRANCH  81  82
ATOM     82  N   UNL A   1      46.007  22.740  25.000  1.00  0.00    -0.328 N 
ATOM     83  C   UNL A   1      44.937  23.625  24.511  1.00  0.00     0.275 C 
ATOM     84  C   UNL A   1      46.238  23.635  26.151  1.00  0.00     0.275 C 
ATOM     85  H   UNL A   1      46.757  22.480  24.359  1.00  0.00     0.348 HD
ATOM     86  C   UNL A   1      44.924  24.240  25.857  1.00  0.00     0.068 C 
ATOM     87  C   UNL A   1      43.775  24.361  26.812  1.00  0.00     0.020 C 
ATOM     88  C   UNL A   1      44.426  25.593  26.244  1.00  0.00     0.020 C 
ENDBRANCH  81  82
ENDBRANCH  74  77
ENDBRANCH  72  73
ENDBRANCH  71  72
ENDBRANCH   1  71
TORSDOF 11
ENDMDL
MODEL 2
REMARK VINA RESULT:     -11.4      5.102     10.738
REMARK SMILES O=C(NCCCNC(=O)[C@@H]1C=C[C@@H]([NH+]2CC3(CC3)C2)C1)c1ccc(-c2c3nc(c(-c4c(F)c(F)c(F)c(F)c4F)c4ccc([nH]4)c(-c4c(F)c(F)c(F)c(F)c4F)c4nc(c(-c5c(F)c(F)c(F)c(F)c5F)c5ccc2[nH]5)C=C4)C=C3)cc1
REMARK SMILES IDX 4 1 3 2 1 3 2 4 21 6 22 7 83 8 23 9 82 10 24 11 25 12 26 13
REMARK SMILES IDX 76 14 27 15 81 16 75 17 77 18 28 19 80 20 74 21 73 22 29 24
REMARK SMILES IDX 61 25 41 26 60 27 42 28 45 29 59 30 78 31 43 32 44 33 58 35
REMARK SMILES IDX 79 36 46 37 30 38 31 39 39 40 32 41 33 42 37 43 40 44 34 45
REMARK SMILES IDX 35 46 38 47 36 48 62 49 63 50 71 51 64 52 65 53 69 54 72 55
REMARK SMILES IDX 66 56 67 57 70 58 68 59 47 60 48 61 56 62 49 63 50 64 54 65
REMARK SMILES IDX 57 66 51 67 52 68 55 69 53 70 5 71 6 72 7 73 8 74 9 76 10 77
REMARK SMILES IDX 11 78 20 79 12 80 13 81 14 82 15 83 19 84 16 86 17 87 18 88
REMARK H PARENT 3 5 77 23 45 34 7 75 14 85
REMARK Flexibility Score: inf
ROOT
ATOM      1  C   UNL A   1      32.581  32.507  26.975  1.00  0.00     0.118 C 
ENDROOT
BRANCH   1   2
ATOM      2  N   UNL A   1      32.436  33.877  27.451  1.00  0.00    -0.352 N 
ATOM      3  O   UNL A   1      32.637  35.603  28.883  1.00  0.00    -0.269 OA
ATOM      4  C   UNL A   1      33.065  34.522  28.483  1.00  0.00     0.251 C 
ATOM      5  H   UNL A   1      31.784  34.423  26.954  1.00  0.00     0.163 HD
BRANCH   4   6
ATOM      6  C   UNL A   1      34.256  33.921  29.118  1.00  0.00     0.039 A 
ATOM      7  C   UNL A   1      34.116  32.861  30.015  1.00  0.00     0.014 A 
ATOM      8  C   UNL A   1      35.528  34.394  28.784  1.00  0.00     0.014 A 
ATOM      9  C   UNL A   1      35.226  32.379  30.692  1.00  0.00     0.010 A 
ATOM     10  C   UNL A   1      36.657  33.827  29.382  1.00  0.00     0.010 A 
ATOM     11  C   UNL A   1      36.512  32.830  30.357  1.00  0.00    -0.014 A 
BRANCH  11  12
ATOM     12  C   UNL A   1      37.682  32.169  30.986  1.00  0.00     0.031 A 
ATOM     13  C   UNL A   1      38.128  32.526  32.374  1.00  0.00     0.074 A 
ATOM     14  C   UNL A   1      38.314  31.201  30.294  1.00  0.00     0.049 A 
ATOM     15  N   UNL A   1      39.112  32.023  33.077  1.00  0.00    -0.248 NA
ATOM     16  C   UNL A   1      37.380  33.588  33.065  1.00  0.00     0.031 C 
ATOM     17  C   UNL A   1      37.971  30.784  28.929  1.00  0.00     0.029 A 
ATOM     18  N   UNL A   1      39.354  30.377  30.637  1.00  0.00    -0.354 N 
ATOM     19  C   UNL A   1      39.106  32.705  34.285  1.00  0.00     0.074 A 
ATOM     20  C   UNL A   1      38.045  33.688  34.208  1.00  0.00     0.031 C 
ATOM     21  C   UNL A   1      38.748  29.752  28.574  1.00  0.00     0.029 A 
ATOM     22  C   UNL A   1      39.694  29.485  29.650  1.00  0.00     0.049 A 
ATOM     23  H   UNL A   1      39.812  30.421  31.508  1.00  0.00     0.167 HD
ATOM     24  C   UNL A   1      39.904  32.516  35.364  1.00  0.00     0.037 A 
ATOM     25  C   UNL A   1      40.678  28.569  29.604  1.00  0.00     0.037 A 
ATOM     26  C   UNL A   1      40.960  31.537  35.426  1.00  0.00     0.049 A 
ATOM     27  C   UNL A   1      41.576  28.418  30.798  1.00  0.00     0.074 A 
ATOM     28  C   UNL A   1      41.825  31.263  36.471  1.00  0.00     0.029 A 
ATOM     29  N   UNL A   1      41.298  30.672  34.394  1.00  0.00    -0.354 N 
ATOM     30  N   UNL A   1      41.541  29.051  31.946  1.00  0.00    -0.248 NA
ATOM     31  C   UNL A   1      42.652  27.425  30.690  1.00  0.00     0.031 C 
ATOM     32  C   UNL A   1      42.717  30.269  36.055  1.00  0.00     0.029 A 
ATOM     33  C   UNL A   1      42.370  29.877  34.772  1.00  0.00     0.049 A 
ATOM     34  H   UNL A   1      40.843  30.628  33.522  1.00  0.00     0.167 HD
ATOM     35  C   UNL A   1      42.573  28.519  32.704  1.00  0.00     0.074 A 
ATOM     36  C   UNL A   1      43.197  27.491  31.895  1.00  0.00     0.031 C 
ATOM     37  C   UNL A   1      42.974  28.855  33.954  1.00  0.00     0.037 A 
BRANCH  24  38
ATOM     38  C   UNL A   1      39.674  33.390  36.566  1.00  0.00     0.064 A 
ATOM     39  C   UNL A   1      40.304  34.637  36.698  1.00  0.00     0.173 A 
ATOM     40  C   UNL A   1      38.773  33.002  37.570  1.00  0.00     0.173 A 
ATOM     41  F   UNL A   1      41.183  35.051  35.774  1.00  0.00    -0.203 F 
ATOM     42  C   UNL A   1      40.060  35.450  37.803  1.00  0.00     0.198 A 
ATOM     43  C   UNL A   1      38.508  33.833  38.657  1.00  0.00     0.198 A 
ATOM     44  F   UNL A   1      38.137  31.824  37.491  1.00  0.00    -0.203 F 
ATOM     45  F   UNL A   1      40.708  36.617  37.929  1.00  0.00    -0.200 F 
ATOM     46  C   UNL A   1      39.156  35.053  38.776  1.00  0.00     0.200 A 
ATOM     47  F   UNL A   1      37.623  33.452  39.588  1.00  0.00    -0.200 F 
ATOM     48  F   UNL A   1      38.913  35.842  39.831  1.00  0.00    -0.200 F 
ENDBRANCH  24  38
BRANCH  25  49
ATOM     49  C   UNL A   1      40.874  27.748  28.380  1.00  0.00     0.064 A 
ATOM     50  C   UNL A   1      40.262  26.495  28.239  1.00  0.00     0.173 A 
ATOM     51  C   UNL A   1      41.693  28.195  27.331  1.00  0.00     0.173 A 
ATOM     52  F   UNL A   1      39.482  26.016  29.220  1.00  0.00    -0.203 F 
ATOM     53  C   UNL A   1      40.486  25.707  27.112  1.00  0.00     0.198 A 
ATOM     54  C   UNL A   1      41.885  27.424  26.188  1.00  0.00     0.198 A 
ATOM     55  F   UNL A   1      42.294  29.390  27.411  1.00  0.00    -0.203 F 
ATOM     56  F   UNL A   1      39.938  24.488  27.031  1.00  0.00    -0.200 F 
ATOM     57  C   UNL A   1      41.292  26.175  26.085  1.00  0.00     0.200 A 
ATOM     58  F   UNL A   1      42.646  27.891  25.189  1.00  0.00    -0.200 F 
ATOM     59  F   UNL A   1      41.506  25.418  25.001  1.00  0.00    -0.200 F 
ENDBRANCH  25  49
BRANCH  37  60
ATOM     60  C   UNL A   1      44.116  28.071  34.534  1.00  0.00     0.064 A 
ATOM     61  C   UNL A   1      45.446  28.501  34.409  1.00  0.00     0.173 A 
ATOM     62  C   UNL A   1      43.874  26.879  35.233  1.00  0.00     0.173 A 
ATOM     63  F   UNL A   1      45.732  29.624  33.735  1.00  0.00    -0.203 F 
ATOM     64  C   UNL A   1      46.493  27.746  34.930  1.00  0.00     0.198 A 
ATOM     65  C   UNL A   1      44.920  26.146  35.785  1.00  0.00     0.198 A 
ATOM     66  F   UNL A   1      42.620  26.427  35.387  1.00  0.00    -0.203 F 
ATOM     67  F   UNL A   1      47.760  28.142  34.742  1.00  0.00    -0.200 F 
ATOM     68  C   UNL A   1      46.229  26.573  35.622  1.00  0.00     0.200 A 
ATOM     69  F   UNL A   1      44.662  25.021  36.466  1.00  0.00    -0.200 F 
ATOM     70  F   UNL A   1      47.238  25.849  36.125  1.00  0.00    -0.200 F 
ENDBRANCH  37  60
ENDBRANCH  11  12
ENDBRANCH   4   6
ENDBRANCH   1   2
BRANCH   1  71
ATOM     71  C   UNL A   1      31.261  31.931  26.482  1.00  0.00     0.042 C 
BRANCH  71  72
ATOM     72  C   UNL A   1      31.408  30.525  25.915  1.00  0.00     0.117 C 
BRANCH  72  73
ATOM     73  N   UNL A   1      30.768  30.392  24.625  1.00  0.00    -0.356 N 
ATOM     74  C   UNL A   1      30.653  29.328  23.790  1.00  0.00     0.227 C 
ATOM     75  H   UNL A   1      30.340  31.215  24.297  1.00  0.00     0.163 HD
ATOM     76  O   UNL A   1      29.970  29.499  22.774  1.00  0.00    -0.274 OA
BRANCH  74  77
ATOM     77  C   UNL A   1      31.315  27.970  24.045  1.00  0.00     0.107 C 
ATOM     78  C   UNL A   1      31.612  27.136  22.840  1.00  0.00    -0.012 C 
ATOM     79  C   UNL A   1      30.575  27.011  24.983  1.00  0.00     0.087 C 
ATOM     80  C   UNL A   1      31.066  25.916  22.926  1.00  0.00     0.033 C 
ATOM     81  C   UNL A   1      30.212  25.756  24.151  1.00  0.00     0.208 C 
BRANCH  81  82
ATOM     82  N   UNL A   1      30.278  24.406  24.718  1.00  0.00    -0.328 N 
ATOM     83  C   UNL A   1      31.482  23.637  24.360  1.00  0.00     0.275 C 
ATOM     84  C   UNL A   1      30.703  24.438  26.131  1.00  0.00     0.275 C 
ATOM     85  H   UNL A   1      29.366  24.044  24.437  1.00  0.00     0.348 HD
ATOM     86  C   UNL A   1      32.049  24.048  25.664  1.00  0.00     0.068 C 
ATOM     87  C   UNL A   1      33.323  24.790  25.930  1.00  0.00     0.020 C 
ATOM     88  C   UNL A   1      33.137  23.388  26.442  1.00  0.00     0.020 C 
ENDBRANCH  81  82
ENDBRANCH  74  77
ENDBRANCH  72  73
ENDBRANCH  71  72
ENDBRANCH   1  71
TORSDOF 11
ENDMDL
MODEL 3
REMARK VINA RESULT:     -11.4      5.063     10.632
REMARK SMILES O=C(NCCCNC(=O)[C@@H]1C=C[C@@H]([NH+]2CC3(CC3)C2)C1)c1ccc(-c2c3nc(c(-c4c(F)c(F)c(F)c(F)c4F)c4ccc([nH]4)c(-c4c(F)c(F)c(F)c(F)c4F)c4nc(c(-c5c(F)c(F)c(F)c(F)c5F)c5ccc2[nH]5)C=C4)C=C3)cc1
REMARK SMILES IDX 4 1 3 2 1 3 2 4 21 6 22 7 83 8 23 9 82 10 24 11 25 12 26 13
REMARK SMILES IDX 76 14 27 15 81 16 75 17 77 18 28 19 80 20 74 21 73 22 29 24
REMARK SMILES IDX 61 25 41 26 60 27 42 28 45 29 59 30 78 31 43 32 44 33 58 35
REMARK SMILES IDX 79 36 46 37 30 38 31 39 39 40 32 41 33 42 37 43 40 44 34 45
REMARK SMILES IDX 35 46 38 47 36 48 62 49 63 50 71 51 64 52 65 53 69 54 72 55
REMARK SMILES IDX 66 56 67 57 70 58 68 59 47 60 48 61 56 62 49 63 50 64 54 65
REMARK SMILES IDX 57 66 51 67 52 68 55 69 53 70 5 71 6 72 7 73 8 74 9 76 10 77
REMARK SMILES IDX 11 78 20 79 12 80 13 81 14 82 15 83 19 84 16 86 17 87 18 88
REMARK H PARENT 3 5 77 23 45 34 7 75 14 85
REMARK Flexibility Score: inf
ROOT
ATOM      1  C   UNL A   1      32.621  32.478  26.876  1.00  0.00     0.118 C 
ENDROOT
BRANCH   1   2
ATOM      2  N   UNL A   1      32.424  33.828  27.390  1.00  0.00    -0.352 N 
ATOM      3  O   UNL A   1      32.544  35.514  28.879  1.00  0.00    -0.269 OA
ATOM      4  C   UNL A   1      33.013  34.459  28.454  1.00  0.00     0.251 C 
ATOM      5  H   UNL A   1      31.766  34.369  26.897  1.00  0.00     0.163 HD
BRANCH   4   6
ATOM      6  C   UNL A   1      34.209  33.875  29.095  1.00  0.00     0.039 A 
ATOM      7  C   UNL A   1      34.082  32.801  29.977  1.00  0.00     0.014 A 
ATOM      8  C   UNL A   1      35.475  34.377  28.780  1.00  0.00     0.014 A 
ATOM      9  C   UNL A   1      35.194  32.333  30.660  1.00  0.00     0.010 A 
ATOM     10  C   UNL A   1      36.609  33.826  29.384  1.00  0.00     0.010 A 
ATOM     11  C   UNL A   1      36.475  32.814  30.345  1.00  0.00    -0.014 A 
BRANCH  11  12
ATOM     12  C   UNL A   1      37.651  32.169  30.978  1.00  0.00     0.031 A 
ATOM     13  C   UNL A   1      38.101  32.550  32.359  1.00  0.00     0.074 A 
ATOM     14  C   UNL A   1      38.285  31.195  30.297  1.00  0.00     0.049 A 
ATOM     15  N   UNL A   1      39.092  32.063  33.064  1.00  0.00    -0.248 NA
ATOM     16  C   UNL A   1      37.350  33.617  33.037  1.00  0.00     0.031 C 
ATOM     17  C   UNL A   1      37.939  30.756  28.941  1.00  0.00     0.029 A 
ATOM     18  N   UNL A   1      39.332  30.383  30.648  1.00  0.00    -0.354 N 
ATOM     19  C   UNL A   1      39.086  32.764  34.262  1.00  0.00     0.074 A 
ATOM     20  C   UNL A   1      38.020  33.739  34.175  1.00  0.00     0.031 C 
ATOM     21  C   UNL A   1      38.721  29.724  28.598  1.00  0.00     0.029 A 
ATOM     22  C   UNL A   1      39.673  29.478  29.673  1.00  0.00     0.049 A 
ATOM     23  H   UNL A   1      39.794  30.442  31.516  1.00  0.00     0.167 HD
ATOM     24  C   UNL A   1      39.890  32.595  35.340  1.00  0.00     0.037 A 
ATOM     25  C   UNL A   1      40.662  28.568  29.636  1.00  0.00     0.037 A 
ATOM     26  C   UNL A   1      40.952  31.623  35.412  1.00  0.00     0.049 A 
ATOM     27  C   UNL A   1      41.567  28.439  30.828  1.00  0.00     0.074 A 
ATOM     28  C   UNL A   1      41.824  31.370  36.457  1.00  0.00     0.029 A 
ATOM     29  N   UNL A   1      41.292  30.745  34.391  1.00  0.00    -0.354 N 
ATOM     30  N   UNL A   1      41.533  29.089  31.966  1.00  0.00    -0.248 NA
ATOM     31  C   UNL A   1      42.648  27.451  30.730  1.00  0.00     0.031 C 
ATOM     32  C   UNL A   1      42.720  30.376  36.052  1.00  0.00     0.029 A 
ATOM     33  C   UNL A   1      42.370  29.963  34.776  1.00  0.00     0.049 A 
ATOM     34  H   UNL A   1      40.833  30.686  33.522  1.00  0.00     0.167 HD
ATOM     35  C   UNL A   1      42.571  28.574  32.728  1.00  0.00     0.074 A 
ATOM     36  C   UNL A   1      43.198  27.539  31.932  1.00  0.00     0.031 C 
ATOM     37  C   UNL A   1      42.976  28.932  33.971  1.00  0.00     0.037 A 
BRANCH  24  38
ATOM     38  C   UNL A   1      39.661  33.485  36.530  1.00  0.00     0.064 A 
ATOM     39  C   UNL A   1      40.257  34.752  36.624  1.00  0.00     0.173 A 
ATOM     40  C   UNL A   1      38.794  33.092  37.561  1.00  0.00     0.173 A 
ATOM     41  F   UNL A   1      41.103  35.175  35.673  1.00  0.00    -0.203 F 
ATOM     42  C   UNL A   1      40.012  35.580  37.718  1.00  0.00     0.198 A 
ATOM     43  C   UNL A   1      38.528  33.935  38.638  1.00  0.00     0.198 A 
ATOM     44  F   UNL A   1      38.192  31.894  37.519  1.00  0.00    -0.203 F 
ATOM     45  F   UNL A   1      40.628  36.768  37.807  1.00  0.00    -0.200 F 
ATOM     46  C   UNL A   1      39.142  35.176  38.718  1.00  0.00     0.200 A 
ATOM     47  F   UNL A   1      37.675  33.547  39.595  1.00  0.00    -0.200 F 
ATOM     48  F   UNL A   1      38.899  35.979  39.764  1.00  0.00    -0.200 F 
ENDBRANCH  24  38
BRANCH  25  49
ATOM     49  C   UNL A   1      40.857  27.729  28.424  1.00  0.00     0.064 A 
ATOM     50  C   UNL A   1      41.665  28.160  27.363  1.00  0.00     0.173 A 
ATOM     51  C   UNL A   1      40.225  26.482  28.296  1.00  0.00     0.173 A 
ATOM     52  F   UNL A   1      42.279  29.350  27.429  1.00  0.00    -0.203 F 
ATOM     53  C   UNL A   1      41.807  27.392  26.209  1.00  0.00     0.198 A 
ATOM     54  C   UNL A   1      40.399  25.697  27.159  1.00  0.00     0.198 A 
ATOM     55  F   UNL A   1      39.449  26.018  29.286  1.00  0.00    -0.203 F 
ATOM     56  F   UNL A   1      42.536  27.856  25.185  1.00  0.00    -0.200 F 
ATOM     57  C   UNL A   1      41.180  26.159  26.111  1.00  0.00     0.200 A 
ATOM     58  F   UNL A   1      39.809  24.498  27.080  1.00  0.00    -0.200 F 
ATOM     59  F   UNL A   1      41.318  25.421  25.001  1.00  0.00    -0.200 F 
ENDBRANCH  25  49
BRANCH  37  60
ATOM     60  C   UNL A   1      44.125  28.163  34.557  1.00  0.00     0.064 A 
ATOM     61  C   UNL A   1      45.452  28.599  34.420  1.00  0.00     0.173 A 
ATOM     62  C   UNL A   1      43.893  26.980  35.275  1.00  0.00     0.173 A 
ATOM     63  F   UNL A   1      45.729  29.714  33.728  1.00  0.00    -0.203 F 
ATOM     64  C   UNL A   1      46.506  27.858  34.947  1.00  0.00     0.198 A 
ATOM     65  C   UNL A   1      44.946  26.261  35.832  1.00  0.00     0.198 A 
ATOM     66  F   UNL A   1      42.643  26.523  35.440  1.00  0.00    -0.203 F 
ATOM     67  F   UNL A   1      47.769  28.259  34.748  1.00  0.00    -0.200 F 
ATOM     68  C   UNL A   1      46.252  26.694  35.658  1.00  0.00     0.200 A 
ATOM     69  F   UNL A   1      44.698  25.145  36.531  1.00  0.00    -0.200 F 
ATOM     70  F   UNL A   1      47.268  25.983  36.167  1.00  0.00    -0.200 F 
ENDBRANCH  37  60
ENDBRANCH  11  12
ENDBRANCH   4   6
ENDBRANCH   1   2
BRANCH   1  71
ATOM     71  C   UNL A   1      31.304  31.813  26.501  1.00  0.00     0.042 C 
BRANCH  71  72
ATOM     72  C   UNL A   1      31.490  30.395  25.976  1.00  0.00     0.117 C 
BRANCH  72  73
ATOM     73  N   UNL A   1      30.997  30.250  24.624  1.00  0.00    -0.356 N 
ATOM     74  C   UNL A   1      30.940  29.169  23.805  1.00  0.00     0.227 C 
ATOM     75  H   UNL A   1      30.641  31.078  24.230  1.00  0.00     0.163 HD
ATOM     76  O   UNL A   1      30.386  29.336  22.713  1.00  0.00    -0.274 OA
BRANCH  74  77
ATOM     77  C   UNL A   1      31.519  27.796  24.165  1.00  0.00     0.107 C 
ATOM     78  C   UNL A   1      31.939  26.928  23.022  1.00  0.00    -0.012 C 
ATOM     79  C   UNL A   1      30.633  26.880  25.016  1.00  0.00     0.087 C 
ATOM     80  C   UNL A   1      31.346  25.729  23.058  1.00  0.00     0.033 C 
ATOM     81  C   UNL A   1      30.338  25.620  24.165  1.00  0.00     0.208 C 
BRANCH  81  82
ATOM     82  N   UNL A   1      30.285  24.281  24.758  1.00  0.00    -0.328 N 
ATOM     83  C   UNL A   1      31.453  23.428  24.479  1.00  0.00     0.275 C 
ATOM     84  C   UNL A   1      30.637  24.315  26.192  1.00  0.00     0.275 C 
ATOM     85  H   UNL A   1      29.368  23.973  24.435  1.00  0.00     0.348 HD
ATOM     86  C   UNL A   1      31.977  23.829  25.804  1.00  0.00     0.068 C 
ATOM     87  C   UNL A   1      33.282  24.493  26.125  1.00  0.00     0.020 C 
ATOM     88  C   UNL A   1      32.978  23.117  26.651  1.00  0.00     0.020 C 
ENDBRANCH  81  82
ENDBRANCH  74  77
ENDBRANCH  72  73
ENDBRANCH  71  72
ENDBRANCH   1  71
TORSDOF 11
ENDMDL
