MODEL 1
REMARK VINA RESULT:     -13.4      0.000      0.000
REMARK SMILES O=C(NCCCNC(=O)[C@H]1C[C@](O)(c2ccc(F)cc2)[C@@H](c2ccc(F)cc2)O1)c1ccc(-c2c3nc(c(-c4c(F)c(F)c(F)c(F)c4F)c4ccc([nH]4)c(-c4c(F)c(F)c(F)c(F)c4F)c4nc(c(-c5c(F)c(F)c(F)c(F)c5F)c5ccc2[nH]5)C=C4)C=C3)cc1
REMARK SMILES IDX 4 1 3 2 1 3 2 4 30 6 31 7 92 8 32 9 91 10 33 11 34 12 35 13
REMARK SMILES IDX 85 14 36 15 90 16 84 17 86 18 37 19 89 20 83 21 82 22 38 24
REMARK SMILES IDX 70 25 50 26 69 27 51 28 54 29 68 30 87 31 52 32 53 33 67 35
REMARK SMILES IDX 88 36 55 37 39 38 40 39 48 40 41 41 42 42 46 43 49 44 43 45
REMARK SMILES IDX 44 46 47 47 45 48 71 49 72 50 80 51 73 52 74 53 78 54 81 55
REMARK SMILES IDX 75 56 76 57 79 58 77 59 56 60 57 61 65 62 58 63 59 64 63 65
REMARK SMILES IDX 66 66 60 67 61 68 64 69 62 70 5 71 6 72 7 73 8 74 9 76 10 77
REMARK SMILES IDX 11 78 29 79 12 80 21 81 14 82 15 83 20 84 16 85 19 86 17 87
REMARK SMILES IDX 18 88 13 89 22 91 23 92 28 93 24 94 27 95 25 96 26 97
REMARK H PARENT 3 5 86 23 54 34 7 75 13 90
REMARK Flexibility Score: inf
ROOT
ATOM      1  C   UNL A   1      32.809  33.123  27.000  1.00  0.00     0.118 C 
ENDROOT
BRANCH   1   2
ATOM      2  N   UNL A   1      32.528  34.382  27.672  1.00  0.00    -0.352 N 
ATOM      3  O   UNL A   1      32.592  35.970  29.267  1.00  0.00    -0.269 OA
ATOM      4  C   UNL A   1      33.076  34.946  28.802  1.00  0.00     0.251 C 
ATOM      5  H   UNL A   1      31.825  34.924  27.245  1.00  0.00     0.163 HD
BRANCH   4   6
ATOM      6  C   UNL A   1      34.220  34.302  29.487  1.00  0.00     0.039 A 
ATOM      7  C   UNL A   1      34.021  33.397  30.526  1.00  0.00     0.014 A 
ATOM      8  C   UNL A   1      35.523  34.574  29.052  1.00  0.00     0.014 A 
ATOM      9  C   UNL A   1      35.101  32.925  31.256  1.00  0.00     0.010 A 
ATOM     10  C   UNL A   1      36.615  33.982  29.697  1.00  0.00     0.010 A 
ATOM     11  C   UNL A   1      36.412  33.170  30.822  1.00  0.00    -0.014 A 
BRANCH  11  12
ATOM     12  C   UNL A   1      37.524  32.444  31.486  1.00  0.00     0.031 A 
ATOM     13  C   UNL A   1      38.247  31.316  30.809  1.00  0.00     0.074 A 
ATOM     14  C   UNL A   1      37.898  32.856  32.715  1.00  0.00     0.049 A 
ATOM     15  N   UNL A   1      39.233  30.587  31.266  1.00  0.00    -0.248 NA
ATOM     16  C   UNL A   1      37.811  30.950  29.452  1.00  0.00     0.031 C 
ATOM     17  C   UNL A   1      37.255  33.936  33.469  1.00  0.00     0.029 A 
ATOM     18  N   UNL A   1      38.916  32.446  33.538  1.00  0.00    -0.354 N 
ATOM     19  C   UNL A   1      39.519  29.664  30.270  1.00  0.00     0.074 A 
ATOM     20  C   UNL A   1      38.599  29.915  29.183  1.00  0.00     0.031 C 
ATOM     21  C   UNL A   1      37.927  34.146  34.607  1.00  0.00     0.029 A 
ATOM     22  C   UNL A   1      38.989  33.155  34.713  1.00  0.00     0.049 A 
ATOM     23  H   UNL A   1      39.534  31.715  33.309  1.00  0.00     0.167 HD
ATOM     24  C   UNL A   1      40.470  28.701  30.275  1.00  0.00     0.037 A 
ATOM     25  C   UNL A   1      39.794  33.005  35.780  1.00  0.00     0.037 A 
ATOM     26  C   UNL A   1      41.405  28.489  31.350  1.00  0.00     0.049 A 
ATOM     27  C   UNL A   1      40.818  31.910  35.760  1.00  0.00     0.074 A 
ATOM     28  C   UNL A   1      42.446  27.578  31.416  1.00  0.00     0.029 A 
ATOM     29  N   UNL A   1      41.411  29.192  32.546  1.00  0.00    -0.354 N 
ATOM     30  N   UNL A   1      41.093  31.062  34.800  1.00  0.00    -0.248 NA
ATOM     31  C   UNL A   1      41.626  31.733  36.973  1.00  0.00     0.031 C 
ATOM     32  C   UNL A   1      43.050  27.695  32.670  1.00  0.00     0.029 A 
ATOM     33  C   UNL A   1      42.415  28.709  33.369  1.00  0.00     0.049 A 
ATOM     34  H   UNL A   1      40.794  29.924  32.775  1.00  0.00     0.167 HD
ATOM     35  C   UNL A   1      42.098  30.246  35.292  1.00  0.00     0.074 A 
ATOM     36  C   UNL A   1      42.409  30.721  36.625  1.00  0.00     0.031 C 
ATOM     37  C   UNL A   1      42.699  29.189  34.697  1.00  0.00     0.037 A 
BRANCH  24  38
ATOM     38  C   UNL A   1      40.572  27.784  29.093  1.00  0.00     0.064 A 
ATOM     39  C   UNL A   1      41.422  28.106  28.023  1.00  0.00     0.173 A 
ATOM     40  C   UNL A   1      39.729  26.673  28.951  1.00  0.00     0.173 A 
ATOM     41  F   UNL A   1      42.241  29.166  28.107  1.00  0.00    -0.203 F 
ATOM     42  C   UNL A   1      41.402  27.367  26.843  1.00  0.00     0.198 A 
ATOM     43  C   UNL A   1      39.726  25.924  27.777  1.00  0.00     0.198 A 
ATOM     44  F   UNL A   1      38.903  26.320  29.948  1.00  0.00    -0.203 F 
ATOM     45  F   UNL A   1      42.189  27.723  25.818  1.00  0.00    -0.200 F 
ATOM     46  C   UNL A   1      40.551  26.280  26.720  1.00  0.00     0.200 A 
ATOM     47  F   UNL A   1      38.912  24.865  27.661  1.00  0.00    -0.200 F 
ATOM     48  F   UNL A   1      40.521  25.578  25.578  1.00  0.00    -0.200 F 
ENDBRANCH  24  38
BRANCH  25  49
ATOM     49  C   UNL A   1      39.618  33.889  36.961  1.00  0.00     0.064 A 
ATOM     50  C   UNL A   1      38.823  33.493  38.048  1.00  0.00     0.173 A 
ATOM     51  C   UNL A   1      40.203  35.160  37.011  1.00  0.00     0.173 A 
ATOM     52  F   UNL A   1      38.234  32.288  38.047  1.00  0.00    -0.203 F 
ATOM     53  C   UNL A   1      38.595  34.347  39.124  1.00  0.00     0.198 A 
ATOM     54  C   UNL A   1      40.002  36.001  38.103  1.00  0.00     0.198 A 
ATOM     55  F   UNL A   1      40.987  35.576  36.005  1.00  0.00    -0.203 F 
ATOM     56  F   UNL A   1      37.791  33.962  40.124  1.00  0.00    -0.200 F 
ATOM     57  C   UNL A   1      39.189  35.599  39.153  1.00  0.00     0.200 A 
ATOM     58  F   UNL A   1      40.598  37.201  38.141  1.00  0.00    -0.200 F 
ATOM     59  F   UNL A   1      38.982  36.415  40.195  1.00  0.00    -0.200 F 
ENDBRANCH  25  49
BRANCH  37  60
ATOM     60  C   UNL A   1      43.745  28.463  35.485  1.00  0.00     0.064 A 
ATOM     61  C   UNL A   1      43.385  27.463  36.399  1.00  0.00     0.173 A 
ATOM     62  C   UNL A   1      45.098  28.817  35.387  1.00  0.00     0.173 A 
ATOM     63  F   UNL A   1      42.102  27.097  36.532  1.00  0.00    -0.203 F 
ATOM     64  C   UNL A   1      44.344  26.855  37.204  1.00  0.00     0.198 A 
ATOM     65  C   UNL A   1      46.058  28.188  36.175  1.00  0.00     0.198 A 
ATOM     66  F   UNL A   1      45.488  29.756  34.513  1.00  0.00    -0.203 F 
ATOM     67  F   UNL A   1      43.975  25.926  38.097  1.00  0.00    -0.200 F 
ATOM     68  C   UNL A   1      45.678  27.216  37.089  1.00  0.00     0.200 A 
ATOM     69  F   UNL A   1      47.349  28.521  36.048  1.00  0.00    -0.200 F 
ATOM     70  F   UNL A   1      46.601  26.626  37.861  1.00  0.00    -0.200 F 
ENDBRANCH  37  60
ENDBRANCH  11  12
ENDBRANCH   4   6
ENDBRANCH   1   2
BRANCH   1  71
ATOM     71  C   UNL A   1      31.592  32.217  26.875  1.00  0.00     0.042 C 
BRANCH  71  72
ATOM     72  C   UNL A   1      31.919  30.878  26.236  1.00  0.00     0.117 C 
BRANCH  72  73
ATOM     73  N   UNL A   1      31.402  29.751  26.989  1.00  0.00    -0.354 N 
ATOM     74  C   UNL A   1      31.853  28.483  27.157  1.00  0.00     0.249 C 
ATOM     75  H   UNL A   1      30.564  29.943  27.469  1.00  0.00     0.163 HD
ATOM     76  O   UNL A   1      31.237  27.822  28.004  1.00  0.00    -0.272 OA
BRANCH  74  77
ATOM     77  C   UNL A   1      32.982  27.838  26.320  1.00  0.00     0.211 C 
ATOM     78  C   UNL A   1      33.231  26.349  26.332  1.00  0.00     0.085 C 
ATOM     79  O   UNL A   1      32.865  28.207  24.936  1.00  0.00    -0.357 OA
ATOM     80  C   UNL A   1      32.778  25.803  24.979  1.00  0.00     0.123 C 
ATOM     81  C   UNL A   1      32.368  27.080  24.188  1.00  0.00     0.186 C 
BRANCH  80  82
ATOM     82  C   UNL A   1      33.937  24.934  24.468  1.00  0.00    -0.013 A 
ATOM     83  C   UNL A   1      33.785  24.287  23.216  1.00  0.00     0.010 A 
ATOM     84  C   UNL A   1      35.078  24.625  25.227  1.00  0.00     0.010 A 
ATOM     85  C   UNL A   1      34.719  23.359  22.757  1.00  0.00     0.039 A 
ATOM     86  C   UNL A   1      36.021  23.705  24.757  1.00  0.00     0.039 A 
ATOM     87  C   UNL A   1      35.829  23.074  23.535  1.00  0.00     0.123 A 
ATOM     88  F   UNL A   1      36.718  22.167  23.112  1.00  0.00    -0.207 F 
ENDBRANCH  80  82
BRANCH  80  89
ATOM     89  O   UNL A   1      31.666  24.922  25.198  1.00  0.00    -0.382 OA
ATOM     90  H   UNL A   1      30.844  25.436  25.208  1.00  0.00     0.212 HD
ENDBRANCH  80  89
BRANCH  81  91
ATOM     91  C   UNL A   1      30.896  27.324  23.863  1.00  0.00    -0.016 A 
ATOM     92  C   UNL A   1      29.891  26.368  24.093  1.00  0.00     0.009 A 
ATOM     93  C   UNL A   1      30.502  28.586  23.375  1.00  0.00     0.009 A 
ATOM     94  C   UNL A   1      28.544  26.667  23.875  1.00  0.00     0.039 A 
ATOM     95  C   UNL A   1      29.156  28.880  23.138  1.00  0.00     0.039 A 
ATOM     96  C   UNL A   1      28.188  27.922  23.401  1.00  0.00     0.123 A 
ATOM     97  F   UNL A   1      26.896  28.210  23.197  1.00  0.00    -0.207 F 
ENDBRANCH  81  91
ENDBRANCH  74  77
ENDBRANCH  72  73
ENDBRANCH  71  72
ENDBRANCH   1  71
TORSDOF 13
ENDMDL
MODEL 2
REMARK VINA RESULT:     -13.3      0.206      1.579
REMARK SMILES O=C(NCCCNC(=O)[C@H]1C[C@](O)(c2ccc(F)cc2)[C@@H](c2ccc(F)cc2)O1)c1ccc(-c2c3nc(c(-c4c(F)c(F)c(F)c(F)c4F)c4ccc([nH]4)c(-c4c(F)c(F)c(F)c(F)c4F)c4nc(c(-c5c(F)c(F)c(F)c(F)c5F)c5ccc2[nH]5)C=C4)C=C3)cc1
REMARK SMILES IDX 4 1 3 2 1 3 2 4 30 6 31 7 92 8 32 9 91 10 33 11 34 12 35 13
REMARK SMILES IDX 85 14 36 15 90 16 84 17 86 18 37 19 89 20 83 21 82 22 38 24
REMARK SMILES IDX 70 25 50 26 69 27 51 28 54 29 68 30 87 31 52 32 53 33 67 35
REMARK SMILES IDX 88 36 55 37 39 38 40 39 48 40 41 41 42 42 46 43 49 44 43 45
REMARK SMILES IDX 44 46 47 47 45 48 71 49 72 50 80 51 73 52 74 53 78 54 81 55
REMARK SMILES IDX 75 56 76 57 79 58 77 59 56 60 57 61 65 62 58 63 59 64 63 65
REMARK SMILES IDX 66 66 60 67 61 68 64 69 62 70 5 71 6 72 7 73 8 74 9 76 10 77
REMARK SMILES IDX 11 78 29 79 12 80 21 81 14 82 15 83 20 84 16 85 19 86 17 87
REMARK SMILES IDX 18 88 13 89 22 91 23 92 28 93 24 94 27 95 25 96 26 97
REMARK H PARENT 3 5 86 23 54 34 7 75 13 90
REMARK Flexibility Score: inf
ROOT
ATOM      1  C   UNL A   1      32.774  32.919  27.029  1.00  0.00     0.118 C 
ENDROOT
BRANCH   1   2
ATOM      2  N   UNL A   1      32.515  34.209  27.650  1.00  0.00    -0.352 N 
ATOM      3  O   UNL A   1      32.627  35.867  29.168  1.00  0.00    -0.269 OA
ATOM      4  C   UNL A   1      33.095  34.821  28.738  1.00  0.00     0.251 C 
ATOM      5  H   UNL A   1      31.803  34.734  27.217  1.00  0.00     0.163 HD
BRANCH   4   6
ATOM      6  C   UNL A   1      34.254  34.203  29.422  1.00  0.00     0.039 A 
ATOM      7  C   UNL A   1      34.077  33.253  30.424  1.00  0.00     0.014 A 
ATOM      8  C   UNL A   1      35.551  34.547  29.021  1.00  0.00     0.014 A 
ATOM      9  C   UNL A   1      35.164  32.803  31.158  1.00  0.00     0.010 A 
ATOM     10  C   UNL A   1      36.657  33.980  29.666  1.00  0.00     0.010 A 
ATOM     11  C   UNL A   1      36.470  33.120  30.757  1.00  0.00    -0.014 A 
BRANCH  11  12
ATOM     12  C   UNL A   1      37.602  32.420  31.417  1.00  0.00     0.031 A 
ATOM     13  C   UNL A   1      38.347  31.310  30.737  1.00  0.00     0.074 A 
ATOM     14  C   UNL A   1      37.972  32.840  32.644  1.00  0.00     0.049 A 
ATOM     15  N   UNL A   1      39.353  30.603  31.190  1.00  0.00    -0.248 NA
ATOM     16  C   UNL A   1      37.915  30.934  29.381  1.00  0.00     0.031 C 
ATOM     17  C   UNL A   1      37.306  33.906  33.402  1.00  0.00     0.029 A 
ATOM     18  N   UNL A   1      39.002  32.454  33.463  1.00  0.00    -0.354 N 
ATOM     19  C   UNL A   1      39.656  29.688  30.192  1.00  0.00     0.074 A 
ATOM     20  C   UNL A   1      38.725  29.917  29.109  1.00  0.00     0.031 C 
ATOM     21  C   UNL A   1      37.978  34.131  34.537  1.00  0.00     0.029 A 
ATOM     22  C   UNL A   1      39.063  33.165  34.638  1.00  0.00     0.049 A 
ATOM     23  H   UNL A   1      39.636  31.737  33.231  1.00  0.00     0.167 HD
ATOM     24  C   UNL A   1      40.628  28.747  30.193  1.00  0.00     0.037 A 
ATOM     25  C   UNL A   1      39.876  33.034  35.702  1.00  0.00     0.037 A 
ATOM     26  C   UNL A   1      41.572  28.557  31.264  1.00  0.00     0.049 A 
ATOM     27  C   UNL A   1      40.925  31.962  35.677  1.00  0.00     0.074 A 
ATOM     28  C   UNL A   1      42.634  27.670  31.325  1.00  0.00     0.029 A 
ATOM     29  N   UNL A   1      41.567  29.259  32.460  1.00  0.00    -0.354 N 
ATOM     30  N   UNL A   1      41.215  31.121  34.716  1.00  0.00    -0.248 NA
ATOM     31  C   UNL A   1      41.742  31.804  36.886  1.00  0.00     0.031 C 
ATOM     32  C   UNL A   1      43.241  27.801  32.577  1.00  0.00     0.029 A 
ATOM     33  C   UNL A   1      42.586  28.800  33.279  1.00  0.00     0.049 A 
ATOM     34  H   UNL A   1      40.935  29.976  32.692  1.00  0.00     0.167 HD
ATOM     35  C   UNL A   1      42.240  30.328  35.204  1.00  0.00     0.074 A 
ATOM     36  C   UNL A   1      42.547  30.810  36.536  1.00  0.00     0.031 C 
ATOM     37  C   UNL A   1      42.864  29.286  34.605  1.00  0.00     0.037 A 
BRANCH  24  38
ATOM     38  C   UNL A   1      40.747  27.832  29.011  1.00  0.00     0.064 A 
ATOM     39  C   UNL A   1      41.616  28.154  27.957  1.00  0.00     0.173 A 
ATOM     40  C   UNL A   1      39.902  26.726  28.851  1.00  0.00     0.173 A 
ATOM     41  F   UNL A   1      42.439  29.209  28.058  1.00  0.00    -0.203 F 
ATOM     42  C   UNL A   1      41.614  27.418  26.774  1.00  0.00     0.198 A 
ATOM     43  C   UNL A   1      39.915  25.980  27.675  1.00  0.00     0.198 A 
ATOM     44  F   UNL A   1      39.057  26.375  29.832  1.00  0.00    -0.203 F 
ATOM     45  F   UNL A   1      42.420  27.773  25.763  1.00  0.00    -0.200 F 
ATOM     46  C   UNL A   1      40.760  26.335  26.633  1.00  0.00     0.200 A 
ATOM     47  F   UNL A   1      39.098  24.925  27.541  1.00  0.00    -0.200 F 
ATOM     48  F   UNL A   1      40.746  25.636  25.489  1.00  0.00    -0.200 F 
ENDBRANCH  24  38
BRANCH  25  49
ATOM     49  C   UNL A   1      39.684  33.913  36.884  1.00  0.00     0.064 A 
ATOM     50  C   UNL A   1      40.329  35.157  36.972  1.00  0.00     0.173 A 
ATOM     51  C   UNL A   1      38.890  33.512  37.965  1.00  0.00     0.173 A 
ATOM     52  F   UNL A   1      41.107  35.583  35.965  1.00  0.00    -0.203 F 
ATOM     53  C   UNL A   1      40.212  35.951  38.109  1.00  0.00     0.198 A 
ATOM     54  C   UNL A   1      38.746  34.324  39.089  1.00  0.00     0.198 A 
ATOM     55  F   UNL A   1      38.238  32.341  37.921  1.00  0.00    -0.203 F 
ATOM     56  F   UNL A   1      40.880  37.110  38.186  1.00  0.00    -0.200 F 
ATOM     57  C   UNL A   1      39.416  35.537  39.165  1.00  0.00     0.200 A 
ATOM     58  F   UNL A   1      37.956  33.932  40.098  1.00  0.00    -0.200 F 
ATOM     59  F   UNL A   1      39.292  36.307  40.254  1.00  0.00    -0.200 F 
ENDBRANCH  25  49
BRANCH  37  60
ATOM     60  C   UNL A   1      43.930  28.584  35.389  1.00  0.00     0.064 A 
ATOM     61  C   UNL A   1      45.276  28.952  35.254  1.00  0.00     0.173 A 
ATOM     62  C   UNL A   1      43.620  27.493  36.213  1.00  0.00     0.173 A 
ATOM     63  F   UNL A   1      45.620  29.985  34.470  1.00  0.00    -0.203 F 
ATOM     64  C   UNL A   1      46.278  28.239  35.904  1.00  0.00     0.198 A 
ATOM     65  C   UNL A   1      44.623  26.798  36.883  1.00  0.00     0.198 A 
ATOM     66  F   UNL A   1      42.344  27.117  36.384  1.00  0.00    -0.203 F 
ATOM     67  F   UNL A   1      47.562  28.585  35.735  1.00  0.00    -0.200 F 
ATOM     68  C   UNL A   1      45.951  27.165  36.718  1.00  0.00     0.200 A 
ATOM     69  F   UNL A   1      44.304  25.776  37.687  1.00  0.00    -0.200 F 
ATOM     70  F   UNL A   1      46.917  26.482  37.348  1.00  0.00    -0.200 F 
ENDBRANCH  37  60
ENDBRANCH  11  12
ENDBRANCH   4   6
ENDBRANCH   1   2
BRANCH   1  71
ATOM     71  C   UNL A   1      31.508  32.145  26.687  1.00  0.00     0.042 C 
BRANCH  71  72
ATOM     72  C   UNL A   1      31.797  30.780  26.086  1.00  0.00     0.117 C 
BRANCH  72  73
ATOM     73  N   UNL A   1      31.354  29.685  26.928  1.00  0.00    -0.354 N 
ATOM     74  C   UNL A   1      31.875  28.458  27.176  1.00  0.00     0.249 C 
ATOM     75  H   UNL A   1      30.516  29.868  27.412  1.00  0.00     0.163 HD
ATOM     76  O   UNL A   1      31.310  27.829  28.080  1.00  0.00    -0.272 OA
BRANCH  74  77
ATOM     77  C   UNL A   1      33.020  27.813  26.362  1.00  0.00     0.211 C 
ATOM     78  C   UNL A   1      33.271  26.325  26.380  1.00  0.00     0.085 C 
ATOM     79  O   UNL A   1      32.930  28.180  24.975  1.00  0.00    -0.357 OA
ATOM     80  C   UNL A   1      32.845  25.776  25.019  1.00  0.00     0.123 C 
ATOM     81  C   UNL A   1      32.450  27.051  24.219  1.00  0.00     0.186 C 
BRANCH  80  82
ATOM     82  C   UNL A   1      34.015  24.908  24.533  1.00  0.00    -0.013 A 
ATOM     83  C   UNL A   1      33.874  24.230  23.296  1.00  0.00     0.010 A 
ATOM     84  C   UNL A   1      35.156  24.629  25.303  1.00  0.00     0.010 A 
ATOM     85  C   UNL A   1      34.819  23.302  22.861  1.00  0.00     0.039 A 
ATOM     86  C   UNL A   1      36.110  23.708  24.856  1.00  0.00     0.039 A 
ATOM     87  C   UNL A   1      35.930  23.047  23.649  1.00  0.00     0.123 A 
ATOM     88  F   UNL A   1      36.829  22.140  23.250  1.00  0.00    -0.207 F 
ENDBRANCH  80  82
BRANCH  80  89
ATOM     89  O   UNL A   1      31.730  24.894  25.218  1.00  0.00    -0.382 OA
ATOM     90  H   UNL A   1      31.042  25.352  25.726  1.00  0.00     0.212 HD
ENDBRANCH  80  89
BRANCH  81  91
ATOM     91  C   UNL A   1      30.983  27.293  23.865  1.00  0.00    -0.016 A 
ATOM     92  C   UNL A   1      29.970  26.352  24.112  1.00  0.00     0.009 A 
ATOM     93  C   UNL A   1      30.605  28.540  23.329  1.00  0.00     0.009 A 
ATOM     94  C   UNL A   1      28.627  26.652  23.865  1.00  0.00     0.039 A 
ATOM     95  C   UNL A   1      29.264  28.835  23.063  1.00  0.00     0.039 A 
ATOM     96  C   UNL A   1      28.287  27.891  23.344  1.00  0.00     0.123 A 
ATOM     97  F   UNL A   1      26.999  28.181  23.112  1.00  0.00    -0.207 F 
ENDBRANCH  81  91
ENDBRANCH  74  77
ENDBRANCH  72  73
ENDBRANCH  71  72
ENDBRANCH   1  71
TORSDOF 13
ENDMDL
MODEL 3
REMARK VINA RESULT:     -13.3      0.528      7.293
REMARK SMILES O=C(NCCCNC(=O)[C@H]1C[C@](O)(c2ccc(F)cc2)[C@@H](c2ccc(F)cc2)O1)c1ccc(-c2c3nc(c(-c4c(F)c(F)c(F)c(F)c4F)c4ccc([nH]4)c(-c4c(F)c(F)c(F)c(F)c4F)c4nc(c(-c5c(F)c(F)c(F)c(F)c5F)c5ccc2[nH]5)C=C4)C=C3)cc1
REMARK SMILES IDX 4 1 3 2 1 3 2 4 30 6 31 7 92 8 32 9 91 10 33 11 34 12 35 13
REMARK SMILES IDX 85 14 36 15 90 16 84 17 86 18 37 19 89 20 83 21 82 22 38 24
REMARK SMILES IDX 70 25 50 26 69 27 51 28 54 29 68 30 87 31 52 32 53 33 67 35
REMARK SMILES IDX 88 36 55 37 39 38 40 39 48 40 41 41 42 42 46 43 49 44 43 45
REMARK SMILES IDX 44 46 47 47 45 48 71 49 72 50 80 51 73 52 74 53 78 54 81 55
REMARK SMILES IDX 75 56 76 57 79 58 77 59 56 60 57 61 65 62 58 63 59 64 63 65
REMARK SMILES IDX 66 66 60 67 61 68 64 69 62 70 5 71 6 72 7 73 8 74 9 76 10 77
REMARK SMILES IDX 11 78 29 79 12 80 21 81 14 82 15 83 20 84 16 85 19 86 17 87
REMARK SMILES IDX 18 88 13 89 22 91 23 92 28 93 24 94 27 95 25 96 26 97
REMARK H PARENT 3 5 86 23 54 34 7 75 13 90
REMARK Flexibility Score: inf
ROOT
ATOM      1  C   UNL A   1      32.743  32.948  27.035  1.00  0.00     0.118 C 
ENDROOT
BRANCH   1   2
ATOM      2  N   UNL A   1      32.478  34.232  27.665  1.00  0.00    -0.352 N 
ATOM      3  O   UNL A   1      32.594  35.885  29.189  1.00  0.00    -0.269 OA
ATOM      4  C   UNL A   1      33.068  34.847  28.747  1.00  0.00     0.251 C 
ATOM      5  H   UNL A   1      31.753  34.750  27.247  1.00  0.00     0.163 HD
BRANCH   4   6
ATOM      6  C   UNL A   1      34.246  34.240  29.409  1.00  0.00     0.039 A 
ATOM      7  C   UNL A   1      34.096  33.293  30.418  1.00  0.00     0.014 A 
ATOM      8  C   UNL A   1      35.531  34.594  28.982  1.00  0.00     0.014 A 
ATOM      9  C   UNL A   1      35.202  32.855  31.132  1.00  0.00     0.010 A 
ATOM     10  C   UNL A   1      36.655  34.039  29.606  1.00  0.00     0.010 A 
ATOM     11  C   UNL A   1      36.497  33.181  30.704  1.00  0.00    -0.014 A 
BRANCH  11  12
ATOM     12  C   UNL A   1      37.648  32.493  31.343  1.00  0.00     0.031 A 
ATOM     13  C   UNL A   1      38.108  32.844  32.727  1.00  0.00     0.074 A 
ATOM     14  C   UNL A   1      38.252  31.504  30.652  1.00  0.00     0.049 A 
ATOM     15  N   UNL A   1      39.099  32.332  33.413  1.00  0.00    -0.248 NA
ATOM     16  C   UNL A   1      37.373  33.904  33.437  1.00  0.00     0.031 C 
ATOM     17  C   UNL A   1      37.891  31.090  29.292  1.00  0.00     0.029 A 
ATOM     18  N   UNL A   1      39.270  30.651  30.993  1.00  0.00    -0.354 N 
ATOM     19  C   UNL A   1      39.125  33.020  34.618  1.00  0.00     0.074 A 
ATOM     20  C   UNL A   1      38.056  33.994  34.573  1.00  0.00     0.031 C 
ATOM     21  C   UNL A   1      38.626  30.028  28.941  1.00  0.00     0.029 A 
ATOM     22  C   UNL A   1      39.576  29.743  30.006  1.00  0.00     0.049 A 
ATOM     23  H   UNL A   1      39.735  30.684  31.859  1.00  0.00     0.167 HD
ATOM     24  C   UNL A   1      39.969  32.842  35.661  1.00  0.00     0.037 A 
ATOM     25  C   UNL A   1      40.540  28.807  29.943  1.00  0.00     0.037 A 
ATOM     26  C   UNL A   1      41.003  31.842  35.705  1.00  0.00     0.049 A 
ATOM     27  C   UNL A   1      41.474  28.658  31.108  1.00  0.00     0.074 A 
ATOM     28  C   UNL A   1      41.866  31.545  36.746  1.00  0.00     0.029 A 
ATOM     29  N   UNL A   1      41.318  30.979  34.665  1.00  0.00    -0.354 N 
ATOM     30  N   UNL A   1      41.469  29.299  32.250  1.00  0.00    -0.248 NA
ATOM     31  C   UNL A   1      42.557  27.677  30.969  1.00  0.00     0.031 C 
ATOM     32  C   UNL A   1      42.735  30.537  36.320  1.00  0.00     0.029 A 
ATOM     33  C   UNL A   1      42.386  30.175  35.029  1.00  0.00     0.049 A 
ATOM     34  H   UNL A   1      40.853  30.944  33.799  1.00  0.00     0.167 HD
ATOM     35  C   UNL A   1      42.549  28.807  32.964  1.00  0.00     0.074 A 
ATOM     36  C   UNL A   1      43.168  27.789  32.140  1.00  0.00     0.031 C 
ATOM     37  C   UNL A   1      42.994  29.177  34.188  1.00  0.00     0.037 A 
BRANCH  24  38
ATOM     38  C   UNL A   1      39.834  33.737  36.856  1.00  0.00     0.064 A 
ATOM     39  C   UNL A   1      38.978  33.379  37.910  1.00  0.00     0.173 A 
ATOM     40  C   UNL A   1      40.431  35.004  36.896  1.00  0.00     0.173 A 
ATOM     41  F   UNL A   1      38.375  32.181  37.913  1.00  0.00    -0.203 F 
ATOM     42  C   UNL A   1      38.701  34.270  38.943  1.00  0.00     0.198 A 
ATOM     43  C   UNL A   1      40.167  35.886  37.942  1.00  0.00     0.198 A 
ATOM     44  F   UNL A   1      41.262  35.390  35.916  1.00  0.00    -0.203 F 
ATOM     45  F   UNL A   1      37.843  33.924  39.914  1.00  0.00    -0.200 F 
ATOM     46  C   UNL A   1      39.292  35.524  38.956  1.00  0.00     0.200 A 
ATOM     47  F   UNL A   1      40.748  37.094  37.961  1.00  0.00    -0.200 F 
ATOM     48  F   UNL A   1      39.014  36.387  39.943  1.00  0.00    -0.200 F 
ENDBRANCH  24  38
BRANCH  25  49
ATOM     49  C   UNL A   1      40.686  27.986  28.714  1.00  0.00     0.064 A 
ATOM     50  C   UNL A   1      41.488  28.420  27.646  1.00  0.00     0.173 A 
ATOM     51  C   UNL A   1      39.997  26.777  28.563  1.00  0.00     0.173 A 
ATOM     52  F   UNL A   1      42.163  29.575  27.739  1.00  0.00    -0.203 F 
ATOM     53  C   UNL A   1      41.570  27.690  26.464  1.00  0.00     0.198 A 
ATOM     54  C   UNL A   1      40.107  26.031  27.391  1.00  0.00     0.198 A 
ATOM     55  F   UNL A   1      39.234  26.312  29.563  1.00  0.00    -0.203 F 
ATOM     56  F   UNL A   1      42.303  28.153  25.442  1.00  0.00    -0.200 F 
ATOM     57  C   UNL A   1      40.883  26.493  26.339  1.00  0.00     0.200 A 
ATOM     58  F   UNL A   1      39.461  24.861  27.283  1.00  0.00    -0.200 F 
ATOM     59  F   UNL A   1      40.972  25.784  25.206  1.00  0.00    -0.200 F 
ENDBRANCH  25  49
BRANCH  37  60
ATOM     60  C   UNL A   1      44.218  28.488  34.708  1.00  0.00     0.064 A 
ATOM     61  C   UNL A   1      44.111  27.307  35.455  1.00  0.00     0.173 A 
ATOM     62  C   UNL A   1      45.491  29.048  34.531  1.00  0.00     0.173 A 
ATOM     63  F   UNL A   1      42.912  26.740  35.657  1.00  0.00    -0.203 F 
ATOM     64  C   UNL A   1      45.237  26.718  36.023  1.00  0.00     0.198 A 
ATOM     65  C   UNL A   1      46.618  28.442  35.078  1.00  0.00     0.198 A 
ATOM     66  F   UNL A   1      45.641  30.169  33.809  1.00  0.00    -0.203 F 
ATOM     67  F   UNL A   1      45.110  25.608  36.762  1.00  0.00    -0.200 F 
ATOM     68  C   UNL A   1      46.488  27.285  35.832  1.00  0.00     0.200 A 
ATOM     69  F   UNL A   1      47.829  28.977  34.875  1.00  0.00    -0.200 F 
ATOM     70  F   UNL A   1      47.572  26.714  36.375  1.00  0.00    -0.200 F 
ENDBRANCH  37  60
ENDBRANCH  11  12
ENDBRANCH   4   6
ENDBRANCH   1   2
BRANCH   1  71
ATOM     71  C   UNL A   1      31.482  32.161  26.707  1.00  0.00     0.042 C 
BRANCH  71  72
ATOM     72  C   UNL A   1      31.778  30.800  26.101  1.00  0.00     0.117 C 
BRANCH  72  73
ATOM     73  N   UNL A   1      31.335  29.700  26.936  1.00  0.00    -0.354 N 
ATOM     74  C   UNL A   1      31.855  28.470  27.175  1.00  0.00     0.249 C 
ATOM     75  H   UNL A   1      30.499  29.880  27.423  1.00  0.00     0.163 HD
ATOM     76  O   UNL A   1      31.292  27.836  28.076  1.00  0.00    -0.272 OA
BRANCH  74  77
ATOM     77  C   UNL A   1      32.998  27.830  26.354  1.00  0.00     0.211 C 
ATOM     78  C   UNL A   1      33.252  26.342  26.368  1.00  0.00     0.085 C 
ATOM     79  O   UNL A   1      32.900  28.200  24.969  1.00  0.00    -0.357 OA
ATOM     80  C   UNL A   1      32.820  25.795  25.007  1.00  0.00     0.123 C 
ATOM     81  C   UNL A   1      32.418  27.071  24.212  1.00  0.00     0.186 C 
BRANCH  80  82
ATOM     82  C   UNL A   1      33.990  24.930  24.513  1.00  0.00    -0.013 A 
ATOM     83  C   UNL A   1      33.834  24.234  23.288  1.00  0.00     0.010 A 
ATOM     84  C   UNL A   1      35.146  24.672  25.267  1.00  0.00     0.010 A 
ATOM     85  C   UNL A   1      34.780  23.308  22.851  1.00  0.00     0.039 A 
ATOM     86  C   UNL A   1      36.101  23.753  24.818  1.00  0.00     0.039 A 
ATOM     87  C   UNL A   1      35.906  23.074  23.623  1.00  0.00     0.123 A 
ATOM     88  F   UNL A   1      36.807  22.169  23.222  1.00  0.00    -0.207 F 
ENDBRANCH  80  82
BRANCH  80  89
ATOM     89  O   UNL A   1      31.708  24.910  25.209  1.00  0.00    -0.382 OA
ATOM     90  H   UNL A   1      31.867  24.079  24.735  1.00  0.00     0.212 HD
ENDBRANCH  80  89
BRANCH  81  91
ATOM     91  C   UNL A   1      30.950  27.311  23.866  1.00  0.00    -0.016 A 
ATOM     92  C   UNL A   1      29.939  26.368  24.119  1.00  0.00     0.009 A 
ATOM     93  C   UNL A   1      30.567  28.557  23.331  1.00  0.00     0.009 A 
ATOM     94  C   UNL A   1      28.595  26.666  23.878  1.00  0.00     0.039 A 
ATOM     95  C   UNL A   1      29.225  28.850  23.072  1.00  0.00     0.039 A 
ATOM     96  C   UNL A   1      28.250  27.905  23.358  1.00  0.00     0.123 A 
ATOM     97  F   UNL A   1      26.960  28.193  23.133  1.00  0.00    -0.207 F 
ENDBRANCH  81  91
ENDBRANCH  74  77
ENDBRANCH  72  73
ENDBRANCH  71  72
ENDBRANCH   1  71
TORSDOF 13
ENDMDL
