MODEL 1
REMARK VINA RESULT:     -10.2      0.000      0.000
REMARK SMILES O=C(COc1ccc(/C=C2\SC(=O)N(Cc3cc4c(cc3Cl)OCO4)C2=O)cc1)NCCCNC(=O)c1ccc(-c2c3nc(c(-c4c(F)c(F)c(F)c(F)c4F)c4ccc([nH]4)c(-c4c(F)c(F)c(F)c(F)c4F)c4nc(c(-c5c(F)c(F)c(F)c(F)c5F)c5ccc2[nH]5)C=C4)C=C3)cc1
REMARK SMILES IDX 1 1 2 2 30 3 3 5 4 6 5 7 6 8 29 9 7 10 28 11 8 12 9 13 10 14
REMARK SMILES IDX 11 15 26 16 12 17 14 18 27 19 13 20 15 21 16 22 17 23 21 24
REMARK SMILES IDX 18 25 20 26 22 27 19 28 25 29 23 30 24 31 31 32 32 33 33 34
REMARK SMILES IDX 34 35 35 36 36 38 37 39 38 40 99 41 39 42 98 43 40 44 41 45
REMARK SMILES IDX 42 46 92 47 43 48 97 49 91 50 93 51 44 52 96 53 90 54 89 55
REMARK SMILES IDX 45 57 77 58 57 59 76 60 58 61 61 62 75 63 94 64 59 65 60 66
REMARK SMILES IDX 74 68 95 69 62 70 46 71 47 72 55 73 48 74 49 75 53 76 56 77
REMARK SMILES IDX 50 78 51 79 54 80 52 81 78 82 79 83 87 84 80 85 81 86 85 87
REMARK SMILES IDX 88 88 82 89 83 90 86 91 84 92 63 93 64 94 72 95 65 96 66 97
REMARK SMILES IDX 70 98 73 99 67 100 68 101 71 102 69 103
REMARK H PARENT 30 4 34 37 93 56 61 67
REMARK Flexibility Score: inf
ROOT
ATOM      1  O   UNL A   1      44.433  24.215  27.350  1.00  0.00    -0.271 OA
ATOM      2  C   UNL A   1      44.239  24.256  26.139  1.00  0.00     0.257 C 
ATOM      3  N   UNL A   1      43.731  23.195  25.416  1.00  0.00    -0.353 N 
ATOM      4  H   UNL A   1      43.340  23.362  24.528  1.00  0.00     0.163 HD
ENDROOT
BRANCH   2   5
ATOM      5  C   UNL A   1      44.627  25.471  25.280  1.00  0.00     0.329 C 
BRANCH   5   6
ATOM      6  O   UNL A   1      43.595  26.409  24.971  1.00  0.00    -0.484 OA
BRANCH   6   7
ATOM      7  C   UNL A   1      43.651  27.602  25.646  1.00  0.00     0.120 A 
ATOM      8  C   UNL A   1      44.826  27.874  26.355  1.00  0.00     0.047 A 
ATOM      9  C   UNL A   1      42.586  28.495  25.731  1.00  0.00     0.047 A 
ATOM     10  C   UNL A   1      44.937  29.045  27.120  1.00  0.00     0.012 A 
ATOM     11  C   UNL A   1      42.677  29.629  26.517  1.00  0.00     0.012 A 
ATOM     12  C   UNL A   1      43.853  29.918  27.203  1.00  0.00    -0.024 A 
BRANCH  12  13
ATOM     13  C   UNL A   1      43.859  31.192  27.902  1.00  0.00     0.029 C 
ATOM     14  C   UNL A   1      44.600  32.251  27.564  1.00  0.00     0.083 C 
ATOM     15  S   UNL A   1      45.434  32.620  26.114  1.00  0.00    -0.022 SA
ATOM     16  C   UNL A   1      44.765  33.358  28.523  1.00  0.00     0.268 C 
ATOM     17  C   UNL A   1      45.616  34.312  26.593  1.00  0.00     0.293 C 
ATOM     18  N   UNL A   1      45.093  34.496  27.841  1.00  0.00    -0.264 N 
ATOM     19  O   UNL A   1      44.678  33.228  29.736  1.00  0.00    -0.268 OA
ATOM     20  O   UNL A   1      46.168  35.144  25.890  1.00  0.00    -0.261 OA
BRANCH  18  21
ATOM     21  C   UNL A   1      45.035  35.783  28.494  1.00  0.00     0.167 C 
BRANCH  21  22
ATOM     22  C   UNL A   1      43.966  36.710  27.930  1.00  0.00    -0.005 A 
ATOM     23  C   UNL A   1      44.412  37.858  27.238  1.00  0.00     0.057 A 
ATOM     24  C   UNL A   1      42.565  36.553  28.130  1.00  0.00     0.050 A 
ATOM     25  C   UNL A   1      43.480  38.783  26.811  1.00  0.00     0.166 A 
ATOM     26  C   UNL A   1      41.644  37.487  27.638  1.00  0.00     0.071 A 
ATOM     27  Cl  UNL A   1      41.848  35.270  29.030  1.00  0.00    -0.084 Cl
ATOM     28  C   UNL A   1      42.136  38.597  27.003  1.00  0.00     0.167 A 
ATOM     29  O   UNL A   1      43.752  39.969  26.205  1.00  0.00    -0.454 OA
ATOM     30  O   UNL A   1      41.391  39.633  26.536  1.00  0.00    -0.454 OA
ATOM     31  C   UNL A   1      42.433  40.555  26.164  1.00  0.00     0.468 C 
ENDBRANCH  21  22
ENDBRANCH  18  21
ENDBRANCH  12  13
ENDBRANCH   6   7
ENDBRANCH   5   6
ENDBRANCH   2   5
BRANCH   3  32
ATOM     32  C   UNL A   1      43.759  21.841  25.931  1.00  0.00     0.117 C 
BRANCH  32  33
ATOM     33  C   UNL A   1      42.384  21.220  26.072  1.00  0.00     0.042 C 
BRANCH  33  34
ATOM     34  C   UNL A   1      41.392  22.103  26.812  1.00  0.00     0.118 C 
BRANCH  34  35
ATOM     35  N   UNL A   1      40.052  22.081  26.235  1.00  0.00    -0.352 N 
ATOM     36  C   UNL A   1      39.060  23.031  26.294  1.00  0.00     0.251 C 
ATOM     37  H   UNL A   1      39.825  21.267  25.731  1.00  0.00     0.163 HD
ATOM     38  O   UNL A   1      37.947  22.791  25.838  1.00  0.00    -0.269 OA
BRANCH  36  39
ATOM     39  C   UNL A   1      39.325  24.332  26.942  1.00  0.00     0.039 A 
ATOM     40  C   UNL A   1      38.932  24.518  28.271  1.00  0.00     0.014 A 
ATOM     41  C   UNL A   1      39.974  25.359  26.251  1.00  0.00     0.014 A 
ATOM     42  C   UNL A   1      39.265  25.701  28.933  1.00  0.00     0.010 A 
ATOM     43  C   UNL A   1      40.374  26.502  26.934  1.00  0.00     0.010 A 
ATOM     44  C   UNL A   1      40.028  26.684  28.281  1.00  0.00    -0.014 A 
BRANCH  44  45
ATOM     45  C   UNL A   1      40.476  27.917  28.976  1.00  0.00     0.031 A 
ATOM     46  C   UNL A   1      41.861  27.985  29.551  1.00  0.00     0.074 A 
ATOM     47  C   UNL A   1      39.608  28.927  29.177  1.00  0.00     0.049 A 
ATOM     48  N   UNL A   1      42.392  28.892  30.331  1.00  0.00    -0.248 NA
ATOM     49  C   UNL A   1      42.760  26.866  29.230  1.00  0.00     0.031 C 
ATOM     50  C   UNL A   1      38.225  28.967  28.701  1.00  0.00     0.029 A 
ATOM     51  N   UNL A   1      39.758  30.109  29.860  1.00  0.00    -0.354 N 
ATOM     52  C   UNL A   1      43.672  28.437  30.619  1.00  0.00     0.074 A 
ATOM     53  C   UNL A   1      43.826  27.158  29.962  1.00  0.00     0.031 C 
ATOM     54  C   UNL A   1      37.656  30.117  29.097  1.00  0.00     0.029 A 
ATOM     55  C   UNL A   1      38.618  30.875  29.891  1.00  0.00     0.049 A 
ATOM     56  H   UNL A   1      40.602  30.382  30.286  1.00  0.00     0.167 HD
ATOM     57  C   UNL A   1      44.637  29.042  31.351  1.00  0.00     0.037 A 
ATOM     58  C   UNL A   1      38.371  32.046  30.507  1.00  0.00     0.037 A 
ATOM     59  C   UNL A   1      44.495  30.332  31.972  1.00  0.00     0.049 A 
ATOM     60  C   UNL A   1      39.464  32.701  31.308  1.00  0.00     0.074 A 
ATOM     61  C   UNL A   1      45.434  31.055  32.687  1.00  0.00     0.029 A 
ATOM     62  N   UNL A   1      43.337  31.096  31.944  1.00  0.00    -0.354 N 
ATOM     63  N   UNL A   1      40.685  32.285  31.538  1.00  0.00    -0.248 NA
ATOM     64  C   UNL A   1      39.143  33.992  31.934  1.00  0.00     0.031 C 
ATOM     65  C   UNL A   1      44.834  32.241  33.121  1.00  0.00     0.029 A 
ATOM     66  C   UNL A   1      43.535  32.278  32.640  1.00  0.00     0.049 A 
ATOM     67  H   UNL A   1      42.499  30.837  31.497  1.00  0.00     0.167 HD
ATOM     68  C   UNL A   1      41.288  33.272  32.304  1.00  0.00     0.074 A 
ATOM     69  C   UNL A   1      40.300  34.313  32.497  1.00  0.00     0.031 C 
ATOM     70  C   UNL A   1      42.547  33.313  32.803  1.00  0.00     0.037 A 
BRANCH  57  71
ATOM     71  C   UNL A   1      45.937  28.312  31.521  1.00  0.00     0.064 A 
ATOM     72  C   UNL A   1      47.028  28.547  30.671  1.00  0.00     0.173 A 
ATOM     73  C   UNL A   1      46.104  27.389  32.563  1.00  0.00     0.173 A 
ATOM     74  F   UNL A   1      46.915  29.410  29.650  1.00  0.00    -0.203 F 
ATOM     75  C   UNL A   1      48.229  27.863  30.841  1.00  0.00     0.198 A 
ATOM     76  C   UNL A   1      47.315  26.727  32.748  1.00  0.00     0.198 A 
ATOM     77  F   UNL A   1      45.093  27.130  33.406  1.00  0.00    -0.203 F 
ATOM     78  F   UNL A   1      49.242  28.067  29.987  1.00  0.00    -0.200 F 
ATOM     79  C   UNL A   1      48.373  26.960  31.883  1.00  0.00     0.200 A 
ATOM     80  F   UNL A   1      47.457  25.863  33.763  1.00  0.00    -0.200 F 
ATOM     81  F   UNL A   1      49.532  26.307  32.049  1.00  0.00    -0.200 F 
ENDBRANCH  57  71
BRANCH  58  82
ATOM     82  C   UNL A   1      37.039  32.688  30.375  1.00  0.00     0.064 A 
ATOM     83  C   UNL A   1      36.060  32.519  31.364  1.00  0.00     0.173 A 
ATOM     84  C   UNL A   1      36.714  33.479  29.262  1.00  0.00     0.173 A 
ATOM     85  F   UNL A   1      36.318  31.754  32.434  1.00  0.00    -0.203 F 
ATOM     86  C   UNL A   1      34.800  33.098  31.236  1.00  0.00     0.198 A 
ATOM     87  C   UNL A   1      35.462  34.079  29.148  1.00  0.00     0.198 A 
ATOM     88  F   UNL A   1      37.618  33.675  28.291  1.00  0.00    -0.203 F 
ATOM     89  F   UNL A   1      33.868  32.883  32.175  1.00  0.00    -0.200 F 
ATOM     90  C   UNL A   1      34.504  33.883  30.131  1.00  0.00     0.200 A 
ATOM     91  F   UNL A   1      35.183  34.845  28.085  1.00  0.00    -0.200 F 
ATOM     92  F   UNL A   1      33.292  34.442  30.011  1.00  0.00    -0.200 F 
ENDBRANCH  58  82
BRANCH  70  93
ATOM     93  C   UNL A   1      42.949  34.542  33.562  1.00  0.00     0.064 A 
ATOM     94  C   UNL A   1      43.482  35.666  32.916  1.00  0.00     0.173 A 
ATOM     95  C   UNL A   1      42.750  34.611  34.950  1.00  0.00     0.173 A 
ATOM     96  F   UNL A   1      43.705  35.642  31.594  1.00  0.00    -0.203 F 
ATOM     97  C   UNL A   1      43.820  36.809  33.635  1.00  0.00     0.198 A 
ATOM     98  C   UNL A   1      43.064  35.764  35.661  1.00  0.00     0.198 A 
ATOM     99  F   UNL A   1      42.238  33.562  35.612  1.00  0.00    -0.203 F 
ATOM    100  F   UNL A   1      44.364  37.859  33.006  1.00  0.00    -0.200 F 
ATOM    101  C   UNL A   1      43.604  36.860  35.006  1.00  0.00     0.200 A 
ATOM    102  F   UNL A   1      42.843  35.816  36.983  1.00  0.00    -0.200 F 
ATOM    103  F   UNL A   1      43.921  37.965  35.695  1.00  0.00    -0.200 F 
ENDBRANCH  70  93
ENDBRANCH  44  45
ENDBRANCH  36  39
ENDBRANCH  34  35
ENDBRANCH  33  34
ENDBRANCH  32  33
ENDBRANCH   3  32
TORSDOF 15
ENDMDL
MODEL 2
REMARK VINA RESULT:      -9.8      4.279     10.987
REMARK SMILES O=C(COc1ccc(/C=C2\SC(=O)N(Cc3cc4c(cc3Cl)OCO4)C2=O)cc1)NCCCNC(=O)c1ccc(-c2c3nc(c(-c4c(F)c(F)c(F)c(F)c4F)c4ccc([nH]4)c(-c4c(F)c(F)c(F)c(F)c4F)c4nc(c(-c5c(F)c(F)c(F)c(F)c5F)c5ccc2[nH]5)C=C4)C=C3)cc1
REMARK SMILES IDX 1 1 2 2 30 3 3 5 4 6 5 7 6 8 29 9 7 10 28 11 8 12 9 13 10 14
REMARK SMILES IDX 11 15 26 16 12 17 14 18 27 19 13 20 15 21 16 22 17 23 21 24
REMARK SMILES IDX 18 25 20 26 22 27 19 28 25 29 23 30 24 31 31 32 32 33 33 34
REMARK SMILES IDX 34 35 35 36 36 38 37 39 38 40 99 41 39 42 98 43 40 44 41 45
REMARK SMILES IDX 42 46 92 47 43 48 97 49 91 50 93 51 44 52 96 53 90 54 89 55
REMARK SMILES IDX 45 57 77 58 57 59 76 60 58 61 61 62 75 63 94 64 59 65 60 66
REMARK SMILES IDX 74 68 95 69 62 70 46 71 47 72 55 73 48 74 49 75 53 76 56 77
REMARK SMILES IDX 50 78 51 79 54 80 52 81 78 82 79 83 87 84 80 85 81 86 85 87
REMARK SMILES IDX 88 88 82 89 83 90 86 91 84 92 63 93 64 94 72 95 65 96 66 97
REMARK SMILES IDX 70 98 73 99 67 100 68 101 71 102 69 103
REMARK H PARENT 30 4 34 37 93 56 61 67
REMARK Flexibility Score: inf
ROOT
ATOM      1  O   UNL A   1      36.782  34.289  32.647  1.00  0.00    -0.271 OA
ATOM      2  C   UNL A   1      36.853  33.120  32.283  1.00  0.00     0.257 C 
ATOM      3  N   UNL A   1      37.152  32.744  30.988  1.00  0.00    -0.353 N 
ATOM      4  H   UNL A   1      37.466  31.828  30.814  1.00  0.00     0.163 HD
ENDROOT
BRANCH   2   5
ATOM      5  C   UNL A   1      36.529  31.943  33.218  1.00  0.00     0.329 C 
BRANCH   5   6
ATOM      6  O   UNL A   1      37.329  31.802  34.394  1.00  0.00    -0.484 OA
BRANCH   6   7
ATOM      7  C   UNL A   1      38.494  31.094  34.241  1.00  0.00     0.120 A 
ATOM      8  C   UNL A   1      39.665  31.689  34.720  1.00  0.00     0.047 A 
ATOM      9  C   UNL A   1      38.579  29.879  33.567  1.00  0.00     0.047 A 
ATOM     10  C   UNL A   1      40.905  31.055  34.547  1.00  0.00     0.012 A 
ATOM     11  C   UNL A   1      39.803  29.270  33.358  1.00  0.00     0.012 A 
ATOM     12  C   UNL A   1      40.969  29.845  33.857  1.00  0.00    -0.024 A 
BRANCH  12  13
ATOM     13  C   UNL A   1      42.173  29.055  33.667  1.00  0.00     0.029 C 
ATOM     14  C   UNL A   1      42.855  28.448  34.643  1.00  0.00     0.083 C 
ATOM     15  S   UNL A   1      42.413  28.069  36.253  1.00  0.00    -0.022 SA
ATOM     16  C   UNL A   1      44.220  27.956  34.377  1.00  0.00     0.268 C 
ATOM     17  C   UNL A   1      43.774  26.952  36.415  1.00  0.00     0.293 C 
ATOM     18  N   UNL A   1      44.521  26.968  35.272  1.00  0.00    -0.264 N 
ATOM     19  O   UNL A   1      44.959  28.426  33.524  1.00  0.00    -0.268 OA
ATOM     20  O   UNL A   1      43.990  26.313  37.433  1.00  0.00    -0.261 OA
BRANCH  18  21
ATOM     21  C   UNL A   1      45.672  26.121  35.065  1.00  0.00     0.167 C 
BRANCH  21  22
ATOM     22  C   UNL A   1      45.330  24.644  34.923  1.00  0.00    -0.005 A 
ATOM     23  C   UNL A   1      45.741  23.786  35.966  1.00  0.00     0.057 A 
ATOM     24  C   UNL A   1      44.714  24.058  33.780  1.00  0.00     0.050 A 
ATOM     25  C   UNL A   1      45.553  22.426  35.824  1.00  0.00     0.166 A 
ATOM     26  C   UNL A   1      44.493  22.678  33.692  1.00  0.00     0.071 A 
ATOM     27  Cl  UNL A   1      44.237  24.935  32.375  1.00  0.00    -0.084 Cl
ATOM     28  C   UNL A   1      44.941  21.891  34.720  1.00  0.00     0.167 A 
ATOM     29  O   UNL A   1      45.961  21.467  36.697  1.00  0.00    -0.454 OA
ATOM     30  O   UNL A   1      44.879  20.535  34.759  1.00  0.00    -0.454 OA
ATOM     31  C   UNL A   1      45.653  20.273  35.946  1.00  0.00     0.468 C 
ENDBRANCH  21  22
ENDBRANCH  18  21
ENDBRANCH  12  13
ENDBRANCH   6   7
ENDBRANCH   5   6
ENDBRANCH   2   5
BRANCH   3  32
ATOM     32  C   UNL A   1      37.013  33.666  29.879  1.00  0.00     0.117 C 
BRANCH  32  33
ATOM     33  C   UNL A   1      35.855  33.335  28.960  1.00  0.00     0.042 C 
BRANCH  33  34
ATOM     34  C   UNL A   1      34.769  32.505  29.627  1.00  0.00     0.118 C 
BRANCH  34  35
ATOM     35  N   UNL A   1      34.054  31.632  28.702  1.00  0.00    -0.352 N 
ATOM     36  C   UNL A   1      34.503  30.522  28.026  1.00  0.00     0.251 C 
ATOM     37  H   UNL A   1      33.115  31.874  28.536  1.00  0.00     0.163 HD
ATOM     38  O   UNL A   1      33.784  29.972  27.198  1.00  0.00    -0.269 OA
BRANCH  36  39
ATOM     39  C   UNL A   1      35.867  30.011  28.273  1.00  0.00     0.039 A 
ATOM     40  C   UNL A   1      36.811  30.081  27.244  1.00  0.00     0.014 A 
ATOM     41  C   UNL A   1      36.221  29.483  29.517  1.00  0.00     0.014 A 
ATOM     42  C   UNL A   1      38.132  29.701  27.489  1.00  0.00     0.010 A 
ATOM     43  C   UNL A   1      37.552  29.180  29.782  1.00  0.00     0.010 A 
ATOM     44  C   UNL A   1      38.521  29.289  28.774  1.00  0.00    -0.014 A 
BRANCH  44  45
ATOM     45  C   UNL A   1      39.931  28.958  29.097  1.00  0.00     0.031 A 
ATOM     46  C   UNL A   1      40.795  29.975  29.787  1.00  0.00     0.074 A 
ATOM     47  C   UNL A   1      40.460  27.791  28.681  1.00  0.00     0.049 A 
ATOM     48  N   UNL A   1      42.084  29.954  30.011  1.00  0.00    -0.248 NA
ATOM     49  C   UNL A   1      40.121  31.194  30.261  1.00  0.00     0.031 C 
ATOM     50  C   UNL A   1      39.737  26.737  27.971  1.00  0.00     0.029 A 
ATOM     51  N   UNL A   1      41.741  27.308  28.777  1.00  0.00    -0.354 N 
ATOM     52  C   UNL A   1      42.379  31.167  30.620  1.00  0.00     0.074 A 
ATOM     53  C   UNL A   1      41.143  31.914  30.698  1.00  0.00     0.031 C 
ATOM     54  C   UNL A   1      40.581  25.727  27.703  1.00  0.00     0.029 A 
ATOM     55  C   UNL A   1      41.913  26.081  28.183  1.00  0.00     0.049 A 
ATOM     56  H   UNL A   1      42.469  27.794  29.229  1.00  0.00     0.167 HD
ATOM     57  C   UNL A   1      43.571  31.607  31.088  1.00  0.00     0.037 A 
ATOM     58  C   UNL A   1      43.024  25.336  28.026  1.00  0.00     0.037 A 
ATOM     59  C   UNL A   1      44.790  30.845  31.044  1.00  0.00     0.049 A 
ATOM     60  C   UNL A   1      44.334  25.846  28.563  1.00  0.00     0.074 A 
ATOM     61  C   UNL A   1      46.037  31.181  31.543  1.00  0.00     0.029 A 
ATOM     62  N   UNL A   1      44.913  29.588  30.472  1.00  0.00    -0.354 N 
ATOM     63  N   UNL A   1      44.594  26.974  29.177  1.00  0.00    -0.248 NA
ATOM     64  C   UNL A   1      45.505  24.975  28.386  1.00  0.00     0.031 C 
ATOM     65  C   UNL A   1      46.923  30.141  31.242  1.00  0.00     0.029 A 
ATOM     66  C   UNL A   1      46.219  29.139  30.595  1.00  0.00     0.049 A 
ATOM     67  H   UNL A   1      44.182  29.088  30.041  1.00  0.00     0.167 HD
ATOM     68  C   UNL A   1      45.946  26.936  29.488  1.00  0.00     0.074 A 
ATOM     69  C   UNL A   1      46.452  25.670  29.001  1.00  0.00     0.031 C 
ATOM     70  C   UNL A   1      46.700  27.866  30.122  1.00  0.00     0.037 A 
BRANCH  57  71
ATOM     71  C   UNL A   1      43.613  32.981  31.691  1.00  0.00     0.064 A 
ATOM     72  C   UNL A   1      43.669  33.172  33.080  1.00  0.00     0.173 A 
ATOM     73  C   UNL A   1      43.627  34.117  30.871  1.00  0.00     0.173 A 
ATOM     74  F   UNL A   1      43.643  32.117  33.908  1.00  0.00    -0.203 F 
ATOM     75  C   UNL A   1      43.708  34.452  33.625  1.00  0.00     0.198 A 
ATOM     76  C   UNL A   1      43.696  35.396  31.418  1.00  0.00     0.198 A 
ATOM     77  F   UNL A   1      43.580  33.990  29.536  1.00  0.00    -0.203 F 
ATOM     78  F   UNL A   1      43.711  34.613  34.956  1.00  0.00    -0.200 F 
ATOM     79  C   UNL A   1      43.729  35.562  32.794  1.00  0.00     0.200 A 
ATOM     80  F   UNL A   1      43.728  36.467  30.613  1.00  0.00    -0.200 F 
ATOM     81  F   UNL A   1      43.774  36.794  33.320  1.00  0.00    -0.200 F 
ENDBRANCH  57  71
BRANCH  58  82
ATOM     82  C   UNL A   1      42.943  24.018  27.347  1.00  0.00     0.064 A 
ATOM     83  C   UNL A   1      43.235  23.895  25.982  1.00  0.00     0.173 A 
ATOM     84  C   UNL A   1      42.571  22.858  28.044  1.00  0.00     0.173 A 
ATOM     85  F   UNL A   1      43.574  24.980  25.272  1.00  0.00    -0.203 F 
ATOM     86  C   UNL A   1      43.139  22.666  25.333  1.00  0.00     0.198 A 
ATOM     87  C   UNL A   1      42.501  21.625  27.399  1.00  0.00     0.198 A 
ATOM     88  F   UNL A   1      42.286  22.922  29.352  1.00  0.00    -0.203 F 
ATOM     89  F   UNL A   1      43.381  22.586  24.018  1.00  0.00    -0.200 F 
ATOM     90  C   UNL A   1      42.778  21.531  26.043  1.00  0.00     0.200 A 
ATOM     91  F   UNL A   1      42.162  20.528  28.090  1.00  0.00    -0.200 F 
ATOM     92  F   UNL A   1      42.688  20.349  25.418  1.00  0.00    -0.200 F 
ENDBRANCH  58  82
BRANCH  70  93
ATOM     93  C   UNL A   1      48.141  27.533  30.372  1.00  0.00     0.064 A 
ATOM     94  C   UNL A   1      48.546  26.823  31.510  1.00  0.00     0.173 A 
ATOM     95  C   UNL A   1      49.120  27.890  29.432  1.00  0.00     0.173 A 
ATOM     96  F   UNL A   1      47.649  26.474  32.444  1.00  0.00    -0.203 F 
ATOM     97  C   UNL A   1      49.885  26.496  31.708  1.00  0.00     0.198 A 
ATOM     98  C   UNL A   1      50.453  27.539  29.620  1.00  0.00     0.198 A 
ATOM     99  F   UNL A   1      48.780  28.566  28.325  1.00  0.00    -0.203 F 
ATOM    100  F   UNL A   1      50.259  25.850  32.821  1.00  0.00    -0.200 F 
ATOM    101  C   UNL A   1      50.836  26.848  30.760  1.00  0.00     0.200 A 
ATOM    102  F   UNL A   1      51.368  27.869  28.698  1.00  0.00    -0.200 F 
ATOM    103  F   UNL A   1      52.123  26.524  30.948  1.00  0.00    -0.200 F 
ENDBRANCH  70  93
ENDBRANCH  44  45
ENDBRANCH  36  39
ENDBRANCH  34  35
ENDBRANCH  33  34
ENDBRANCH  32  33
ENDBRANCH   3  32
TORSDOF 15
ENDMDL
MODEL 3
REMARK VINA RESULT:      -9.7      5.018     10.903
REMARK SMILES O=C(COc1ccc(/C=C2\SC(=O)N(Cc3cc4c(cc3Cl)OCO4)C2=O)cc1)NCCCNC(=O)c1ccc(-c2c3nc(c(-c4c(F)c(F)c(F)c(F)c4F)c4ccc([nH]4)c(-c4c(F)c(F)c(F)c(F)c4F)c4nc(c(-c5c(F)c(F)c(F)c(F)c5F)c5ccc2[nH]5)C=C4)C=C3)cc1
REMARK SMILES IDX 1 1 2 2 30 3 3 5 4 6 5 7 6 8 29 9 7 10 28 11 8 12 9 13 10 14
REMARK SMILES IDX 11 15 26 16 12 17 14 18 27 19 13 20 15 21 16 22 17 23 21 24
REMARK SMILES IDX 18 25 20 26 22 27 19 28 25 29 23 30 24 31 31 32 32 33 33 34
REMARK SMILES IDX 34 35 35 36 36 38 37 39 38 40 99 41 39 42 98 43 40 44 41 45
REMARK SMILES IDX 42 46 92 47 43 48 97 49 91 50 93 51 44 52 96 53 90 54 89 55
REMARK SMILES IDX 45 57 77 58 57 59 76 60 58 61 61 62 75 63 94 64 59 65 60 66
REMARK SMILES IDX 74 68 95 69 62 70 46 71 47 72 55 73 48 74 49 75 53 76 56 77
REMARK SMILES IDX 50 78 51 79 54 80 52 81 78 82 79 83 87 84 80 85 81 86 85 87
REMARK SMILES IDX 88 88 82 89 83 90 86 91 84 92 63 93 64 94 72 95 65 96 66 97
REMARK SMILES IDX 70 98 73 99 67 100 68 101 71 102 69 103
REMARK H PARENT 30 4 34 37 93 56 61 67
REMARK Flexibility Score: inf
ROOT
ATOM      1  O   UNL A   1      34.075  34.758  30.396  1.00  0.00    -0.271 OA
ATOM      2  C   UNL A   1      34.400  33.577  30.326  1.00  0.00     0.257 C 
ATOM      3  N   UNL A   1      34.394  32.723  31.411  1.00  0.00    -0.353 N 
ATOM      4  H   UNL A   1      34.390  31.750  31.256  1.00  0.00     0.163 HD
ENDROOT
BRANCH   2   5
ATOM      5  C   UNL A   1      34.936  32.944  29.032  1.00  0.00     0.329 C 
BRANCH   5   6
ATOM      6  O   UNL A   1      33.996  32.707  27.982  1.00  0.00    -0.484 OA
BRANCH   6   7
ATOM      7  C   UNL A   1      33.815  31.394  27.629  1.00  0.00     0.120 A 
ATOM      8  C   UNL A   1      34.947  30.573  27.635  1.00  0.00     0.047 A 
ATOM      9  C   UNL A   1      32.602  30.870  27.189  1.00  0.00     0.047 A 
ATOM     10  C   UNL A   1      34.855  29.234  27.228  1.00  0.00     0.012 A 
ATOM     11  C   UNL A   1      32.515  29.562  26.749  1.00  0.00     0.012 A 
ATOM     12  C   UNL A   1      33.634  28.734  26.778  1.00  0.00    -0.024 A 
BRANCH  12  13
ATOM     13  C   UNL A   1      33.386  27.355  26.394  1.00  0.00     0.029 C 
ATOM     14  C   UNL A   1      33.236  26.921  25.140  1.00  0.00     0.083 C 
ATOM     15  S   UNL A   1      33.628  27.656  23.643  1.00  0.00    -0.022 SA
ATOM     16  C   UNL A   1      32.673  25.579  24.898  1.00  0.00     0.268 C 
ATOM     17  C   UNL A   1      33.464  26.117  22.789  1.00  0.00     0.293 C 
ATOM     18  N   UNL A   1      33.067  25.145  23.663  1.00  0.00    -0.264 N 
ATOM     19  O   UNL A   1      31.924  25.004  25.674  1.00  0.00    -0.268 OA
ATOM     20  O   UNL A   1      33.654  26.001  21.588  1.00  0.00    -0.261 OA
BRANCH  18  21
ATOM     21  C   UNL A   1      32.898  23.761  23.287  1.00  0.00     0.167 C 
BRANCH  21  22
ATOM     22  C   UNL A   1      33.900  22.820  23.943  1.00  0.00    -0.005 A 
ATOM     23  C   UNL A   1      35.200  23.322  24.169  1.00  0.00     0.057 A 
ATOM     24  C   UNL A   1      33.647  21.453  24.256  1.00  0.00     0.050 A 
ATOM     25  C   UNL A   1      36.169  22.468  24.655  1.00  0.00     0.166 A 
ATOM     26  C   UNL A   1      34.642  20.629  24.795  1.00  0.00     0.071 A 
ATOM     27  Cl  UNL A   1      32.154  20.647  23.958  1.00  0.00    -0.084 Cl
ATOM     28  C   UNL A   1      35.894  21.161  24.963  1.00  0.00     0.167 A 
ATOM     29  O   UNL A   1      37.479  22.774  24.850  1.00  0.00    -0.454 OA
ATOM     30  O   UNL A   1      36.987  20.482  25.399  1.00  0.00    -0.454 OA
ATOM     31  C   UNL A   1      38.010  21.474  25.188  1.00  0.00     0.468 C 
ENDBRANCH  21  22
ENDBRANCH  18  21
ENDBRANCH  12  13
ENDBRANCH   6   7
ENDBRANCH   5   6
ENDBRANCH   2   5
BRANCH   3  32
ATOM     32  C   UNL A   1      34.394  33.221  32.771  1.00  0.00     0.117 C 
BRANCH  32  33
ATOM     33  C   UNL A   1      35.649  32.871  33.543  1.00  0.00     0.042 C 
BRANCH  33  34
ATOM     34  C   UNL A   1      36.674  32.105  32.720  1.00  0.00     0.118 C 
BRANCH  34  35
ATOM     35  N   UNL A   1      36.692  30.674  33.002  1.00  0.00    -0.352 N 
ATOM     36  C   UNL A   1      37.618  29.724  32.639  1.00  0.00     0.251 C 
ATOM     37  H   UNL A   1      35.930  30.339  33.528  1.00  0.00     0.163 HD
ATOM     38  O   UNL A   1      37.410  28.538  32.874  1.00  0.00    -0.269 OA
BRANCH  36  39
ATOM     39  C   UNL A   1      38.849  30.130  31.931  1.00  0.00     0.039 A 
ATOM     40  C   UNL A   1      38.833  30.207  30.535  1.00  0.00     0.014 A 
ATOM     41  C   UNL A   1      40.011  30.451  32.639  1.00  0.00     0.014 A 
ATOM     42  C   UNL A   1      39.953  30.688  29.855  1.00  0.00     0.010 A 
ATOM     43  C   UNL A   1      41.095  31.004  31.967  1.00  0.00     0.010 A 
ATOM     44  C   UNL A   1      41.077  31.131  30.570  1.00  0.00    -0.014 A 
BRANCH  44  45
ATOM     45  C   UNL A   1      42.253  31.728  29.890  1.00  0.00     0.031 A 
ATOM     46  C   UNL A   1      43.357  30.838  29.394  1.00  0.00     0.074 A 
ATOM     47  C   UNL A   1      42.376  33.067  29.811  1.00  0.00     0.049 A 
ATOM     48  N   UNL A   1      44.536  31.160  28.926  1.00  0.00    -0.248 NA
ATOM     49  C   UNL A   1      43.111  29.389  29.462  1.00  0.00     0.031 C 
ATOM     50  C   UNL A   1      41.393  34.039  30.288  1.00  0.00     0.029 A 
ATOM     51  N   UNL A   1      43.398  33.842  29.321  1.00  0.00    -0.354 N 
ATOM     52  C   UNL A   1      45.183  29.957  28.676  1.00  0.00     0.074 A 
ATOM     53  C   UNL A   1      44.281  28.899  29.078  1.00  0.00     0.031 C 
ATOM     54  C   UNL A   1      41.853  35.280  30.059  1.00  0.00     0.029 A 
ATOM     55  C   UNL A   1      43.181  35.191  29.460  1.00  0.00     0.049 A 
ATOM     56  H   UNL A   1      44.209  33.467  28.908  1.00  0.00     0.167 HD
ATOM     57  C   UNL A   1      46.411  29.754  28.144  1.00  0.00     0.037 A 
ATOM     58  C   UNL A   1      43.973  36.237  29.158  1.00  0.00     0.037 A 
ATOM     59  C   UNL A   1      47.289  30.807  27.709  1.00  0.00     0.049 A 
ATOM     60  C   UNL A   1      45.330  35.984  28.560  1.00  0.00     0.074 A 
ATOM     61  C   UNL A   1      48.530  30.703  27.104  1.00  0.00     0.029 A 
ATOM     62  N   UNL A   1      47.014  32.162  27.828  1.00  0.00    -0.354 N 
ATOM     63  N   UNL A   1      45.915  34.844  28.286  1.00  0.00    -0.248 NA
ATOM     64  C   UNL A   1      46.137  37.167  28.225  1.00  0.00     0.031 C 
ATOM     65  C   UNL A   1      49.021  31.995  26.889  1.00  0.00     0.029 A 
ATOM     66  C   UNL A   1      48.068  32.904  27.319  1.00  0.00     0.049 A 
ATOM     67  H   UNL A   1      46.193  32.541  28.217  1.00  0.00     0.167 HD
ATOM     68  C   UNL A   1      47.139  35.168  27.720  1.00  0.00     0.074 A 
ATOM     69  C   UNL A   1      47.213  36.614  27.682  1.00  0.00     0.031 C 
ATOM     70  C   UNL A   1      48.115  34.342  27.270  1.00  0.00     0.037 A 
BRANCH  57  71
ATOM     71  C   UNL A   1      46.877  28.335  27.999  1.00  0.00     0.064 A 
ATOM     72  C   UNL A   1      46.626  27.594  26.835  1.00  0.00     0.173 A 
ATOM     73  C   UNL A   1      47.609  27.720  29.025  1.00  0.00     0.173 A 
ATOM     74  F   UNL A   1      45.918  28.132  25.831  1.00  0.00    -0.203 F 
ATOM     75  C   UNL A   1      47.066  26.279  26.715  1.00  0.00     0.198 A 
ATOM     76  C   UNL A   1      48.073  26.414  28.890  1.00  0.00     0.198 A 
ATOM     77  F   UNL A   1      47.881  28.387  30.157  1.00  0.00    -0.203 F 
ATOM     78  F   UNL A   1      46.772  25.573  25.614  1.00  0.00    -0.200 F 
ATOM     79  C   UNL A   1      47.795  25.693  27.739  1.00  0.00     0.200 A 
ATOM     80  F   UNL A   1      48.787  25.853  29.876  1.00  0.00    -0.200 F 
ATOM     81  F   UNL A   1      48.223  24.428  27.619  1.00  0.00    -0.200 F 
ENDBRANCH  57  71
BRANCH  58  82
ATOM     82  C   UNL A   1      43.496  37.623  29.397  1.00  0.00     0.064 A 
ATOM     83  C   UNL A   1      42.676  38.270  28.462  1.00  0.00     0.173 A 
ATOM     84  C   UNL A   1      43.848  38.329  30.557  1.00  0.00     0.173 A 
ATOM     85  F   UNL A   1      42.332  37.642  27.329  1.00  0.00    -0.203 F 
ATOM     86  C   UNL A   1      42.243  39.578  28.667  1.00  0.00     0.198 A 
ATOM     87  C   UNL A   1      43.393  39.628  30.773  1.00  0.00     0.198 A 
ATOM     88  F   UNL A   1      44.627  37.752  31.483  1.00  0.00    -0.203 F 
ATOM     89  F   UNL A   1      41.497  40.188  27.737  1.00  0.00    -0.200 F 
ATOM     90  C   UNL A   1      42.597  40.254  29.826  1.00  0.00     0.200 A 
ATOM     91  F   UNL A   1      43.728  40.275  31.898  1.00  0.00    -0.200 F 
ATOM     92  F   UNL A   1      42.178  41.511  30.024  1.00  0.00    -0.200 F 
ENDBRANCH  58  82
BRANCH  70  93
ATOM     93  C   UNL A   1      49.325  34.977  26.652  1.00  0.00     0.064 A 
ATOM     94  C   UNL A   1      49.320  35.439  25.328  1.00  0.00     0.173 A 
ATOM     95  C   UNL A   1      50.489  35.167  27.413  1.00  0.00     0.173 A 
ATOM     96  F   UNL A   1      48.238  35.265  24.556  1.00  0.00    -0.203 F 
ATOM     97  C   UNL A   1      50.444  36.053  24.783  1.00  0.00     0.198 A 
ATOM     98  C   UNL A   1      51.601  35.805  26.873  1.00  0.00     0.198 A 
ATOM     99  F   UNL A   1      50.539  34.746  28.686  1.00  0.00    -0.203 F 
ATOM    100  F   UNL A   1      50.433  36.453  23.504  1.00  0.00    -0.200 F 
ATOM    101  C   UNL A   1      51.580  36.242  25.558  1.00  0.00     0.200 A 
ATOM    102  F   UNL A   1      52.693  35.997  27.627  1.00  0.00    -0.200 F 
ATOM    103  F   UNL A   1      52.658  36.842  25.033  1.00  0.00    -0.200 F 
ENDBRANCH  70  93
ENDBRANCH  44  45
ENDBRANCH  36  39
ENDBRANCH  34  35
ENDBRANCH  33  34
ENDBRANCH  32  33
ENDBRANCH   3  32
TORSDOF 15
ENDMDL
