MODEL 1
REMARK VINA RESULT:     -12.1      0.000      0.000
REMARK SMILES C[C@@H]1CCCN(c2ccc(NC(=O)Cc3cccs3)c(C(=O)NCCCNC(=O)c3ccc(-c4c5nc(c(-c6c(F)c(F)c(F)c(F)c6F)c6ccc([nH]6)c(-c6c(F)c(F)c(F)c(F)c6F)c6nc(c(-c7c(F)c(F)c(F)c(F)c7F)c7ccc4[nH]7)C=C6)C=C5)cc3)c2)C1
REMARK SMILES IDX 24 1 23 2 21 3 22 4 20 6 7 7 8 8 93 9 9 10 10 11 6 12 1 13
REMARK SMILES IDX 2 14 3 15 94 16 4 17 5 18 11 19 12 20 13 22 14 23 15 24
REMARK SMILES IDX 16 25 19 26 17 27 18 28 25 29 26 30 27 31 28 32 29 34 30 35
REMARK SMILES IDX 31 36 92 37 32 38 91 39 33 40 34 41 35 42 85 43 36 44 90 45
REMARK SMILES IDX 84 46 86 47 37 48 89 49 83 50 82 51 38 53 70 54 50 55 69 56
REMARK SMILES IDX 51 57 54 58 68 59 87 60 52 61 53 62 67 64 88 65 55 66 39 67
REMARK SMILES IDX 40 68 48 69 41 70 42 71 46 72 49 73 43 74 44 75 47 76 45 77
REMARK SMILES IDX 71 78 72 79 80 80 73 81 74 82 78 83 81 84 75 85 76 86 79 87
REMARK SMILES IDX 77 88 56 89 57 90 65 91 58 92 59 93 63 94 66 95 60 96 61 97
REMARK SMILES IDX 64 98 62 99
REMARK H PARENT 23 5 11 21 27 33 86 52 54 63
REMARK Flexibility Score: inf
ROOT
ATOM      1  C   UNL A   1      32.946  28.284  24.993  1.00  0.00     0.118 C 
ENDROOT
BRANCH   1   2
ATOM      2  N   UNL A   1      31.921  27.747  25.867  1.00  0.00    -0.352 N 
ATOM      3  C   UNL A   1      31.272  26.541  25.939  1.00  0.00     0.253 C 
ATOM      4  O   UNL A   1      30.492  26.412  26.885  1.00  0.00    -0.269 OA
ATOM      5  H   UNL A   1      31.627  28.385  26.558  1.00  0.00     0.163 HD
BRANCH   3   6
ATOM      6  C   UNL A   1      31.498  25.392  25.000  1.00  0.00     0.065 A 
ATOM      7  C   UNL A   1      32.956  23.648  24.093  1.00  0.00     0.038 A 
ATOM      8  C   UNL A   1      31.889  23.163  23.349  1.00  0.00     0.028 A 
ATOM      9  C   UNL A   1      32.752  24.778  24.887  1.00  0.00     0.042 A 
ATOM     10  C   UNL A   1      30.652  23.811  23.364  1.00  0.00     0.029 A 
ATOM     11  C   UNL A   1      30.457  24.960  24.137  1.00  0.00     0.054 A 
BRANCH   7  12
ATOM     12  N   UNL A   1      34.172  23.003  24.075  1.00  0.00    -0.371 N 
ATOM     13  C   UNL A   1      37.379  23.922  25.896  1.00  0.00     0.009 C 
ATOM     14  C   UNL A   1      36.023  23.261  25.662  1.00  0.00     0.005 C 
ATOM     15  C   UNL A   1      36.163  21.730  25.675  1.00  0.00     0.007 C 
ATOM     16  C   UNL A   1      35.399  23.746  24.343  1.00  0.00     0.119 C 
ATOM     17  C   UNL A   1      34.819  21.055  25.401  1.00  0.00     0.022 C 
ATOM     18  C   UNL A   1      34.216  21.547  24.089  1.00  0.00     0.116 C 
ENDBRANCH   7  12
BRANCH  11  19
ATOM     19  N   UNL A   1      29.276  25.729  24.041  1.00  0.00    -0.325 N 
ATOM     20  C   UNL A   1      28.990  26.949  23.501  1.00  0.00     0.229 C 
ATOM     21  H   UNL A   1      28.495  25.294  24.453  1.00  0.00     0.169 HD
ATOM     22  O   UNL A   1      27.826  27.356  23.616  1.00  0.00    -0.274 OA
BRANCH  20  23
ATOM     23  C   UNL A   1      30.009  27.819  22.793  1.00  0.00     0.147 C 
BRANCH  23  24
ATOM     24  C   UNL A   1      29.599  29.258  22.598  1.00  0.00     0.014 A 
ATOM     25  C   UNL A   1      28.971  29.908  21.549  1.00  0.00     0.016 A 
ATOM     26  S   UNL A   1      29.902  30.359  23.891  1.00  0.00    -0.148 S 
ATOM     27  C   UNL A   1      28.678  31.274  21.836  1.00  0.00     0.012 A 
ATOM     28  C   UNL A   1      29.153  31.653  23.067  1.00  0.00     0.065 A 
ENDBRANCH  23  24
ENDBRANCH  20  23
ENDBRANCH  11  19
ENDBRANCH   3   6
ENDBRANCH   1   2
BRANCH   1  29
ATOM     29  C   UNL A   1      34.222  28.589  25.780  1.00  0.00     0.042 C 
BRANCH  29  30
ATOM     30  C   UNL A   1      33.972  28.716  27.282  1.00  0.00     0.118 C 
BRANCH  30  31
ATOM     31  N   UNL A   1      33.924  30.113  27.697  1.00  0.00    -0.352 N 
ATOM     32  C   UNL A   1      34.789  30.840  28.472  1.00  0.00     0.251 C 
ATOM     33  H   UNL A   1      33.144  30.615  27.367  1.00  0.00     0.163 HD
ATOM     34  O   UNL A   1      34.426  31.916  28.939  1.00  0.00    -0.269 OA
BRANCH  32  35
ATOM     35  C   UNL A   1      36.155  30.347  28.748  1.00  0.00     0.039 A 
ATOM     36  C   UNL A   1      37.141  30.504  27.769  1.00  0.00     0.014 A 
ATOM     37  C   UNL A   1      36.452  29.673  29.936  1.00  0.00     0.014 A 
ATOM     38  C   UNL A   1      38.434  30.029  28.001  1.00  0.00     0.010 A 
ATOM     39  C   UNL A   1      37.757  29.269  30.198  1.00  0.00     0.010 A 
ATOM     40  C   UNL A   1      38.759  29.433  29.230  1.00  0.00    -0.014 A 
BRANCH  40  41
ATOM     41  C   UNL A   1      40.137  28.964  29.522  1.00  0.00     0.031 A 
ATOM     42  C   UNL A   1      41.081  29.839  30.298  1.00  0.00     0.074 A 
ATOM     43  C   UNL A   1      40.556  27.785  29.024  1.00  0.00     0.049 A 
ATOM     44  N   UNL A   1      42.350  29.656  30.567  1.00  0.00    -0.248 NA
ATOM     45  C   UNL A   1      40.537  31.104  30.815  1.00  0.00     0.031 C 
ATOM     46  C   UNL A   1      39.745  26.872  28.218  1.00  0.00     0.029 A 
ATOM     47  N   UNL A   1      41.775  27.161  29.107  1.00  0.00    -0.354 N 
ATOM     48  C   UNL A   1      42.756  30.787  31.263  1.00  0.00     0.074 A 
ATOM     49  C   UNL A   1      41.616  31.675  31.330  1.00  0.00     0.031 C 
ATOM     50  C   UNL A   1      40.480  25.796  27.898  1.00  0.00     0.029 A 
ATOM     51  C   UNL A   1      41.825  25.962  28.439  1.00  0.00     0.049 A 
ATOM     52  H   UNL A   1      42.540  27.536  29.600  1.00  0.00     0.167 HD
ATOM     53  C   UNL A   1      43.965  31.051  31.814  1.00  0.00     0.037 A 
ATOM     54  C   UNL A   1      42.847  25.101  28.273  1.00  0.00     0.037 A 
ATOM     55  C   UNL A   1      45.085  30.149  31.770  1.00  0.00     0.049 A 
ATOM     56  C   UNL A   1      44.178  25.417  28.898  1.00  0.00     0.074 A 
ATOM     57  C   UNL A   1      46.333  30.292  32.349  1.00  0.00     0.029 A 
ATOM     58  N   UNL A   1      45.089  28.930  31.107  1.00  0.00    -0.354 N 
ATOM     59  N   UNL A   1      44.532  26.461  29.608  1.00  0.00    -0.248 NA
ATOM     60  C   UNL A   1      45.250  24.431  28.705  1.00  0.00     0.031 C 
ATOM     61  C   UNL A   1      47.107  29.181  32.000  1.00  0.00     0.029 A 
ATOM     62  C   UNL A   1      46.325  28.320  31.247  1.00  0.00     0.049 A 
ATOM     63  H   UNL A   1      44.326  28.553  30.611  1.00  0.00     0.167 HD
ATOM     64  C   UNL A   1      45.855  26.245  29.969  1.00  0.00     0.074 A 
ATOM     65  C   UNL A   1      46.235  24.963  29.415  1.00  0.00     0.031 C 
ATOM     66  C   UNL A   1      46.680  27.037  30.697  1.00  0.00     0.037 A 
BRANCH  53  67
ATOM     67  C   UNL A   1      44.138  32.367  32.518  1.00  0.00     0.064 A 
ATOM     68  C   UNL A   1      44.559  33.517  31.834  1.00  0.00     0.173 A 
ATOM     69  C   UNL A   1      43.843  32.490  33.884  1.00  0.00     0.173 A 
ATOM     70  F   UNL A   1      44.864  33.453  30.529  1.00  0.00    -0.203 F 
ATOM     71  C   UNL A   1      44.707  34.733  32.497  1.00  0.00     0.198 A 
ATOM     72  C   UNL A   1      43.962  33.714  34.538  1.00  0.00     0.198 A 
ATOM     73  F   UNL A   1      43.430  31.423  34.586  1.00  0.00    -0.203 F 
ATOM     74  F   UNL A   1      45.159  35.806  31.834  1.00  0.00    -0.200 F 
ATOM     75  C   UNL A   1      44.402  34.832  33.846  1.00  0.00     0.200 A 
ATOM     76  F   UNL A   1      43.653  33.810  35.838  1.00  0.00    -0.200 F 
ATOM     77  F   UNL A   1      44.537  36.005  34.481  1.00  0.00    -0.200 F 
ENDBRANCH  53  67
BRANCH  54  78
ATOM     78  C   UNL A   1      42.643  23.847  27.501  1.00  0.00     0.064 A 
ATOM     79  C   UNL A   1      42.096  22.709  28.112  1.00  0.00     0.173 A 
ATOM     80  C   UNL A   1      42.991  23.756  26.146  1.00  0.00     0.173 A 
ATOM     81  F   UNL A   1      41.763  22.741  29.410  1.00  0.00    -0.203 F 
ATOM     82  C   UNL A   1      41.926  21.522  27.401  1.00  0.00     0.198 A 
ATOM     83  C   UNL A   1      42.793  22.577  25.429  1.00  0.00     0.198 A 
ATOM     84  F   UNL A   1      43.510  24.818  25.512  1.00  0.00    -0.203 F 
ATOM     85  F   UNL A   1      41.444  20.436  28.022  1.00  0.00    -0.200 F 
ATOM     86  C   UNL A   1      42.270  21.459  26.060  1.00  0.00     0.200 A 
ATOM     87  F   UNL A   1      43.110  22.525  24.128  1.00  0.00    -0.200 F 
ATOM     88  F   UNL A   1      42.102  20.319  25.376  1.00  0.00    -0.200 F 
ENDBRANCH  54  78
BRANCH  66  89
ATOM     89  C   UNL A   1      48.064  26.522  30.968  1.00  0.00     0.064 A 
ATOM     90  C   UNL A   1      49.145  26.841  30.134  1.00  0.00     0.173 A 
ATOM     91  C   UNL A   1      48.317  25.735  32.101  1.00  0.00     0.173 A 
ATOM     92  F   UNL A   1      48.953  27.579  29.030  1.00  0.00    -0.203 F 
ATOM     93  C   UNL A   1      50.425  26.370  30.412  1.00  0.00     0.198 A 
ATOM     94  C   UNL A   1      49.603  25.290  32.393  1.00  0.00     0.198 A 
ATOM     95  F   UNL A   1      47.317  25.406  32.934  1.00  0.00    -0.203 F 
ATOM     96  F   UNL A   1      51.435  26.647  29.576  1.00  0.00    -0.200 F 
ATOM     97  C   UNL A   1      50.654  25.602  31.544  1.00  0.00     0.200 A 
ATOM     98  F   UNL A   1      49.824  24.561  33.495  1.00  0.00    -0.200 F 
ATOM     99  F   UNL A   1      51.889  25.156  31.815  1.00  0.00    -0.200 F 
ENDBRANCH  66  89
ENDBRANCH  40  41
ENDBRANCH  32  35
ENDBRANCH  30  31
ENDBRANCH  29  30
ENDBRANCH   1  29
TORSDOF 14
ENDMDL
MODEL 2
REMARK VINA RESULT:     -12.0      2.730      3.583
REMARK SMILES C[C@@H]1CCCN(c2ccc(NC(=O)Cc3cccs3)c(C(=O)NCCCNC(=O)c3ccc(-c4c5nc(c(-c6c(F)c(F)c(F)c(F)c6F)c6ccc([nH]6)c(-c6c(F)c(F)c(F)c(F)c6F)c6nc(c(-c7c(F)c(F)c(F)c(F)c7F)c7ccc4[nH]7)C=C6)C=C5)cc3)c2)C1
REMARK SMILES IDX 24 1 23 2 21 3 22 4 20 6 7 7 8 8 93 9 9 10 10 11 6 12 1 13
REMARK SMILES IDX 2 14 3 15 94 16 4 17 5 18 11 19 12 20 13 22 14 23 15 24
REMARK SMILES IDX 16 25 19 26 17 27 18 28 25 29 26 30 27 31 28 32 29 34 30 35
REMARK SMILES IDX 31 36 92 37 32 38 91 39 33 40 34 41 35 42 85 43 36 44 90 45
REMARK SMILES IDX 84 46 86 47 37 48 89 49 83 50 82 51 38 53 70 54 50 55 69 56
REMARK SMILES IDX 51 57 54 58 68 59 87 60 52 61 53 62 67 64 88 65 55 66 39 67
REMARK SMILES IDX 40 68 48 69 41 70 42 71 46 72 49 73 43 74 44 75 47 76 45 77
REMARK SMILES IDX 71 78 72 79 80 80 73 81 74 82 78 83 81 84 75 85 76 86 79 87
REMARK SMILES IDX 77 88 56 89 57 90 65 91 58 92 59 93 63 94 66 95 60 96 61 97
REMARK SMILES IDX 64 98 62 99
REMARK H PARENT 23 5 11 21 27 33 86 52 54 63
REMARK Flexibility Score: inf
ROOT
ATOM      1  C   UNL A   1      32.227  27.552  26.840  1.00  0.00     0.118 C 
ENDROOT
BRANCH   1   2
ATOM      2  N   UNL A   1      31.035  26.749  27.027  1.00  0.00    -0.352 N 
ATOM      3  C   UNL A   1      30.493  25.685  26.352  1.00  0.00     0.253 C 
ATOM      4  O   UNL A   1      29.480  25.196  26.856  1.00  0.00    -0.269 OA
ATOM      5  H   UNL A   1      30.499  27.025  27.805  1.00  0.00     0.163 HD
BRANCH   3   6
ATOM      6  C   UNL A   1      31.079  25.070  25.115  1.00  0.00     0.065 A 
ATOM      7  C   UNL A   1      32.892  23.859  24.002  1.00  0.00     0.038 A 
ATOM      8  C   UNL A   1      32.124  23.801  22.846  1.00  0.00     0.028 A 
ATOM      9  C   UNL A   1      32.368  24.521  25.113  1.00  0.00     0.042 A 
ATOM     10  C   UNL A   1      30.876  24.424  22.785  1.00  0.00     0.029 A 
ATOM     11  C   UNL A   1      30.365  25.112  23.888  1.00  0.00     0.054 A 
BRANCH   7  12
ATOM     12  N   UNL A   1      34.121  23.241  24.057  1.00  0.00    -0.371 N 
ATOM     13  C   UNL A   1      37.113  24.088  26.243  1.00  0.00     0.009 C 
ATOM     14  C   UNL A   1      35.803  23.419  25.832  1.00  0.00     0.005 C 
ATOM     15  C   UNL A   1      35.982  21.894  25.749  1.00  0.00     0.007 C 
ATOM     16  C   UNL A   1      35.296  23.987  24.495  1.00  0.00     0.119 C 
ATOM     17  C   UNL A   1      34.690  21.214  25.298  1.00  0.00     0.022 C 
ATOM     18  C   UNL A   1      34.202  21.789  23.972  1.00  0.00     0.116 C 
ENDBRANCH   7  12
BRANCH  11  19
ATOM     19  N   UNL A   1      29.189  25.890  23.802  1.00  0.00    -0.325 N 
ATOM     20  C   UNL A   1      28.945  27.189  23.464  1.00  0.00     0.229 C 
ATOM     21  H   UNL A   1      28.374  25.389  24.036  1.00  0.00     0.169 HD
ATOM     22  O   UNL A   1      27.767  27.572  23.519  1.00  0.00    -0.274 OA
BRANCH  20  23
ATOM     23  C   UNL A   1      30.021  28.171  23.047  1.00  0.00     0.147 C 
BRANCH  23  24
ATOM     24  C   UNL A   1      29.521  29.530  22.625  1.00  0.00     0.014 A 
ATOM     25  C   UNL A   1      28.976  29.989  21.438  1.00  0.00     0.016 A 
ATOM     26  S   UNL A   1      29.568  30.799  23.792  1.00  0.00    -0.148 S 
ATOM     27  C   UNL A   1      28.538  31.343  21.512  1.00  0.00     0.012 A 
ATOM     28  C   UNL A   1      28.823  31.908  22.731  1.00  0.00     0.065 A 
ENDBRANCH  23  24
ENDBRANCH  20  23
ENDBRANCH  11  19
ENDBRANCH   3   6
ENDBRANCH   1   2
BRANCH   1  29
ATOM     29  C   UNL A   1      31.893  28.857  26.115  1.00  0.00     0.042 C 
BRANCH  29  30
ATOM     30  C   UNL A   1      33.133  29.693  25.803  1.00  0.00     0.118 C 
BRANCH  30  31
ATOM     31  N   UNL A   1      32.945  31.088  26.182  1.00  0.00    -0.352 N 
ATOM     32  C   UNL A   1      33.506  31.817  27.198  1.00  0.00     0.251 C 
ATOM     33  H   UNL A   1      32.313  31.587  25.617  1.00  0.00     0.163 HD
ATOM     34  O   UNL A   1      33.005  32.889  27.522  1.00  0.00    -0.269 OA
BRANCH  32  35
ATOM     35  C   UNL A   1      34.710  31.329  27.904  1.00  0.00     0.039 A 
ATOM     36  C   UNL A   1      35.813  32.181  28.027  1.00  0.00     0.014 A 
ATOM     37  C   UNL A   1      34.783  30.020  28.385  1.00  0.00     0.014 A 
ATOM     38  C   UNL A   1      36.968  31.735  28.674  1.00  0.00     0.010 A 
ATOM     39  C   UNL A   1      35.903  29.602  29.096  1.00  0.00     0.010 A 
ATOM     40  C   UNL A   1      37.010  30.451  29.239  1.00  0.00    -0.014 A 
BRANCH  40  41
ATOM     41  C   UNL A   1      38.207  29.970  29.974  1.00  0.00     0.031 A 
ATOM     42  C   UNL A   1      38.493  30.477  31.360  1.00  0.00     0.074 A 
ATOM     43  C   UNL A   1      39.070  29.135  29.364  1.00  0.00     0.049 A 
ATOM     44  N   UNL A   1      39.534  30.259  32.125  1.00  0.00    -0.248 NA
ATOM     45  C   UNL A   1      37.492  31.376  31.955  1.00  0.00     0.031 C 
ATOM     46  C   UNL A   1      38.922  28.612  28.005  1.00  0.00     0.029 A 
ATOM     47  N   UNL A   1      40.253  28.594  29.801  1.00  0.00    -0.354 N 
ATOM     48  C   UNL A   1      39.320  31.006  33.276  1.00  0.00     0.074 A 
ATOM     49  C   UNL A   1      38.080  31.725  33.090  1.00  0.00     0.031 C 
ATOM     50  C   UNL A   1      39.961  27.810  27.727  1.00  0.00     0.029 A 
ATOM     51  C   UNL A   1      40.870  27.796  28.869  1.00  0.00     0.049 A 
ATOM     52  H   UNL A   1      40.623  28.761  30.698  1.00  0.00     0.167 HD
ATOM     53  C   UNL A   1      40.081  31.069  34.395  1.00  0.00     0.037 A 
ATOM     54  C   UNL A   1      42.042  27.137  28.928  1.00  0.00     0.037 A 
ATOM     55  C   UNL A   1      41.299  30.326  34.585  1.00  0.00     0.049 A 
ATOM     56  C   UNL A   1      42.867  27.222  30.183  1.00  0.00     0.074 A 
ATOM     57  C   UNL A   1      42.112  30.271  35.702  1.00  0.00     0.029 A 
ATOM     58  N   UNL A   1      41.878  29.505  33.627  1.00  0.00    -0.354 N 
ATOM     59  N   UNL A   1      42.623  27.882  31.290  1.00  0.00    -0.248 NA
ATOM     60  C   UNL A   1      44.125  26.464  30.201  1.00  0.00     0.031 C 
ATOM     61  C   UNL A   1      43.206  29.451  35.407  1.00  0.00     0.029 A 
ATOM     62  C   UNL A   1      43.049  28.954  34.123  1.00  0.00     0.049 A 
ATOM     63  H   UNL A   1      41.512  29.338  32.729  1.00  0.00     0.167 HD
ATOM     64  C   UNL A   1      43.680  27.597  32.143  1.00  0.00     0.074 A 
ATOM     65  C   UNL A   1      44.558  26.691  31.433  1.00  0.00     0.031 C 
ATOM     66  C   UNL A   1      43.903  28.044  33.404  1.00  0.00     0.037 A 
BRANCH  53  67
ATOM     67  C   UNL A   1      39.616  31.968  35.505  1.00  0.00     0.064 A 
ATOM     68  C   UNL A   1      40.057  33.297  35.608  1.00  0.00     0.173 A 
ATOM     69  C   UNL A   1      38.690  31.511  36.454  1.00  0.00     0.173 A 
ATOM     70  F   UNL A   1      40.950  33.782  34.733  1.00  0.00    -0.203 F 
ATOM     71  C   UNL A   1      39.611  34.122  36.637  1.00  0.00     0.198 A 
ATOM     72  C   UNL A   1      38.222  32.348  37.463  1.00  0.00     0.198 A 
ATOM     73  F   UNL A   1      38.230  30.251  36.398  1.00  0.00    -0.203 F 
ATOM     74  F   UNL A   1      40.084  35.371  36.745  1.00  0.00    -0.200 F 
ATOM     75  C   UNL A   1      38.689  33.650  37.559  1.00  0.00     0.200 A 
ATOM     76  F   UNL A   1      37.320  31.894  38.344  1.00  0.00    -0.200 F 
ATOM     77  F   UNL A   1      38.254  34.449  38.544  1.00  0.00    -0.200 F 
ENDBRANCH  53  67
BRANCH  54  78
ATOM     78  C   UNL A   1      42.494  26.320  27.770  1.00  0.00     0.064 A 
ATOM     79  C   UNL A   1      42.037  25.006  27.597  1.00  0.00     0.173 A 
ATOM     80  C   UNL A   1      43.389  26.830  26.819  1.00  0.00     0.173 A 
ATOM     81  F   UNL A   1      41.193  24.468  28.489  1.00  0.00    -0.203 F 
ATOM     82  C   UNL A   1      42.476  24.226  26.529  1.00  0.00     0.198 A 
ATOM     83  C   UNL A   1      43.805  26.059  25.735  1.00  0.00     0.198 A 
ATOM     84  F   UNL A   1      43.850  28.084  26.934  1.00  0.00    -0.203 F 
ATOM     85  F   UNL A   1      42.059  22.957  26.414  1.00  0.00    -0.200 F 
ATOM     86  C   UNL A   1      43.356  24.754  25.597  1.00  0.00     0.200 A 
ATOM     87  F   UNL A   1      44.641  26.579  24.827  1.00  0.00    -0.200 F 
ATOM     88  F   UNL A   1      43.774  24.005  24.567  1.00  0.00    -0.200 F 
ENDBRANCH  54  78
BRANCH  66  89
ATOM     89  C   UNL A   1      45.124  27.531  34.110  1.00  0.00     0.064 A 
ATOM     90  C   UNL A   1      46.347  28.215  34.058  1.00  0.00     0.173 A 
ATOM     91  C   UNL A   1      45.056  26.361  34.881  1.00  0.00     0.173 A 
ATOM     92  F   UNL A   1      46.467  29.330  33.323  1.00  0.00    -0.203 F 
ATOM     93  C   UNL A   1      47.464  27.733  34.735  1.00  0.00     0.198 A 
ATOM     94  C   UNL A   1      46.166  25.898  35.581  1.00  0.00     0.198 A 
ATOM     95  F   UNL A   1      43.908  25.672  34.967  1.00  0.00    -0.203 F 
ATOM     96  F   UNL A   1      48.635  28.377  34.635  1.00  0.00    -0.200 F 
ATOM     97  C   UNL A   1      47.371  26.581  35.501  1.00  0.00     0.200 A 
ATOM     98  F   UNL A   1      46.070  24.792  36.332  1.00  0.00    -0.200 F 
ATOM     99  F   UNL A   1      48.446  26.123  36.159  1.00  0.00    -0.200 F 
ENDBRANCH  66  89
ENDBRANCH  40  41
ENDBRANCH  32  35
ENDBRANCH  30  31
ENDBRANCH  29  30
ENDBRANCH   1  29
TORSDOF 14
ENDMDL
MODEL 3
REMARK VINA RESULT:     -12.0      2.946      7.625
REMARK SMILES C[C@@H]1CCCN(c2ccc(NC(=O)Cc3cccs3)c(C(=O)NCCCNC(=O)c3ccc(-c4c5nc(c(-c6c(F)c(F)c(F)c(F)c6F)c6ccc([nH]6)c(-c6c(F)c(F)c(F)c(F)c6F)c6nc(c(-c7c(F)c(F)c(F)c(F)c7F)c7ccc4[nH]7)C=C6)C=C5)cc3)c2)C1
REMARK SMILES IDX 24 1 23 2 21 3 22 4 20 6 7 7 8 8 93 9 9 10 10 11 6 12 1 13
REMARK SMILES IDX 2 14 3 15 94 16 4 17 5 18 11 19 12 20 13 22 14 23 15 24
REMARK SMILES IDX 16 25 19 26 17 27 18 28 25 29 26 30 27 31 28 32 29 34 30 35
REMARK SMILES IDX 31 36 92 37 32 38 91 39 33 40 34 41 35 42 85 43 36 44 90 45
REMARK SMILES IDX 84 46 86 47 37 48 89 49 83 50 82 51 38 53 70 54 50 55 69 56
REMARK SMILES IDX 51 57 54 58 68 59 87 60 52 61 53 62 67 64 88 65 55 66 39 67
REMARK SMILES IDX 40 68 48 69 41 70 42 71 46 72 49 73 43 74 44 75 47 76 45 77
REMARK SMILES IDX 71 78 72 79 80 80 73 81 74 82 78 83 81 84 75 85 76 86 79 87
REMARK SMILES IDX 77 88 56 89 57 90 65 91 58 92 59 93 63 94 66 95 60 96 61 97
REMARK SMILES IDX 64 98 62 99
REMARK H PARENT 23 5 11 21 27 33 86 52 54 63
REMARK Flexibility Score: inf
ROOT
ATOM      1  C   UNL A   1      32.195  27.388  26.903  1.00  0.00     0.118 C 
ENDROOT
BRANCH   1   2
ATOM      2  N   UNL A   1      31.059  26.500  27.064  1.00  0.00    -0.352 N 
ATOM      3  C   UNL A   1      30.589  25.423  26.357  1.00  0.00     0.253 C 
ATOM      4  O   UNL A   1      29.611  24.852  26.845  1.00  0.00    -0.269 OA
ATOM      5  H   UNL A   1      30.507  26.716  27.850  1.00  0.00     0.163 HD
BRANCH   3   6
ATOM      6  C   UNL A   1      31.213  24.888  25.102  1.00  0.00     0.065 A 
ATOM      7  C   UNL A   1      33.075  23.776  23.965  1.00  0.00     0.038 A 
ATOM      8  C   UNL A   1      32.332  23.764  22.791  1.00  0.00     0.028 A 
ATOM      9  C   UNL A   1      32.514  24.367  25.098  1.00  0.00     0.042 A 
ATOM     10  C   UNL A   1      31.071  24.362  22.736  1.00  0.00     0.029 A 
ATOM     11  C   UNL A   1      30.523  24.980  23.864  1.00  0.00     0.054 A 
BRANCH   7  12
ATOM     12  N   UNL A   1      34.316  23.183  24.014  1.00  0.00    -0.371 N 
ATOM     13  C   UNL A   1      37.306  24.095  26.175  1.00  0.00     0.009 C 
ATOM     14  C   UNL A   1      36.007  23.400  25.775  1.00  0.00     0.005 C 
ATOM     15  C   UNL A   1      36.215  21.878  25.697  1.00  0.00     0.007 C 
ATOM     16  C   UNL A   1      35.479  23.952  24.440  1.00  0.00     0.119 C 
ATOM     17  C   UNL A   1      34.932  21.172  25.258  1.00  0.00     0.022 C 
ATOM     18  C   UNL A   1      34.424  21.732  23.933  1.00  0.00     0.116 C 
ENDBRANCH   7  12
BRANCH  11  19
ATOM     19  N   UNL A   1      29.332  25.736  23.794  1.00  0.00    -0.325 N 
ATOM     20  C   UNL A   1      29.065  27.045  23.514  1.00  0.00     0.229 C 
ATOM     21  H   UNL A   1      28.525  25.208  23.989  1.00  0.00     0.169 HD
ATOM     22  O   UNL A   1      27.879  27.400  23.566  1.00  0.00    -0.274 OA
BRANCH  20  23
ATOM     23  C   UNL A   1      30.127  28.068  23.164  1.00  0.00     0.147 C 
BRANCH  23  24
ATOM     24  C   UNL A   1      29.641  29.494  23.082  1.00  0.00     0.014 A 
ATOM     25  C   UNL A   1      29.642  30.527  24.005  1.00  0.00     0.016 A 
ATOM     26  S   UNL A   1      28.979  30.031  21.583  1.00  0.00    -0.148 S 
ATOM     27  C   UNL A   1      29.172  31.759  23.462  1.00  0.00     0.012 A 
ATOM     28  C   UNL A   1      28.757  31.621  22.161  1.00  0.00     0.065 A 
ENDBRANCH  23  24
ENDBRANCH  20  23
ENDBRANCH  11  19
ENDBRANCH   3   6
ENDBRANCH   1   2
BRANCH   1  29
ATOM     29  C   UNL A   1      31.767  28.699  26.242  1.00  0.00     0.042 C 
BRANCH  29  30
ATOM     30  C   UNL A   1      32.956  29.567  25.831  1.00  0.00     0.118 C 
BRANCH  30  31
ATOM     31  N   UNL A   1      32.704  30.978  26.098  1.00  0.00    -0.352 N 
ATOM     32  C   UNL A   1      33.227  31.809  27.054  1.00  0.00     0.251 C 
ATOM     33  H   UNL A   1      32.053  31.402  25.493  1.00  0.00     0.163 HD
ATOM     34  O   UNL A   1      32.676  32.880  27.291  1.00  0.00    -0.269 OA
BRANCH  32  35
ATOM     35  C   UNL A   1      34.447  31.433  27.798  1.00  0.00     0.039 A 
ATOM     36  C   UNL A   1      35.342  32.437  28.181  1.00  0.00     0.014 A 
ATOM     37  C   UNL A   1      34.747  30.094  28.062  1.00  0.00     0.014 A 
ATOM     38  C   UNL A   1      36.511  32.103  28.869  1.00  0.00     0.010 A 
ATOM     39  C   UNL A   1      35.871  29.769  28.814  1.00  0.00     0.010 A 
ATOM     40  C   UNL A   1      36.770  30.768  29.216  1.00  0.00    -0.014 A 
BRANCH  40  41
ATOM     41  C   UNL A   1      37.979  30.392  29.989  1.00  0.00     0.031 A 
ATOM     42  C   UNL A   1      38.981  29.436  29.403  1.00  0.00     0.074 A 
ATOM     43  C   UNL A   1      38.135  30.852  31.246  1.00  0.00     0.049 A 
ATOM     44  N   UNL A   1      40.044  28.906  29.955  1.00  0.00    -0.248 NA
ATOM     45  C   UNL A   1      38.740  28.992  28.021  1.00  0.00     0.031 C 
ATOM     46  C   UNL A   1      37.207  31.747  31.938  1.00  0.00     0.029 A 
ATOM     47  N   UNL A   1      39.121  30.617  32.170  1.00  0.00    -0.354 N 
ATOM     48  C   UNL A   1      40.582  28.055  28.998  1.00  0.00     0.074 A 
ATOM     49  C   UNL A   1      39.702  28.097  27.851  1.00  0.00     0.031 C 
ATOM     50  C   UNL A   1      37.677  32.003  33.169  1.00  0.00     0.029 A 
ATOM     51  C   UNL A   1      38.915  31.256  33.368  1.00  0.00     0.049 A 
ATOM     52  H   UNL A   1      39.902  30.046  31.991  1.00  0.00     0.167 HD
ATOM     53  C   UNL A   1      41.719  27.322  29.064  1.00  0.00     0.037 A 
ATOM     54  C   UNL A   1      39.640  31.233  34.502  1.00  0.00     0.037 A 
ATOM     55  C   UNL A   1      42.605  27.309  30.197  1.00  0.00     0.049 A 
ATOM     56  C   UNL A   1      40.900  30.412  34.548  1.00  0.00     0.074 A 
ATOM     57  C   UNL A   1      43.812  26.650  30.343  1.00  0.00     0.029 A 
ATOM     58  N   UNL A   1      42.377  27.992  31.384  1.00  0.00    -0.354 N 
ATOM     59  N   UNL A   1      41.432  29.660  33.615  1.00  0.00    -0.248 NA
ATOM     60  C   UNL A   1      41.664  30.441  35.803  1.00  0.00     0.031 C 
ATOM     61  C   UNL A   1      44.294  26.898  31.632  1.00  0.00     0.029 A 
ATOM     62  C   UNL A   1      43.413  27.754  32.273  1.00  0.00     0.049 A 
ATOM     63  H   UNL A   1      41.595  28.562  31.567  1.00  0.00     0.167 HD
ATOM     64  C   UNL A   1      42.604  29.153  34.157  1.00  0.00     0.074 A 
ATOM     65  C   UNL A   1      42.714  29.694  35.495  1.00  0.00     0.031 C 
ATOM     66  C   UNL A   1      43.510  28.313  33.596  1.00  0.00     0.037 A 
BRANCH  53  67
ATOM     67  C   UNL A   1      42.072  26.475  27.874  1.00  0.00     0.064 A 
ATOM     68  C   UNL A   1      41.505  25.207  27.680  1.00  0.00     0.173 A 
ATOM     69  C   UNL A   1      42.959  26.952  26.897  1.00  0.00     0.173 A 
ATOM     70  F   UNL A   1      40.659  24.698  28.589  1.00  0.00    -0.203 F 
ATOM     71  C   UNL A   1      41.835  24.436  26.568  1.00  0.00     0.198 A 
ATOM     72  C   UNL A   1      43.263  26.192  25.771  1.00  0.00     0.198 A 
ATOM     73  F   UNL A   1      43.526  28.161  27.030  1.00  0.00    -0.203 F 
ATOM     74  F   UNL A   1      41.319  23.207  26.429  1.00  0.00    -0.200 F 
ATOM     75  C   UNL A   1      42.707  24.932  25.611  1.00  0.00     0.200 A 
ATOM     76  F   UNL A   1      44.095  26.679  24.840  1.00  0.00    -0.200 F 
ATOM     77  F   UNL A   1      43.018  24.192  24.537  1.00  0.00    -0.200 F 
ENDBRANCH  53  67
BRANCH  54  78
ATOM     78  C   UNL A   1      39.204  32.030  35.679  1.00  0.00     0.064 A 
ATOM     79  C   UNL A   1      38.348  31.477  36.643  1.00  0.00     0.173 A 
ATOM     80  C   UNL A   1      39.628  33.353  35.865  1.00  0.00     0.173 A 
ATOM     81  F   UNL A   1      37.902  30.221  36.501  1.00  0.00    -0.203 F 
ATOM     82  C   UNL A   1      37.915  32.227  37.736  1.00  0.00     0.198 A 
ATOM     83  C   UNL A   1      39.217  34.092  36.973  1.00  0.00     0.198 A 
ATOM     84  F   UNL A   1      40.453  33.926  34.977  1.00  0.00    -0.203 F 
ATOM     85  F   UNL A   1      37.060  31.689  38.617  1.00  0.00    -0.200 F 
ATOM     86  C   UNL A   1      38.354  33.531  37.902  1.00  0.00     0.200 A 
ATOM     87  F   UNL A   1      39.657  35.346  37.141  1.00  0.00    -0.200 F 
ATOM     88  F   UNL A   1      37.941  34.250  38.955  1.00  0.00    -0.200 F 
ENDBRANCH  54  78
BRANCH  66  89
ATOM     89  C   UNL A   1      44.718  27.960  34.415  1.00  0.00     0.064 A 
ATOM     90  C   UNL A   1      44.744  26.825  35.237  1.00  0.00     0.173 A 
ATOM     91  C   UNL A   1      45.877  28.746  34.340  1.00  0.00     0.173 A 
ATOM     92  F   UNL A   1      43.656  26.049  35.354  1.00  0.00    -0.203 F 
ATOM     93  C   UNL A   1      45.880  26.503  35.974  1.00  0.00     0.198 A 
ATOM     94  C   UNL A   1      47.022  28.404  35.054  1.00  0.00     0.198 A 
ATOM     95  F   UNL A   1      45.905  29.839  33.563  1.00  0.00    -0.203 F 
ATOM     96  F   UNL A   1      45.869  25.440  36.790  1.00  0.00    -0.200 F 
ATOM     97  C   UNL A   1      47.020  27.288  35.876  1.00  0.00     0.200 A 
ATOM     98  F   UNL A   1      48.126  29.156  34.947  1.00  0.00    -0.200 F 
ATOM     99  F   UNL A   1      48.116  26.971  36.580  1.00  0.00    -0.200 F 
ENDBRANCH  66  89
ENDBRANCH  40  41
ENDBRANCH  32  35
ENDBRANCH  30  31
ENDBRANCH  29  30
ENDBRANCH   1  29
TORSDOF 14
ENDMDL
