MODEL 1
REMARK VINA RESULT:     -12.0      0.000      0.000
REMARK SMILES COc1ccc2c(c1)C=C(C(=O)NCCCNC(=O)c1ccc(-c3c4nc(c(-c5c(F)c(F)c(F)c(F)c5F)c5ccc([nH]5)c(-c5c(F)c(F)c(F)c(F)c5F)c5nc(c(-c6c(F)c(F)c(F)c(F)c6F)c6ccc3[nH]6)C=C5)C=C4)cc1)[C@H](C(F)(F)F)O2
REMARK SMILES IDX 15 1 14 2 13 3 11 4 12 5 10 7 3 8 4 9 8 10 5 11 7 12 6 13
REMARK SMILES IDX 9 14 88 15 83 16 2 17 1 18 84 19 85 20 86 21 87 22 16 23
REMARK SMILES IDX 17 24 18 25 19 27 20 28 21 29 82 30 22 31 81 32 23 33 24 34
REMARK SMILES IDX 25 35 75 36 26 37 80 38 74 39 76 40 27 41 79 42 73 43 72 44
REMARK SMILES IDX 28 46 60 47 40 48 59 49 41 50 44 51 58 52 77 53 42 54 43 55
REMARK SMILES IDX 57 57 78 58 45 59 29 60 30 61 38 62 31 63 32 64 36 65 39 66
REMARK SMILES IDX 33 67 34 68 37 69 35 70 61 71 62 72 70 73 63 74 64 75 68 76
REMARK SMILES IDX 71 77 65 78 66 79 69 80 67 81 46 82 47 83 55 84 48 85 49 86
REMARK SMILES IDX 53 87 56 88 50 89 51 90 54 91 52 92
REMARK H PARENT 13 6 17 26 76 45 44 56
REMARK Flexibility Score: inf
ROOT
ATOM      1  C   UNL A   1      33.184  27.666  26.878  1.00  0.00     0.042 C 
ENDROOT
BRANCH   1   2
ATOM      2  C   UNL A   1      31.740  27.587  26.372  1.00  0.00     0.118 C 
BRANCH   2   3
ATOM      3  N   UNL A   1      31.123  26.332  26.777  1.00  0.00    -0.352 N 
ATOM      4  C   UNL A   1      31.345  25.038  26.429  1.00  0.00     0.251 C 
ATOM      5  O   UNL A   1      30.562  24.187  26.843  1.00  0.00    -0.270 OA
ATOM      6  H   UNL A   1      30.400  26.444  27.436  1.00  0.00     0.163 HD
BRANCH   4   7
ATOM      7  C   UNL A   1      32.524  24.606  25.635  1.00  0.00     0.067 C 
ATOM      8  C   UNL A   1      36.766  22.366  25.092  1.00  0.00     0.119 A 
ATOM      9  C   UNL A   1      36.697  22.552  23.712  1.00  0.00     0.050 A 
ATOM     10  C   UNL A   1      35.749  22.858  25.907  1.00  0.00     0.058 A 
ATOM     11  C   UNL A   1      35.613  23.240  23.156  1.00  0.00     0.051 A 
ATOM     12  C   UNL A   1      34.669  23.554  25.352  1.00  0.00     0.021 A 
ATOM     13  C   UNL A   1      34.601  23.739  23.976  1.00  0.00     0.128 A 
ATOM     14  C   UNL A   1      33.580  24.003  26.197  1.00  0.00     0.025 C 
ATOM     15  O   UNL A   1      33.546  24.336  23.355  1.00  0.00    -0.475 OA
ATOM     16  C   UNL A   1      32.547  25.024  24.167  1.00  0.00     0.314 C 
BRANCH   8  17
ATOM     17  O   UNL A   1      37.734  21.645  25.734  1.00  0.00    -0.497 OA
ATOM     18  C   UNL A   1      38.874  22.402  26.126  1.00  0.00     0.278 C 
ENDBRANCH   8  17
BRANCH  16  19
ATOM     19  C   UNL A   1      31.199  24.924  23.415  1.00  0.00     0.429 C 
ATOM     20  F   UNL A   1      30.352  25.930  23.722  1.00  0.00    -0.167 F 
ATOM     21  F   UNL A   1      31.385  25.003  22.069  1.00  0.00    -0.167 F 
ATOM     22  F   UNL A   1      30.565  23.753  23.653  1.00  0.00    -0.167 F 
ENDBRANCH  16  19
ENDBRANCH   4   7
ENDBRANCH   2   3
ENDBRANCH   1   2
BRANCH   1  23
ATOM     23  C   UNL A   1      34.039  28.671  26.112  1.00  0.00     0.118 C 
BRANCH  23  24
ATOM     24  N   UNL A   1      33.823  30.032  26.578  1.00  0.00    -0.352 N 
ATOM     25  C   UNL A   1      34.515  30.760  27.514  1.00  0.00     0.251 C 
ATOM     26  H   UNL A   1      33.066  30.502  26.159  1.00  0.00     0.163 HD
ATOM     27  O   UNL A   1      34.043  31.813  27.932  1.00  0.00    -0.269 OA
BRANCH  25  28
ATOM     28  C   UNL A   1      35.819  30.287  28.027  1.00  0.00     0.039 A 
ATOM     29  C   UNL A   1      35.872  29.714  29.303  1.00  0.00     0.014 A 
ATOM     30  C   UNL A   1      36.993  30.454  27.289  1.00  0.00     0.014 A 
ATOM     31  C   UNL A   1      37.092  29.272  29.819  1.00  0.00     0.010 A 
ATOM     32  C   UNL A   1      38.199  29.955  27.777  1.00  0.00     0.010 A 
ATOM     33  C   UNL A   1      38.262  29.369  29.051  1.00  0.00    -0.014 A 
BRANCH  33  34
ATOM     34  C   UNL A   1      39.569  28.885  29.564  1.00  0.00     0.031 A 
ATOM     35  C   UNL A   1      40.344  29.718  30.548  1.00  0.00     0.074 A 
ATOM     36  C   UNL A   1      40.091  27.737  29.092  1.00  0.00     0.049 A 
ATOM     37  N   UNL A   1      41.548  29.532  31.026  1.00  0.00    -0.248 NA
ATOM     38  C   UNL A   1      39.686  30.939  31.038  1.00  0.00     0.031 C 
ATOM     39  C   UNL A   1      39.450  26.858  28.113  1.00  0.00     0.029 A 
ATOM     40  N   UNL A   1      41.288  27.122  29.359  1.00  0.00    -0.354 N 
ATOM     41  C   UNL A   1      41.800  30.620  31.851  1.00  0.00     0.074 A 
ATOM     42  C   UNL A   1      40.642  31.484  31.776  1.00  0.00     0.031 C 
ATOM     43  C   UNL A   1      40.255  25.811  27.870  1.00  0.00     0.029 A 
ATOM     44  C   UNL A   1      41.484  25.967  28.642  1.00  0.00     0.049 A 
ATOM     45  H   UNL A   1      41.944  27.474  30.002  1.00  0.00     0.167 HD
ATOM     46  C   UNL A   1      42.890  30.866  32.616  1.00  0.00     0.037 A 
ATOM     47  C   UNL A   1      42.542  25.134  28.603  1.00  0.00     0.037 A 
ATOM     48  C   UNL A   1      44.027  29.988  32.711  1.00  0.00     0.049 A 
ATOM     49  C   UNL A   1      43.743  25.431  29.461  1.00  0.00     0.074 A 
ATOM     50  C   UNL A   1      45.156  30.118  33.500  1.00  0.00     0.029 A 
ATOM     51  N   UNL A   1      44.175  28.811  31.992  1.00  0.00    -0.354 N 
ATOM     52  N   UNL A   1      43.948  26.435  30.278  1.00  0.00    -0.248 NA
ATOM     53  C   UNL A   1      44.857  24.476  29.396  1.00  0.00     0.031 C 
ATOM     54  C   UNL A   1      46.007  29.042  33.227  1.00  0.00     0.029 A 
ATOM     55  C   UNL A   1      45.386  28.215  32.306  1.00  0.00     0.049 A 
ATOM     56  H   UNL A   1      43.518  28.452  31.352  1.00  0.00     0.167 HD
ATOM     57  C   UNL A   1      45.195  26.216  30.848  1.00  0.00     0.074 A 
ATOM     58  C   UNL A   1      45.698  24.979  30.289  1.00  0.00     0.031 C 
ATOM     59  C   UNL A   1      45.862  26.972  31.753  1.00  0.00     0.037 A 
BRANCH  46  60
ATOM     60  C   UNL A   1      42.907  32.139  33.414  1.00  0.00     0.064 A 
ATOM     61  C   UNL A   1      42.395  32.198  34.719  1.00  0.00     0.173 A 
ATOM     62  C   UNL A   1      43.475  33.305  32.880  1.00  0.00     0.173 A 
ATOM     63  F   UNL A   1      41.832  31.112  35.272  1.00  0.00    -0.203 F 
ATOM     64  C   UNL A   1      42.422  33.384  35.448  1.00  0.00     0.198 A 
ATOM     65  C   UNL A   1      43.528  34.483  33.623  1.00  0.00     0.198 A 
ATOM     66  F   UNL A   1      43.985  33.304  31.640  1.00  0.00    -0.203 F 
ATOM     67  F   UNL A   1      41.881  33.427  36.673  1.00  0.00    -0.200 F 
ATOM     68  C   UNL A   1      42.994  34.523  34.902  1.00  0.00     0.200 A 
ATOM     69  F   UNL A   1      44.093  35.579  33.100  1.00  0.00    -0.200 F 
ATOM     70  F   UNL A   1      43.025  35.662  35.607  1.00  0.00    -0.200 F 
ENDBRANCH  46  60
BRANCH  47  71
ATOM     71  C   UNL A   1      42.505  23.928  27.736  1.00  0.00     0.064 A 
ATOM     72  C   UNL A   1      42.169  22.674  28.264  1.00  0.00     0.173 A 
ATOM     73  C   UNL A   1      42.806  24.001  26.368  1.00  0.00     0.173 A 
ATOM     74  F   UNL A   1      41.894  22.551  29.570  1.00  0.00    -0.203 F 
ATOM     75  C   UNL A   1      42.152  21.536  27.461  1.00  0.00     0.198 A 
ATOM     76  C   UNL A   1      42.761  22.867  25.560  1.00  0.00     0.198 A 
ATOM     77  F   UNL A   1      43.129  25.179  25.813  1.00  0.00    -0.203 F 
ATOM     78  F   UNL A   1      41.869  20.342  28.000  1.00  0.00    -0.200 F 
ATOM     79  C   UNL A   1      42.443  21.633  26.109  1.00  0.00     0.200 A 
ATOM     80  F   UNL A   1      43.029  22.968  24.251  1.00  0.00    -0.200 F 
ATOM     81  F   UNL A   1      42.423  20.540  25.335  1.00  0.00    -0.200 F 
ENDBRANCH  47  71
BRANCH  59  82
ATOM     82  C   UNL A   1      47.189  26.461  32.234  1.00  0.00     0.064 A 
ATOM     83  C   UNL A   1      47.287  25.556  33.300  1.00  0.00     0.173 A 
ATOM     84  C   UNL A   1      48.372  26.845  31.586  1.00  0.00     0.173 A 
ATOM     85  F   UNL A   1      46.186  25.169  33.961  1.00  0.00    -0.203 F 
ATOM     86  C   UNL A   1      48.525  25.070  33.713  1.00  0.00     0.198 A 
ATOM     87  C   UNL A   1      49.604  26.336  31.982  1.00  0.00     0.198 A 
ATOM     88  F   UNL A   1      48.330  27.705  30.556  1.00  0.00    -0.203 F 
ATOM     89  F   UNL A   1      48.600  24.238  34.760  1.00  0.00    -0.200 F 
ATOM     90  C   UNL A   1      49.680  25.453  33.048  1.00  0.00     0.200 A 
ATOM     91  F   UNL A   1      50.718  26.698  31.331  1.00  0.00    -0.200 F 
ATOM     92  F   UNL A   1      50.870  24.977  33.441  1.00  0.00    -0.200 F 
ENDBRANCH  59  82
ENDBRANCH  33  34
ENDBRANCH  25  28
ENDBRANCH  23  24
ENDBRANCH   1  23
TORSDOF 12
ENDMDL
MODEL 2
REMARK VINA RESULT:     -12.0      2.346      7.728
REMARK SMILES COc1ccc2c(c1)C=C(C(=O)NCCCNC(=O)c1ccc(-c3c4nc(c(-c5c(F)c(F)c(F)c(F)c5F)c5ccc([nH]5)c(-c5c(F)c(F)c(F)c(F)c5F)c5nc(c(-c6c(F)c(F)c(F)c(F)c6F)c6ccc3[nH]6)C=C5)C=C4)cc1)[C@H](C(F)(F)F)O2
REMARK SMILES IDX 15 1 14 2 13 3 11 4 12 5 10 7 3 8 4 9 8 10 5 11 7 12 6 13
REMARK SMILES IDX 9 14 88 15 83 16 2 17 1 18 84 19 85 20 86 21 87 22 16 23
REMARK SMILES IDX 17 24 18 25 19 27 20 28 21 29 82 30 22 31 81 32 23 33 24 34
REMARK SMILES IDX 25 35 75 36 26 37 80 38 74 39 76 40 27 41 79 42 73 43 72 44
REMARK SMILES IDX 28 46 60 47 40 48 59 49 41 50 44 51 58 52 77 53 42 54 43 55
REMARK SMILES IDX 57 57 78 58 45 59 29 60 30 61 38 62 31 63 32 64 36 65 39 66
REMARK SMILES IDX 33 67 34 68 37 69 35 70 61 71 62 72 70 73 63 74 64 75 68 76
REMARK SMILES IDX 71 77 65 78 66 79 69 80 67 81 46 82 47 83 55 84 48 85 49 86
REMARK SMILES IDX 53 87 56 88 50 89 51 90 54 91 52 92
REMARK H PARENT 13 6 17 26 76 45 44 56
REMARK Flexibility Score: inf
ROOT
ATOM      1  C   UNL A   1      33.015  28.796  23.974  1.00  0.00     0.042 C 
ENDROOT
BRANCH   1   2
ATOM      2  C   UNL A   1      31.630  28.142  23.976  1.00  0.00     0.118 C 
BRANCH   2   3
ATOM      3  N   UNL A   1      31.346  27.547  25.274  1.00  0.00    -0.352 N 
ATOM      4  C   UNL A   1      31.679  26.356  25.838  1.00  0.00     0.251 C 
ATOM      5  O   UNL A   1      31.174  26.069  26.920  1.00  0.00    -0.270 OA
ATOM      6  H   UNL A   1      30.806  28.123  25.861  1.00  0.00     0.163 HD
BRANCH   4   7
ATOM      7  C   UNL A   1      32.672  25.428  25.237  1.00  0.00     0.067 C 
ATOM      8  C   UNL A   1      36.944  23.182  25.116  1.00  0.00     0.119 A 
ATOM      9  C   UNL A   1      36.497  22.372  24.072  1.00  0.00     0.050 A 
ATOM     10  C   UNL A   1      36.100  24.159  25.642  1.00  0.00     0.058 A 
ATOM     11  C   UNL A   1      35.211  22.553  23.553  1.00  0.00     0.051 A 
ATOM     12  C   UNL A   1      34.817  24.345  25.117  1.00  0.00     0.021 A 
ATOM     13  C   UNL A   1      34.373  23.538  24.076  1.00  0.00     0.128 A 
ATOM     14  C   UNL A   1      33.919  25.316  25.713  1.00  0.00     0.025 C 
ATOM     15  O   UNL A   1      33.112  23.605  23.565  1.00  0.00    -0.475 OA
ATOM     16  C   UNL A   1      32.254  24.721  23.951  1.00  0.00     0.314 C 
BRANCH   8  17
ATOM     17  O   UNL A   1      38.147  23.044  25.750  1.00  0.00    -0.497 OA
ATOM     18  C   UNL A   1      38.555  24.183  26.500  1.00  0.00     0.278 C 
ENDBRANCH   8  17
BRANCH  16  19
ATOM     19  C   UNL A   1      30.794  24.211  23.905  1.00  0.00     0.429 C 
ATOM     20  F   UNL A   1      29.911  25.180  23.579  1.00  0.00    -0.167 F 
ATOM     21  F   UNL A   1      30.644  23.248  22.955  1.00  0.00    -0.167 F 
ATOM     22  F   UNL A   1      30.403  23.664  25.079  1.00  0.00    -0.167 F 
ENDBRANCH  16  19
ENDBRANCH   4   7
ENDBRANCH   2   3
ENDBRANCH   1   2
BRANCH   1  23
ATOM     23  C   UNL A   1      33.511  29.167  25.368  1.00  0.00     0.118 C 
BRANCH  23  24
ATOM     24  N   UNL A   1      32.972  30.444  25.812  1.00  0.00    -0.352 N 
ATOM     25  C   UNL A   1      33.323  31.218  26.889  1.00  0.00     0.251 C 
ATOM     26  H   UNL A   1      32.248  30.808  25.254  1.00  0.00     0.163 HD
ATOM     27  O   UNL A   1      32.602  32.153  27.224  1.00  0.00    -0.269 OA
BRANCH  25  28
ATOM     28  C   UNL A   1      34.557  30.935  27.655  1.00  0.00     0.039 A 
ATOM     29  C   UNL A   1      35.510  31.949  27.794  1.00  0.00     0.014 A 
ATOM     30  C   UNL A   1      34.805  29.667  28.186  1.00  0.00     0.014 A 
ATOM     31  C   UNL A   1      36.691  31.706  28.499  1.00  0.00     0.010 A 
ATOM     32  C   UNL A   1      35.953  29.443  28.944  1.00  0.00     0.010 A 
ATOM     33  C   UNL A   1      36.912  30.457  29.099  1.00  0.00    -0.014 A 
BRANCH  33  34
ATOM     34  C   UNL A   1      38.147  30.177  29.875  1.00  0.00     0.031 A 
ATOM     35  C   UNL A   1      39.195  29.256  29.313  1.00  0.00     0.074 A 
ATOM     36  C   UNL A   1      38.292  30.691  31.111  1.00  0.00     0.049 A 
ATOM     37  N   UNL A   1      40.282  28.794  29.876  1.00  0.00    -0.248 NA
ATOM     38  C   UNL A   1      38.974  28.767  27.943  1.00  0.00     0.031 C 
ATOM     39  C   UNL A   1      37.332  31.571  31.777  1.00  0.00     0.029 A 
ATOM     40  N   UNL A   1      39.294  30.532  32.034  1.00  0.00    -0.354 N 
ATOM     41  C   UNL A   1      40.860  27.944  28.941  1.00  0.00     0.074 A 
ATOM     42  C   UNL A   1      39.982  27.921  27.791  1.00  0.00     0.031 C 
ATOM     43  C   UNL A   1      37.796  31.883  32.998  1.00  0.00     0.029 A 
ATOM     44  C   UNL A   1      39.064  31.194  33.216  1.00  0.00     0.049 A 
ATOM     45  H   UNL A   1      40.102  29.994  31.867  1.00  0.00     0.167 HD
ATOM     46  C   UNL A   1      42.027  27.263  29.028  1.00  0.00     0.037 A 
ATOM     47  C   UNL A   1      39.788  31.229  34.351  1.00  0.00     0.037 A 
ATOM     48  C   UNL A   1      42.912  27.314  30.161  1.00  0.00     0.049 A 
ATOM     49  C   UNL A   1      41.080  30.459  34.422  1.00  0.00     0.074 A 
ATOM     50  C   UNL A   1      44.144  26.704  30.324  1.00  0.00     0.029 A 
ATOM     51  N   UNL A   1      42.658  28.020  31.328  1.00  0.00    -0.354 N 
ATOM     52  N   UNL A   1      41.644  29.703  33.512  1.00  0.00    -0.248 NA
ATOM     53  C   UNL A   1      41.840  30.554  35.677  1.00  0.00     0.031 C 
ATOM     54  C   UNL A   1      44.616  27.007  31.606  1.00  0.00     0.029 A 
ATOM     55  C   UNL A   1      43.703  27.846  32.222  1.00  0.00     0.049 A 
ATOM     56  H   UNL A   1      41.855  28.564  31.496  1.00  0.00     0.167 HD
ATOM     57  C   UNL A   1      42.836  29.259  34.069  1.00  0.00     0.074 A 
ATOM     58  C   UNL A   1      42.919  29.838  35.394  1.00  0.00     0.031 C 
ATOM     59  C   UNL A   1      43.777  28.446  33.531  1.00  0.00     0.037 A 
BRANCH  46  60
ATOM     60  C   UNL A   1      42.416  26.399  27.861  1.00  0.00     0.064 A 
ATOM     61  C   UNL A   1      43.297  26.854  26.869  1.00  0.00     0.173 A 
ATOM     62  C   UNL A   1      41.929  25.088  27.753  1.00  0.00     0.173 A 
ATOM     63  F   UNL A   1      43.784  28.103  26.919  1.00  0.00    -0.203 F 
ATOM     64  C   UNL A   1      43.651  26.040  25.796  1.00  0.00     0.198 A 
ATOM     65  C   UNL A   1      42.309  24.266  26.695  1.00  0.00     0.198 A 
ATOM     66  F   UNL A   1      41.088  24.599  28.678  1.00  0.00    -0.203 F 
ATOM     67  F   UNL A   1      44.454  26.515  24.834  1.00  0.00    -0.200 F 
ATOM     68  C   UNL A   1      43.162  24.745  25.714  1.00  0.00     0.200 A 
ATOM     69  F   UNL A   1      41.847  23.010  26.624  1.00  0.00    -0.200 F 
ATOM     70  F   UNL A   1      43.510  23.961  24.684  1.00  0.00    -0.200 F 
ENDBRANCH  46  60
BRANCH  47  71
ATOM     71  C   UNL A   1      39.319  32.037  35.505  1.00  0.00     0.064 A 
ATOM     72  C   UNL A   1      39.708  33.376  35.650  1.00  0.00     0.173 A 
ATOM     73  C   UNL A   1      38.477  31.493  36.486  1.00  0.00     0.173 A 
ATOM     74  F   UNL A   1      40.529  33.934  34.749  1.00  0.00    -0.203 F 
ATOM     75  C   UNL A   1      39.288  34.134  36.741  1.00  0.00     0.198 A 
ATOM     76  C   UNL A   1      38.034  32.261  37.562  1.00  0.00     0.198 A 
ATOM     77  F   UNL A   1      38.071  30.218  36.391  1.00  0.00    -0.203 F 
ATOM     78  F   UNL A   1      39.710  35.399  36.877  1.00  0.00    -0.200 F 
ATOM     79  C   UNL A   1      38.447  33.578  37.692  1.00  0.00     0.200 A 
ATOM     80  F   UNL A   1      37.210  31.724  38.471  1.00  0.00    -0.200 F 
ATOM     81  F   UNL A   1      38.040  34.308  38.739  1.00  0.00    -0.200 F 
ENDBRANCH  47  71
BRANCH  59  82
ATOM     82  C   UNL A   1      45.002  28.171  34.352  1.00  0.00     0.064 A 
ATOM     83  C   UNL A   1      46.121  29.014  34.312  1.00  0.00     0.173 A 
ATOM     84  C   UNL A   1      45.034  27.075  35.228  1.00  0.00     0.173 A 
ATOM     85  F   UNL A   1      46.145  30.066  33.480  1.00  0.00    -0.203 F 
ATOM     86  C   UNL A   1      47.237  28.758  35.104  1.00  0.00     0.198 A 
ATOM     87  C   UNL A   1      46.139  26.838  36.039  1.00  0.00     0.198 A 
ATOM     88  F   UNL A   1      43.986  26.242  35.307  1.00  0.00    -0.203 F 
ATOM     89  F   UNL A   1      48.313  29.553  35.019  1.00  0.00    -0.200 F 
ATOM     90  C   UNL A   1      47.242  27.677  35.973  1.00  0.00     0.200 A 
ATOM     91  F   UNL A   1      46.137  25.800  36.887  1.00  0.00    -0.200 F 
ATOM     92  F   UNL A   1      48.313  27.437  36.741  1.00  0.00    -0.200 F 
ENDBRANCH  59  82
ENDBRANCH  33  34
ENDBRANCH  25  28
ENDBRANCH  23  24
ENDBRANCH   1  23
TORSDOF 12
ENDMDL
MODEL 3
REMARK VINA RESULT:     -11.9      2.404      7.593
REMARK SMILES COc1ccc2c(c1)C=C(C(=O)NCCCNC(=O)c1ccc(-c3c4nc(c(-c5c(F)c(F)c(F)c(F)c5F)c5ccc([nH]5)c(-c5c(F)c(F)c(F)c(F)c5F)c5nc(c(-c6c(F)c(F)c(F)c(F)c6F)c6ccc3[nH]6)C=C5)C=C4)cc1)[C@H](C(F)(F)F)O2
REMARK SMILES IDX 15 1 14 2 13 3 11 4 12 5 10 7 3 8 4 9 8 10 5 11 7 12 6 13
REMARK SMILES IDX 9 14 88 15 83 16 2 17 1 18 84 19 85 20 86 21 87 22 16 23
REMARK SMILES IDX 17 24 18 25 19 27 20 28 21 29 82 30 22 31 81 32 23 33 24 34
REMARK SMILES IDX 25 35 75 36 26 37 80 38 74 39 76 40 27 41 79 42 73 43 72 44
REMARK SMILES IDX 28 46 60 47 40 48 59 49 41 50 44 51 58 52 77 53 42 54 43 55
REMARK SMILES IDX 57 57 78 58 45 59 29 60 30 61 38 62 31 63 32 64 36 65 39 66
REMARK SMILES IDX 33 67 34 68 37 69 35 70 61 71 62 72 70 73 63 74 64 75 68 76
REMARK SMILES IDX 71 77 65 78 66 79 69 80 67 81 46 82 47 83 55 84 48 85 49 86
REMARK SMILES IDX 53 87 56 88 50 89 51 90 54 91 52 92
REMARK H PARENT 13 6 17 26 76 45 44 56
REMARK Flexibility Score: inf
ROOT
ATOM      1  C   UNL A   1      33.137  28.749  23.920  1.00  0.00     0.042 C 
ENDROOT
BRANCH   1   2
ATOM      2  C   UNL A   1      31.916  27.829  23.804  1.00  0.00     0.118 C 
BRANCH   2   3
ATOM      3  N   UNL A   1      31.560  27.285  25.107  1.00  0.00    -0.352 N 
ATOM      4  C   UNL A   1      31.871  26.123  25.739  1.00  0.00     0.251 C 
ATOM      5  O   UNL A   1      31.303  25.874  26.800  1.00  0.00    -0.270 OA
ATOM      6  H   UNL A   1      30.979  27.877  25.635  1.00  0.00     0.163 HD
BRANCH   4   7
ATOM      7  C   UNL A   1      32.909  25.184  25.240  1.00  0.00     0.067 C 
ATOM      8  C   UNL A   1      37.257  23.092  25.397  1.00  0.00     0.119 A 
ATOM      9  C   UNL A   1      36.863  22.182  24.416  1.00  0.00     0.050 A 
ATOM     10  C   UNL A   1      36.368  24.078  25.821  1.00  0.00     0.058 A 
ATOM     11  C   UNL A   1      35.584  22.272  23.857  1.00  0.00     0.051 A 
ATOM     12  C   UNL A   1      35.092  24.173  25.256  1.00  0.00     0.021 A 
ATOM     13  C   UNL A   1      34.700  23.266  24.278  1.00  0.00     0.128 A 
ATOM     14  C   UNL A   1      34.148  25.157  25.749  1.00  0.00     0.025 C 
ATOM     15  O   UNL A   1      33.451  23.245  23.736  1.00  0.00    -0.475 OA
ATOM     16  C   UNL A   1      32.546  24.357  24.009  1.00  0.00     0.314 C 
BRANCH   8  17
ATOM     17  O   UNL A   1      38.449  23.050  26.065  1.00  0.00    -0.497 OA
ATOM     18  C   UNL A   1      39.050  21.762  26.126  1.00  0.00     0.278 C 
ENDBRANCH   8  17
BRANCH  16  19
ATOM     19  C   UNL A   1      31.106  23.793  23.976  1.00  0.00     0.429 C 
ATOM     20  F   UNL A   1      30.186  24.723  23.639  1.00  0.00    -0.167 F 
ATOM     21  F   UNL A   1      30.989  22.811  23.041  1.00  0.00    -0.167 F 
ATOM     22  F   UNL A   1      30.740  23.250  25.160  1.00  0.00    -0.167 F 
ENDBRANCH  16  19
ENDBRANCH   4   7
ENDBRANCH   2   3
ENDBRANCH   1   2
BRANCH   1  23
ATOM     23  C   UNL A   1      33.519  29.068  25.362  1.00  0.00     0.118 C 
BRANCH  23  24
ATOM     24  N   UNL A   1      32.975  30.347  25.795  1.00  0.00    -0.352 N 
ATOM     25  C   UNL A   1      33.311  31.123  26.875  1.00  0.00     0.251 C 
ATOM     26  H   UNL A   1      32.257  30.709  25.227  1.00  0.00     0.163 HD
ATOM     27  O   UNL A   1      32.586  32.059  27.198  1.00  0.00    -0.269 OA
BRANCH  25  28
ATOM     28  C   UNL A   1      34.535  30.842  27.658  1.00  0.00     0.039 A 
ATOM     29  C   UNL A   1      35.500  31.847  27.781  1.00  0.00     0.014 A 
ATOM     30  C   UNL A   1      34.763  29.583  28.220  1.00  0.00     0.014 A 
ATOM     31  C   UNL A   1      36.672  31.604  28.502  1.00  0.00     0.010 A 
ATOM     32  C   UNL A   1      35.902  29.362  28.992  1.00  0.00     0.010 A 
ATOM     33  C   UNL A   1      36.872  30.367  29.132  1.00  0.00    -0.014 A 
BRANCH  33  34
ATOM     34  C   UNL A   1      38.097  30.089  29.925  1.00  0.00     0.031 A 
ATOM     35  C   UNL A   1      39.157  29.175  29.373  1.00  0.00     0.074 A 
ATOM     36  C   UNL A   1      38.221  30.598  31.165  1.00  0.00     0.049 A 
ATOM     37  N   UNL A   1      40.238  28.716  29.950  1.00  0.00    -0.248 NA
ATOM     38  C   UNL A   1      38.958  28.692  27.998  1.00  0.00     0.031 C 
ATOM     39  C   UNL A   1      37.247  31.471  31.821  1.00  0.00     0.029 A 
ATOM     40  N   UNL A   1      39.211  30.439  32.102  1.00  0.00    -0.354 N 
ATOM     41  C   UNL A   1      40.834  27.873  29.020  1.00  0.00     0.074 A 
ATOM     42  C   UNL A   1      39.972  27.851  27.857  1.00  0.00     0.031 C 
ATOM     43  C   UNL A   1      37.693  31.779  33.050  1.00  0.00     0.029 A 
ATOM     44  C   UNL A   1      38.961  31.094  33.283  1.00  0.00     0.049 A 
ATOM     45  H   UNL A   1      40.023  29.906  31.944  1.00  0.00     0.167 HD
ATOM     46  C   UNL A   1      42.002  27.197  29.120  1.00  0.00     0.037 A 
ATOM     47  C   UNL A   1      39.668  31.127  34.428  1.00  0.00     0.037 A 
ATOM     48  C   UNL A   1      42.870  27.246  30.267  1.00  0.00     0.049 A 
ATOM     49  C   UNL A   1      40.962  30.363  34.515  1.00  0.00     0.074 A 
ATOM     50  C   UNL A   1      44.103  26.642  30.445  1.00  0.00     0.029 A 
ATOM     51  N   UNL A   1      42.596  27.946  31.433  1.00  0.00    -0.354 N 
ATOM     52  N   UNL A   1      41.543  29.614  33.610  1.00  0.00    -0.248 NA
ATOM     53  C   UNL A   1      41.703  30.456  35.781  1.00  0.00     0.031 C 
ATOM     54  C   UNL A   1      44.554  26.941  31.735  1.00  0.00     0.029 A 
ATOM     55  C   UNL A   1      43.628  27.773  32.341  1.00  0.00     0.049 A 
ATOM     56  H   UNL A   1      41.788  28.486  31.592  1.00  0.00     0.167 HD
ATOM     57  C   UNL A   1      42.729  29.173  34.182  1.00  0.00     0.074 A 
ATOM     58  C   UNL A   1      42.789  29.746  35.510  1.00  0.00     0.031 C 
ATOM     59  C   UNL A   1      43.681  28.367  33.653  1.00  0.00     0.037 A 
BRANCH  46  60
ATOM     60  C   UNL A   1      42.412  26.340  27.956  1.00  0.00     0.064 A 
ATOM     61  C   UNL A   1      41.954  25.022  27.813  1.00  0.00     0.173 A 
ATOM     62  C   UNL A   1      43.244  26.856  26.951  1.00  0.00     0.173 A 
ATOM     63  F   UNL A   1      41.164  24.477  28.751  1.00  0.00    -0.203 F 
ATOM     64  C   UNL A   1      42.338  24.242  26.726  1.00  0.00     0.198 A 
ATOM     65  C   UNL A   1      43.603  26.084  25.849  1.00  0.00     0.198 A 
ATOM     66  F   UNL A   1      43.706  28.113  27.033  1.00  0.00    -0.203 F 
ATOM     67  F   UNL A   1      41.928  22.969  26.639  1.00  0.00    -0.200 F 
ATOM     68  C   UNL A   1      43.156  24.775  25.742  1.00  0.00     0.200 A 
ATOM     69  F   UNL A   1      44.382  26.604  24.891  1.00  0.00    -0.200 F 
ATOM     70  F   UNL A   1      43.520  24.026  24.692  1.00  0.00    -0.200 F 
ENDBRANCH  46  60
BRANCH  47  71
ATOM     71  C   UNL A   1      39.178  31.929  35.579  1.00  0.00     0.064 A 
ATOM     72  C   UNL A   1      38.342  31.358  36.549  1.00  0.00     0.173 A 
ATOM     73  C   UNL A   1      39.532  33.277  35.736  1.00  0.00     0.173 A 
ATOM     74  F   UNL A   1      37.960  30.078  36.431  1.00  0.00    -0.203 F 
ATOM     75  C   UNL A   1      37.863  32.109  37.620  1.00  0.00     0.198 A 
ATOM     76  C   UNL A   1      39.075  34.019  36.823  1.00  0.00     0.198 A 
ATOM     77  F   UNL A   1      40.335  33.869  34.840  1.00  0.00    -0.203 F 
ATOM     78  F   UNL A   1      37.029  31.549  38.508  1.00  0.00    -0.200 F 
ATOM     79  C   UNL A   1      38.234  33.437  37.760  1.00  0.00     0.200 A 
ATOM     80  F   UNL A   1      39.449  35.298  36.963  1.00  0.00    -0.200 F 
ATOM     81  F   UNL A   1      37.777  34.158  38.792  1.00  0.00    -0.200 F 
ENDBRANCH  47  71
BRANCH  59  82
ATOM     82  C   UNL A   1      44.896  28.094  34.491  1.00  0.00     0.064 A 
ATOM     83  C   UNL A   1      46.010  28.943  34.472  1.00  0.00     0.173 A 
ATOM     84  C   UNL A   1      44.921  26.993  35.361  1.00  0.00     0.173 A 
ATOM     85  F   UNL A   1      46.040  30.000  33.647  1.00  0.00    -0.203 F 
ATOM     86  C   UNL A   1      47.116  28.688  35.280  1.00  0.00     0.198 A 
ATOM     87  C   UNL A   1      46.015  26.757  36.187  1.00  0.00     0.198 A 
ATOM     88  F   UNL A   1      43.875  26.154  35.420  1.00  0.00    -0.203 F 
ATOM     89  F   UNL A   1      48.188  29.489  35.216  1.00  0.00    -0.200 F 
ATOM     90  C   UNL A   1      47.114  27.602  36.142  1.00  0.00     0.200 A 
ATOM     91  F   UNL A   1      46.006  25.715  37.029  1.00  0.00    -0.200 F 
ATOM     92  F   UNL A   1      48.175  27.363  36.925  1.00  0.00    -0.200 F 
ENDBRANCH  59  82
ENDBRANCH  33  34
ENDBRANCH  25  28
ENDBRANCH  23  24
ENDBRANCH   1  23
TORSDOF 12
ENDMDL
