MODEL 1
REMARK VINA RESULT:     -13.2      0.000      0.000
REMARK SMILES C[C@@H](NC(=O)N1CC[N@@H+]2CCCC[C@H]2C1)C(=O)NCCCNC(=O)c1ccc(-c2c3nc(c(-c4c(F)c(F)c(F)c(F)c4F)c4ccc([nH]4)c(-c4c(F)c(F)c(F)c(F)c4F)c4nc(c(-c5c(F)c(F)c(F)c(F)c5F)c5ccc2[nH]5)C=C4)C=C3)cc1
REMARK SMILES IDX 20 1 19 2 18 3 16 4 17 5 2 7 1 8 3 9 4 10 5 12 6 13 7 14
REMARK SMILES IDX 15 15 8 16 14 17 9 18 13 19 10 20 12 22 11 23 21 24 22 25
REMARK SMILES IDX 23 26 24 28 25 29 26 30 87 31 27 32 86 33 28 34 29 35 30 36
REMARK SMILES IDX 80 37 31 38 85 39 79 40 81 41 32 42 84 43 78 44 77 45 33 47
REMARK SMILES IDX 65 48 45 49 64 50 46 51 49 52 63 53 82 54 47 55 48 56 62 58
REMARK SMILES IDX 83 59 50 60 34 61 35 62 43 63 36 64 37 65 41 66 44 67 38 68
REMARK SMILES IDX 39 69 42 70 40 71 66 72 67 73 75 74 68 75 69 76 73 77 76 78
REMARK SMILES IDX 70 79 71 80 74 81 72 82 51 83 52 84 60 85 53 86 54 87 58 88
REMARK SMILES IDX 61 89 55 90 56 91 59 92 57 93
REMARK H PARENT 18 6 3 11 9 21 22 27 81 46 49 57
REMARK Flexibility Score: inf
ROOT
ATOM      1  C   UNL A   1      31.384  30.718  25.887  1.00  0.00     0.042 C 
ENDROOT
BRANCH   1   2
ATOM      2  C   UNL A   1      31.735  29.609  24.904  1.00  0.00     0.117 C 
BRANCH   2   3
ATOM      3  N   UNL A   1      30.984  29.715  23.667  1.00  0.00    -0.354 N 
ATOM      4  C   UNL A   1      30.654  28.739  22.776  1.00  0.00     0.242 C 
ATOM      5  O   UNL A   1      30.087  29.093  21.736  1.00  0.00    -0.273 OA
ATOM      6  H   UNL A   1      30.669  30.620  23.440  1.00  0.00     0.163 HD
BRANCH   4   7
ATOM      7  C   UNL A   1      31.120  27.279  22.941  1.00  0.00     0.170 C 
ATOM      8  C   UNL A   1      29.877  26.471  23.335  1.00  0.00     0.041 C 
BRANCH   7   9
ATOM      9  N   UNL A   1      31.767  26.659  21.788  1.00  0.00    -0.326 N 
ATOM     10  C   UNL A   1      32.541  25.564  21.637  1.00  0.00     0.318 C 
ATOM     11  H   UNL A   1      31.603  27.140  20.945  1.00  0.00     0.166 HD
ATOM     12  O   UNL A   1      32.985  25.369  20.503  1.00  0.00    -0.249 OA
BRANCH  10  13
ATOM     13  N   UNL A   1      32.966  24.853  22.716  1.00  0.00    -0.313 N 
ATOM     14  C   UNL A   1      33.994  25.244  23.680  1.00  0.00     0.183 C 
ATOM     15  C   UNL A   1      32.129  23.757  23.201  1.00  0.00     0.186 C 
ATOM     16  C   UNL A   1      34.833  24.039  24.166  1.00  0.00     0.284 C 
ATOM     17  C   UNL A   1      33.022  22.532  23.485  1.00  0.00     0.203 C 
ATOM     18  N   UNL A   1      34.066  22.814  24.501  1.00  0.00    -0.330 N 
ATOM     19  C   UNL A   1      32.183  21.330  23.929  1.00  0.00     0.067 C 
ATOM     20  C   UNL A   1      34.985  21.667  24.615  1.00  0.00     0.262 C 
ATOM     21  H   UNL A   1      33.598  22.966  25.394  1.00  0.00     0.348 HD
ATOM     22  C   UNL A   1      33.072  20.097  24.061  1.00  0.00     0.012 C 
ATOM     23  C   UNL A   1      34.255  20.371  24.981  1.00  0.00     0.062 C 
ENDBRANCH  10  13
ENDBRANCH   7   9
ENDBRANCH   4   7
ENDBRANCH   2   3
ENDBRANCH   1   2
BRANCH   1  24
ATOM     24  C   UNL A   1      32.494  31.019  26.888  1.00  0.00     0.118 C 
BRANCH  24  25
ATOM     25  N   UNL A   1      32.612  32.430  27.220  1.00  0.00    -0.352 N 
ATOM     26  C   UNL A   1      33.655  33.094  27.822  1.00  0.00     0.251 C 
ATOM     27  H   UNL A   1      31.837  32.987  26.981  1.00  0.00     0.163 HD
ATOM     28  O   UNL A   1      33.547  34.292  28.077  1.00  0.00    -0.269 OA
BRANCH  26  29
ATOM     29  C   UNL A   1      34.881  32.366  28.224  1.00  0.00     0.039 A 
ATOM     30  C   UNL A   1      36.085  33.076  28.234  1.00  0.00     0.014 A 
ATOM     31  C   UNL A   1      34.858  31.028  28.626  1.00  0.00     0.014 A 
ATOM     32  C   UNL A   1      37.234  32.481  28.750  1.00  0.00     0.010 A 
ATOM     33  C   UNL A   1      35.987  30.453  29.202  1.00  0.00     0.010 A 
ATOM     34  C   UNL A   1      37.176  31.188  29.294  1.00  0.00    -0.014 A 
BRANCH  34  35
ATOM     35  C   UNL A   1      38.325  30.655  30.060  1.00  0.00     0.031 A 
ATOM     36  C   UNL A   1      38.560  31.050  31.485  1.00  0.00     0.074 A 
ATOM     37  C   UNL A   1      39.186  29.837  29.423  1.00  0.00     0.049 A 
ATOM     38  N   UNL A   1      39.465  30.609  32.321  1.00  0.00    -0.248 NA
ATOM     39  C   UNL A   1      37.686  32.093  32.038  1.00  0.00     0.031 C 
ATOM     40  C   UNL A   1      39.105  29.468  28.007  1.00  0.00     0.029 A 
ATOM     41  N   UNL A   1      40.289  29.162  29.878  1.00  0.00    -0.354 N 
ATOM     42  C   UNL A   1      39.262  31.310  33.501  1.00  0.00     0.074 A 
ATOM     43  C   UNL A   1      38.190  32.251  33.254  1.00  0.00     0.031 C 
ATOM     44  C   UNL A   1      40.087  28.603  27.720  1.00  0.00     0.029 A 
ATOM     45  C   UNL A   1      40.875  28.367  28.925  1.00  0.00     0.049 A 
ATOM     46  H   UNL A   1      40.629  29.241  30.799  1.00  0.00     0.167 HD
ATOM     47  C   UNL A   1      39.898  31.158  34.688  1.00  0.00     0.037 A 
ATOM     48  C   UNL A   1      41.917  27.521  29.022  1.00  0.00     0.037 A 
ATOM     49  C   UNL A   1      40.965  30.218  34.914  1.00  0.00     0.049 A 
ATOM     50  C   UNL A   1      42.574  27.339  30.360  1.00  0.00     0.074 A 
ATOM     51  C   UNL A   1      41.644  29.943  36.088  1.00  0.00     0.029 A 
ATOM     52  N   UNL A   1      41.514  29.399  33.936  1.00  0.00    -0.354 N 
ATOM     53  N   UNL A   1      42.304  27.926  31.500  1.00  0.00    -0.248 NA
ATOM     54  C   UNL A   1      43.667  26.360  30.430  1.00  0.00     0.031 C 
ATOM     55  C   UNL A   1      42.631  28.989  35.811  1.00  0.00     0.029 A 
ATOM     56  C   UNL A   1      42.535  28.632  34.475  1.00  0.00     0.049 A 
ATOM     57  H   UNL A   1      41.221  29.368  32.996  1.00  0.00     0.167 HD
ATOM     58  C   UNL A   1      43.173  27.374  32.430  1.00  0.00     0.074 A 
ATOM     59  C   UNL A   1      43.963  26.386  31.722  1.00  0.00     0.031 C 
ATOM     60  C   UNL A   1      43.310  27.659  33.749  1.00  0.00     0.037 A 
BRANCH  47  61
ATOM     61  C   UNL A   1      39.447  32.022  35.829  1.00  0.00     0.064 A 
ATOM     62  C   UNL A   1      38.415  31.617  36.691  1.00  0.00     0.173 A 
ATOM     63  C   UNL A   1      40.068  33.252  36.088  1.00  0.00     0.173 A 
ATOM     64  F   UNL A   1      37.779  30.453  36.482  1.00  0.00    -0.203 F 
ATOM     65  C   UNL A   1      38.003  32.423  37.749  1.00  0.00     0.198 A 
ATOM     66  C   UNL A   1      39.673  34.044  37.165  1.00  0.00     0.198 A 
ATOM     67  F   UNL A   1      41.062  33.687  35.299  1.00  0.00    -0.203 F 
ATOM     68  F   UNL A   1      36.983  32.035  38.527  1.00  0.00    -0.200 F 
ATOM     69  C   UNL A   1      38.637  33.633  37.989  1.00  0.00     0.200 A 
ATOM     70  F   UNL A   1      40.294  35.208  37.402  1.00  0.00    -0.200 F 
ATOM     71  F   UNL A   1      38.242  34.406  39.011  1.00  0.00    -0.200 F 
ENDBRANCH  47  61
BRANCH  48  72
ATOM     72  C   UNL A   1      42.348  26.737  27.836  1.00  0.00     0.064 A 
ATOM     73  C   UNL A   1      43.325  27.233  26.961  1.00  0.00     0.173 A 
ATOM     74  C   UNL A   1      41.808  25.473  27.561  1.00  0.00     0.173 A 
ATOM     75  F   UNL A   1      43.863  28.442  27.175  1.00  0.00    -0.203 F 
ATOM     76  C   UNL A   1      43.727  26.505  25.843  1.00  0.00     0.198 A 
ATOM     77  C   UNL A   1      42.230  24.734  26.458  1.00  0.00     0.198 A 
ATOM     78  F   UNL A   1      40.880  24.948  28.375  1.00  0.00    -0.203 F 
ATOM     79  F   UNL A   1      44.631  27.022  25.000  1.00  0.00    -0.200 F 
ATOM     80  C   UNL A   1      43.184  25.254  25.595  1.00  0.00     0.200 A 
ATOM     81  F   UNL A   1      41.715  23.518  26.232  1.00  0.00    -0.200 F 
ATOM     82  F   UNL A   1      43.575  24.552  24.524  1.00  0.00    -0.200 F 
ENDBRANCH  48  72
BRANCH  60  83
ATOM     83  C   UNL A   1      44.340  26.872  34.505  1.00  0.00     0.064 A 
ATOM     84  C   UNL A   1      45.659  27.327  34.639  1.00  0.00     0.173 A 
ATOM     85  C   UNL A   1      43.999  25.650  35.106  1.00  0.00     0.173 A 
ATOM     86  F   UNL A   1      46.037  28.480  34.067  1.00  0.00    -0.203 F 
ATOM     87  C   UNL A   1      46.612  26.568  35.315  1.00  0.00     0.198 A 
ATOM     88  C   UNL A   1      44.946  24.910  35.808  1.00  0.00     0.198 A 
ATOM     89  F   UNL A   1      42.748  25.176  35.012  1.00  0.00    -0.203 F 
ATOM     90  F   UNL A   1      47.882  26.992  35.377  1.00  0.00    -0.200 F 
ATOM     91  C   UNL A   1      46.253  25.364  35.902  1.00  0.00     0.200 A 
ATOM     92  F   UNL A   1      44.596  23.753  36.385  1.00  0.00    -0.200 F 
ATOM     93  F   UNL A   1      47.172  24.633  36.549  1.00  0.00    -0.200 F 
ENDBRANCH  60  83
ENDBRANCH  34  35
ENDBRANCH  26  29
ENDBRANCH  24  25
ENDBRANCH   1  24
TORSDOF 12
ENDMDL
MODEL 2
REMARK VINA RESULT:     -13.2      0.131      1.615
REMARK SMILES C[C@@H](NC(=O)N1CC[N@@H+]2CCCC[C@H]2C1)C(=O)NCCCNC(=O)c1ccc(-c2c3nc(c(-c4c(F)c(F)c(F)c(F)c4F)c4ccc([nH]4)c(-c4c(F)c(F)c(F)c(F)c4F)c4nc(c(-c5c(F)c(F)c(F)c(F)c5F)c5ccc2[nH]5)C=C4)C=C3)cc1
REMARK SMILES IDX 20 1 19 2 18 3 16 4 17 5 2 7 1 8 3 9 4 10 5 12 6 13 7 14
REMARK SMILES IDX 15 15 8 16 14 17 9 18 13 19 10 20 12 22 11 23 21 24 22 25
REMARK SMILES IDX 23 26 24 28 25 29 26 30 87 31 27 32 86 33 28 34 29 35 30 36
REMARK SMILES IDX 80 37 31 38 85 39 79 40 81 41 32 42 84 43 78 44 77 45 33 47
REMARK SMILES IDX 65 48 45 49 64 50 46 51 49 52 63 53 82 54 47 55 48 56 62 58
REMARK SMILES IDX 83 59 50 60 34 61 35 62 43 63 36 64 37 65 41 66 44 67 38 68
REMARK SMILES IDX 39 69 42 70 40 71 66 72 67 73 75 74 68 75 69 76 73 77 76 78
REMARK SMILES IDX 70 79 71 80 74 81 72 82 51 83 52 84 60 85 53 86 54 87 58 88
REMARK SMILES IDX 61 89 55 90 56 91 59 92 57 93
REMARK H PARENT 18 6 3 11 9 21 22 27 81 46 49 57
REMARK Flexibility Score: inf
ROOT
ATOM      1  C   UNL A   1      31.352  30.823  25.896  1.00  0.00     0.042 C 
ENDROOT
BRANCH   1   2
ATOM      2  C   UNL A   1      31.630  29.635  24.984  1.00  0.00     0.117 C 
BRANCH   2   3
ATOM      3  N   UNL A   1      30.935  29.745  23.715  1.00  0.00    -0.354 N 
ATOM      4  C   UNL A   1      30.670  28.775  22.795  1.00  0.00     0.242 C 
ATOM      5  O   UNL A   1      30.145  29.134  21.734  1.00  0.00    -0.273 OA
ATOM      6  H   UNL A   1      30.612  30.646  23.486  1.00  0.00     0.163 HD
BRANCH   4   7
ATOM      7  C   UNL A   1      31.159  27.324  22.960  1.00  0.00     0.170 C 
ATOM      8  C   UNL A   1      29.933  26.498  23.369  1.00  0.00     0.041 C 
BRANCH   7   9
ATOM      9  N   UNL A   1      31.804  26.710  21.803  1.00  0.00    -0.326 N 
ATOM     10  C   UNL A   1      32.579  25.615  21.645  1.00  0.00     0.318 C 
ATOM     11  H   UNL A   1      31.639  27.194  20.963  1.00  0.00     0.166 HD
ATOM     12  O   UNL A   1      33.021  25.426  20.510  1.00  0.00    -0.249 OA
BRANCH  10  13
ATOM     13  N   UNL A   1      33.006  24.900  22.721  1.00  0.00    -0.313 N 
ATOM     14  C   UNL A   1      34.032  25.289  23.687  1.00  0.00     0.183 C 
ATOM     15  C   UNL A   1      32.173  23.797  23.197  1.00  0.00     0.186 C 
ATOM     16  C   UNL A   1      34.876  24.084  24.167  1.00  0.00     0.284 C 
ATOM     17  C   UNL A   1      33.072  22.574  23.474  1.00  0.00     0.203 C 
ATOM     18  N   UNL A   1      34.113  22.854  24.493  1.00  0.00    -0.330 N 
ATOM     19  C   UNL A   1      32.237  21.365  23.910  1.00  0.00     0.067 C 
ATOM     20  C   UNL A   1      35.037  21.711  24.601  1.00  0.00     0.262 C 
ATOM     21  H   UNL A   1      33.643  22.998  25.386  1.00  0.00     0.348 HD
ATOM     22  C   UNL A   1      33.132  20.136  24.034  1.00  0.00     0.012 C 
ATOM     23  C   UNL A   1      34.313  20.409  24.957  1.00  0.00     0.062 C 
ENDBRANCH  10  13
ENDBRANCH   7   9
ENDBRANCH   4   7
ENDBRANCH   2   3
ENDBRANCH   1   2
BRANCH   1  24
ATOM     24  C   UNL A   1      32.481  31.116  26.877  1.00  0.00     0.118 C 
BRANCH  24  25
ATOM     25  N   UNL A   1      32.593  32.522  27.234  1.00  0.00    -0.352 N 
ATOM     26  C   UNL A   1      33.633  33.181  27.845  1.00  0.00     0.251 C 
ATOM     27  H   UNL A   1      31.814  33.079  27.006  1.00  0.00     0.163 HD
ATOM     28  O   UNL A   1      33.519  34.373  28.122  1.00  0.00    -0.269 OA
BRANCH  26  29
ATOM     29  C   UNL A   1      34.864  32.452  28.231  1.00  0.00     0.039 A 
ATOM     30  C   UNL A   1      36.068  33.162  28.226  1.00  0.00     0.014 A 
ATOM     31  C   UNL A   1      34.846  31.113  28.632  1.00  0.00     0.014 A 
ATOM     32  C   UNL A   1      37.224  32.566  28.727  1.00  0.00     0.010 A 
ATOM     33  C   UNL A   1      35.983  30.539  29.194  1.00  0.00     0.010 A 
ATOM     34  C   UNL A   1      37.173  31.273  29.271  1.00  0.00    -0.014 A 
BRANCH  34  35
ATOM     35  C   UNL A   1      38.331  30.739  30.022  1.00  0.00     0.031 A 
ATOM     36  C   UNL A   1      38.591  31.142  31.440  1.00  0.00     0.074 A 
ATOM     37  C   UNL A   1      39.178  29.914  29.377  1.00  0.00     0.049 A 
ATOM     38  N   UNL A   1      39.507  30.701  32.265  1.00  0.00    -0.248 NA
ATOM     39  C   UNL A   1      37.730  32.192  32.001  1.00  0.00     0.031 C 
ATOM     40  C   UNL A   1      39.073  29.536  27.965  1.00  0.00     0.029 A 
ATOM     41  N   UNL A   1      40.285  29.236  29.818  1.00  0.00    -0.354 N 
ATOM     42  C   UNL A   1      39.325  31.411  33.444  1.00  0.00     0.074 A 
ATOM     43  C   UNL A   1      38.254  32.355  33.208  1.00  0.00     0.031 C 
ATOM     44  C   UNL A   1      40.046  28.664  27.667  1.00  0.00     0.029 A 
ATOM     45  C   UNL A   1      40.852  28.432  28.861  1.00  0.00     0.049 A 
ATOM     46  H   UNL A   1      40.640  29.319  30.733  1.00  0.00     0.167 HD
ATOM     47  C   UNL A   1      39.979  31.264  34.621  1.00  0.00     0.037 A 
ATOM     48  C   UNL A   1      41.892  27.582  28.947  1.00  0.00     0.037 A 
ATOM     49  C   UNL A   1      41.046  30.320  34.837  1.00  0.00     0.049 A 
ATOM     50  C   UNL A   1      42.570  27.406  30.276  1.00  0.00     0.074 A 
ATOM     51  C   UNL A   1      41.742  30.049  36.001  1.00  0.00     0.029 A 
ATOM     52  N   UNL A   1      41.575  29.493  33.855  1.00  0.00    -0.354 N 
ATOM     53  N   UNL A   1      42.320  28.001  31.416  1.00  0.00    -0.248 NA
ATOM     54  C   UNL A   1      43.659  26.422  30.334  1.00  0.00     0.031 C 
ATOM     55  C   UNL A   1      42.720  29.089  35.714  1.00  0.00     0.029 A 
ATOM     56  C   UNL A   1      42.601  28.724  34.382  1.00  0.00     0.049 A 
ATOM     57  H   UNL A   1      41.267  29.457  32.920  1.00  0.00     0.167 HD
ATOM     58  C   UNL A   1      43.201  27.450  32.336  1.00  0.00     0.074 A 
ATOM     59  C   UNL A   1      43.975  26.455  31.621  1.00  0.00     0.031 C 
ATOM     60  C   UNL A   1      43.360  27.743  33.650  1.00  0.00     0.037 A 
BRANCH  47  61
ATOM     61  C   UNL A   1      39.551  32.136  35.764  1.00  0.00     0.064 A 
ATOM     62  C   UNL A   1      40.130  33.397  35.981  1.00  0.00     0.173 A 
ATOM     63  C   UNL A   1      38.531  31.728  36.637  1.00  0.00     0.173 A 
ATOM     64  F   UNL A   1      41.118  33.832  35.183  1.00  0.00    -0.203 F 
ATOM     65  C   UNL A   1      39.726  34.201  37.044  1.00  0.00     0.198 A 
ATOM     66  C   UNL A   1      38.109  32.548  37.682  1.00  0.00     0.198 A 
ATOM     67  F   UNL A   1      37.939  30.535  36.474  1.00  0.00    -0.203 F 
ATOM     68  F   UNL A   1      40.329  35.379  37.257  1.00  0.00    -0.200 F 
ATOM     69  C   UNL A   1      38.712  33.779  37.889  1.00  0.00     0.200 A 
ATOM     70  F   UNL A   1      37.120  32.143  38.491  1.00  0.00    -0.200 F 
ATOM     71  F   UNL A   1      38.320  34.557  38.908  1.00  0.00    -0.200 F 
ENDBRANCH  47  61
BRANCH  48  72
ATOM     72  C   UNL A   1      42.301  26.789  27.759  1.00  0.00     0.064 A 
ATOM     73  C   UNL A   1      41.711  25.546  27.487  1.00  0.00     0.173 A 
ATOM     74  C   UNL A   1      43.273  27.260  26.866  1.00  0.00     0.173 A 
ATOM     75  F   UNL A   1      40.785  25.048  28.318  1.00  0.00    -0.203 F 
ATOM     76  C   UNL A   1      42.097  24.794  26.378  1.00  0.00     0.198 A 
ATOM     77  C   UNL A   1      43.638  26.519  25.744  1.00  0.00     0.198 A 
ATOM     78  F   UNL A   1      43.857  28.449  27.075  1.00  0.00    -0.203 F 
ATOM     79  F   UNL A   1      41.548  23.591  26.165  1.00  0.00    -0.200 F 
ATOM     80  C   UNL A   1      43.055  25.283  25.505  1.00  0.00     0.200 A 
ATOM     81  F   UNL A   1      44.553  27.004  24.893  1.00  0.00    -0.200 F 
ATOM     82  F   UNL A   1      43.421  24.563  24.437  1.00  0.00    -0.200 F 
ENDBRANCH  48  72
BRANCH  60  83
ATOM     83  C   UNL A   1      44.398  26.956  34.395  1.00  0.00     0.064 A 
ATOM     84  C   UNL A   1      45.722  27.405  34.505  1.00  0.00     0.173 A 
ATOM     85  C   UNL A   1      44.061  25.740  35.009  1.00  0.00     0.173 A 
ATOM     86  F   UNL A   1      46.096  28.553  33.920  1.00  0.00    -0.203 F 
ATOM     87  C   UNL A   1      46.682  26.646  35.170  1.00  0.00     0.198 A 
ATOM     88  C   UNL A   1      45.016  25.000  35.700  1.00  0.00     0.198 A 
ATOM     89  F   UNL A   1      42.807  25.270  34.938  1.00  0.00    -0.203 F 
ATOM     90  F   UNL A   1      47.954  27.064  35.209  1.00  0.00    -0.200 F 
ATOM     91  C   UNL A   1      46.327  25.448  35.771  1.00  0.00     0.200 A 
ATOM     92  F   UNL A   1      44.670  23.848  36.290  1.00  0.00    -0.200 F 
ATOM     93  F   UNL A   1      47.252  24.717  36.408  1.00  0.00    -0.200 F 
ENDBRANCH  60  83
ENDBRANCH  34  35
ENDBRANCH  26  29
ENDBRANCH  24  25
ENDBRANCH   1  24
TORSDOF 12
ENDMDL
MODEL 3
REMARK VINA RESULT:     -13.1      0.174      1.619
REMARK SMILES C[C@@H](NC(=O)N1CC[N@@H+]2CCCC[C@H]2C1)C(=O)NCCCNC(=O)c1ccc(-c2c3nc(c(-c4c(F)c(F)c(F)c(F)c4F)c4ccc([nH]4)c(-c4c(F)c(F)c(F)c(F)c4F)c4nc(c(-c5c(F)c(F)c(F)c(F)c5F)c5ccc2[nH]5)C=C4)C=C3)cc1
REMARK SMILES IDX 20 1 19 2 18 3 16 4 17 5 2 7 1 8 3 9 4 10 5 12 6 13 7 14
REMARK SMILES IDX 15 15 8 16 14 17 9 18 13 19 10 20 12 22 11 23 21 24 22 25
REMARK SMILES IDX 23 26 24 28 25 29 26 30 87 31 27 32 86 33 28 34 29 35 30 36
REMARK SMILES IDX 80 37 31 38 85 39 79 40 81 41 32 42 84 43 78 44 77 45 33 47
REMARK SMILES IDX 65 48 45 49 64 50 46 51 49 52 63 53 82 54 47 55 48 56 62 58
REMARK SMILES IDX 83 59 50 60 34 61 35 62 43 63 36 64 37 65 41 66 44 67 38 68
REMARK SMILES IDX 39 69 42 70 40 71 66 72 67 73 75 74 68 75 69 76 73 77 76 78
REMARK SMILES IDX 70 79 71 80 74 81 72 82 51 83 52 84 60 85 53 86 54 87 58 88
REMARK SMILES IDX 61 89 55 90 56 91 59 92 57 93
REMARK H PARENT 18 6 3 11 9 21 22 27 81 46 49 57
REMARK Flexibility Score: inf
ROOT
ATOM      1  C   UNL A   1      31.407  30.727  26.070  1.00  0.00     0.042 C 
ENDROOT
BRANCH   1   2
ATOM      2  C   UNL A   1      31.532  29.510  25.162  1.00  0.00     0.117 C 
BRANCH   2   3
ATOM      3  N   UNL A   1      30.984  29.753  23.841  1.00  0.00    -0.354 N 
ATOM      4  C   UNL A   1      30.747  28.867  22.834  1.00  0.00     0.242 C 
ATOM      5  O   UNL A   1      30.362  29.332  21.754  1.00  0.00    -0.273 OA
ATOM      6  H   UNL A   1      30.751  30.690  23.645  1.00  0.00     0.163 HD
BRANCH   4   7
ATOM      7  C   UNL A   1      31.112  27.375  22.944  1.00  0.00     0.170 C 
ATOM      8  C   UNL A   1      29.804  26.631  23.247  1.00  0.00     0.041 C 
BRANCH   7   9
ATOM      9  N   UNL A   1      31.767  26.769  21.789  1.00  0.00    -0.326 N 
ATOM     10  C   UNL A   1      32.551  25.681  21.631  1.00  0.00     0.318 C 
ATOM     11  H   UNL A   1      31.604  27.255  20.949  1.00  0.00     0.166 HD
ATOM     12  O   UNL A   1      33.000  25.498  20.498  1.00  0.00    -0.249 OA
BRANCH  10  13
ATOM     13  N   UNL A   1      32.978  24.965  22.707  1.00  0.00    -0.313 N 
ATOM     14  C   UNL A   1      34.026  25.339  23.655  1.00  0.00     0.183 C 
ATOM     15  C   UNL A   1      32.127  23.885  23.205  1.00  0.00     0.186 C 
ATOM     16  C   UNL A   1      34.849  24.120  24.134  1.00  0.00     0.284 C 
ATOM     17  C   UNL A   1      33.002  22.645  23.480  1.00  0.00     0.203 C 
ATOM     18  N   UNL A   1      34.064  22.910  24.481  1.00  0.00    -0.330 N 
ATOM     19  C   UNL A   1      32.147  21.459  23.938  1.00  0.00     0.067 C 
ATOM     20  C   UNL A   1      34.964  21.747  24.586  1.00  0.00     0.262 C 
ATOM     21  H   UNL A   1      33.611  23.072  25.380  1.00  0.00     0.348 HD
ATOM     22  C   UNL A   1      33.015  20.211  24.061  1.00  0.00     0.012 C 
ATOM     23  C   UNL A   1      34.216  20.465  24.965  1.00  0.00     0.062 C 
ENDBRANCH  10  13
ENDBRANCH   7   9
ENDBRANCH   4   7
ENDBRANCH   2   3
ENDBRANCH   1   2
BRANCH   1  24
ATOM     24  C   UNL A   1      32.687  31.054  26.830  1.00  0.00     0.118 C 
BRANCH  24  25
ATOM     25  N   UNL A   1      32.775  32.444  27.252  1.00  0.00    -0.352 N 
ATOM     26  C   UNL A   1      33.792  33.084  27.921  1.00  0.00     0.251 C 
ATOM     27  H   UNL A   1      31.998  33.004  27.027  1.00  0.00     0.163 HD
ATOM     28  O   UNL A   1      33.658  34.261  28.246  1.00  0.00    -0.269 OA
BRANCH  26  29
ATOM     29  C   UNL A   1      35.018  32.350  28.308  1.00  0.00     0.039 A 
ATOM     30  C   UNL A   1      36.221  33.062  28.335  1.00  0.00     0.014 A 
ATOM     31  C   UNL A   1      34.998  31.003  28.681  1.00  0.00     0.014 A 
ATOM     32  C   UNL A   1      37.371  32.458  28.839  1.00  0.00     0.010 A 
ATOM     33  C   UNL A   1      36.128  30.419  29.247  1.00  0.00     0.010 A 
ATOM     34  C   UNL A   1      37.315  31.153  29.356  1.00  0.00    -0.014 A 
BRANCH  34  35
ATOM     35  C   UNL A   1      38.464  30.606  30.112  1.00  0.00     0.031 A 
ATOM     36  C   UNL A   1      38.711  30.990  31.537  1.00  0.00     0.074 A 
ATOM     37  C   UNL A   1      39.314  29.785  29.465  1.00  0.00     0.049 A 
ATOM     38  N   UNL A   1      39.617  30.537  32.365  1.00  0.00    -0.248 NA
ATOM     39  C   UNL A   1      37.848  32.037  32.102  1.00  0.00     0.031 C 
ATOM     40  C   UNL A   1      39.221  29.426  28.047  1.00  0.00     0.029 A 
ATOM     41  N   UNL A   1      40.414  29.098  29.909  1.00  0.00    -0.354 N 
ATOM     42  C   UNL A   1      39.427  31.233  33.551  1.00  0.00     0.074 A 
ATOM     43  C   UNL A   1      38.362  32.184  33.316  1.00  0.00     0.031 C 
ATOM     44  C   UNL A   1      40.195  28.553  27.749  1.00  0.00     0.029 A 
ATOM     45  C   UNL A   1      40.988  28.303  28.948  1.00  0.00     0.049 A 
ATOM     46  H   UNL A   1      40.760  29.169  30.828  1.00  0.00     0.167 HD
ATOM     47  C   UNL A   1      40.068  31.069  34.733  1.00  0.00     0.037 A 
ATOM     48  C   UNL A   1      42.023  27.449  29.033  1.00  0.00     0.037 A 
ATOM     49  C   UNL A   1      41.129  30.118  34.947  1.00  0.00     0.049 A 
ATOM     50  C   UNL A   1      42.687  27.253  30.366  1.00  0.00     0.074 A 
ATOM     51  C   UNL A   1      41.813  29.831  36.115  1.00  0.00     0.029 A 
ATOM     52  N   UNL A   1      41.665  29.301  33.961  1.00  0.00    -0.354 N 
ATOM     53  N   UNL A   1      42.428  27.836  31.512  1.00  0.00    -0.248 NA
ATOM     54  C   UNL A   1      43.772  26.265  30.424  1.00  0.00     0.031 C 
ATOM     55  C   UNL A   1      42.791  28.870  35.826  1.00  0.00     0.029 A 
ATOM     56  C   UNL A   1      42.683  28.521  34.489  1.00  0.00     0.049 A 
ATOM     57  H   UNL A   1      41.366  29.278  33.023  1.00  0.00     0.167 HD
ATOM     58  C   UNL A   1      43.299  27.271  32.433  1.00  0.00     0.074 A 
ATOM     59  C   UNL A   1      44.076  26.281  31.714  1.00  0.00     0.031 C 
ATOM     60  C   UNL A   1      43.446  27.546  33.752  1.00  0.00     0.037 A 
BRANCH  47  61
ATOM     61  C   UNL A   1      39.632  31.929  35.882  1.00  0.00     0.064 A 
ATOM     62  C   UNL A   1      40.301  33.122  36.200  1.00  0.00     0.173 A 
ATOM     63  C   UNL A   1      38.517  31.579  36.659  1.00  0.00     0.173 A 
ATOM     64  F   UNL A   1      41.380  33.498  35.496  1.00  0.00    -0.203 F 
ATOM     65  C   UNL A   1      39.888  33.915  37.267  1.00  0.00     0.198 A 
ATOM     66  C   UNL A   1      38.090  32.390  37.708  1.00  0.00     0.198 A 
ATOM     67  F   UNL A   1      37.838  30.452  36.398  1.00  0.00    -0.203 F 
ATOM     68  F   UNL A   1      40.573  35.024  37.579  1.00  0.00    -0.200 F 
ATOM     69  C   UNL A   1      38.780  33.552  38.016  1.00  0.00     0.200 A 
ATOM     70  F   UNL A   1      37.012  32.043  38.425  1.00  0.00    -0.200 F 
ATOM     71  F   UNL A   1      38.381  34.320  39.041  1.00  0.00    -0.200 F 
ENDBRANCH  47  61
BRANCH  48  72
ATOM     72  C   UNL A   1      42.441  26.668  27.840  1.00  0.00     0.064 A 
ATOM     73  C   UNL A   1      43.418  27.161  26.964  1.00  0.00     0.173 A 
ATOM     74  C   UNL A   1      41.886  25.411  27.559  1.00  0.00     0.173 A 
ATOM     75  F   UNL A   1      43.969  28.363  27.183  1.00  0.00    -0.203 F 
ATOM     76  C   UNL A   1      43.807  26.436  25.839  1.00  0.00     0.198 A 
ATOM     77  C   UNL A   1      42.296  24.676  26.450  1.00  0.00     0.198 A 
ATOM     78  F   UNL A   1      40.957  24.890  28.374  1.00  0.00    -0.203 F 
ATOM     79  F   UNL A   1      44.713  26.949  24.995  1.00  0.00    -0.200 F 
ATOM     80  C   UNL A   1      43.250  25.192  25.585  1.00  0.00     0.200 A 
ATOM     81  F   UNL A   1      41.767  23.467  26.218  1.00  0.00    -0.200 F 
ATOM     82  F   UNL A   1      43.629  24.493  24.508  1.00  0.00    -0.200 F 
ENDBRANCH  48  72
BRANCH  60  83
ATOM     83  C   UNL A   1      44.473  26.747  34.498  1.00  0.00     0.064 A 
ATOM     84  C   UNL A   1      44.155  25.523  35.103  1.00  0.00     0.173 A 
ATOM     85  C   UNL A   1      45.794  27.210  34.603  1.00  0.00     0.173 A 
ATOM     86  F   UNL A   1      42.901  25.047  35.044  1.00  0.00    -0.203 F 
ATOM     87  C   UNL A   1      45.111  24.809  35.821  1.00  0.00     0.198 A 
ATOM     88  C   UNL A   1      46.755  26.479  35.294  1.00  0.00     0.198 A 
ATOM     89  F   UNL A   1      46.151  28.372  34.035  1.00  0.00    -0.203 F 
ATOM     90  F   UNL A   1      44.768  23.673  36.444  1.00  0.00    -0.200 F 
ATOM     91  C   UNL A   1      46.410  25.285  35.912  1.00  0.00     0.200 A 
ATOM     92  F   UNL A   1      48.013  26.933  35.372  1.00  0.00    -0.200 F 
ATOM     93  F   UNL A   1      47.329  24.599  36.606  1.00  0.00    -0.200 F 
ENDBRANCH  60  83
ENDBRANCH  34  35
ENDBRANCH  26  29
ENDBRANCH  24  25
ENDBRANCH   1  24
TORSDOF 12
ENDMDL
