MODEL 1
REMARK VINA RESULT:     -11.2      0.000      0.000
REMARK SMILES C[C@@H](Cc1cccs1)[NH2+][C@H](C)[C@@H](C)C(=O)NCCCNC(=O)c1ccc(-c2c3nc(c(-c4c(F)c(F)c(F)c(F)c4F)c4ccc([nH]4)c(-c4c(F)c(F)c(F)c(F)c4F)c4nc(c(-c5c(F)c(F)c(F)c(F)c5F)c5ccc2[nH]5)C=C4)C=C3)cc1
REMARK SMILES IDX 14 1 15 2 16 3 12 5 13 6 10 7 11 8 9 9 2 12 1 13 3 14 4 15
REMARK SMILES IDX 5 16 8 17 6 18 7 19 17 20 18 21 19 22 20 23 21 24 22 26
REMARK SMILES IDX 23 27 24 28 85 29 25 30 84 31 26 32 27 33 28 34 78 35 29 36
REMARK SMILES IDX 83 37 77 38 79 39 30 40 82 41 76 42 75 43 31 45 63 46 43 47
REMARK SMILES IDX 62 48 44 49 47 50 61 51 80 52 45 53 46 54 60 56 81 57 48 58
REMARK SMILES IDX 32 59 33 60 41 61 34 62 35 63 39 64 42 65 36 66 37 67 40 68
REMARK SMILES IDX 38 69 64 70 65 71 73 72 66 73 67 74 71 75 74 76 68 77 69 78
REMARK SMILES IDX 72 79 70 80 49 81 50 82 58 83 51 84 52 85 56 86 59 87 53 88
REMARK SMILES IDX 54 89 57 90 55 91
REMARK H PARENT 16 4 9 10 9 11 20 25 79 44 47 55
REMARK Flexibility Score: inf
ROOT
ATOM      1  C   UNL A   1      33.384  29.101  26.238  1.00  0.00     0.228 C 
ATOM      2  O   UNL A   1      34.554  28.936  26.599  1.00  0.00    -0.275 OA
ATOM      3  N   UNL A   1      32.745  30.189  26.740  1.00  0.00    -0.356 N 
ATOM      4  H   UNL A   1      33.276  30.694  27.397  1.00  0.00     0.163 HD
ENDROOT
BRANCH   1   5
ATOM      5  C   UNL A   1      32.743  28.131  25.247  1.00  0.00     0.133 C 
ATOM      6  C   UNL A   1      33.436  26.771  25.418  1.00  0.00     0.024 C 
BRANCH   5   7
ATOM      7  C   UNL A   1      32.642  28.674  23.794  1.00  0.00     0.191 C 
ATOM      8  C   UNL A   1      33.997  28.662  23.059  1.00  0.00     0.076 C 
BRANCH   7   9
ATOM      9  N   UNL A   1      31.674  28.084  22.850  1.00  0.00    -0.341 N 
ATOM     10  H   UNL A   1      31.976  28.360  21.917  1.00  0.00     0.346 HD
ATOM     11  H   UNL A   1      31.699  27.095  23.098  1.00  0.00     0.346 HD
BRANCH   9  12
ATOM     12  C   UNL A   1      30.243  28.394  22.932  1.00  0.00     0.184 C 
ATOM     13  C   UNL A   1      29.543  27.130  23.457  1.00  0.00     0.075 C 
BRANCH  12  14
ATOM     14  C   UNL A   1      29.846  29.626  23.794  1.00  0.00     0.111 C 
BRANCH  14  15
ATOM     15  C   UNL A   1      29.201  30.779  23.063  1.00  0.00     0.010 A 
ATOM     16  C   UNL A   1      28.983  32.060  23.537  1.00  0.00     0.015 A 
ATOM     17  S   UNL A   1      28.700  30.633  21.432  1.00  0.00    -0.149 S 
ATOM     18  C   UNL A   1      28.376  32.908  22.568  1.00  0.00     0.012 A 
ATOM     19  C   UNL A   1      28.157  32.252  21.379  1.00  0.00     0.065 A 
ENDBRANCH  14  15
ENDBRANCH  12  14
ENDBRANCH   9  12
ENDBRANCH   7   9
ENDBRANCH   5   7
ENDBRANCH   1   5
BRANCH   3  20
ATOM     20  C   UNL A   1      31.428  30.746  26.493  1.00  0.00     0.117 C 
BRANCH  20  21
ATOM     21  C   UNL A   1      31.396  32.267  26.605  1.00  0.00     0.042 C 
BRANCH  21  22
ATOM     22  C   UNL A   1      32.656  32.885  27.198  1.00  0.00     0.118 C 
BRANCH  22  23
ATOM     23  N   UNL A   1      32.456  34.256  27.648  1.00  0.00    -0.352 N 
ATOM     24  C   UNL A   1      33.033  34.960  28.675  1.00  0.00     0.251 C 
ATOM     25  H   UNL A   1      31.793  34.764  27.126  1.00  0.00     0.163 HD
ATOM     26  O   UNL A   1      32.558  36.043  29.004  1.00  0.00    -0.269 OA
BRANCH  24  27
ATOM     27  C   UNL A   1      34.205  34.426  29.400  1.00  0.00     0.039 A 
ATOM     28  C   UNL A   1      34.000  33.763  30.615  1.00  0.00     0.014 A 
ATOM     29  C   UNL A   1      35.504  34.611  28.922  1.00  0.00     0.014 A 
ATOM     30  C   UNL A   1      35.087  33.228  31.309  1.00  0.00     0.010 A 
ATOM     31  C   UNL A   1      36.577  34.004  29.568  1.00  0.00     0.010 A 
ATOM     32  C   UNL A   1      36.381  33.309  30.771  1.00  0.00    -0.014 A 
BRANCH  32  33
ATOM     33  C   UNL A   1      37.541  32.675  31.450  1.00  0.00     0.031 A 
ATOM     34  C   UNL A   1      38.249  31.511  30.811  1.00  0.00     0.074 A 
ATOM     35  C   UNL A   1      37.904  33.095  32.676  1.00  0.00     0.049 A 
ATOM     36  N   UNL A   1      39.220  30.771  31.284  1.00  0.00    -0.248 NA
ATOM     37  C   UNL A   1      37.785  31.105  29.475  1.00  0.00     0.031 C 
ATOM     38  C   UNL A   1      37.259  34.175  33.426  1.00  0.00     0.029 A 
ATOM     39  N   UNL A   1      38.894  32.654  33.519  1.00  0.00    -0.354 N 
ATOM     40  C   UNL A   1      39.464  29.803  30.318  1.00  0.00     0.074 A 
ATOM     41  C   UNL A   1      38.510  30.019  29.253  1.00  0.00     0.031 C 
ATOM     42  C   UNL A   1      37.878  34.323  34.608  1.00  0.00     0.029 A 
ATOM     43  C   UNL A   1      38.935  33.323  34.719  1.00  0.00     0.049 A 
ATOM     44  H   UNL A   1      39.514  31.926  33.287  1.00  0.00     0.167 HD
ATOM     45  C   UNL A   1      40.410  28.835  30.314  1.00  0.00     0.037 A 
ATOM     46  C   UNL A   1      39.728  33.142  35.792  1.00  0.00     0.037 A 
ATOM     47  C   UNL A   1      41.381  28.647  31.360  1.00  0.00     0.049 A 
ATOM     48  C   UNL A   1      40.782  32.068  35.754  1.00  0.00     0.074 A 
ATOM     49  C   UNL A   1      42.434  27.752  31.409  1.00  0.00     0.029 A 
ATOM     50  N   UNL A   1      41.415  29.369  32.544  1.00  0.00    -0.354 N 
ATOM     51  N   UNL A   1      41.057  31.214  34.798  1.00  0.00    -0.248 NA
ATOM     52  C   UNL A   1      41.641  31.939  36.939  1.00  0.00     0.031 C 
ATOM     53  C   UNL A   1      43.073  27.894  32.644  1.00  0.00     0.029 A 
ATOM     54  C   UNL A   1      42.455  28.918  33.342  1.00  0.00     0.049 A 
ATOM     55  H   UNL A   1      40.793  30.094  32.783  1.00  0.00     0.167 HD
ATOM     56  C   UNL A   1      42.136  30.467  35.254  1.00  0.00     0.074 A 
ATOM     57  C   UNL A   1      42.476  30.980  36.564  1.00  0.00     0.031 C 
ATOM     58  C   UNL A   1      42.785  29.446  34.642  1.00  0.00     0.037 A 
BRANCH  45  59
ATOM     59  C   UNL A   1      40.449  27.899  29.141  1.00  0.00     0.064 A 
ATOM     60  C   UNL A   1      39.674  26.730  29.103  1.00  0.00     0.173 A 
ATOM     61  C   UNL A   1      41.231  28.202  28.015  1.00  0.00     0.173 A 
ATOM     62  F   UNL A   1      38.916  26.387  30.155  1.00  0.00    -0.203 F 
ATOM     63  C   UNL A   1      39.701  25.886  27.994  1.00  0.00     0.198 A 
ATOM     64  C   UNL A   1      41.231  27.373  26.896  1.00  0.00     0.198 A 
ATOM     65  F   UNL A   1      41.986  29.310  27.995  1.00  0.00    -0.203 F 
ATOM     66  F   UNL A   1      38.987  24.752  28.000  1.00  0.00    -0.200 F 
ATOM     67  C   UNL A   1      40.473  26.213  26.889  1.00  0.00     0.200 A 
ATOM     68  F   UNL A   1      41.966  27.698  25.824  1.00  0.00    -0.200 F 
ATOM     69  F   UNL A   1      40.488  25.407  25.819  1.00  0.00    -0.200 F 
ENDBRANCH  45  59
BRANCH  46  70
ATOM     70  C   UNL A   1      39.565  34.006  36.991  1.00  0.00     0.064 A 
ATOM     71  C   UNL A   1      40.194  35.256  37.071  1.00  0.00     0.173 A 
ATOM     72  C   UNL A   1      38.787  33.598  38.085  1.00  0.00     0.173 A 
ATOM     73  F   UNL A   1      40.965  35.682  36.060  1.00  0.00    -0.203 F 
ATOM     74  C   UNL A   1      40.073  36.052  38.209  1.00  0.00     0.198 A 
ATOM     75  C   UNL A   1      38.641  34.408  39.209  1.00  0.00     0.198 A 
ATOM     76  F   UNL A   1      38.158  32.414  38.057  1.00  0.00    -0.203 F 
ATOM     77  F   UNL A   1      40.727  37.220  38.278  1.00  0.00    -0.200 F 
ATOM     78  C   UNL A   1      39.292  35.630  39.273  1.00  0.00     0.200 A 
ATOM     79  F   UNL A   1      37.873  34.004  40.229  1.00  0.00    -0.200 F 
ATOM     80  F   UNL A   1      39.174  36.398  40.365  1.00  0.00    -0.200 F 
ENDBRANCH  46  70
BRANCH  58  81
ATOM     81  C   UNL A   1      43.951  28.840  35.366  1.00  0.00     0.064 A 
ATOM     82  C   UNL A   1      45.262  29.294  35.163  1.00  0.00     0.173 A 
ATOM     83  C   UNL A   1      43.747  27.819  36.307  1.00  0.00     0.173 A 
ATOM     84  F   UNL A   1      45.511  30.258  34.263  1.00  0.00    -0.203 F 
ATOM     85  C   UNL A   1      46.330  28.730  35.856  1.00  0.00     0.198 A 
ATOM     86  C   UNL A   1      44.813  27.279  37.021  1.00  0.00     0.198 A 
ATOM     87  F   UNL A   1      42.512  27.353  36.544  1.00  0.00    -0.203 F 
ATOM     88  F   UNL A   1      47.580  29.145  35.610  1.00  0.00    -0.200 F 
ATOM     89  C   UNL A   1      46.104  27.729  36.790  1.00  0.00     0.200 A 
ATOM     90  F   UNL A   1      44.591  26.324  37.934  1.00  0.00    -0.200 F 
ATOM     91  F   UNL A   1      47.132  27.194  37.462  1.00  0.00    -0.200 F 
ENDBRANCH  58  81
ENDBRANCH  32  33
ENDBRANCH  24  27
ENDBRANCH  22  23
ENDBRANCH  21  22
ENDBRANCH  20  21
ENDBRANCH   3  20
TORSDOF 15
ENDMDL
MODEL 2
REMARK VINA RESULT:     -11.1      0.998      2.534
REMARK SMILES C[C@@H](Cc1cccs1)[NH2+][C@H](C)[C@@H](C)C(=O)NCCCNC(=O)c1ccc(-c2c3nc(c(-c4c(F)c(F)c(F)c(F)c4F)c4ccc([nH]4)c(-c4c(F)c(F)c(F)c(F)c4F)c4nc(c(-c5c(F)c(F)c(F)c(F)c5F)c5ccc2[nH]5)C=C4)C=C3)cc1
REMARK SMILES IDX 14 1 15 2 16 3 12 5 13 6 10 7 11 8 9 9 2 12 1 13 3 14 4 15
REMARK SMILES IDX 5 16 8 17 6 18 7 19 17 20 18 21 19 22 20 23 21 24 22 26
REMARK SMILES IDX 23 27 24 28 85 29 25 30 84 31 26 32 27 33 28 34 78 35 29 36
REMARK SMILES IDX 83 37 77 38 79 39 30 40 82 41 76 42 75 43 31 45 63 46 43 47
REMARK SMILES IDX 62 48 44 49 47 50 61 51 80 52 45 53 46 54 60 56 81 57 48 58
REMARK SMILES IDX 32 59 33 60 41 61 34 62 35 63 39 64 42 65 36 66 37 67 40 68
REMARK SMILES IDX 38 69 64 70 65 71 73 72 66 73 67 74 71 75 74 76 68 77 69 78
REMARK SMILES IDX 72 79 70 80 49 81 50 82 58 83 51 84 52 85 56 86 59 87 53 88
REMARK SMILES IDX 54 89 57 90 55 91
REMARK H PARENT 16 4 9 10 9 11 20 25 79 44 47 55
REMARK Flexibility Score: inf
ROOT
ATOM      1  C   UNL A   1      33.450  29.128  26.296  1.00  0.00     0.228 C 
ATOM      2  O   UNL A   1      34.570  28.955  26.790  1.00  0.00    -0.275 OA
ATOM      3  N   UNL A   1      32.794  30.256  26.666  1.00  0.00    -0.356 N 
ATOM      4  H   UNL A   1      33.265  30.786  27.349  1.00  0.00     0.163 HD
ENDROOT
BRANCH   1   5
ATOM      5  C   UNL A   1      32.892  28.119  25.294  1.00  0.00     0.133 C 
ATOM      6  C   UNL A   1      33.712  26.828  25.430  1.00  0.00     0.024 C 
BRANCH   5   7
ATOM      7  C   UNL A   1      32.721  28.675  23.852  1.00  0.00     0.191 C 
ATOM      8  C   UNL A   1      33.994  28.515  22.998  1.00  0.00     0.076 C 
BRANCH   7   9
ATOM      9  N   UNL A   1      31.612  28.201  23.003  1.00  0.00    -0.341 N 
ATOM     10  H   UNL A   1      31.733  28.647  22.095  1.00  0.00     0.346 HD
ATOM     11  H   UNL A   1      31.705  27.187  23.064  1.00  0.00     0.346 HD
BRANCH   9  12
ATOM     12  C   UNL A   1      30.213  28.413  23.387  1.00  0.00     0.184 C 
ATOM     13  C   UNL A   1      29.629  29.430  22.391  1.00  0.00     0.075 C 
BRANCH  12  14
ATOM     14  C   UNL A   1      29.310  27.149  23.457  1.00  0.00     0.111 C 
BRANCH  14  15
ATOM     15  C   UNL A   1      29.924  25.917  24.076  1.00  0.00     0.010 A 
ATOM     16  C   UNL A   1      30.499  24.843  23.421  1.00  0.00     0.015 A 
ATOM     17  S   UNL A   1      30.048  25.741  25.776  1.00  0.00    -0.149 S 
ATOM     18  C   UNL A   1      31.010  23.863  24.319  1.00  0.00     0.012 A 
ATOM     19  C   UNL A   1      30.820  24.223  25.632  1.00  0.00     0.065 A 
ENDBRANCH  14  15
ENDBRANCH  12  14
ENDBRANCH   9  12
ENDBRANCH   7   9
ENDBRANCH   5   7
ENDBRANCH   1   5
BRANCH   3  20
ATOM     20  C   UNL A   1      31.528  30.830  26.247  1.00  0.00     0.117 C 
BRANCH  20  21
ATOM     21  C   UNL A   1      31.383  32.297  26.636  1.00  0.00     0.042 C 
BRANCH  21  22
ATOM     22  C   UNL A   1      32.657  32.940  27.171  1.00  0.00     0.118 C 
BRANCH  22  23
ATOM     23  N   UNL A   1      32.447  34.300  27.650  1.00  0.00    -0.352 N 
ATOM     24  C   UNL A   1      33.021  34.987  28.689  1.00  0.00     0.251 C 
ATOM     25  H   UNL A   1      31.777  34.812  27.142  1.00  0.00     0.163 HD
ATOM     26  O   UNL A   1      32.539  36.060  29.042  1.00  0.00    -0.269 OA
BRANCH  24  27
ATOM     27  C   UNL A   1      34.201  34.449  29.399  1.00  0.00     0.039 A 
ATOM     28  C   UNL A   1      34.010  33.796  30.622  1.00  0.00     0.014 A 
ATOM     29  C   UNL A   1      35.493  34.620  28.899  1.00  0.00     0.014 A 
ATOM     30  C   UNL A   1      35.104  33.256  31.302  1.00  0.00     0.010 A 
ATOM     31  C   UNL A   1      36.572  34.008  29.532  1.00  0.00     0.010 A 
ATOM     32  C   UNL A   1      36.390  33.323  30.742  1.00  0.00    -0.014 A 
BRANCH  32  33
ATOM     33  C   UNL A   1      37.555  32.684  31.406  1.00  0.00     0.031 A 
ATOM     34  C   UNL A   1      38.266  31.533  30.748  1.00  0.00     0.074 A 
ATOM     35  C   UNL A   1      37.922  33.088  32.638  1.00  0.00     0.049 A 
ATOM     36  N   UNL A   1      39.242  30.790  31.206  1.00  0.00    -0.248 NA
ATOM     37  C   UNL A   1      37.798  31.145  29.408  1.00  0.00     0.031 C 
ATOM     38  C   UNL A   1      37.276  34.154  33.406  1.00  0.00     0.029 A 
ATOM     39  N   UNL A   1      38.917  32.639  33.470  1.00  0.00    -0.354 N 
ATOM     40  C   UNL A   1      39.485  29.838  30.224  1.00  0.00     0.074 A 
ATOM     41  C   UNL A   1      38.526  30.065  29.166  1.00  0.00     0.031 C 
ATOM     42  C   UNL A   1      37.899  34.287  34.587  1.00  0.00     0.029 A 
ATOM     43  C   UNL A   1      38.961  33.290  34.679  1.00  0.00     0.049 A 
ATOM     44  H   UNL A   1      39.540  31.917  33.224  1.00  0.00     0.167 HD
ATOM     45  C   UNL A   1      40.436  28.874  30.202  1.00  0.00     0.037 A 
ATOM     46  C   UNL A   1      39.760  33.096  35.746  1.00  0.00     0.037 A 
ATOM     47  C   UNL A   1      41.412  28.676  31.241  1.00  0.00     0.049 A 
ATOM     48  C   UNL A   1      40.818  32.028  35.687  1.00  0.00     0.074 A 
ATOM     49  C   UNL A   1      42.470  27.784  31.271  1.00  0.00     0.029 A 
ATOM     50  N   UNL A   1      41.448  29.380  32.435  1.00  0.00    -0.354 N 
ATOM     51  N   UNL A   1      41.093  31.190  34.718  1.00  0.00    -0.248 NA
ATOM     52  C   UNL A   1      41.683  31.886  36.866  1.00  0.00     0.031 C 
ATOM     53  C   UNL A   1      43.113  27.911  32.506  1.00  0.00     0.029 A 
ATOM     54  C   UNL A   1      42.494  28.922  33.222  1.00  0.00     0.049 A 
ATOM     55  H   UNL A   1      40.824  30.099  32.687  1.00  0.00     0.167 HD
ATOM     56  C   UNL A   1      42.176  30.440  35.157  1.00  0.00     0.074 A 
ATOM     57  C   UNL A   1      42.520  30.936  36.473  1.00  0.00     0.031 C 
ATOM     58  C   UNL A   1      42.827  29.431  34.527  1.00  0.00     0.037 A 
BRANCH  45  59
ATOM     59  C   UNL A   1      40.474  27.956  29.014  1.00  0.00     0.064 A 
ATOM     60  C   UNL A   1      39.719  26.774  28.971  1.00  0.00     0.173 A 
ATOM     61  C   UNL A   1      41.234  28.288  27.882  1.00  0.00     0.173 A 
ATOM     62  F   UNL A   1      38.983  26.403  30.029  1.00  0.00    -0.203 F 
ATOM     63  C   UNL A   1      39.745  25.947  27.850  1.00  0.00     0.198 A 
ATOM     64  C   UNL A   1      41.232  27.476  26.752  1.00  0.00     0.198 A 
ATOM     65  F   UNL A   1      41.969  29.411  27.867  1.00  0.00    -0.203 F 
ATOM     66  F   UNL A   1      39.050  24.800  27.850  1.00  0.00    -0.200 F 
ATOM     67  C   UNL A   1      40.494  26.303  26.739  1.00  0.00     0.200 A 
ATOM     68  F   UNL A   1      41.945  27.829  25.673  1.00  0.00    -0.200 F 
ATOM     69  F   UNL A   1      40.507  25.512  25.657  1.00  0.00    -0.200 F 
ENDBRANCH  45  59
BRANCH  46  70
ATOM     70  C   UNL A   1      39.598  33.942  36.958  1.00  0.00     0.064 A 
ATOM     71  C   UNL A   1      38.859  33.490  38.060  1.00  0.00     0.173 A 
ATOM     72  C   UNL A   1      40.169  35.221  37.038  1.00  0.00     0.173 A 
ATOM     73  F   UNL A   1      38.278  32.282  38.025  1.00  0.00    -0.203 F 
ATOM     74  C   UNL A   1      38.675  34.294  39.184  1.00  0.00     0.198 A 
ATOM     75  C   UNL A   1      40.011  36.012  38.174  1.00  0.00     0.198 A 
ATOM     76  F   UNL A   1      40.892  35.699  36.014  1.00  0.00    -0.203 F 
ATOM     77  F   UNL A   1      37.921  33.856  40.201  1.00  0.00    -0.200 F 
ATOM     78  C   UNL A   1      39.256  35.551  39.242  1.00  0.00     0.200 A 
ATOM     79  F   UNL A   1      40.586  37.220  38.232  1.00  0.00    -0.200 F 
ATOM     80  F   UNL A   1      39.081  36.322  40.323  1.00  0.00    -0.200 F 
ENDBRANCH  46  70
BRANCH  58  81
ATOM     81  C   UNL A   1      43.999  28.820  35.237  1.00  0.00     0.064 A 
ATOM     82  C   UNL A   1      43.860  27.685  36.049  1.00  0.00     0.173 A 
ATOM     83  C   UNL A   1      45.286  29.353  35.069  1.00  0.00     0.173 A 
ATOM     84  F   UNL A   1      42.648  27.147  36.254  1.00  0.00    -0.203 F 
ATOM     85  C   UNL A   1      44.961  27.122  36.687  1.00  0.00     0.198 A 
ATOM     86  C   UNL A   1      46.390  28.769  35.683  1.00  0.00     0.198 A 
ATOM     87  F   UNL A   1      45.476  30.434  34.297  1.00  0.00    -0.203 F 
ATOM     88  F   UNL A   1      44.798  26.068  37.498  1.00  0.00    -0.200 F 
ATOM     89  C   UNL A   1      46.227  27.659  36.498  1.00  0.00     0.200 A 
ATOM     90  F   UNL A   1      47.614  29.279  35.485  1.00  0.00    -0.200 F 
ATOM     91  F   UNL A   1      47.287  27.111  37.106  1.00  0.00    -0.200 F 
ENDBRANCH  58  81
ENDBRANCH  32  33
ENDBRANCH  24  27
ENDBRANCH  22  23
ENDBRANCH  21  22
ENDBRANCH  20  21
ENDBRANCH   3  20
TORSDOF 15
ENDMDL
MODEL 3
REMARK VINA RESULT:     -11.0      6.321     11.420
REMARK SMILES C[C@@H](Cc1cccs1)[NH2+][C@H](C)[C@@H](C)C(=O)NCCCNC(=O)c1ccc(-c2c3nc(c(-c4c(F)c(F)c(F)c(F)c4F)c4ccc([nH]4)c(-c4c(F)c(F)c(F)c(F)c4F)c4nc(c(-c5c(F)c(F)c(F)c(F)c5F)c5ccc2[nH]5)C=C4)C=C3)cc1
REMARK SMILES IDX 14 1 15 2 16 3 12 5 13 6 10 7 11 8 9 9 2 12 1 13 3 14 4 15
REMARK SMILES IDX 5 16 8 17 6 18 7 19 17 20 18 21 19 22 20 23 21 24 22 26
REMARK SMILES IDX 23 27 24 28 85 29 25 30 84 31 26 32 27 33 28 34 78 35 29 36
REMARK SMILES IDX 83 37 77 38 79 39 30 40 82 41 76 42 75 43 31 45 63 46 43 47
REMARK SMILES IDX 62 48 44 49 47 50 61 51 80 52 45 53 46 54 60 56 81 57 48 58
REMARK SMILES IDX 32 59 33 60 41 61 34 62 35 63 39 64 42 65 36 66 37 67 40 68
REMARK SMILES IDX 38 69 64 70 65 71 73 72 66 73 67 74 71 75 74 76 68 77 69 78
REMARK SMILES IDX 72 79 70 80 49 81 50 82 58 83 51 84 52 85 56 86 59 87 53 88
REMARK SMILES IDX 54 89 57 90 55 91
REMARK H PARENT 16 4 9 10 9 11 20 25 79 44 47 55
REMARK Flexibility Score: inf
ROOT
ATOM      1  C   UNL A   1      34.056  19.903  24.928  1.00  0.00     0.228 C 
ATOM      2  O   UNL A   1      33.266  18.960  24.811  1.00  0.00    -0.275 OA
ATOM      3  N   UNL A   1      35.373  19.584  24.993  1.00  0.00    -0.356 N 
ATOM      4  H   UNL A   1      35.548  18.615  25.008  1.00  0.00     0.163 HD
ENDROOT
BRANCH   1   5
ATOM      5  C   UNL A   1      33.535  21.340  24.951  1.00  0.00     0.133 C 
ATOM      6  C   UNL A   1      32.056  21.289  25.359  1.00  0.00     0.024 C 
BRANCH   5   7
ATOM      7  C   UNL A   1      33.869  22.162  23.674  1.00  0.00     0.191 C 
ATOM      8  C   UNL A   1      32.619  22.488  22.834  1.00  0.00     0.076 C 
BRANCH   7   9
ATOM      9  N   UNL A   1      34.614  23.431  23.786  1.00  0.00    -0.341 N 
ATOM     10  H   UNL A   1      35.588  23.211  23.580  1.00  0.00     0.346 HD
ATOM     11  H   UNL A   1      34.106  24.042  23.147  1.00  0.00     0.346 HD
BRANCH   9  12
ATOM     12  C   UNL A   1      34.617  24.206  25.030  1.00  0.00     0.184 C 
ATOM     13  C   UNL A   1      36.057  24.172  25.571  1.00  0.00     0.075 C 
BRANCH  12  14
ATOM     14  C   UNL A   1      34.112  25.673  24.937  1.00  0.00     0.111 C 
BRANCH  14  15
ATOM     15  C   UNL A   1      32.975  25.935  23.979  1.00  0.00     0.010 A 
ATOM     16  C   UNL A   1      31.620  25.932  24.259  1.00  0.00     0.015 A 
ATOM     17  S   UNL A   1      33.266  26.364  22.346  1.00  0.00    -0.149 S 
ATOM     18  C   UNL A   1      30.825  26.250  23.122  1.00  0.00     0.012 A 
ATOM     19  C   UNL A   1      31.596  26.498  22.010  1.00  0.00     0.065 A 
ENDBRANCH  14  15
ENDBRANCH  12  14
ENDBRANCH   9  12
ENDBRANCH   7   9
ENDBRANCH   5   7
ENDBRANCH   1   5
BRANCH   3  20
ATOM     20  C   UNL A   1      36.572  20.399  25.048  1.00  0.00     0.117 C 
BRANCH  20  21
ATOM     21  C   UNL A   1      37.854  19.579  24.939  1.00  0.00     0.042 C 
BRANCH  21  22
ATOM     22  C   UNL A   1      39.016  20.107  25.772  1.00  0.00     0.118 C 
BRANCH  22  23
ATOM     23  N   UNL A   1      40.088  19.133  25.929  1.00  0.00    -0.352 N 
ATOM     24  C   UNL A   1      41.437  19.301  26.116  1.00  0.00     0.251 C 
ATOM     25  H   UNL A   1      39.795  18.194  25.892  1.00  0.00     0.163 HD
ATOM     26  O   UNL A   1      42.185  18.333  26.013  1.00  0.00    -0.269 OA
BRANCH  24  27
ATOM     27  C   UNL A   1      42.003  20.631  26.425  1.00  0.00     0.039 A 
ATOM     28  C   UNL A   1      42.282  21.505  25.368  1.00  0.00     0.014 A 
ATOM     29  C   UNL A   1      42.304  21.009  27.735  1.00  0.00     0.014 A 
ATOM     30  C   UNL A   1      42.795  22.777  25.633  1.00  0.00     0.010 A 
ATOM     31  C   UNL A   1      42.733  22.306  28.005  1.00  0.00     0.010 A 
ATOM     32  C   UNL A   1      42.987  23.203  26.957  1.00  0.00    -0.014 A 
BRANCH  32  33
ATOM     33  C   UNL A   1      43.452  24.580  27.265  1.00  0.00     0.031 A 
ATOM     34  C   UNL A   1      42.486  25.605  27.794  1.00  0.00     0.074 A 
ATOM     35  C   UNL A   1      44.724  24.928  26.993  1.00  0.00     0.049 A 
ATOM     36  N   UNL A   1      42.680  26.877  28.039  1.00  0.00    -0.248 NA
ATOM     37  C   UNL A   1      41.112  25.149  28.055  1.00  0.00     0.031 C 
ATOM     38  C   UNL A   1      45.741  24.041  26.425  1.00  0.00     0.029 A 
ATOM     39  N   UNL A   1      45.377  26.127  27.141  1.00  0.00    -0.354 N 
ATOM     40  C   UNL A   1      41.451  27.373  28.457  1.00  0.00     0.074 A 
ATOM     41  C   UNL A   1      40.508  26.279  28.389  1.00  0.00     0.031 C 
ATOM     42  C   UNL A   1      46.891  24.719  26.286  1.00  0.00     0.029 A 
ATOM     43  C   UNL A   1      46.684  26.098  26.717  1.00  0.00     0.049 A 
ATOM     44  H   UNL A   1      44.950  26.930  27.515  1.00  0.00     0.167 HD
ATOM     45  C   UNL A   1      41.145  28.623  28.877  1.00  0.00     0.037 A 
ATOM     46  C   UNL A   1      47.607  27.078  26.668  1.00  0.00     0.037 A 
ATOM     47  C   UNL A   1      42.096  29.699  28.977  1.00  0.00     0.049 A 
ATOM     48  C   UNL A   1      47.243  28.454  27.156  1.00  0.00     0.074 A 
ATOM     49  C   UNL A   1      41.904  30.976  29.473  1.00  0.00     0.029 A 
ATOM     50  N   UNL A   1      43.421  29.622  28.572  1.00  0.00    -0.354 N 
ATOM     51  N   UNL A   1      46.101  28.889  27.628  1.00  0.00    -0.248 NA
ATOM     52  C   UNL A   1      48.301  29.474  27.112  1.00  0.00     0.031 C 
ATOM     53  C   UNL A   1      43.097  31.689  29.318  1.00  0.00     0.029 A 
ATOM     54  C   UNL A   1      44.050  30.840  28.781  1.00  0.00     0.049 A 
ATOM     55  H   UNL A   1      43.851  28.821  28.193  1.00  0.00     0.167 HD
ATOM     56  C   UNL A   1      46.308  30.221  27.963  1.00  0.00     0.074 A 
ATOM     57  C   UNL A   1      47.691  30.518  27.656  1.00  0.00     0.031 C 
ATOM     58  C   UNL A   1      45.430  31.117  28.477  1.00  0.00     0.037 A 
BRANCH  45  59
ATOM     59  C   UNL A   1      39.721  28.903  29.263  1.00  0.00     0.064 A 
ATOM     60  C   UNL A   1      39.254  28.686  30.568  1.00  0.00     0.173 A 
ATOM     61  C   UNL A   1      38.825  29.445  28.329  1.00  0.00     0.173 A 
ATOM     62  F   UNL A   1      40.065  28.160  31.498  1.00  0.00    -0.203 F 
ATOM     63  C   UNL A   1      37.937  28.976  30.916  1.00  0.00     0.198 A 
ATOM     64  C   UNL A   1      37.518  29.764  28.688  1.00  0.00     0.198 A 
ATOM     65  F   UNL A   1      39.221  29.679  27.069  1.00  0.00    -0.203 F 
ATOM     66  F   UNL A   1      37.501  28.718  32.157  1.00  0.00    -0.200 F 
ATOM     67  C   UNL A   1      37.073  29.523  29.979  1.00  0.00     0.200 A 
ATOM     68  F   UNL A   1      36.690  30.306  27.785  1.00  0.00    -0.200 F 
ATOM     69  F   UNL A   1      35.810  29.813  30.319  1.00  0.00    -0.200 F 
ENDBRANCH  45  59
BRANCH  46  70
ATOM     70  C   UNL A   1      48.970  26.789  26.149  1.00  0.00     0.064 A 
ATOM     71  C   UNL A   1      49.289  27.003  24.800  1.00  0.00     0.173 A 
ATOM     72  C   UNL A   1      49.979  26.286  26.984  1.00  0.00     0.173 A 
ATOM     73  F   UNL A   1      48.354  27.464  23.957  1.00  0.00    -0.203 F 
ATOM     74  C   UNL A   1      50.555  26.699  24.303  1.00  0.00     0.198 A 
ATOM     75  C   UNL A   1      51.253  26.013  26.492  1.00  0.00     0.198 A 
ATOM     76  F   UNL A   1      49.728  26.070  28.284  1.00  0.00    -0.203 F 
ATOM     77  F   UNL A   1      50.817  26.865  22.999  1.00  0.00    -0.200 F 
ATOM     78  C   UNL A   1      51.537  26.210  25.150  1.00  0.00     0.200 A 
ATOM     79  F   UNL A   1      52.203  25.554  27.318  1.00  0.00    -0.200 F 
ATOM     80  F   UNL A   1      52.755  25.921  24.671  1.00  0.00    -0.200 F 
ENDBRANCH  46  70
BRANCH  58  81
ATOM     81  C   UNL A   1      45.948  32.494  28.774  1.00  0.00     0.064 A 
ATOM     82  C   UNL A   1      45.870  33.530  27.832  1.00  0.00     0.173 A 
ATOM     83  C   UNL A   1      46.491  32.789  30.034  1.00  0.00     0.173 A 
ATOM     84  F   UNL A   1      45.372  33.294  26.609  1.00  0.00    -0.203 F 
ATOM     85  C   UNL A   1      46.341  34.805  28.132  1.00  0.00     0.198 A 
ATOM     86  C   UNL A   1      46.932  34.073  30.340  1.00  0.00     0.198 A 
ATOM     87  F   UNL A   1      46.582  31.836  30.973  1.00  0.00    -0.203 F 
ATOM     88  F   UNL A   1      46.302  35.768  27.201  1.00  0.00    -0.200 F 
ATOM     89  C   UNL A   1      46.864  35.079  29.388  1.00  0.00     0.200 A 
ATOM     90  F   UNL A   1      47.422  34.339  31.559  1.00  0.00    -0.200 F 
ATOM     91  F   UNL A   1      47.309  36.308  29.677  1.00  0.00    -0.200 F 
ENDBRANCH  58  81
ENDBRANCH  32  33
ENDBRANCH  24  27
ENDBRANCH  22  23
ENDBRANCH  21  22
ENDBRANCH  20  21
ENDBRANCH   3  20
TORSDOF 15
ENDMDL
