MODEL 1
REMARK VINA RESULT:     -14.3      0.000      0.000
REMARK SMILES CC(C)n1c2c(c3ccccc31)[C@@H](c1ccccc1)N(CC(=O)NCCCNC(=O)c1ccc(-c3c4nc(c(-c5c(F)c(F)c(F)c(F)c5F)c5ccc([nH]5)c(-c5c(F)c(F)c(F)c(F)c5F)c5nc(c(-c6c(F)c(F)c(F)c(F)c6F)c6ccc3[nH]6)C=C5)C=C4)cc1)C2=O
REMARK SMILES IDX 26 1 25 2 24 3 22 4 23 5 21 7 20 8 4 9 5 10 12 11 6 12 94 13
REMARK SMILES IDX 7 14 11 15 13 16 95 17 8 18 10 19 9 20 2 21 1 22 3 23 14 24
REMARK SMILES IDX 15 25 19 26 16 27 18 28 17 29 27 30 28 31 29 32 30 34 31 35
REMARK SMILES IDX 32 36 93 37 33 38 92 39 34 40 35 41 36 42 86 43 37 44 91 45
REMARK SMILES IDX 85 46 87 47 38 48 90 49 84 50 83 51 39 53 71 54 51 55 70 56
REMARK SMILES IDX 52 57 55 58 69 59 88 60 53 61 54 62 68 64 89 65 56 66 40 67
REMARK SMILES IDX 41 68 49 69 42 70 43 71 47 72 50 73 44 74 45 75 48 76 46 77
REMARK SMILES IDX 72 78 73 79 81 80 74 81 75 82 79 83 82 84 76 85 77 86 80 87
REMARK SMILES IDX 78 88 57 89 58 90 66 91 59 92 60 93 64 94 67 95 61 96 62 97
REMARK SMILES IDX 65 98 63 99
REMARK H PARENT 24 6 28 33 87 52 55 63
REMARK Flexibility Score: inf
ROOT
ATOM      1  C   UNL A   1      37.104  22.119  24.667  1.00  0.00     0.042 C 
ENDROOT
BRANCH   1   2
ATOM      2  C   UNL A   1      36.267  22.960  23.698  1.00  0.00     0.117 C 
BRANCH   2   3
ATOM      3  N   UNL A   1      34.961  22.375  23.451  1.00  0.00    -0.354 N 
ATOM      4  C   UNL A   1      33.840  22.942  22.916  1.00  0.00     0.239 C 
ATOM      5  O   UNL A   1      32.814  22.260  22.866  1.00  0.00    -0.273 OA
ATOM      6  H   UNL A   1      34.870  21.429  23.707  1.00  0.00     0.163 HD
BRANCH   4   7
ATOM      7  C   UNL A   1      33.842  24.397  22.441  1.00  0.00     0.220 C 
BRANCH   7   8
ATOM      8  N   UNL A   1      33.172  25.266  23.391  1.00  0.00    -0.317 N 
ATOM      9  N   UNL A   1      31.394  28.233  24.301  1.00  0.00    -0.334 N 
ATOM     10  C   UNL A   1      32.040  27.069  24.037  1.00  0.00     0.114 A 
ATOM     11  C   UNL A   1      32.058  28.851  25.368  1.00  0.00     0.049 A 
ATOM     12  C   UNL A   1      33.031  26.869  24.964  1.00  0.00     0.018 A 
ATOM     13  C   UNL A   1      32.083  26.058  23.036  1.00  0.00     0.272 C 
ATOM     14  C   UNL A   1      33.102  28.002  25.786  1.00  0.00     0.006 A 
ATOM     15  C   UNL A   1      31.847  30.092  25.995  1.00  0.00     0.027 A 
ATOM     16  C   UNL A   1      33.757  25.596  24.718  1.00  0.00     0.150 C 
ATOM     17  O   UNL A   1      31.418  25.978  22.009  1.00  0.00    -0.267 OA
ATOM     18  C   UNL A   1      33.946  28.398  26.838  1.00  0.00     0.011 A 
ATOM     19  C   UNL A   1      32.696  30.461  27.044  1.00  0.00     0.002 A 
ATOM     20  C   UNL A   1      33.731  29.630  27.460  1.00  0.00     0.001 A 
BRANCH   9  21
ATOM     21  C   UNL A   1      30.261  28.807  23.578  1.00  0.00     0.082 C 
ATOM     22  C   UNL A   1      30.676  29.330  22.203  1.00  0.00     0.031 C 
ATOM     23  C   UNL A   1      29.039  27.891  23.485  1.00  0.00     0.031 C 
ENDBRANCH   9  21
BRANCH  16  24
ATOM     24  C   UNL A   1      33.381  24.575  25.784  1.00  0.00    -0.021 A 
ATOM     25  C   UNL A   1      34.418  23.941  26.495  1.00  0.00     0.006 A 
ATOM     26  C   UNL A   1      32.062  24.191  26.100  1.00  0.00     0.006 A 
ATOM     27  C   UNL A   1      34.152  22.945  27.441  1.00  0.00     0.000 A 
ATOM     28  C   UNL A   1      31.794  23.212  27.060  1.00  0.00     0.000 A 
ATOM     29  C   UNL A   1      32.839  22.580  27.722  1.00  0.00     0.000 A 
ENDBRANCH  16  24
ENDBRANCH   7   8
ENDBRANCH   4   7
ENDBRANCH   2   3
ENDBRANCH   1   2
BRANCH   1  30
ATOM     30  C   UNL A   1      37.877  22.943  25.694  1.00  0.00     0.118 C 
BRANCH  30  31
ATOM     31  N   UNL A   1      39.029  22.249  26.230  1.00  0.00    -0.352 N 
ATOM     32  C   UNL A   1      40.135  22.605  26.941  1.00  0.00     0.251 C 
ATOM     33  H   UNL A   1      39.007  21.284  26.034  1.00  0.00     0.163 HD
ATOM     34  O   UNL A   1      40.876  21.675  27.272  1.00  0.00    -0.269 OA
BRANCH  32  35
ATOM     35  C   UNL A   1      40.549  23.994  27.274  1.00  0.00     0.039 A 
ATOM     36  C   UNL A   1      41.388  24.375  28.323  1.00  0.00     0.014 A 
ATOM     37  C   UNL A   1      39.930  25.000  26.507  1.00  0.00     0.014 A 
ATOM     38  C   UNL A   1      41.477  25.714  28.691  1.00  0.00     0.010 A 
ATOM     39  C   UNL A   1      40.034  26.337  26.856  1.00  0.00     0.010 A 
ATOM     40  C   UNL A   1      40.734  26.678  28.004  1.00  0.00    -0.014 A 
BRANCH  40  41
ATOM     41  C   UNL A   1      40.696  28.038  28.531  1.00  0.00     0.031 A 
ATOM     42  C   UNL A   1      41.801  28.932  28.081  1.00  0.00     0.074 A 
ATOM     43  C   UNL A   1      39.685  28.472  29.313  1.00  0.00     0.049 A 
ATOM     44  N   UNL A   1      42.699  29.525  28.799  1.00  0.00    -0.248 NA
ATOM     45  C   UNL A   1      41.982  29.109  26.631  1.00  0.00     0.031 C 
ATOM     46  C   UNL A   1      38.420  27.803  29.637  1.00  0.00     0.029 A 
ATOM     47  N   UNL A   1      39.553  29.674  29.941  1.00  0.00    -0.354 N 
ATOM     48  C   UNL A   1      43.474  30.272  27.912  1.00  0.00     0.074 A 
ATOM     49  C   UNL A   1      43.060  29.894  26.586  1.00  0.00     0.031 C 
ATOM     50  C   UNL A   1      37.566  28.693  30.196  1.00  0.00     0.029 A 
ATOM     51  C   UNL A   1      38.275  29.940  30.414  1.00  0.00     0.049 A 
ATOM     52  H   UNL A   1      40.303  30.303  30.050  1.00  0.00     0.167 HD
ATOM     53  C   UNL A   1      44.287  31.282  28.331  1.00  0.00     0.037 A 
ATOM     54  C   UNL A   1      37.829  31.128  30.892  1.00  0.00     0.037 A 
ATOM     55  C   UNL A   1      44.568  31.198  29.736  1.00  0.00     0.049 A 
ATOM     56  C   UNL A   1      39.022  31.915  31.290  1.00  0.00     0.074 A 
ATOM     57  C   UNL A   1      45.266  30.318  30.539  1.00  0.00     0.029 A 
ATOM     58  N   UNL A   1      43.810  31.954  30.592  1.00  0.00    -0.354 N 
ATOM     59  N   UNL A   1      39.808  31.591  32.279  1.00  0.00    -0.248 NA
ATOM     60  C   UNL A   1      39.597  32.808  30.296  1.00  0.00     0.031 C 
ATOM     61  C   UNL A   1      44.524  30.260  31.755  1.00  0.00     0.029 A 
ATOM     62  C   UNL A   1      43.449  31.143  31.638  1.00  0.00     0.049 A 
ATOM     63  H   UNL A   1      43.567  32.901  30.477  1.00  0.00     0.167 HD
ATOM     64  C   UNL A   1      41.084  31.889  31.827  1.00  0.00     0.074 A 
ATOM     65  C   UNL A   1      40.885  32.698  30.628  1.00  0.00     0.031 C 
ATOM     66  C   UNL A   1      42.174  31.223  32.307  1.00  0.00     0.037 A 
BRANCH  53  67
ATOM     67  C   UNL A   1      44.573  32.524  27.530  1.00  0.00     0.064 A 
ATOM     68  C   UNL A   1      45.777  32.637  26.810  1.00  0.00     0.173 A 
ATOM     69  C   UNL A   1      43.838  33.717  27.688  1.00  0.00     0.173 A 
ATOM     70  F   UNL A   1      46.568  31.568  26.628  1.00  0.00    -0.203 F 
ATOM     71  C   UNL A   1      46.236  33.869  26.333  1.00  0.00     0.198 A 
ATOM     72  C   UNL A   1      44.273  34.934  27.168  1.00  0.00     0.198 A 
ATOM     73  F   UNL A   1      42.732  33.769  28.443  1.00  0.00    -0.203 F 
ATOM     74  F   UNL A   1      47.441  33.952  25.750  1.00  0.00    -0.200 F 
ATOM     75  C   UNL A   1      45.486  35.017  26.515  1.00  0.00     0.200 A 
ATOM     76  F   UNL A   1      43.543  36.040  27.375  1.00  0.00    -0.200 F 
ATOM     77  F   UNL A   1      45.949  36.206  26.109  1.00  0.00    -0.200 F 
ENDBRANCH  53  67
BRANCH  54  78
ATOM     78  C   UNL A   1      36.526  31.778  30.600  1.00  0.00     0.064 A 
ATOM     79  C   UNL A   1      35.754  32.344  31.628  1.00  0.00     0.173 A 
ATOM     80  C   UNL A   1      36.169  32.132  29.283  1.00  0.00     0.173 A 
ATOM     81  F   UNL A   1      36.059  32.098  32.911  1.00  0.00    -0.203 F 
ATOM     82  C   UNL A   1      34.710  33.236  31.357  1.00  0.00     0.198 A 
ATOM     83  C   UNL A   1      35.125  33.018  29.014  1.00  0.00     0.198 A 
ATOM     84  F   UNL A   1      36.891  31.706  28.237  1.00  0.00    -0.203 F 
ATOM     85  F   UNL A   1      34.040  33.809  32.367  1.00  0.00    -0.200 F 
ATOM     86  C   UNL A   1      34.405  33.582  30.051  1.00  0.00     0.200 A 
ATOM     87  F   UNL A   1      34.868  33.378  27.748  1.00  0.00    -0.200 F 
ATOM     88  F   UNL A   1      33.454  34.491  29.794  1.00  0.00    -0.200 F 
ENDBRANCH  54  78
BRANCH  66  89
ATOM     89  C   UNL A   1      41.968  30.317  33.491  1.00  0.00     0.064 A 
ATOM     90  C   UNL A   1      41.599  28.964  33.384  1.00  0.00     0.173 A 
ATOM     91  C   UNL A   1      42.298  30.795  34.765  1.00  0.00     0.173 A 
ATOM     92  F   UNL A   1      41.369  28.406  32.190  1.00  0.00    -0.203 F 
ATOM     93  C   UNL A   1      41.528  28.142  34.508  1.00  0.00     0.198 A 
ATOM     94  C   UNL A   1      42.258  29.963  35.880  1.00  0.00     0.198 A 
ATOM     95  F   UNL A   1      42.716  32.061  34.918  1.00  0.00    -0.203 F 
ATOM     96  F   UNL A   1      41.173  26.855  34.379  1.00  0.00    -0.200 F 
ATOM     97  C   UNL A   1      41.864  28.641  35.754  1.00  0.00     0.200 A 
ATOM     98  F   UNL A   1      42.638  30.436  37.075  1.00  0.00    -0.200 F 
ATOM     99  F   UNL A   1      41.843  27.839  36.828  1.00  0.00    -0.200 F 
ENDBRANCH  66  89
ENDBRANCH  40  41
ENDBRANCH  32  35
ENDBRANCH  30  31
ENDBRANCH   1  30
TORSDOF 13
ENDMDL
MODEL 2
REMARK VINA RESULT:     -14.2      3.120      8.721
REMARK SMILES CC(C)n1c2c(c3ccccc31)[C@@H](c1ccccc1)N(CC(=O)NCCCNC(=O)c1ccc(-c3c4nc(c(-c5c(F)c(F)c(F)c(F)c5F)c5ccc([nH]5)c(-c5c(F)c(F)c(F)c(F)c5F)c5nc(c(-c6c(F)c(F)c(F)c(F)c6F)c6ccc3[nH]6)C=C5)C=C4)cc1)C2=O
REMARK SMILES IDX 26 1 25 2 24 3 22 4 23 5 21 7 20 8 4 9 5 10 12 11 6 12 94 13
REMARK SMILES IDX 7 14 11 15 13 16 95 17 8 18 10 19 9 20 2 21 1 22 3 23 14 24
REMARK SMILES IDX 15 25 19 26 16 27 18 28 17 29 27 30 28 31 29 32 30 34 31 35
REMARK SMILES IDX 32 36 93 37 33 38 92 39 34 40 35 41 36 42 86 43 37 44 91 45
REMARK SMILES IDX 85 46 87 47 38 48 90 49 84 50 83 51 39 53 71 54 51 55 70 56
REMARK SMILES IDX 52 57 55 58 69 59 88 60 53 61 54 62 68 64 89 65 56 66 40 67
REMARK SMILES IDX 41 68 49 69 42 70 43 71 47 72 50 73 44 74 45 75 48 76 46 77
REMARK SMILES IDX 72 78 73 79 81 80 74 81 75 82 79 83 82 84 76 85 77 86 80 87
REMARK SMILES IDX 78 88 57 89 58 90 66 91 59 92 60 93 64 94 67 95 61 96 62 97
REMARK SMILES IDX 65 98 63 99
REMARK H PARENT 24 6 28 33 87 52 55 63
REMARK Flexibility Score: inf
ROOT
ATOM      1  C   UNL A   1      31.898  29.551  27.233  1.00  0.00     0.042 C 
ENDROOT
BRANCH   1   2
ATOM      2  C   UNL A   1      31.818  28.022  27.171  1.00  0.00     0.117 C 
BRANCH   2   3
ATOM      3  N   UNL A   1      30.933  27.561  26.116  1.00  0.00    -0.354 N 
ATOM      4  C   UNL A   1      30.589  26.289  25.761  1.00  0.00     0.239 C 
ATOM      5  O   UNL A   1      29.864  26.138  24.774  1.00  0.00    -0.273 OA
ATOM      6  H   UNL A   1      30.518  28.272  25.576  1.00  0.00     0.163 HD
BRANCH   4   7
ATOM      7  C   UNL A   1      31.131  25.081  26.531  1.00  0.00     0.220 C 
BRANCH   7   8
ATOM      8  N   UNL A   1      32.159  24.389  25.777  1.00  0.00    -0.317 N 
ATOM      9  N   UNL A   1      34.050  21.490  24.872  1.00  0.00    -0.334 N 
ATOM     10  C   UNL A   1      33.363  22.631  25.137  1.00  0.00     0.114 A 
ATOM     11  C   UNL A   1      35.414  21.780  25.000  1.00  0.00     0.049 A 
ATOM     12  C   UNL A   1      34.242  23.666  25.326  1.00  0.00     0.018 A 
ATOM     13  C   UNL A   1      32.029  23.056  25.390  1.00  0.00     0.272 C 
ATOM     14  C   UNL A   1      35.545  23.150  25.298  1.00  0.00     0.006 A 
ATOM     15  C   UNL A   1      36.548  20.956  24.897  1.00  0.00     0.027 A 
ATOM     16  C   UNL A   1      33.531  24.940  25.606  1.00  0.00     0.150 C 
ATOM     17  O   UNL A   1      31.008  22.379  25.415  1.00  0.00    -0.267 OA
ATOM     18  C   UNL A   1      36.822  23.703  25.500  1.00  0.00     0.011 A 
ATOM     19  C   UNL A   1      37.809  21.529  25.096  1.00  0.00     0.002 A 
ATOM     20  C   UNL A   1      37.946  22.881  25.395  1.00  0.00     0.001 A 
BRANCH   9  21
ATOM     21  C   UNL A   1      33.501  20.166  24.583  1.00  0.00     0.082 C 
ATOM     22  C   UNL A   1      32.903  19.519  25.831  1.00  0.00     0.031 C 
ATOM     23  C   UNL A   1      32.522  20.130  23.408  1.00  0.00     0.031 C 
ENDBRANCH   9  21
BRANCH  16  24
ATOM     24  C   UNL A   1      33.634  25.864  24.400  1.00  0.00    -0.021 A 
ATOM     25  C   UNL A   1      33.997  27.208  24.618  1.00  0.00     0.006 A 
ATOM     26  C   UNL A   1      33.369  25.482  23.069  1.00  0.00     0.006 A 
ATOM     27  C   UNL A   1      34.048  28.130  23.568  1.00  0.00     0.000 A 
ATOM     28  C   UNL A   1      33.441  26.398  22.016  1.00  0.00     0.000 A 
ATOM     29  C   UNL A   1      33.768  27.725  22.267  1.00  0.00     0.000 A 
ENDBRANCH  16  24
ENDBRANCH   7   8
ENDBRANCH   4   7
ENDBRANCH   2   3
ENDBRANCH   1   2
BRANCH   1  30
ATOM     30  C   UNL A   1      33.312  30.105  27.071  1.00  0.00     0.118 C 
BRANCH  30  31
ATOM     31  N   UNL A   1      33.668  31.064  28.094  1.00  0.00    -0.352 N 
ATOM     32  C   UNL A   1      34.828  31.486  28.671  1.00  0.00     0.251 C 
ATOM     33  H   UNL A   1      32.879  31.524  28.464  1.00  0.00     0.163 HD
ATOM     34  O   UNL A   1      34.711  32.400  29.492  1.00  0.00    -0.269 OA
BRANCH  32  35
ATOM     35  C   UNL A   1      36.176  30.898  28.451  1.00  0.00     0.039 A 
ATOM     36  C   UNL A   1      36.452  29.677  27.833  1.00  0.00     0.014 A 
ATOM     37  C   UNL A   1      37.240  31.616  29.031  1.00  0.00     0.014 A 
ATOM     38  C   UNL A   1      37.723  29.118  27.934  1.00  0.00     0.010 A 
ATOM     39  C   UNL A   1      38.513  31.074  29.113  1.00  0.00     0.010 A 
ATOM     40  C   UNL A   1      38.724  29.785  28.644  1.00  0.00    -0.014 A 
BRANCH  40  41
ATOM     41  C   UNL A   1      39.982  29.091  28.897  1.00  0.00     0.031 A 
ATOM     42  C   UNL A   1      40.316  28.866  30.333  1.00  0.00     0.074 A 
ATOM     43  C   UNL A   1      40.751  28.619  27.892  1.00  0.00     0.049 A 
ATOM     44  N   UNL A   1      41.337  29.301  30.998  1.00  0.00    -0.248 NA
ATOM     45  C   UNL A   1      39.331  28.143  31.153  1.00  0.00     0.031 C 
ATOM     46  C   UNL A   1      40.446  28.540  26.459  1.00  0.00     0.029 A 
ATOM     47  N   UNL A   1      41.977  28.030  27.966  1.00  0.00    -0.354 N 
ATOM     48  C   UNL A   1      41.207  28.786  32.288  1.00  0.00     0.074 A 
ATOM     49  C   UNL A   1      39.904  28.175  32.357  1.00  0.00     0.031 C 
ATOM     50  C   UNL A   1      41.346  27.737  25.846  1.00  0.00     0.029 A 
ATOM     51  C   UNL A   1      42.374  27.378  26.805  1.00  0.00     0.049 A 
ATOM     52  H   UNL A   1      42.536  28.064  28.775  1.00  0.00     0.167 HD
ATOM     53  C   UNL A   1      42.251  28.743  33.162  1.00  0.00     0.037 A 
ATOM     54  C   UNL A   1      43.443  26.554  26.675  1.00  0.00     0.037 A 
ATOM     55  C   UNL A   1      43.309  29.635  32.778  1.00  0.00     0.049 A 
ATOM     56  C   UNL A   1      44.371  26.862  27.791  1.00  0.00     0.074 A 
ATOM     57  C   UNL A   1      43.446  31.006  32.698  1.00  0.00     0.029 A 
ATOM     58  N   UNL A   1      44.363  29.118  32.072  1.00  0.00    -0.354 N 
ATOM     59  N   UNL A   1      45.011  27.992  27.912  1.00  0.00    -0.248 NA
ATOM     60  C   UNL A   1      44.230  26.086  29.013  1.00  0.00     0.031 C 
ATOM     61  C   UNL A   1      44.267  31.229  31.554  1.00  0.00     0.029 A 
ATOM     62  C   UNL A   1      44.619  29.981  31.037  1.00  0.00     0.049 A 
ATOM     63  H   UNL A   1      44.846  28.283  32.269  1.00  0.00     0.167 HD
ATOM     64  C   UNL A   1      44.985  28.269  29.270  1.00  0.00     0.074 A 
ATOM     65  C   UNL A   1      44.551  27.027  29.904  1.00  0.00     0.031 C 
ATOM     66  C   UNL A   1      45.050  29.552  29.729  1.00  0.00     0.037 A 
BRANCH  53  67
ATOM     67  C   UNL A   1      42.447  27.664  34.192  1.00  0.00     0.064 A 
ATOM     68  C   UNL A   1      43.050  26.445  33.830  1.00  0.00     0.173 A 
ATOM     69  C   UNL A   1      41.796  27.679  35.444  1.00  0.00     0.173 A 
ATOM     70  F   UNL A   1      43.670  26.314  32.647  1.00  0.00    -0.203 F 
ATOM     71  C   UNL A   1      42.958  25.309  34.641  1.00  0.00     0.198 A 
ATOM     72  C   UNL A   1      41.749  26.559  36.272  1.00  0.00     0.198 A 
ATOM     73  F   UNL A   1      41.091  28.740  35.859  1.00  0.00    -0.203 F 
ATOM     74  F   UNL A   1      43.451  24.139  34.209  1.00  0.00    -0.200 F 
ATOM     75  C   UNL A   1      42.305  25.366  35.859  1.00  0.00     0.200 A 
ATOM     76  F   UNL A   1      41.091  26.628  37.438  1.00  0.00    -0.200 F 
ATOM     77  F   UNL A   1      42.166  24.266  36.611  1.00  0.00    -0.200 F 
ENDBRANCH  53  67
BRANCH  54  78
ATOM     78  C   UNL A   1      43.491  25.256  25.956  1.00  0.00     0.064 A 
ATOM     79  C   UNL A   1      44.576  24.929  25.126  1.00  0.00     0.173 A 
ATOM     80  C   UNL A   1      42.635  24.194  26.314  1.00  0.00     0.173 A 
ATOM     81  F   UNL A   1      45.465  25.871  24.780  1.00  0.00    -0.203 F 
ATOM     82  C   UNL A   1      44.810  23.613  24.708  1.00  0.00     0.198 A 
ATOM     83  C   UNL A   1      42.868  22.885  25.893  1.00  0.00     0.198 A 
ATOM     84  F   UNL A   1      41.616  24.389  27.163  1.00  0.00    -0.203 F 
ATOM     85  F   UNL A   1      45.894  23.328  23.973  1.00  0.00    -0.200 F 
ATOM     86  C   UNL A   1      43.963  22.591  25.103  1.00  0.00     0.200 A 
ATOM     87  F   UNL A   1      42.064  21.898  26.316  1.00  0.00    -0.200 F 
ATOM     88  F   UNL A   1      44.227  21.321  24.762  1.00  0.00    -0.200 F 
ENDBRANCH  54  78
BRANCH  66  89
ATOM     89  C   UNL A   1      45.369  30.630  28.729  1.00  0.00     0.064 A 
ATOM     90  C   UNL A   1      44.399  31.279  27.944  1.00  0.00     0.173 A 
ATOM     91  C   UNL A   1      46.677  31.126  28.672  1.00  0.00     0.173 A 
ATOM     92  F   UNL A   1      43.109  30.932  28.020  1.00  0.00    -0.203 F 
ATOM     93  C   UNL A   1      44.734  32.346  27.112  1.00  0.00     0.198 A 
ATOM     94  C   UNL A   1      47.003  32.213  27.867  1.00  0.00     0.198 A 
ATOM     95  F   UNL A   1      47.632  30.586  29.446  1.00  0.00    -0.203 F 
ATOM     96  F   UNL A   1      43.790  32.947  26.373  1.00  0.00    -0.200 F 
ATOM     97  C   UNL A   1      46.036  32.816  27.080  1.00  0.00     0.200 A 
ATOM     98  F   UNL A   1      48.252  32.700  27.881  1.00  0.00    -0.200 F 
ATOM     99  F   UNL A   1      46.351  33.874  26.318  1.00  0.00    -0.200 F 
ENDBRANCH  66  89
ENDBRANCH  40  41
ENDBRANCH  32  35
ENDBRANCH  30  31
ENDBRANCH   1  30
TORSDOF 13
ENDMDL
MODEL 3
REMARK VINA RESULT:     -13.5      3.281      8.907
REMARK SMILES CC(C)n1c2c(c3ccccc31)[C@@H](c1ccccc1)N(CC(=O)NCCCNC(=O)c1ccc(-c3c4nc(c(-c5c(F)c(F)c(F)c(F)c5F)c5ccc([nH]5)c(-c5c(F)c(F)c(F)c(F)c5F)c5nc(c(-c6c(F)c(F)c(F)c(F)c6F)c6ccc3[nH]6)C=C5)C=C4)cc1)C2=O
REMARK SMILES IDX 26 1 25 2 24 3 22 4 23 5 21 7 20 8 4 9 5 10 12 11 6 12 94 13
REMARK SMILES IDX 7 14 11 15 13 16 95 17 8 18 10 19 9 20 2 21 1 22 3 23 14 24
REMARK SMILES IDX 15 25 19 26 16 27 18 28 17 29 27 30 28 31 29 32 30 34 31 35
REMARK SMILES IDX 32 36 93 37 33 38 92 39 34 40 35 41 36 42 86 43 37 44 91 45
REMARK SMILES IDX 85 46 87 47 38 48 90 49 84 50 83 51 39 53 71 54 51 55 70 56
REMARK SMILES IDX 52 57 55 58 69 59 88 60 53 61 54 62 68 64 89 65 56 66 40 67
REMARK SMILES IDX 41 68 49 69 42 70 43 71 47 72 50 73 44 74 45 75 48 76 46 77
REMARK SMILES IDX 72 78 73 79 81 80 74 81 75 82 79 83 82 84 76 85 77 86 80 87
REMARK SMILES IDX 78 88 57 89 58 90 66 91 59 92 60 93 64 94 67 95 61 96 62 97
REMARK SMILES IDX 65 98 63 99
REMARK H PARENT 24 6 28 33 87 52 55 63
REMARK Flexibility Score: inf
ROOT
ATOM      1  C   UNL A   1      34.094  33.855  27.995  1.00  0.00     0.042 C 
ENDROOT
BRANCH   1   2
ATOM      2  C   UNL A   1      33.299  32.559  28.189  1.00  0.00     0.117 C 
BRANCH   2   3
ATOM      3  N   UNL A   1      33.969  31.411  27.604  1.00  0.00    -0.354 N 
ATOM      4  C   UNL A   1      33.447  30.357  26.913  1.00  0.00     0.239 C 
ATOM      5  O   UNL A   1      34.213  29.453  26.568  1.00  0.00    -0.273 OA
ATOM      6  H   UNL A   1      34.947  31.390  27.723  1.00  0.00     0.163 HD
BRANCH   4   7
ATOM      7  C   UNL A   1      31.946  30.270  26.622  1.00  0.00     0.220 C 
BRANCH   7   8
ATOM      8  N   UNL A   1      31.607  29.033  25.944  1.00  0.00    -0.317 N 
ATOM      9  N   UNL A   1      31.850  25.500  25.436  1.00  0.00    -0.334 N 
ATOM     10  C   UNL A   1      31.679  26.840  25.577  1.00  0.00     0.114 A 
ATOM     11  C   UNL A   1      32.169  25.255  24.094  1.00  0.00     0.049 A 
ATOM     12  C   UNL A   1      31.774  27.450  24.353  1.00  0.00     0.018 A 
ATOM     13  C   UNL A   1      31.548  27.810  26.610  1.00  0.00     0.272 C 
ATOM     14  C   UNL A   1      32.135  26.483  23.405  1.00  0.00     0.006 A 
ATOM     15  C   UNL A   1      32.502  24.065  23.425  1.00  0.00     0.027 A 
ATOM     16  C   UNL A   1      31.580  28.919  24.461  1.00  0.00     0.150 C 
ATOM     17  O   UNL A   1      31.539  27.632  27.823  1.00  0.00    -0.267 OA
ATOM     18  C   UNL A   1      32.441  26.522  22.033  1.00  0.00     0.011 A 
ATOM     19  C   UNL A   1      32.797  24.128  22.059  1.00  0.00     0.002 A 
ATOM     20  C   UNL A   1      32.769  25.337  21.372  1.00  0.00     0.001 A 
BRANCH   9  21
ATOM     21  C   UNL A   1      31.798  24.480  26.482  1.00  0.00     0.082 C 
ATOM     22  C   UNL A   1      30.579  23.572  26.325  1.00  0.00     0.031 C 
ATOM     23  C   UNL A   1      33.086  23.669  26.638  1.00  0.00     0.031 C 
ENDBRANCH   9  21
BRANCH  16  24
ATOM     24  C   UNL A   1      30.226  29.304  23.879  1.00  0.00    -0.021 A 
ATOM     25  C   UNL A   1      29.826  30.652  23.956  1.00  0.00     0.006 A 
ATOM     26  C   UNL A   1      29.321  28.402  23.284  1.00  0.00     0.006 A 
ATOM     27  C   UNL A   1      28.569  31.068  23.503  1.00  0.00     0.000 A 
ATOM     28  C   UNL A   1      28.074  28.820  22.811  1.00  0.00     0.000 A 
ATOM     29  C   UNL A   1      27.693  30.151  22.932  1.00  0.00     0.000 A 
ENDBRANCH  16  24
ENDBRANCH   7   8
ENDBRANCH   4   7
ENDBRANCH   2   3
ENDBRANCH   1   2
BRANCH   1  30
ATOM     30  C   UNL A   1      35.214  34.053  29.014  1.00  0.00     0.118 C 
BRANCH  30  31
ATOM     31  N   UNL A   1      34.956  33.396  30.277  1.00  0.00    -0.352 N 
ATOM     32  C   UNL A   1      35.525  32.375  30.978  1.00  0.00     0.251 C 
ATOM     33  H   UNL A   1      34.180  33.781  30.745  1.00  0.00     0.163 HD
ATOM     34  O   UNL A   1      35.030  32.150  32.085  1.00  0.00    -0.269 OA
BRANCH  32  35
ATOM     35  C   UNL A   1      36.615  31.486  30.494  1.00  0.00     0.039 A 
ATOM     36  C   UNL A   1      36.508  30.119  30.233  1.00  0.00     0.014 A 
ATOM     37  C   UNL A   1      37.883  32.092  30.408  1.00  0.00     0.014 A 
ATOM     38  C   UNL A   1      37.657  29.354  30.050  1.00  0.00     0.010 A 
ATOM     39  C   UNL A   1      39.028  31.339  30.203  1.00  0.00     0.010 A 
ATOM     40  C   UNL A   1      38.915  29.958  30.117  1.00  0.00    -0.014 A 
BRANCH  40  41
ATOM     41  C   UNL A   1      40.100  29.107  30.115  1.00  0.00     0.031 A 
ATOM     42  C   UNL A   1      40.720  28.864  31.449  1.00  0.00     0.074 A 
ATOM     43  C   UNL A   1      40.555  28.520  28.988  1.00  0.00     0.049 A 
ATOM     44  N   UNL A   1      41.912  29.170  31.850  1.00  0.00    -0.248 NA
ATOM     45  C   UNL A   1      39.864  28.293  32.501  1.00  0.00     0.031 C 
ATOM     46  C   UNL A   1      39.924  28.458  27.664  1.00  0.00     0.029 A 
ATOM     47  N   UNL A   1      41.681  27.774  28.813  1.00  0.00    -0.354 N 
ATOM     48  C   UNL A   1      42.014  28.699  33.159  1.00  0.00     0.074 A 
ATOM     49  C   UNL A   1      40.695  28.269  33.545  1.00  0.00     0.031 C 
ATOM     50  C   UNL A   1      40.554  27.531  26.904  1.00  0.00     0.029 A 
ATOM     51  C   UNL A   1      41.719  27.055  27.626  1.00  0.00     0.049 A 
ATOM     52  H   UNL A   1      42.409  27.746  29.475  1.00  0.00     0.167 HD
ATOM     53  C   UNL A   1      43.215  28.532  33.779  1.00  0.00     0.037 A 
ATOM     54  C   UNL A   1      42.618  26.093  27.299  1.00  0.00     0.037 A 
ATOM     55  C   UNL A   1      44.262  29.268  33.128  1.00  0.00     0.049 A 
ATOM     56  C   UNL A   1      43.806  26.294  28.165  1.00  0.00     0.074 A 
ATOM     57  C   UNL A   1      44.549  30.607  32.955  1.00  0.00     0.029 A 
ATOM     58  N   UNL A   1      45.055  28.603  32.229  1.00  0.00    -0.354 N 
ATOM     59  N   UNL A   1      44.594  27.330  28.087  1.00  0.00    -0.248 NA
ATOM     60  C   UNL A   1      43.849  25.565  29.422  1.00  0.00     0.031 C 
ATOM     61  C   UNL A   1      45.111  30.698  31.648  1.00  0.00     0.029 A 
ATOM     62  C   UNL A   1      45.176  29.406  31.124  1.00  0.00     0.049 A 
ATOM     63  H   UNL A   1      45.461  27.714  32.352  1.00  0.00     0.167 HD
ATOM     64  C   UNL A   1      44.912  27.630  29.402  1.00  0.00     0.074 A 
ATOM     65  C   UNL A   1      44.480  26.469  30.174  1.00  0.00     0.031 C 
ATOM     66  C   UNL A   1      45.241  28.901  29.774  1.00  0.00     0.037 A 
BRANCH  53  67
ATOM     67  C   UNL A   1      43.503  27.454  34.789  1.00  0.00     0.064 A 
ATOM     68  C   UNL A   1      43.761  27.795  36.130  1.00  0.00     0.173 A 
ATOM     69  C   UNL A   1      43.822  26.131  34.420  1.00  0.00     0.173 A 
ATOM     70  F   UNL A   1      43.522  29.037  36.578  1.00  0.00    -0.203 F 
ATOM     71  C   UNL A   1      44.349  26.890  37.019  1.00  0.00     0.198 A 
ATOM     72  C   UNL A   1      44.361  25.216  35.322  1.00  0.00     0.198 A 
ATOM     73  F   UNL A   1      43.727  25.710  33.151  1.00  0.00    -0.203 F 
ATOM     74  F   UNL A   1      44.680  27.289  38.256  1.00  0.00    -0.200 F 
ATOM     75  C   UNL A   1      44.652  25.602  36.614  1.00  0.00     0.200 A 
ATOM     76  F   UNL A   1      44.669  23.980  34.903  1.00  0.00    -0.200 F 
ATOM     77  F   UNL A   1      45.266  24.752  37.446  1.00  0.00    -0.200 F 
ENDBRANCH  53  67
BRANCH  54  78
ATOM     78  C   UNL A   1      42.336  24.788  26.649  1.00  0.00     0.064 A 
ATOM     79  C   UNL A   1      43.089  24.353  25.546  1.00  0.00     0.173 A 
ATOM     80  C   UNL A   1      41.541  23.814  27.286  1.00  0.00     0.173 A 
ATOM     81  F   UNL A   1      43.910  25.206  24.914  1.00  0.00    -0.203 F 
ATOM     82  C   UNL A   1      43.075  23.017  25.127  1.00  0.00     0.198 A 
ATOM     83  C   UNL A   1      41.525  22.484  26.866  1.00  0.00     0.198 A 
ATOM     84  F   UNL A   1      40.846  24.112  28.393  1.00  0.00    -0.203 F 
ATOM     85  F   UNL A   1      43.859  22.625  24.114  1.00  0.00    -0.200 F 
ATOM     86  C   UNL A   1      42.303  22.082  25.796  1.00  0.00     0.200 A 
ATOM     87  F   UNL A   1      40.806  21.580  27.547  1.00  0.00    -0.200 F 
ATOM     88  F   UNL A   1      42.343  20.790  25.441  1.00  0.00    -0.200 F 
ENDBRANCH  54  78
BRANCH  66  89
ATOM     89  C   UNL A   1      45.458  29.910  28.679  1.00  0.00     0.064 A 
ATOM     90  C   UNL A   1      44.430  30.695  28.126  1.00  0.00     0.173 A 
ATOM     91  C   UNL A   1      46.770  30.197  28.283  1.00  0.00     0.173 A 
ATOM     92  F   UNL A   1      43.163  30.553  28.530  1.00  0.00    -0.203 F 
ATOM     93  C   UNL A   1      44.703  31.692  27.190  1.00  0.00     0.198 A 
ATOM     94  C   UNL A   1      47.043  31.215  27.374  1.00  0.00     0.198 A 
ATOM     95  F   UNL A   1      47.796  29.522  28.824  1.00  0.00    -0.203 F 
ATOM     96  F   UNL A   1      43.705  32.426  26.677  1.00  0.00    -0.200 F 
ATOM     97  C   UNL A   1      46.011  31.955  26.821  1.00  0.00     0.200 A 
ATOM     98  F   UNL A   1      48.314  31.504  27.062  1.00  0.00    -0.200 F 
ATOM     99  F   UNL A   1      46.280  32.946  25.958  1.00  0.00    -0.200 F 
ENDBRANCH  66  89
ENDBRANCH  40  41
ENDBRANCH  32  35
ENDBRANCH  30  31
ENDBRANCH   1  30
TORSDOF 13
ENDMDL
