MODEL 1
REMARK VINA RESULT:     -13.2      0.000      0.000
REMARK SMILES O=C(NCCCNC(=O)c1c(C(=O)N2CCc3ccccc32)cccc1[N+](=O)[O-])c1ccc(-c2c3nc(c(-c4c(F)c(F)c(F)c(F)c4F)c4ccc([nH]4)c(-c4c(F)c(F)c(F)c(F)c4F)c4nc(c(-c5c(F)c(F)c(F)c(F)c5F)c5ccc2[nH]5)C=C4)C=C3)cc1
REMARK SMILES IDX 5 1 4 2 3 3 1 4 2 5 30 7 31 8 92 9 32 10 91 11 33 12 34 13
REMARK SMILES IDX 35 14 85 15 36 16 90 17 84 18 86 19 37 20 89 21 83 22 82 23
REMARK SMILES IDX 38 25 70 26 50 27 69 28 51 29 54 30 68 31 87 32 52 33 53 34
REMARK SMILES IDX 67 36 88 37 55 38 39 39 40 40 48 41 41 42 42 43 46 44 49 45
REMARK SMILES IDX 43 46 44 47 47 48 45 49 71 50 72 51 80 52 73 53 74 54 78 55
REMARK SMILES IDX 81 56 75 57 76 58 79 59 77 60 56 61 57 62 65 63 58 64 59 65
REMARK SMILES IDX 63 66 66 67 60 68 61 69 64 70 62 71 6 72 7 73 8 74 9 76
REMARK SMILES IDX 10 77 11 78 26 79 23 80 25 81 24 82 12 83 13 84 14 85 15 86
REMARK SMILES IDX 22 87 16 88 17 89 21 90 18 91 20 92 19 93 27 94 28 95 29 96
REMARK H PARENT 3 6 86 24 54 35 7 75
REMARK Flexibility Score: inf
ROOT
ATOM      1  C   UNL A   1      31.377  31.505  26.338  1.00  0.00     0.042 C 
ENDROOT
BRANCH   1   2
ATOM      2  C   UNL A   1      32.631  32.176  26.876  1.00  0.00     0.118 C 
BRANCH   2   3
ATOM      3  N   UNL A   1      32.419  33.537  27.347  1.00  0.00    -0.352 N 
ATOM      4  O   UNL A   1      32.649  35.384  28.614  1.00  0.00    -0.269 OA
ATOM      5  C   UNL A   1      33.072  34.273  28.309  1.00  0.00     0.251 C 
ATOM      6  H   UNL A   1      31.681  34.014  26.899  1.00  0.00     0.163 HD
BRANCH   5   7
ATOM      7  C   UNL A   1      34.258  33.732  29.012  1.00  0.00     0.039 A 
ATOM      8  C   UNL A   1      35.539  34.214  28.752  1.00  0.00     0.014 A 
ATOM      9  C   UNL A   1      34.081  32.731  29.975  1.00  0.00     0.014 A 
ATOM     10  C   UNL A   1      36.647  33.573  29.295  1.00  0.00     0.010 A 
ATOM     11  C   UNL A   1      35.192  32.163  30.610  1.00  0.00     0.010 A 
ATOM     12  C   UNL A   1      36.489  32.549  30.242  1.00  0.00    -0.014 A 
BRANCH  12  13
ATOM     13  C   UNL A   1      37.697  31.948  30.866  1.00  0.00     0.031 A 
ATOM     14  C   UNL A   1      38.132  32.328  32.255  1.00  0.00     0.074 A 
ATOM     15  C   UNL A   1      38.379  31.009  30.180  1.00  0.00     0.049 A 
ATOM     16  N   UNL A   1      39.139  31.871  32.958  1.00  0.00    -0.248 NA
ATOM     17  C   UNL A   1      37.340  33.357  32.947  1.00  0.00     0.031 C 
ATOM     18  C   UNL A   1      38.060  30.566  28.821  1.00  0.00     0.029 A 
ATOM     19  N   UNL A   1      39.457  30.240  30.533  1.00  0.00    -0.354 N 
ATOM     20  C   UNL A   1      39.114  32.566  34.159  1.00  0.00     0.074 A 
ATOM     21  C   UNL A   1      38.008  33.495  34.084  1.00  0.00     0.031 C 
ATOM     22  C   UNL A   1      38.884  29.567  28.478  1.00  0.00     0.029 A 
ATOM     23  C   UNL A   1      39.832  29.344  29.562  1.00  0.00     0.049 A 
ATOM     24  H   UNL A   1      39.918  30.321  31.400  1.00  0.00     0.167 HD
ATOM     25  C   UNL A   1      39.936  32.432  35.229  1.00  0.00     0.037 A 
ATOM     26  C   UNL A   1      40.839  28.452  29.537  1.00  0.00     0.037 A 
ATOM     27  C   UNL A   1      41.028  31.495  35.305  1.00  0.00     0.049 A 
ATOM     28  C   UNL A   1      41.744  28.342  30.729  1.00  0.00     0.074 A 
ATOM     29  C   UNL A   1      41.901  31.268  36.356  1.00  0.00     0.029 A 
ATOM     30  N   UNL A   1      41.398  30.629  34.287  1.00  0.00    -0.354 N 
ATOM     31  N   UNL A   1      41.692  28.989  31.867  1.00  0.00    -0.248 NA
ATOM     32  C   UNL A   1      42.852  27.383  30.629  1.00  0.00     0.031 C 
ATOM     33  C   UNL A   1      42.823  30.294  35.959  1.00  0.00     0.029 A 
ATOM     34  C   UNL A   1      42.498  29.881  34.677  1.00  0.00     0.049 A 
ATOM     35  H   UNL A   1      40.946  30.557  33.415  1.00  0.00     0.167 HD
ATOM     36  C   UNL A   1      42.750  28.510  32.625  1.00  0.00     0.074 A 
ATOM     37  C   UNL A   1      43.412  27.498  31.825  1.00  0.00     0.031 C 
ATOM     38  C   UNL A   1      43.143  28.879  33.868  1.00  0.00     0.037 A 
BRANCH  25  39
ATOM     39  C   UNL A   1      39.698  33.331  36.410  1.00  0.00     0.064 A 
ATOM     40  C   UNL A   1      40.313  34.587  36.515  1.00  0.00     0.173 A 
ATOM     41  C   UNL A   1      38.801  32.954  37.422  1.00  0.00     0.173 A 
ATOM     42  F   UNL A   1      41.188  34.991  35.581  1.00  0.00    -0.203 F 
ATOM     43  C   UNL A   1      40.056  35.423  37.599  1.00  0.00     0.198 A 
ATOM     44  C   UNL A   1      38.526  33.803  38.491  1.00  0.00     0.198 A 
ATOM     45  F   UNL A   1      38.180  31.766  37.366  1.00  0.00    -0.203 F 
ATOM     46  F   UNL A   1      40.684  36.602  37.698  1.00  0.00    -0.200 F 
ATOM     47  C   UNL A   1      39.157  35.034  38.581  1.00  0.00     0.200 A 
ATOM     48  F   UNL A   1      37.649  33.430  39.433  1.00  0.00    -0.200 F 
ATOM     49  F   UNL A   1      38.903  35.844  39.619  1.00  0.00    -0.200 F 
ENDBRANCH  25  39
BRANCH  26  50
ATOM     50  C   UNL A   1      41.040  27.602  28.336  1.00  0.00     0.064 A 
ATOM     51  C   UNL A   1      41.912  27.994  27.312  1.00  0.00     0.173 A 
ATOM     52  C   UNL A   1      40.376  26.374  28.196  1.00  0.00     0.173 A 
ATOM     53  F   UNL A   1      42.555  29.167  27.392  1.00  0.00    -0.203 F 
ATOM     54  C   UNL A   1      42.103  27.193  26.187  1.00  0.00     0.198 A 
ATOM     55  C   UNL A   1      40.592  25.561  27.086  1.00  0.00     0.198 A 
ATOM     56  F   UNL A   1      39.535  25.953  29.152  1.00  0.00    -0.203 F 
ATOM     57  F   UNL A   1      42.913  27.609  25.204  1.00  0.00    -0.200 F 
ATOM     58  C   UNL A   1      41.449  25.976  26.079  1.00  0.00     0.200 A 
ATOM     59  F   UNL A   1      39.971  24.377  26.995  1.00  0.00    -0.200 F 
ATOM     60  F   UNL A   1      41.641  25.202  25.001  1.00  0.00    -0.200 F 
ENDBRANCH  26  50
BRANCH  38  61
ATOM     61  C   UNL A   1      44.330  28.166  34.444  1.00  0.00     0.064 A 
ATOM     62  C   UNL A   1      45.630  28.675  34.304  1.00  0.00     0.173 A 
ATOM     63  C   UNL A   1      44.164  26.970  35.159  1.00  0.00     0.173 A 
ATOM     64  F   UNL A   1      45.841  29.805  33.613  1.00  0.00    -0.203 F 
ATOM     65  C   UNL A   1      46.724  27.998  34.837  1.00  0.00     0.198 A 
ATOM     66  C   UNL A   1      45.257  26.311  35.714  1.00  0.00     0.198 A 
ATOM     67  F   UNL A   1      42.941  26.446  35.323  1.00  0.00    -0.203 F 
ATOM     68  F   UNL A   1      47.961  28.476  34.648  1.00  0.00    -0.200 F 
ATOM     69  C   UNL A   1      46.535  26.820  35.545  1.00  0.00     0.200 A 
ATOM     70  F   UNL A   1      45.073  25.179  36.406  1.00  0.00    -0.200 F 
ATOM     71  F   UNL A   1      47.590  26.171  36.058  1.00  0.00    -0.200 F 
ENDBRANCH  38  61
ENDBRANCH  12  13
ENDBRANCH   5   7
ENDBRANCH   2   3
ENDBRANCH   1   2
BRANCH   1  72
ATOM     72  C   UNL A   1      31.521  30.027  26.016  1.00  0.00     0.118 C 
BRANCH  72  73
ATOM     73  N   UNL A   1      32.253  29.753  24.784  1.00  0.00    -0.352 N 
ATOM     74  C   UNL A   1      31.931  29.004  23.675  1.00  0.00     0.259 C 
ATOM     75  H   UNL A   1      33.138  30.182  24.737  1.00  0.00     0.163 HD
ATOM     76  O   UNL A   1      32.731  28.953  22.747  1.00  0.00    -0.269 OA
BRANCH  74  77
ATOM     77  C   UNL A   1      30.675  28.228  23.624  1.00  0.00     0.130 A 
ATOM     78  C   UNL A   1      30.635  26.895  24.072  1.00  0.00     0.060 A 
ATOM     79  C   UNL A   1      29.482  28.804  23.167  1.00  0.00     0.282 A 
ATOM     80  C   UNL A   1      29.397  26.239  24.180  1.00  0.00     0.015 A 
ATOM     81  C   UNL A   1      28.242  28.171  23.336  1.00  0.00     0.086 A 
ATOM     82  C   UNL A   1      28.202  26.893  23.876  1.00  0.00     0.008 A 
BRANCH  78  83
ATOM     83  C   UNL A   1      31.874  26.110  24.337  1.00  0.00     0.259 C 
ATOM     84  O   UNL A   1      32.660  26.511  25.186  1.00  0.00    -0.269 OA
BRANCH  83  85
ATOM     85  N   UNL A   1      32.036  24.961  23.598  1.00  0.00    -0.308 N 
ATOM     86  C   UNL A   1      32.679  24.921  22.283  1.00  0.00     0.131 C 
ATOM     87  C   UNL A   1      31.941  23.660  24.095  1.00  0.00     0.047 A 
ATOM     88  C   UNL A   1      33.279  23.509  22.135  1.00  0.00     0.059 C 
ATOM     89  C   UNL A   1      32.731  22.805  23.338  1.00  0.00    -0.022 A 
ATOM     90  C   UNL A   1      31.211  23.214  25.181  1.00  0.00     0.026 A 
ATOM     91  C   UNL A   1      32.950  21.505  23.763  1.00  0.00     0.006 A 
ATOM     92  C   UNL A   1      31.402  21.901  25.603  1.00  0.00     0.002 A 
ATOM     93  C   UNL A   1      32.298  21.065  24.921  1.00  0.00     0.000 A 
ENDBRANCH  83  85
ENDBRANCH  78  83
BRANCH  79  94
ATOM     94  N   UNL A   1      29.493  30.062  22.441  1.00  0.00     0.063 N 
ATOM     95  O   UNL A   1      29.154  31.075  23.071  1.00  0.00    -0.258 OA
ATOM     96  O   UNL A   1      29.826  30.038  21.251  1.00  0.00    -0.258 OA
ENDBRANCH  79  94
ENDBRANCH  74  77
ENDBRANCH  72  73
ENDBRANCH   1  72
TORSDOF 13
ENDMDL
MODEL 2
REMARK VINA RESULT:     -13.1      0.172      1.575
REMARK SMILES O=C(NCCCNC(=O)c1c(C(=O)N2CCc3ccccc32)cccc1[N+](=O)[O-])c1ccc(-c2c3nc(c(-c4c(F)c(F)c(F)c(F)c4F)c4ccc([nH]4)c(-c4c(F)c(F)c(F)c(F)c4F)c4nc(c(-c5c(F)c(F)c(F)c(F)c5F)c5ccc2[nH]5)C=C4)C=C3)cc1
REMARK SMILES IDX 5 1 4 2 3 3 1 4 2 5 30 7 31 8 92 9 32 10 91 11 33 12 34 13
REMARK SMILES IDX 35 14 85 15 36 16 90 17 84 18 86 19 37 20 89 21 83 22 82 23
REMARK SMILES IDX 38 25 70 26 50 27 69 28 51 29 54 30 68 31 87 32 52 33 53 34
REMARK SMILES IDX 67 36 88 37 55 38 39 39 40 40 48 41 41 42 42 43 46 44 49 45
REMARK SMILES IDX 43 46 44 47 47 48 45 49 71 50 72 51 80 52 73 53 74 54 78 55
REMARK SMILES IDX 81 56 75 57 76 58 79 59 77 60 56 61 57 62 65 63 58 64 59 65
REMARK SMILES IDX 63 66 66 67 60 68 61 69 64 70 62 71 6 72 7 73 8 74 9 76
REMARK SMILES IDX 10 77 11 78 26 79 23 80 25 81 24 82 12 83 13 84 14 85 15 86
REMARK SMILES IDX 22 87 16 88 17 89 21 90 18 91 20 92 19 93 27 94 28 95 29 96
REMARK H PARENT 3 6 86 24 54 35 7 75
REMARK Flexibility Score: inf
ROOT
ATOM      1  C   UNL A   1      31.398  31.456  26.407  1.00  0.00     0.042 C 
ENDROOT
BRANCH   1   2
ATOM      2  C   UNL A   1      32.657  32.148  26.904  1.00  0.00     0.118 C 
BRANCH   2   3
ATOM      3  N   UNL A   1      32.445  33.521  27.341  1.00  0.00    -0.352 N 
ATOM      4  O   UNL A   1      32.680  35.401  28.557  1.00  0.00    -0.269 OA
ATOM      5  C   UNL A   1      33.104  34.284  28.278  1.00  0.00     0.251 C 
ATOM      6  H   UNL A   1      31.702  33.983  26.888  1.00  0.00     0.163 HD
BRANCH   5   7
ATOM      7  C   UNL A   1      34.299  33.765  28.984  1.00  0.00     0.039 A 
ATOM      8  C   UNL A   1      35.573  34.263  28.718  1.00  0.00     0.014 A 
ATOM      9  C   UNL A   1      34.137  32.769  29.955  1.00  0.00     0.014 A 
ATOM     10  C   UNL A   1      36.690  33.641  29.265  1.00  0.00     0.010 A 
ATOM     11  C   UNL A   1      35.256  32.222  30.593  1.00  0.00     0.010 A 
ATOM     12  C   UNL A   1      36.547  32.623  30.221  1.00  0.00    -0.014 A 
BRANCH  12  13
ATOM     13  C   UNL A   1      37.764  32.044  30.848  1.00  0.00     0.031 A 
ATOM     14  C   UNL A   1      38.199  32.446  32.230  1.00  0.00     0.074 A 
ATOM     15  C   UNL A   1      38.454  31.105  30.171  1.00  0.00     0.049 A 
ATOM     16  N   UNL A   1      39.214  32.010  32.936  1.00  0.00    -0.248 NA
ATOM     17  C   UNL A   1      37.398  33.475  32.912  1.00  0.00     0.031 C 
ATOM     18  C   UNL A   1      38.137  30.641  28.819  1.00  0.00     0.029 A 
ATOM     19  N   UNL A   1      39.543  30.352  30.531  1.00  0.00    -0.354 N 
ATOM     20  C   UNL A   1      39.185  32.720  34.128  1.00  0.00     0.074 A 
ATOM     21  C   UNL A   1      38.067  33.635  34.045  1.00  0.00     0.031 C 
ATOM     22  C   UNL A   1      38.971  29.647  28.486  1.00  0.00     0.029 A 
ATOM     23  C   UNL A   1      39.925  29.448  29.570  1.00  0.00     0.049 A 
ATOM     24  H   UNL A   1      40.006  30.450  31.394  1.00  0.00     0.167 HD
ATOM     25  C   UNL A   1      40.011  32.609  35.197  1.00  0.00     0.037 A 
ATOM     26  C   UNL A   1      40.942  28.568  29.553  1.00  0.00     0.037 A 
ATOM     27  C   UNL A   1      41.115  31.685  35.281  1.00  0.00     0.049 A 
ATOM     28  C   UNL A   1      41.852  28.483  30.742  1.00  0.00     0.074 A 
ATOM     29  C   UNL A   1      41.993  31.482  36.332  1.00  0.00     0.029 A 
ATOM     30  N   UNL A   1      41.492  30.811  34.273  1.00  0.00    -0.354 N 
ATOM     31  N   UNL A   1      41.797  29.144  31.873  1.00  0.00    -0.248 NA
ATOM     32  C   UNL A   1      42.971  27.536  30.651  1.00  0.00     0.031 C 
ATOM     33  C   UNL A   1      42.925  30.514  35.944  1.00  0.00     0.029 A 
ATOM     34  C   UNL A   1      42.601  30.080  34.668  1.00  0.00     0.049 A 
ATOM     35  H   UNL A   1      41.037  30.722  33.403  1.00  0.00     0.167 HD
ATOM     36  C   UNL A   1      42.863  28.687  32.633  1.00  0.00     0.074 A 
ATOM     37  C   UNL A   1      43.534  27.672  31.844  1.00  0.00     0.031 C 
ATOM     38  C   UNL A   1      43.255  29.076  33.870  1.00  0.00     0.037 A 
BRANCH  25  39
ATOM     39  C   UNL A   1      39.767  33.520  36.367  1.00  0.00     0.064 A 
ATOM     40  C   UNL A   1      40.371  34.782  36.456  1.00  0.00     0.173 A 
ATOM     41  C   UNL A   1      38.874  33.147  37.385  1.00  0.00     0.173 A 
ATOM     42  F   UNL A   1      41.242  35.182  35.517  1.00  0.00    -0.203 F 
ATOM     43  C   UNL A   1      40.108  35.629  37.531  1.00  0.00     0.198 A 
ATOM     44  C   UNL A   1      38.593  34.006  38.443  1.00  0.00     0.198 A 
ATOM     45  F   UNL A   1      38.263  31.954  37.344  1.00  0.00    -0.203 F 
ATOM     46  F   UNL A   1      40.726  36.814  37.615  1.00  0.00    -0.200 F 
ATOM     47  C   UNL A   1      39.213  35.244  38.519  1.00  0.00     0.200 A 
ATOM     48  F   UNL A   1      37.719  33.638  39.391  1.00  0.00    -0.200 F 
ATOM     49  F   UNL A   1      38.954  36.064  39.547  1.00  0.00    -0.200 F 
ENDBRANCH  25  39
BRANCH  26  50
ATOM     50  C   UNL A   1      41.149  27.706  28.361  1.00  0.00     0.064 A 
ATOM     51  C   UNL A   1      40.482  26.481  28.231  1.00  0.00     0.173 A 
ATOM     52  C   UNL A   1      42.007  28.097  27.322  1.00  0.00     0.173 A 
ATOM     53  F   UNL A   1      39.666  26.056  29.206  1.00  0.00    -0.203 F 
ATOM     54  C   UNL A   1      40.673  25.674  27.111  1.00  0.00     0.198 A 
ATOM     55  C   UNL A   1      42.174  27.305  26.189  1.00  0.00     0.198 A 
ATOM     56  F   UNL A   1      42.664  29.263  27.397  1.00  0.00    -0.203 F 
ATOM     57  F   UNL A   1      40.053  24.490  27.028  1.00  0.00    -0.200 F 
ATOM     58  C   UNL A   1      41.513  26.090  26.089  1.00  0.00     0.200 A 
ATOM     59  F   UNL A   1      42.971  27.720  25.196  1.00  0.00    -0.200 F 
ATOM     60  F   UNL A   1      41.689  25.319  25.007  1.00  0.00    -0.200 F 
ENDBRANCH  26  50
BRANCH  38  61
ATOM     61  C   UNL A   1      44.453  28.384  34.450  1.00  0.00     0.064 A 
ATOM     62  C   UNL A   1      44.330  27.191  35.177  1.00  0.00     0.173 A 
ATOM     63  C   UNL A   1      45.739  28.911  34.261  1.00  0.00     0.173 A 
ATOM     64  F   UNL A   1      43.119  26.659  35.401  1.00  0.00    -0.203 F 
ATOM     65  C   UNL A   1      45.450  26.565  35.718  1.00  0.00     0.198 A 
ATOM     66  C   UNL A   1      46.859  28.268  34.779  1.00  0.00     0.198 A 
ATOM     67  F   UNL A   1      45.908  30.048  33.569  1.00  0.00    -0.203 F 
ATOM     68  F   UNL A   1      45.304  25.454  36.452  1.00  0.00    -0.200 F 
ATOM     69  C   UNL A   1      46.713  27.101  35.513  1.00  0.00     0.200 A 
ATOM     70  F   UNL A   1      48.079  28.781  34.573  1.00  0.00    -0.200 F 
ATOM     71  F   UNL A   1      47.790  26.496  36.033  1.00  0.00    -0.200 F 
ENDBRANCH  38  61
ENDBRANCH  12  13
ENDBRANCH   5   7
ENDBRANCH   2   3
ENDBRANCH   1   2
BRANCH   1  72
ATOM     72  C   UNL A   1      31.565  29.988  26.050  1.00  0.00     0.118 C 
BRANCH  72  73
ATOM     73  N   UNL A   1      32.285  29.756  24.803  1.00  0.00    -0.352 N 
ATOM     74  C   UNL A   1      31.957  29.037  23.676  1.00  0.00     0.259 C 
ATOM     75  H   UNL A   1      33.167  30.191  24.760  1.00  0.00     0.163 HD
ATOM     76  O   UNL A   1      32.748  29.019  22.739  1.00  0.00    -0.269 OA
BRANCH  74  77
ATOM     77  C   UNL A   1      30.706  28.255  23.615  1.00  0.00     0.130 A 
ATOM     78  C   UNL A   1      30.669  26.922  24.062  1.00  0.00     0.060 A 
ATOM     79  C   UNL A   1      29.513  28.825  23.149  1.00  0.00     0.282 A 
ATOM     80  C   UNL A   1      29.433  26.259  24.160  1.00  0.00     0.015 A 
ATOM     81  C   UNL A   1      28.275  28.185  23.308  1.00  0.00     0.086 A 
ATOM     82  C   UNL A   1      28.238  26.907  23.847  1.00  0.00     0.008 A 
BRANCH  78  83
ATOM     83  C   UNL A   1      31.909  26.142  24.336  1.00  0.00     0.259 C 
ATOM     84  O   UNL A   1      32.682  26.543  25.197  1.00  0.00    -0.269 OA
BRANCH  83  85
ATOM     85  N   UNL A   1      32.088  25.000  23.591  1.00  0.00    -0.308 N 
ATOM     86  C   UNL A   1      32.741  24.974  22.281  1.00  0.00     0.131 C 
ATOM     87  C   UNL A   1      32.001  23.695  24.079  1.00  0.00     0.047 A 
ATOM     88  C   UNL A   1      33.355  23.569  22.129  1.00  0.00     0.059 C 
ATOM     89  C   UNL A   1      32.805  22.852  23.323  1.00  0.00    -0.022 A 
ATOM     90  C   UNL A   1      31.268  23.235  25.157  1.00  0.00     0.026 A 
ATOM     91  C   UNL A   1      33.034  21.552  23.742  1.00  0.00     0.006 A 
ATOM     92  C   UNL A   1      31.468  21.922  25.572  1.00  0.00     0.002 A 
ATOM     93  C   UNL A   1      32.377  21.098  24.892  1.00  0.00     0.000 A 
ENDBRANCH  83  85
ENDBRANCH  78  83
BRANCH  79  94
ATOM     94  N   UNL A   1      29.524  30.084  22.424  1.00  0.00     0.063 N 
ATOM     95  O   UNL A   1      29.198  31.098  23.058  1.00  0.00    -0.258 OA
ATOM     96  O   UNL A   1      29.842  30.058  21.230  1.00  0.00    -0.258 OA
ENDBRANCH  79  94
ENDBRANCH  74  77
ENDBRANCH  72  73
ENDBRANCH   1  72
TORSDOF 13
ENDMDL
MODEL 3
REMARK VINA RESULT:     -13.0      5.211     10.769
REMARK SMILES O=C(NCCCNC(=O)c1c(C(=O)N2CCc3ccccc32)cccc1[N+](=O)[O-])c1ccc(-c2c3nc(c(-c4c(F)c(F)c(F)c(F)c4F)c4ccc([nH]4)c(-c4c(F)c(F)c(F)c(F)c4F)c4nc(c(-c5c(F)c(F)c(F)c(F)c5F)c5ccc2[nH]5)C=C4)C=C3)cc1
REMARK SMILES IDX 5 1 4 2 3 3 1 4 2 5 30 7 31 8 92 9 32 10 91 11 33 12 34 13
REMARK SMILES IDX 35 14 85 15 36 16 90 17 84 18 86 19 37 20 89 21 83 22 82 23
REMARK SMILES IDX 38 25 70 26 50 27 69 28 51 29 54 30 68 31 87 32 52 33 53 34
REMARK SMILES IDX 67 36 88 37 55 38 39 39 40 40 48 41 41 42 42 43 46 44 49 45
REMARK SMILES IDX 43 46 44 47 47 48 45 49 71 50 72 51 80 52 73 53 74 54 78 55
REMARK SMILES IDX 81 56 75 57 76 58 79 59 77 60 56 61 57 62 65 63 58 64 59 65
REMARK SMILES IDX 63 66 66 67 60 68 61 69 64 70 62 71 6 72 7 73 8 74 9 76
REMARK SMILES IDX 10 77 11 78 26 79 23 80 25 81 24 82 12 83 13 84 14 85 15 86
REMARK SMILES IDX 22 87 16 88 17 89 21 90 18 91 20 92 19 93 27 94 28 95 29 96
REMARK H PARENT 3 6 86 24 54 35 7 75
REMARK Flexibility Score: inf
ROOT
ATOM      1  C   UNL A   1      37.549  19.627  24.987  1.00  0.00     0.042 C 
ENDROOT
BRANCH   1   2
ATOM      2  C   UNL A   1      38.825  20.207  25.576  1.00  0.00     0.118 C 
BRANCH   2   3
ATOM      3  N   UNL A   1      39.897  19.235  25.738  1.00  0.00    -0.352 N 
ATOM      4  O   UNL A   1      41.976  18.430  26.050  1.00  0.00    -0.269 OA
ATOM      5  C   UNL A   1      41.223  19.398  26.071  1.00  0.00     0.251 C 
ATOM      6  H   UNL A   1      39.627  18.300  25.583  1.00  0.00     0.163 HD
BRANCH   5   7
ATOM      7  C   UNL A   1      41.766  20.732  26.420  1.00  0.00     0.039 A 
ATOM      8  C   UNL A   1      42.011  21.092  27.743  1.00  0.00     0.014 A 
ATOM      9  C   UNL A   1      42.059  21.637  25.393  1.00  0.00     0.014 A 
ATOM     10  C   UNL A   1      42.354  22.403  28.054  1.00  0.00     0.010 A 
ATOM     11  C   UNL A   1      42.518  22.924  25.701  1.00  0.00     0.010 A 
ATOM     12  C   UNL A   1      42.627  23.332  27.038  1.00  0.00    -0.014 A 
BRANCH  12  13
ATOM     13  C   UNL A   1      43.077  24.699  27.410  1.00  0.00     0.031 A 
ATOM     14  C   UNL A   1      44.481  25.163  27.136  1.00  0.00     0.074 A 
ATOM     15  C   UNL A   1      42.183  25.546  27.959  1.00  0.00     0.049 A 
ATOM     16  N   UNL A   1      45.023  26.334  27.364  1.00  0.00    -0.248 NA
ATOM     17  C   UNL A   1      45.403  24.187  26.533  1.00  0.00     0.031 C 
ATOM     18  C   UNL A   1      40.796  25.208  28.283  1.00  0.00     0.029 A 
ATOM     19  N   UNL A   1      42.293  26.865  28.315  1.00  0.00    -0.354 N 
ATOM     20  C   UNL A   1      46.345  26.231  26.954  1.00  0.00     0.074 A 
ATOM     21  C   UNL A   1      46.535  24.876  26.484  1.00  0.00     0.031 C 
ATOM     22  C   UNL A   1      40.169  26.302  28.734  1.00  0.00     0.029 A 
ATOM     23  C   UNL A   1      41.124  27.401  28.798  1.00  0.00     0.049 A 
ATOM     24  H   UNL A   1      43.129  27.380  28.233  1.00  0.00     0.167 HD
ATOM     25  C   UNL A   1      47.308  27.186  26.960  1.00  0.00     0.037 A 
ATOM     26  C   UNL A   1      40.852  28.636  29.258  1.00  0.00     0.037 A 
ATOM     27  C   UNL A   1      47.110  28.539  27.415  1.00  0.00     0.049 A 
ATOM     28  C   UNL A   1      41.944  29.665  29.272  1.00  0.00     0.074 A 
ATOM     29  C   UNL A   1      48.018  29.585  27.437  1.00  0.00     0.029 A 
ATOM     30  N   UNL A   1      45.921  29.034  27.930  1.00  0.00    -0.354 N 
ATOM     31  N   UNL A   1      43.183  29.559  28.857  1.00  0.00    -0.248 NA
ATOM     32  C   UNL A   1      41.603  30.981  29.825  1.00  0.00     0.031 C 
ATOM     33  C   UNL A   1      47.389  30.699  28.003  1.00  0.00     0.029 A 
ATOM     34  C   UNL A   1      46.076  30.363  28.291  1.00  0.00     0.049 A 
ATOM     35  H   UNL A   1      45.088  28.516  28.025  1.00  0.00     0.167 HD
ATOM     36  C   UNL A   1      43.767  30.796  29.087  1.00  0.00     0.074 A 
ATOM     37  C   UNL A   1      42.738  31.645  29.655  1.00  0.00     0.031 C 
ATOM     38  C   UNL A   1      45.042  31.191  28.855  1.00  0.00     0.037 A 
BRANCH  25  39
ATOM     39  C   UNL A   1      48.676  26.802  26.471  1.00  0.00     0.064 A 
ATOM     40  C   UNL A   1      49.609  26.177  27.311  1.00  0.00     0.173 A 
ATOM     41  C   UNL A   1      49.038  27.013  25.131  1.00  0.00     0.173 A 
ATOM     42  F   UNL A   1      49.318  25.962  28.603  1.00  0.00    -0.203 F 
ATOM     43  C   UNL A   1      50.861  25.796  26.833  1.00  0.00     0.198 A 
ATOM     44  C   UNL A   1      50.280  26.608  24.651  1.00  0.00     0.198 A 
ATOM     45  F   UNL A   1      48.180  27.601  24.284  1.00  0.00    -0.203 F 
ATOM     46  F   UNL A   1      51.751  25.234  27.663  1.00  0.00    -0.200 F 
ATOM     47  C   UNL A   1      51.192  26.005  25.502  1.00  0.00     0.200 A 
ATOM     48  F   UNL A   1      50.595  26.800  23.362  1.00  0.00    -0.200 F 
ATOM     49  F   UNL A   1      52.395  25.629  25.043  1.00  0.00    -0.200 F 
ENDBRANCH  25  39
BRANCH  26  50
ATOM     50  C   UNL A   1      39.487  28.955  29.747  1.00  0.00     0.064 A 
ATOM     51  C   UNL A   1      39.122  28.714  31.078  1.00  0.00     0.173 A 
ATOM     52  C   UNL A   1      38.525  29.523  28.898  1.00  0.00     0.173 A 
ATOM     53  F   UNL A   1      40.000  28.156  31.923  1.00  0.00    -0.203 F 
ATOM     54  C   UNL A   1      37.841  29.018  31.538  1.00  0.00     0.198 A 
ATOM     55  C   UNL A   1      37.256  29.854  29.366  1.00  0.00     0.198 A 
ATOM     56  F   UNL A   1      38.828  29.778  27.617  1.00  0.00    -0.203 F 
ATOM     57  F   UNL A   1      37.505  28.741  32.805  1.00  0.00    -0.200 F 
ATOM     58  C   UNL A   1      36.913  29.594  30.683  1.00  0.00     0.200 A 
ATOM     59  F   UNL A   1      36.370  30.428  28.542  1.00  0.00    -0.200 F 
ATOM     60  F   UNL A   1      35.686  29.895  31.129  1.00  0.00    -0.200 F 
ENDBRANCH  26  50
BRANCH  38  61
ATOM     61  C   UNL A   1      45.384  32.611  29.196  1.00  0.00     0.064 A 
ATOM     62  C   UNL A   1      45.912  32.957  30.449  1.00  0.00     0.173 A 
ATOM     63  C   UNL A   1      45.200  33.633  28.253  1.00  0.00     0.173 A 
ATOM     64  F   UNL A   1      46.088  32.017  31.390  1.00  0.00    -0.203 F 
ATOM     65  C   UNL A   1      46.217  34.281  30.755  1.00  0.00     0.198 A 
ATOM     66  C   UNL A   1      45.532  34.951  28.553  1.00  0.00     0.198 A 
ATOM     67  F   UNL A   1      44.702  33.352  27.040  1.00  0.00    -0.203 F 
ATOM     68  F   UNL A   1      46.672  34.596  31.975  1.00  0.00    -0.200 F 
ATOM     69  C   UNL A   1      46.032  35.274  29.805  1.00  0.00     0.200 A 
ATOM     70  F   UNL A   1      45.363  35.909  27.632  1.00  0.00    -0.200 F 
ATOM     71  F   UNL A   1      46.328  36.548  30.101  1.00  0.00    -0.200 F 
ENDBRANCH  38  61
ENDBRANCH  12  13
ENDBRANCH   5   7
ENDBRANCH   2   3
ENDBRANCH   1   2
BRANCH   1  72
ATOM     72  C   UNL A   1      36.455  20.640  24.692  1.00  0.00     0.118 C 
BRANCH  72  73
ATOM     73  N   UNL A   1      35.562  20.899  25.817  1.00  0.00    -0.352 N 
ATOM     74  C   UNL A   1      34.189  20.930  25.908  1.00  0.00     0.259 C 
ATOM     75  H   UNL A   1      36.026  21.086  26.665  1.00  0.00     0.163 HD
ATOM     76  O   UNL A   1      33.677  21.156  26.999  1.00  0.00    -0.269 OA
BRANCH  74  77
ATOM     77  C   UNL A   1      33.346  20.754  24.708  1.00  0.00     0.130 A 
ATOM     78  C   UNL A   1      32.924  21.866  23.956  1.00  0.00     0.060 A 
ATOM     79  C   UNL A   1      32.976  19.479  24.259  1.00  0.00     0.282 A 
ATOM     80  C   UNL A   1      32.277  21.664  22.725  1.00  0.00     0.015 A 
ATOM     81  C   UNL A   1      32.389  19.278  23.001  1.00  0.00     0.086 A 
ATOM     82  C   UNL A   1      32.069  20.380  22.219  1.00  0.00     0.008 A 
BRANCH  78  83
ATOM     83  C   UNL A   1      33.042  23.261  24.469  1.00  0.00     0.259 C 
ATOM     84  O   UNL A   1      34.155  23.719  24.690  1.00  0.00    -0.269 OA
BRANCH  83  85
ATOM     85  N   UNL A   1      31.861  23.944  24.648  1.00  0.00    -0.308 N 
ATOM     86  C   UNL A   1      31.065  23.889  25.876  1.00  0.00     0.131 C 
ATOM     87  C   UNL A   1      31.425  25.021  23.874  1.00  0.00     0.047 A 
ATOM     88  C   UNL A   1      30.303  25.226  25.960  1.00  0.00     0.059 C 
ATOM     89  C   UNL A   1      30.603  25.846  24.630  1.00  0.00    -0.022 A 
ATOM     90  C   UNL A   1      31.736  25.304  22.557  1.00  0.00     0.026 A 
ATOM     91  C   UNL A   1      30.213  27.079  24.134  1.00  0.00     0.006 A 
ATOM     92  C   UNL A   1      31.327  26.529  22.037  1.00  0.00     0.002 A 
ATOM     93  C   UNL A   1      30.604  27.427  22.836  1.00  0.00     0.000 A 
ENDBRANCH  83  85
ENDBRANCH  78  83
BRANCH  79  94
ATOM     94  N   UNL A   1      33.133  18.315  25.114  1.00  0.00     0.063 N 
ATOM     95  O   UNL A   1      34.189  17.677  25.001  1.00  0.00    -0.258 OA
ATOM     96  O   UNL A   1      32.205  18.034  25.880  1.00  0.00    -0.258 OA
ENDBRANCH  79  94
ENDBRANCH  74  77
ENDBRANCH  72  73
ENDBRANCH   1  72
TORSDOF 13
ENDMDL
