MODEL 1
REMARK VINA RESULT:     -12.2      0.000      0.000
REMARK SMILES CC[NH+](CC)[C@](C)(C(=O)NCCCNC(=O)c1ccc(-c2c3nc(c(-c4c(F)c(F)c(F)c(F)c4F)c4ccc([nH]4)c(-c4c(F)c(F)c(F)c(F)c4F)c4nc(c(-c5c(F)c(F)c(F)c(F)c5F)c5ccc2[nH]5)C=C4)C=C3)cc1)c1cc(F)c(C)cc1F
REMARK SMILES IDX 12 1 11 2 10 3 8 4 9 5 6 7 7 8 3 9 2 11 1 12 4 13 5 14 80 15
REMARK SMILES IDX 81 16 87 17 82 18 86 19 88 20 83 21 84 22 85 23 13 24 14 25
REMARK SMILES IDX 15 26 16 28 17 29 18 30 79 31 19 32 78 33 20 34 21 35 22 36
REMARK SMILES IDX 72 37 23 38 77 39 71 40 73 41 24 42 76 43 70 44 69 45 25 47
REMARK SMILES IDX 57 48 37 49 56 50 38 51 41 52 55 53 74 54 39 55 40 56 54 58
REMARK SMILES IDX 75 59 42 60 26 61 27 62 35 63 28 64 29 65 33 66 36 67 30 68
REMARK SMILES IDX 31 69 34 70 32 71 58 72 59 73 67 74 60 75 61 76 65 77 68 78
REMARK SMILES IDX 62 79 63 80 66 81 64 82 43 83 44 84 52 85 45 86 46 87 50 88
REMARK SMILES IDX 53 89 47 90 48 91 51 92 49 93
REMARK H PARENT 10 6 3 10 14 27 73 46 41 57
REMARK Flexibility Score: inf
ROOT
ATOM      1  C   UNL A   1      31.666  31.811  26.737  1.00  0.00     0.042 C 
ENDROOT
BRANCH   1   2
ATOM      2  C   UNL A   1      31.908  30.315  26.727  1.00  0.00     0.118 C 
BRANCH   2   3
ATOM      3  N   UNL A   1      32.911  29.906  25.764  1.00  0.00    -0.350 N 
ATOM      4  C   UNL A   1      32.983  28.848  24.903  1.00  0.00     0.286 C 
ATOM      5  O   UNL A   1      33.838  28.992  24.016  1.00  0.00    -0.267 OA
ATOM      6  H   UNL A   1      33.692  30.506  25.723  1.00  0.00     0.163 HD
BRANCH   4   7
ATOM      7  C   UNL A   1      32.114  27.528  25.036  1.00  0.00     0.202 C 
ATOM      8  C   UNL A   1      31.759  27.304  26.537  1.00  0.00     0.096 C 
BRANCH   7   9
ATOM      9  N   UNL A   1      30.866  27.507  24.170  1.00  0.00    -0.319 N 
ATOM     10  H   UNL A   1      31.267  27.218  23.278  1.00  0.00     0.349 HD
BRANCH   9  11
ATOM     11  C   UNL A   1      30.238  28.764  23.761  1.00  0.00     0.259 C 
ATOM     12  C   UNL A   1      30.463  29.178  22.307  1.00  0.00     0.071 C 
ENDBRANCH   9  11
BRANCH   9  13
ATOM     13  C   UNL A   1      29.880  26.508  24.639  1.00  0.00     0.259 C 
ATOM     14  C   UNL A   1      28.534  26.522  23.916  1.00  0.00     0.071 C 
ENDBRANCH   9  13
ENDBRANCH   7   9
BRANCH   7  15
ATOM     15  C   UNL A   1      33.073  26.362  24.594  1.00  0.00     0.060 A 
ATOM     16  C   UNL A   1      33.961  25.752  25.504  1.00  0.00     0.053 A 
ATOM     17  C   UNL A   1      33.138  25.917  23.260  1.00  0.00     0.133 A 
ATOM     18  C   UNL A   1      34.772  24.684  25.117  1.00  0.00     0.126 A 
ATOM     19  C   UNL A   1      33.948  24.842  22.878  1.00  0.00     0.046 A 
ATOM     20  F   UNL A   1      32.412  26.502  22.296  1.00  0.00    -0.206 F 
ATOM     21  F   UNL A   1      35.571  24.118  26.032  1.00  0.00    -0.207 F 
ATOM     22  C   UNL A   1      34.756  24.194  23.813  1.00  0.00    -0.012 A 
ATOM     23  C   UNL A   1      35.597  23.014  23.442  1.00  0.00     0.047 C 
ENDBRANCH   7  15
ENDBRANCH   4   7
ENDBRANCH   2   3
ENDBRANCH   1   2
BRANCH   1  24
ATOM     24  C   UNL A   1      32.832  32.599  27.312  1.00  0.00     0.118 C 
BRANCH  24  25
ATOM     25  N   UNL A   1      32.501  33.994  27.593  1.00  0.00    -0.352 N 
ATOM     26  C   UNL A   1      32.994  34.863  28.540  1.00  0.00     0.251 C 
ATOM     27  H   UNL A   1      31.807  34.376  27.008  1.00  0.00     0.163 HD
ATOM     28  O   UNL A   1      32.451  35.942  28.727  1.00  0.00    -0.269 OA
BRANCH  26  29
ATOM     29  C   UNL A   1      34.162  34.471  29.358  1.00  0.00     0.039 A 
ATOM     30  C   UNL A   1      33.959  33.915  30.622  1.00  0.00     0.014 A 
ATOM     31  C   UNL A   1      35.454  34.627  28.862  1.00  0.00     0.014 A 
ATOM     32  C   UNL A   1      35.049  33.415  31.338  1.00  0.00     0.010 A 
ATOM     33  C   UNL A   1      36.516  34.014  29.511  1.00  0.00     0.010 A 
ATOM     34  C   UNL A   1      36.329  33.405  30.759  1.00  0.00    -0.014 A 
BRANCH  34  35
ATOM     35  C   UNL A   1      37.495  32.777  31.430  1.00  0.00     0.031 A 
ATOM     36  C   UNL A   1      38.213  31.635  30.762  1.00  0.00     0.074 A 
ATOM     37  C   UNL A   1      37.835  33.151  32.680  1.00  0.00     0.049 A 
ATOM     38  N   UNL A   1      39.143  30.846  31.239  1.00  0.00    -0.248 NA
ATOM     39  C   UNL A   1      37.793  31.301  29.391  1.00  0.00     0.031 C 
ATOM     40  C   UNL A   1      37.172  34.195  33.465  1.00  0.00     0.029 A 
ATOM     41  N   UNL A   1      38.817  32.683  33.517  1.00  0.00    -0.354 N 
ATOM     42  C   UNL A   1      39.382  29.905  30.246  1.00  0.00     0.074 A 
ATOM     43  C   UNL A   1      38.462  30.182  29.166  1.00  0.00     0.031 C 
ATOM     44  C   UNL A   1      37.785  34.310  34.653  1.00  0.00     0.029 A 
ATOM     45  C   UNL A   1      38.855  33.321  34.733  1.00  0.00     0.049 A 
ATOM     46  H   UNL A   1      39.435  31.959  33.269  1.00  0.00     0.167 HD
ATOM     47  C   UNL A   1      40.308  28.917  30.223  1.00  0.00     0.037 A 
ATOM     48  C   UNL A   1      39.662  33.125  35.793  1.00  0.00     0.037 A 
ATOM     49  C   UNL A   1      41.265  28.688  31.271  1.00  0.00     0.049 A 
ATOM     50  C   UNL A   1      40.718  32.058  35.721  1.00  0.00     0.074 A 
ATOM     51  C   UNL A   1      42.300  27.771  31.309  1.00  0.00     0.029 A 
ATOM     52  N   UNL A   1      41.313  29.398  32.461  1.00  0.00    -0.354 N 
ATOM     53  N   UNL A   1      40.978  31.216  34.751  1.00  0.00    -0.248 NA
ATOM     54  C   UNL A   1      41.599  31.918  36.889  1.00  0.00     0.031 C 
ATOM     55  C   UNL A   1      42.957  27.907  32.537  1.00  0.00     0.029 A 
ATOM     56  C   UNL A   1      42.355  28.934  33.246  1.00  0.00     0.049 A 
ATOM     57  H   UNL A   1      40.696  30.124  32.711  1.00  0.00     0.167 HD
ATOM     58  C   UNL A   1      42.064  30.465  35.177  1.00  0.00     0.074 A 
ATOM     59  C   UNL A   1      42.424  30.961  36.489  1.00  0.00     0.031 C 
ATOM     60  C   UNL A   1      42.704  29.453  34.542  1.00  0.00     0.037 A 
BRANCH  47  61
ATOM     61  C   UNL A   1      40.338  28.023  29.016  1.00  0.00     0.064 A 
ATOM     62  C   UNL A   1      41.096  28.347  27.881  1.00  0.00     0.173 A 
ATOM     63  C   UNL A   1      39.615  26.821  29.002  1.00  0.00     0.173 A 
ATOM     64  F   UNL A   1      41.794  29.492  27.838  1.00  0.00    -0.203 F 
ATOM     65  C   UNL A   1      41.102  27.518  26.762  1.00  0.00     0.198 A 
ATOM     66  C   UNL A   1      39.648  25.979  27.893  1.00  0.00     0.198 A 
ATOM     67  F   UNL A   1      38.877  26.462  30.062  1.00  0.00    -0.203 F 
ATOM     68  F   UNL A   1      41.787  27.878  25.668  1.00  0.00    -0.200 F 
ATOM     69  C   UNL A   1      40.383  26.332  26.772  1.00  0.00     0.200 A 
ATOM     70  F   UNL A   1      38.962  24.828  27.908  1.00  0.00    -0.200 F 
ATOM     71  F   UNL A   1      40.392  25.534  25.696  1.00  0.00    -0.200 F 
ENDBRANCH  47  61
BRANCH  48  72
ATOM     72  C   UNL A   1      39.528  33.987  36.997  1.00  0.00     0.064 A 
ATOM     73  C   UNL A   1      38.773  33.562  38.099  1.00  0.00     0.173 A 
ATOM     74  C   UNL A   1      40.149  35.240  37.076  1.00  0.00     0.173 A 
ATOM     75  F   UNL A   1      38.145  32.377  38.062  1.00  0.00    -0.203 F 
ATOM     76  C   UNL A   1      38.625  34.367  39.225  1.00  0.00     0.198 A 
ATOM     77  C   UNL A   1      40.023  36.035  38.214  1.00  0.00     0.198 A 
ATOM     78  F   UNL A   1      40.891  35.689  36.051  1.00  0.00    -0.203 F 
ATOM     79  F   UNL A   1      37.863  33.955  40.247  1.00  0.00    -0.200 F 
ATOM     80  C   UNL A   1      39.255  35.601  39.284  1.00  0.00     0.200 A 
ATOM     81  F   UNL A   1      40.644  37.221  38.273  1.00  0.00    -0.200 F 
ATOM     82  F   UNL A   1      39.117  36.375  40.369  1.00  0.00    -0.200 F 
ENDBRANCH  48  72
BRANCH  60  83
ATOM     83  C   UNL A   1      43.882  28.842  35.240  1.00  0.00     0.064 A 
ATOM     84  C   UNL A   1      45.183  29.326  35.042  1.00  0.00     0.173 A 
ATOM     85  C   UNL A   1      43.697  27.794  36.153  1.00  0.00     0.173 A 
ATOM     86  F   UNL A   1      45.408  30.316  34.166  1.00  0.00    -0.203 F 
ATOM     87  C   UNL A   1      46.262  28.765  35.719  1.00  0.00     0.198 A 
ATOM     88  C   UNL A   1      44.776  27.254  36.849  1.00  0.00     0.198 A 
ATOM     89  F   UNL A   1      42.471  27.303  36.381  1.00  0.00    -0.203 F 
ATOM     90  F   UNL A   1      47.503  29.213  35.484  1.00  0.00    -0.200 F 
ATOM     91  C   UNL A   1      46.057  27.736  36.627  1.00  0.00     0.200 A 
ATOM     92  F   UNL A   1      44.575  26.268  37.733  1.00  0.00    -0.200 F 
ATOM     93  F   UNL A   1      47.097  27.204  37.283  1.00  0.00    -0.200 F 
ENDBRANCH  60  83
ENDBRANCH  34  35
ENDBRANCH  26  29
ENDBRANCH  24  25
ENDBRANCH   1  24
TORSDOF 14
ENDMDL
MODEL 2
REMARK VINA RESULT:     -12.1      5.986     11.271
REMARK SMILES CC[NH+](CC)[C@](C)(C(=O)NCCCNC(=O)c1ccc(-c2c3nc(c(-c4c(F)c(F)c(F)c(F)c4F)c4ccc([nH]4)c(-c4c(F)c(F)c(F)c(F)c4F)c4nc(c(-c5c(F)c(F)c(F)c(F)c5F)c5ccc2[nH]5)C=C4)C=C3)cc1)c1cc(F)c(C)cc1F
REMARK SMILES IDX 12 1 11 2 10 3 8 4 9 5 6 7 7 8 3 9 2 11 1 12 4 13 5 14 80 15
REMARK SMILES IDX 81 16 87 17 82 18 86 19 88 20 83 21 84 22 85 23 13 24 14 25
REMARK SMILES IDX 15 26 16 28 17 29 18 30 79 31 19 32 78 33 20 34 21 35 22 36
REMARK SMILES IDX 72 37 23 38 77 39 71 40 73 41 24 42 76 43 70 44 69 45 25 47
REMARK SMILES IDX 57 48 37 49 56 50 38 51 41 52 55 53 74 54 39 55 40 56 54 58
REMARK SMILES IDX 75 59 42 60 26 61 27 62 35 63 28 64 29 65 33 66 36 67 30 68
REMARK SMILES IDX 31 69 34 70 32 71 58 72 59 73 67 74 60 75 61 76 65 77 68 78
REMARK SMILES IDX 62 79 63 80 66 81 64 82 43 83 44 84 52 85 45 86 46 87 50 88
REMARK SMILES IDX 53 89 47 90 48 91 51 92 49 93
REMARK H PARENT 10 6 3 10 14 27 73 46 41 57
REMARK Flexibility Score: inf
ROOT
ATOM      1  C   UNL A   1      38.070  20.023  25.056  1.00  0.00     0.042 C 
ENDROOT
BRANCH   1   2
ATOM      2  C   UNL A   1      37.222  21.235  24.727  1.00  0.00     0.118 C 
BRANCH   2   3
ATOM      3  N   UNL A   1      36.508  21.761  25.873  1.00  0.00    -0.350 N 
ATOM      4  C   UNL A   1      35.260  22.300  26.011  1.00  0.00     0.286 C 
ATOM      5  O   UNL A   1      34.874  22.352  27.189  1.00  0.00    -0.267 OA
ATOM      6  H   UNL A   1      37.019  21.722  26.713  1.00  0.00     0.163 HD
BRANCH   4   7
ATOM      7  C   UNL A   1      34.394  22.868  24.810  1.00  0.00     0.202 C 
ATOM      8  C   UNL A   1      35.353  23.380  23.692  1.00  0.00     0.096 C 
BRANCH   7   9
ATOM      9  N   UNL A   1      33.375  21.889  24.252  1.00  0.00    -0.319 N 
ATOM     10  H   UNL A   1      32.614  22.019  24.917  1.00  0.00     0.349 HD
BRANCH   9  11
ATOM     11  C   UNL A   1      33.588  20.449  24.399  1.00  0.00     0.259 C 
ATOM     12  C   UNL A   1      32.770  19.764  25.494  1.00  0.00     0.071 C 
ENDBRANCH   9  11
BRANCH   9  13
ATOM     13  C   UNL A   1      32.937  22.260  22.888  1.00  0.00     0.259 C 
ATOM     14  C   UNL A   1      31.968  21.286  22.220  1.00  0.00     0.071 C 
ENDBRANCH   9  13
ENDBRANCH   7   9
BRANCH   7  15
ATOM     15  C   UNL A   1      33.644  24.117  25.402  1.00  0.00     0.060 A 
ATOM     16  C   UNL A   1      34.230  25.401  25.397  1.00  0.00     0.053 A 
ATOM     17  C   UNL A   1      32.386  24.005  26.022  1.00  0.00     0.133 A 
ATOM     18  C   UNL A   1      33.538  26.513  25.879  1.00  0.00     0.126 A 
ATOM     19  C   UNL A   1      31.693  25.124  26.498  1.00  0.00     0.046 A 
ATOM     20  F   UNL A   1      31.790  22.814  26.174  1.00  0.00    -0.206 F 
ATOM     21  F   UNL A   1      34.128  27.715  25.817  1.00  0.00    -0.207 F 
ATOM     22  C   UNL A   1      32.253  26.399  26.405  1.00  0.00    -0.012 A 
ATOM     23  C   UNL A   1      31.516  27.617  26.863  1.00  0.00     0.047 C 
ENDBRANCH   7  15
ENDBRANCH   4   7
ENDBRANCH   2   3
ENDBRANCH   1   2
BRANCH   1  24
ATOM     24  C   UNL A   1      39.324  20.369  25.842  1.00  0.00     0.118 C 
BRANCH  24  25
ATOM     25  N   UNL A   1      40.264  19.256  25.946  1.00  0.00    -0.352 N 
ATOM     26  C   UNL A   1      41.627  19.243  26.133  1.00  0.00     0.251 C 
ATOM     27  H   UNL A   1      39.852  18.365  25.868  1.00  0.00     0.163 HD
ATOM     28  O   UNL A   1      42.256  18.202  26.012  1.00  0.00    -0.269 OA
BRANCH  26  29
ATOM     29  C   UNL A   1      42.337  20.502  26.446  1.00  0.00     0.039 A 
ATOM     30  C   UNL A   1      42.931  21.230  25.413  1.00  0.00     0.014 A 
ATOM     31  C   UNL A   1      42.388  20.978  27.754  1.00  0.00     0.014 A 
ATOM     32  C   UNL A   1      43.479  22.487  25.682  1.00  0.00     0.010 A 
ATOM     33  C   UNL A   1      42.811  22.276  27.997  1.00  0.00     0.010 A 
ATOM     34  C   UNL A   1      43.367  23.045  26.966  1.00  0.00    -0.014 A 
BRANCH  34  35
ATOM     35  C   UNL A   1      43.825  24.425  27.269  1.00  0.00     0.031 A 
ATOM     36  C   UNL A   1      42.842  25.439  27.792  1.00  0.00     0.074 A 
ATOM     37  C   UNL A   1      45.085  24.797  26.971  1.00  0.00     0.049 A 
ATOM     38  N   UNL A   1      42.992  26.727  27.969  1.00  0.00    -0.248 NA
ATOM     39  C   UNL A   1      41.492  24.947  28.111  1.00  0.00     0.031 C 
ATOM     40  C   UNL A   1      46.113  23.929  26.392  1.00  0.00     0.029 A 
ATOM     41  N   UNL A   1      45.713  26.011  27.098  1.00  0.00    -0.354 N 
ATOM     42  C   UNL A   1      41.751  27.198  28.373  1.00  0.00     0.074 A 
ATOM     43  C   UNL A   1      40.844  26.073  28.361  1.00  0.00     0.031 C 
ATOM     44  C   UNL A   1      47.250  24.627  26.246  1.00  0.00     0.029 A 
ATOM     45  C   UNL A   1      47.021  26.002  26.678  1.00  0.00     0.049 A 
ATOM     46  H   UNL A   1      45.268  26.812  27.457  1.00  0.00     0.167 HD
ATOM     47  C   UNL A   1      41.404  28.451  28.752  1.00  0.00     0.037 A 
ATOM     48  C   UNL A   1      47.930  26.994  26.643  1.00  0.00     0.037 A 
ATOM     49  C   UNL A   1      42.326  29.552  28.828  1.00  0.00     0.049 A 
ATOM     50  C   UNL A   1      47.536  28.364  27.122  1.00  0.00     0.074 A 
ATOM     51  C   UNL A   1      42.099  30.838  29.281  1.00  0.00     0.029 A 
ATOM     52  N   UNL A   1      43.660  29.487  28.453  1.00  0.00    -0.354 N 
ATOM     53  N   UNL A   1      46.375  28.784  27.564  1.00  0.00    -0.248 NA
ATOM     54  C   UNL A   1      48.580  29.398  27.103  1.00  0.00     0.031 C 
ATOM     55  C   UNL A   1      43.290  31.562  29.153  1.00  0.00     0.029 A 
ATOM     56  C   UNL A   1      44.267  30.714  28.657  1.00  0.00     0.049 A 
ATOM     57  H   UNL A   1      44.108  28.687  28.095  1.00  0.00     0.167 HD
ATOM     58  C   UNL A   1      46.554  30.118  27.899  1.00  0.00     0.074 A 
ATOM     59  C   UNL A   1      47.940  30.435  27.623  1.00  0.00     0.031 C 
ATOM     60  C   UNL A   1      45.651  31.003  28.388  1.00  0.00     0.037 A 
BRANCH  47  61
ATOM     61  C   UNL A   1      39.971  28.689  29.132  1.00  0.00     0.064 A 
ATOM     62  C   UNL A   1      39.509  28.461  30.437  1.00  0.00     0.173 A 
ATOM     63  C   UNL A   1      39.053  29.168  28.185  1.00  0.00     0.173 A 
ATOM     64  F   UNL A   1      40.342  27.989  31.377  1.00  0.00    -0.203 F 
ATOM     65  C   UNL A   1      38.174  28.669  30.771  1.00  0.00     0.198 A 
ATOM     66  C   UNL A   1      37.726  29.405  28.531  1.00  0.00     0.198 A 
ATOM     67  F   UNL A   1      39.444  29.407  26.924  1.00  0.00    -0.203 F 
ATOM     68  F   UNL A   1      37.743  28.388  32.009  1.00  0.00    -0.200 F 
ATOM     69  C   UNL A   1      37.285  29.148  29.820  1.00  0.00     0.200 A 
ATOM     70  F   UNL A   1      36.870  29.878  27.614  1.00  0.00    -0.200 F 
ATOM     71  F   UNL A   1      36.000  29.351  30.144  1.00  0.00    -0.200 F 
ENDBRANCH  47  61
BRANCH  48  72
ATOM     72  C   UNL A   1      49.313  26.718  26.175  1.00  0.00     0.064 A 
ATOM     73  C   UNL A   1      49.687  26.988  24.851  1.00  0.00     0.173 A 
ATOM     74  C   UNL A   1      50.286  26.187  27.032  1.00  0.00     0.173 A 
ATOM     75  F   UNL A   1      48.784  27.480  23.989  1.00  0.00    -0.203 F 
ATOM     76  C   UNL A   1      50.975  26.717  24.395  1.00  0.00     0.198 A 
ATOM     77  C   UNL A   1      51.583  25.941  26.583  1.00  0.00     0.198 A 
ATOM     78  F   UNL A   1      49.982  25.920  28.311  1.00  0.00    -0.203 F 
ATOM     79  F   UNL A   1      51.292  26.945  23.114  1.00  0.00    -0.200 F 
ATOM     80  C   UNL A   1      51.923  26.199  25.264  1.00  0.00     0.200 A 
ATOM     81  F   UNL A   1      52.501  25.452  27.428  1.00  0.00    -0.200 F 
ATOM     82  F   UNL A   1      53.164  25.941  24.827  1.00  0.00    -0.200 F 
ENDBRANCH  48  72
BRANCH  60  83
ATOM     83  C   UNL A   1      46.144  32.386  28.693  1.00  0.00     0.064 A 
ATOM     84  C   UNL A   1      46.089  33.411  27.738  1.00  0.00     0.173 A 
ATOM     85  C   UNL A   1      46.631  32.698  29.971  1.00  0.00     0.173 A 
ATOM     86  F   UNL A   1      45.646  33.155  26.498  1.00  0.00    -0.203 F 
ATOM     87  C   UNL A   1      46.525  34.696  28.046  1.00  0.00     0.198 A 
ATOM     88  C   UNL A   1      47.041  33.991  30.283  1.00  0.00     0.198 A 
ATOM     89  F   UNL A   1      46.696  31.752  30.920  1.00  0.00    -0.203 F 
ATOM     90  F   UNL A   1      46.504  35.652  27.107  1.00  0.00    -0.200 F 
ATOM     91  C   UNL A   1      46.993  34.987  29.320  1.00  0.00     0.200 A 
ATOM     92  F   UNL A   1      47.482  34.273  31.517  1.00  0.00    -0.200 F 
ATOM     93  F   UNL A   1      47.405  36.227  29.616  1.00  0.00    -0.200 F 
ENDBRANCH  60  83
ENDBRANCH  34  35
ENDBRANCH  26  29
ENDBRANCH  24  25
ENDBRANCH   1  24
TORSDOF 14
ENDMDL
MODEL 3
REMARK VINA RESULT:     -12.1      5.968     11.200
REMARK SMILES CC[NH+](CC)[C@](C)(C(=O)NCCCNC(=O)c1ccc(-c2c3nc(c(-c4c(F)c(F)c(F)c(F)c4F)c4ccc([nH]4)c(-c4c(F)c(F)c(F)c(F)c4F)c4nc(c(-c5c(F)c(F)c(F)c(F)c5F)c5ccc2[nH]5)C=C4)C=C3)cc1)c1cc(F)c(C)cc1F
REMARK SMILES IDX 12 1 11 2 10 3 8 4 9 5 6 7 7 8 3 9 2 11 1 12 4 13 5 14 80 15
REMARK SMILES IDX 81 16 87 17 82 18 86 19 88 20 83 21 84 22 85 23 13 24 14 25
REMARK SMILES IDX 15 26 16 28 17 29 18 30 79 31 19 32 78 33 20 34 21 35 22 36
REMARK SMILES IDX 72 37 23 38 77 39 71 40 73 41 24 42 76 43 70 44 69 45 25 47
REMARK SMILES IDX 57 48 37 49 56 50 38 51 41 52 55 53 74 54 39 55 40 56 54 58
REMARK SMILES IDX 75 59 42 60 26 61 27 62 35 63 28 64 29 65 33 66 36 67 30 68
REMARK SMILES IDX 31 69 34 70 32 71 58 72 59 73 67 74 60 75 61 76 65 77 68 78
REMARK SMILES IDX 62 79 63 80 66 81 64 82 43 83 44 84 52 85 45 86 46 87 50 88
REMARK SMILES IDX 53 89 47 90 48 91 51 92 49 93
REMARK H PARENT 10 6 3 10 14 27 73 46 41 57
REMARK Flexibility Score: inf
ROOT
ATOM      1  C   UNL A   1      38.073  20.158  24.984  1.00  0.00     0.042 C 
ENDROOT
BRANCH   1   2
ATOM      2  C   UNL A   1      37.262  21.411  24.721  1.00  0.00     0.118 C 
BRANCH   2   3
ATOM      3  N   UNL A   1      36.502  21.851  25.874  1.00  0.00    -0.350 N 
ATOM      4  C   UNL A   1      35.218  22.296  26.015  1.00  0.00     0.286 C 
ATOM      5  O   UNL A   1      34.820  22.286  27.189  1.00  0.00    -0.267 OA
ATOM      6  H   UNL A   1      37.009  21.825  26.718  1.00  0.00     0.163 HD
BRANCH   4   7
ATOM      7  C   UNL A   1      34.324  22.834  24.821  1.00  0.00     0.202 C 
ATOM      8  C   UNL A   1      35.255  23.314  23.667  1.00  0.00     0.096 C 
BRANCH   7   9
ATOM      9  N   UNL A   1      33.289  21.844  24.315  1.00  0.00    -0.319 N 
ATOM     10  H   UNL A   1      32.596  21.906  25.061  1.00  0.00     0.349 HD
BRANCH   9  11
ATOM     11  C   UNL A   1      33.568  20.409  24.357  1.00  0.00     0.259 C 
ATOM     12  C   UNL A   1      32.794  19.610  25.405  1.00  0.00     0.071 C 
ENDBRANCH   9  11
BRANCH   9  13
ATOM     13  C   UNL A   1      32.697  22.269  23.026  1.00  0.00     0.259 C 
ATOM     14  C   UNL A   1      32.013  21.165  22.221  1.00  0.00     0.071 C 
ENDBRANCH   9  13
ENDBRANCH   7   9
BRANCH   7  15
ATOM     15  C   UNL A   1      33.592  24.101  25.399  1.00  0.00     0.060 A 
ATOM     16  C   UNL A   1      34.186  25.380  25.358  1.00  0.00     0.053 A 
ATOM     17  C   UNL A   1      32.342  24.011  26.040  1.00  0.00     0.133 A 
ATOM     18  C   UNL A   1      33.510  26.507  25.827  1.00  0.00     0.126 A 
ATOM     19  C   UNL A   1      31.665  25.144  26.504  1.00  0.00     0.046 A 
ATOM     20  F   UNL A   1      31.740  22.827  26.225  1.00  0.00    -0.206 F 
ATOM     21  F   UNL A   1      34.107  27.703  25.731  1.00  0.00    -0.207 F 
ATOM     22  C   UNL A   1      32.232  26.413  26.375  1.00  0.00    -0.012 A 
ATOM     23  C   UNL A   1      31.511  27.646  26.820  1.00  0.00     0.047 C 
ENDBRANCH   7  15
ENDBRANCH   4   7
ENDBRANCH   2   3
ENDBRANCH   1   2
BRANCH   1  24
ATOM     24  C   UNL A   1      39.240  20.391  25.929  1.00  0.00     0.118 C 
BRANCH  24  25
ATOM     25  N   UNL A   1      40.188  19.280  25.957  1.00  0.00    -0.352 N 
ATOM     26  C   UNL A   1      41.559  19.270  26.084  1.00  0.00     0.251 C 
ATOM     27  H   UNL A   1      39.778  18.390  25.868  1.00  0.00     0.163 HD
ATOM     28  O   UNL A   1      42.186  18.236  25.903  1.00  0.00    -0.269 OA
BRANCH  26  29
ATOM     29  C   UNL A   1      42.276  20.522  26.405  1.00  0.00     0.039 A 
ATOM     30  C   UNL A   1      42.878  21.251  25.378  1.00  0.00     0.014 A 
ATOM     31  C   UNL A   1      42.326  20.991  27.716  1.00  0.00     0.014 A 
ATOM     32  C   UNL A   1      43.433  22.503  25.655  1.00  0.00     0.010 A 
ATOM     33  C   UNL A   1      42.757  22.285  27.967  1.00  0.00     0.010 A 
ATOM     34  C   UNL A   1      43.320  23.056  26.941  1.00  0.00    -0.014 A 
BRANCH  34  35
ATOM     35  C   UNL A   1      43.786  24.431  27.254  1.00  0.00     0.031 A 
ATOM     36  C   UNL A   1      42.812  25.444  27.792  1.00  0.00     0.074 A 
ATOM     37  C   UNL A   1      45.047  24.800  26.949  1.00  0.00     0.049 A 
ATOM     38  N   UNL A   1      42.969  26.730  27.978  1.00  0.00    -0.248 NA
ATOM     39  C   UNL A   1      41.462  24.955  28.116  1.00  0.00     0.031 C 
ATOM     40  C   UNL A   1      46.067  23.932  26.356  1.00  0.00     0.029 A 
ATOM     41  N   UNL A   1      45.681  26.010  27.083  1.00  0.00    -0.354 N 
ATOM     42  C   UNL A   1      41.733  27.203  28.395  1.00  0.00     0.074 A 
ATOM     43  C   UNL A   1      40.820  26.082  28.379  1.00  0.00     0.031 C 
ATOM     44  C   UNL A   1      47.205  24.627  26.208  1.00  0.00     0.029 A 
ATOM     45  C   UNL A   1      46.986  25.999  26.653  1.00  0.00     0.049 A 
ATOM     46  H   UNL A   1      45.242  26.810  27.452  1.00  0.00     0.167 HD
ATOM     47  C   UNL A   1      41.394  28.455  28.787  1.00  0.00     0.037 A 
ATOM     48  C   UNL A   1      47.898  26.988  26.620  1.00  0.00     0.037 A 
ATOM     49  C   UNL A   1      42.321  29.551  28.866  1.00  0.00     0.049 A 
ATOM     50  C   UNL A   1      47.514  28.355  27.114  1.00  0.00     0.074 A 
ATOM     51  C   UNL A   1      42.103  30.834  29.331  1.00  0.00     0.029 A 
ATOM     52  N   UNL A   1      43.652  29.483  28.482  1.00  0.00    -0.354 N 
ATOM     53  N   UNL A   1      46.358  28.776  27.567  1.00  0.00    -0.248 NA
ATOM     54  C   UNL A   1      48.563  29.385  27.096  1.00  0.00     0.031 C 
ATOM     55  C   UNL A   1      43.296  31.554  29.201  1.00  0.00     0.029 A 
ATOM     56  C   UNL A   1      44.266  30.706  28.691  1.00  0.00     0.049 A 
ATOM     57  H   UNL A   1      44.094  28.684  28.113  1.00  0.00     0.167 HD
ATOM     58  C   UNL A   1      46.545  30.107  27.912  1.00  0.00     0.074 A 
ATOM     59  C   UNL A   1      47.930  30.420  27.630  1.00  0.00     0.031 C 
ATOM     60  C   UNL A   1      45.650  30.991  28.416  1.00  0.00     0.037 A 
BRANCH  47  61
ATOM     61  C   UNL A   1      39.964  28.695  29.179  1.00  0.00     0.064 A 
ATOM     62  C   UNL A   1      39.021  29.173  28.257  1.00  0.00     0.173 A 
ATOM     63  C   UNL A   1      39.528  28.428  30.485  1.00  0.00     0.173 A 
ATOM     64  F   UNL A   1      39.389  29.459  26.998  1.00  0.00    -0.203 F 
ATOM     65  C   UNL A   1      37.702  29.409  28.637  1.00  0.00     0.198 A 
ATOM     66  C   UNL A   1      38.202  28.634  30.853  1.00  0.00     0.198 A 
ATOM     67  F   UNL A   1      40.389  27.966  31.404  1.00  0.00    -0.203 F 
ATOM     68  F   UNL A   1      36.834  29.921  27.754  1.00  0.00    -0.200 F 
ATOM     69  C   UNL A   1      37.292  29.133  29.933  1.00  0.00     0.200 A 
ATOM     70  F   UNL A   1      37.804  28.357  32.102  1.00  0.00    -0.200 F 
ATOM     71  F   UNL A   1      36.022  29.357  30.297  1.00  0.00    -0.200 F 
ENDBRANCH  47  61
BRANCH  48  72
ATOM     72  C   UNL A   1      49.278  26.710  26.141  1.00  0.00     0.064 A 
ATOM     73  C   UNL A   1      50.239  26.168  27.006  1.00  0.00     0.173 A 
ATOM     74  C   UNL A   1      49.664  26.974  24.821  1.00  0.00     0.173 A 
ATOM     75  F   UNL A   1      49.920  25.916  28.285  1.00  0.00    -0.203 F 
ATOM     76  C   UNL A   1      51.539  25.920  26.574  1.00  0.00     0.198 A 
ATOM     77  C   UNL A   1      50.958  26.701  24.381  1.00  0.00     0.198 A 
ATOM     78  F   UNL A   1      48.779  27.485  23.950  1.00  0.00    -0.203 F 
ATOM     79  F   UNL A   1      52.449  25.440  27.434  1.00  0.00    -0.200 F 
ATOM     80  C   UNL A   1      51.896  26.182  25.261  1.00  0.00     0.200 A 
ATOM     81  F   UNL A   1      51.297  26.943  23.107  1.00  0.00    -0.200 F 
ATOM     82  F   UNL A   1      53.147  25.940  24.844  1.00  0.00    -0.200 F 
ENDBRANCH  48  72
BRANCH  60  83
ATOM     83  C   UNL A   1      46.150  32.369  28.729  1.00  0.00     0.064 A 
ATOM     84  C   UNL A   1      46.080  33.406  27.788  1.00  0.00     0.173 A 
ATOM     85  C   UNL A   1      46.662  32.664  30.001  1.00  0.00     0.173 A 
ATOM     86  F   UNL A   1      45.612  33.167  26.554  1.00  0.00    -0.203 F 
ATOM     87  C   UNL A   1      46.523  34.687  28.104  1.00  0.00     0.198 A 
ATOM     88  C   UNL A   1      47.080  33.953  30.322  1.00  0.00     0.198 A 
ATOM     89  F   UNL A   1      46.743  31.706  30.936  1.00  0.00    -0.203 F 
ATOM     90  F   UNL A   1      46.486  35.654  27.178  1.00  0.00    -0.200 F 
ATOM     91  C   UNL A   1      47.015  34.961  29.373  1.00  0.00     0.200 A 
ATOM     92  F   UNL A   1      47.544  34.218  31.550  1.00  0.00    -0.200 F 
ATOM     93  F   UNL A   1      47.435  36.196  29.677  1.00  0.00    -0.200 F 
ENDBRANCH  60  83
ENDBRANCH  34  35
ENDBRANCH  26  29
ENDBRANCH  24  25
ENDBRANCH   1  24
TORSDOF 14
ENDMDL
