MODEL 1
REMARK VINA RESULT:     -13.5      0.000      0.000
REMARK SMILES C[C@@H](C(=O)NCCCNC(=O)c1ccc(-c2c3nc(c(-c4c(F)c(F)c(F)c(F)c4F)c4ccc([nH]4)c(-c4c(F)c(F)c(F)c(F)c4F)c4nc(c(-c5c(F)c(F)c(F)c(F)c5F)c5ccc2[nH]5)C=C4)C=C3)cc1)c1ccccc1-c1ccn(C(F)F)c(=O)c1
REMARK SMILES IDX 6 1 5 2 3 3 4 4 2 6 1 7 75 8 76 9 80 10 77 11 79 12 78 13
REMARK SMILES IDX 81 14 82 15 90 16 83 17 88 18 84 19 89 20 85 21 86 22 87 23
REMARK SMILES IDX 7 24 8 25 9 26 10 27 11 29 12 30 13 31 74 32 14 33 73 34
REMARK SMILES IDX 15 35 16 36 17 37 67 38 18 39 72 40 66 41 68 42 19 43 71 44
REMARK SMILES IDX 65 45 64 46 20 48 52 49 32 50 51 51 33 52 36 53 50 54 69 55
REMARK SMILES IDX 34 56 35 57 49 59 70 60 37 61 21 62 22 63 30 64 23 65 24 66
REMARK SMILES IDX 28 67 31 68 25 69 26 70 29 71 27 72 53 73 54 74 62 75 55 76
REMARK SMILES IDX 56 77 60 78 63 79 57 80 58 81 61 82 59 83 38 84 39 85 47 86
REMARK SMILES IDX 40 87 41 88 45 89 48 90 42 91 43 92 46 93 44 94
REMARK H PARENT 5 5 9 28 68 47 36 58
REMARK Flexibility Score: inf
ROOT
ATOM      1  C   UNL A   1      36.701  19.738  25.021  1.00  0.00     0.117 C 
ENDROOT
BRANCH   1   2
ATOM      2  N   UNL A   1      36.315  20.942  25.752  1.00  0.00    -0.356 N 
ATOM      3  C   UNL A   1      35.709  22.103  25.337  1.00  0.00     0.227 C 
ATOM      4  O   UNL A   1      35.524  22.964  26.199  1.00  0.00    -0.274 OA
ATOM      5  H   UNL A   1      36.528  20.917  26.712  1.00  0.00     0.163 HD
BRANCH   3   6
ATOM      6  C   UNL A   1      35.332  22.292  23.851  1.00  0.00     0.106 C 
ATOM      7  C   UNL A   1      36.546  22.976  23.227  1.00  0.00     0.023 C 
BRANCH   6   8
ATOM      8  C   UNL A   1      33.949  22.951  23.592  1.00  0.00    -0.028 A 
ATOM      9  C   UNL A   1      33.936  24.353  23.389  1.00  0.00     0.005 A 
ATOM     10  C   UNL A   1      32.681  22.299  23.609  1.00  0.00    -0.014 A 
ATOM     11  C   UNL A   1      32.756  25.061  23.138  1.00  0.00     0.000 A 
ATOM     12  C   UNL A   1      31.500  23.031  23.364  1.00  0.00     0.009 A 
ATOM     13  C   UNL A   1      31.538  24.401  23.119  1.00  0.00     0.001 A 
BRANCH  10  14
ATOM     14  C   UNL A   1      32.485  20.856  23.862  1.00  0.00    -0.011 A 
ATOM     15  C   UNL A   1      32.645  20.253  25.172  1.00  0.00     0.027 A 
ATOM     16  C   UNL A   1      32.255  20.067  22.796  1.00  0.00     0.080 A 
ATOM     17  C   UNL A   1      32.836  18.932  25.277  1.00  0.00     0.095 A 
ATOM     18  C   UNL A   1      32.409  18.590  22.910  1.00  0.00     0.255 A 
ATOM     19  N   UNL A   1      32.797  18.121  24.156  1.00  0.00    -0.258 N 
ATOM     20  O   UNL A   1      32.269  17.905  21.902  1.00  0.00    -0.269 OA
BRANCH  19  21
ATOM     21  C   UNL A   1      33.217  16.745  24.230  1.00  0.00     0.451 C 
ATOM     22  F   UNL A   1      34.333  16.524  23.498  1.00  0.00    -0.185 F 
ATOM     23  F   UNL A   1      33.478  16.396  25.516  1.00  0.00    -0.185 F 
ENDBRANCH  19  21
ENDBRANCH  10  14
ENDBRANCH   6   8
ENDBRANCH   3   6
ENDBRANCH   1   2
BRANCH   1  24
ATOM     24  C   UNL A   1      38.191  19.677  24.655  1.00  0.00     0.042 C 
BRANCH  24  25
ATOM     25  C   UNL A   1      39.151  19.956  25.805  1.00  0.00     0.118 C 
BRANCH  25  26
ATOM     26  N   UNL A   1      40.197  18.953  25.900  1.00  0.00    -0.352 N 
ATOM     27  C   UNL A   1      41.553  19.102  26.077  1.00  0.00     0.251 C 
ATOM     28  H   UNL A   1      39.888  18.021  25.827  1.00  0.00     0.163 HD
ATOM     29  O   UNL A   1      42.292  18.139  25.898  1.00  0.00    -0.269 OA
BRANCH  27  30
ATOM     30  C   UNL A   1      42.138  20.411  26.453  1.00  0.00     0.039 A 
ATOM     31  C   UNL A   1      42.705  21.204  25.449  1.00  0.00     0.014 A 
ATOM     32  C   UNL A   1      42.172  20.851  27.779  1.00  0.00     0.014 A 
ATOM     33  C   UNL A   1      43.227  22.464  25.760  1.00  0.00     0.010 A 
ATOM     34  C   UNL A   1      42.633  22.134  28.081  1.00  0.00     0.010 A 
ATOM     35  C   UNL A   1      43.153  22.960  27.072  1.00  0.00    -0.014 A 
BRANCH  35  36
ATOM     36  C   UNL A   1      43.562  24.353  27.395  1.00  0.00     0.031 A 
ATOM     37  C   UNL A   1      42.554  25.359  27.880  1.00  0.00     0.074 A 
ATOM     38  C   UNL A   1      44.836  24.735  27.167  1.00  0.00     0.049 A 
ATOM     39  N   UNL A   1      42.711  26.638  28.113  1.00  0.00    -0.248 NA
ATOM     40  C   UNL A   1      41.188  24.870  28.116  1.00  0.00     0.031 C 
ATOM     41  C   UNL A   1      45.899  23.866  26.656  1.00  0.00     0.029 A 
ATOM     42  N   UNL A   1      45.450  25.955  27.312  1.00  0.00    -0.354 N 
ATOM     43  C   UNL A   1      41.464  27.109  28.504  1.00  0.00     0.074 A 
ATOM     44  C   UNL A   1      40.553  25.986  28.450  1.00  0.00     0.031 C 
ATOM     45  C   UNL A   1      47.029  24.578  26.531  1.00  0.00     0.029 A 
ATOM     46  C   UNL A   1      46.764  25.962  26.909  1.00  0.00     0.049 A 
ATOM     47  H   UNL A   1      44.991  26.750  27.670  1.00  0.00     0.167 HD
ATOM     48  C   UNL A   1      41.119  28.361  28.885  1.00  0.00     0.037 A 
ATOM     49  C   UNL A   1      47.650  26.974  26.828  1.00  0.00     0.037 A 
ATOM     50  C   UNL A   1      42.036  29.468  28.974  1.00  0.00     0.049 A 
ATOM     51  C   UNL A   1      47.226  28.359  27.237  1.00  0.00     0.074 A 
ATOM     52  C   UNL A   1      41.799  30.745  29.456  1.00  0.00     0.029 A 
ATOM     53  N   UNL A   1      43.358  29.436  28.563  1.00  0.00    -0.354 N 
ATOM     54  N   UNL A   1      46.070  28.767  27.701  1.00  0.00    -0.248 NA
ATOM     55  C   UNL A   1      48.230  29.427  27.108  1.00  0.00     0.031 C 
ATOM     56  C   UNL A   1      42.962  31.500  29.283  1.00  0.00     0.029 A 
ATOM     57  C   UNL A   1      43.938  30.683  28.740  1.00  0.00     0.049 A 
ATOM     58  H   UNL A   1      43.818  28.644  28.201  1.00  0.00     0.167 HD
ATOM     59  C   UNL A   1      46.212  30.128  27.934  1.00  0.00     0.074 A 
ATOM     60  C   UNL A   1      47.573  30.474  27.586  1.00  0.00     0.031 C 
ATOM     61  C   UNL A   1      45.294  31.014  28.389  1.00  0.00     0.037 A 
BRANCH  48  62
ATOM     62  C   UNL A   1      39.687  28.624  29.246  1.00  0.00     0.064 A 
ATOM     63  C   UNL A   1      39.211  28.431  30.551  1.00  0.00     0.173 A 
ATOM     64  C   UNL A   1      38.807  29.173  28.300  1.00  0.00     0.173 A 
ATOM     65  F   UNL A   1      40.011  27.905  31.490  1.00  0.00    -0.203 F 
ATOM     66  C   UNL A   1      37.905  28.771  30.894  1.00  0.00     0.198 A 
ATOM     67  C   UNL A   1      37.510  29.534  28.651  1.00  0.00     0.198 A 
ATOM     68  F   UNL A   1      39.217  29.385  27.040  1.00  0.00    -0.203 F 
ATOM     69  F   UNL A   1      37.465  28.561  32.142  1.00  0.00    -0.200 F 
ATOM     70  C   UNL A   1      37.059  29.332  29.947  1.00  0.00     0.200 A 
ATOM     71  F   UNL A   1      36.699  30.089  27.739  1.00  0.00    -0.200 F 
ATOM     72  F   UNL A   1      35.810  29.681  30.285  1.00  0.00    -0.200 F 
ENDBRANCH  48  62
BRANCH  49  73
ATOM     73  C   UNL A   1      49.025  26.728  26.315  1.00  0.00     0.064 A 
ATOM     74  C   UNL A   1      49.350  26.975  24.974  1.00  0.00     0.173 A 
ATOM     75  C   UNL A   1      50.029  26.207  27.144  1.00  0.00     0.173 A 
ATOM     76  F   UNL A   1      48.418  27.452  24.137  1.00  0.00    -0.203 F 
ATOM     77  C   UNL A   1      50.618  26.683  24.475  1.00  0.00     0.198 A 
ATOM     78  C   UNL A   1      51.307  25.947  26.652  1.00  0.00     0.198 A 
ATOM     79  F   UNL A   1      49.772  25.956  28.436  1.00  0.00    -0.203 F 
ATOM     80  F   UNL A   1      50.885  26.876  23.176  1.00  0.00    -0.200 F 
ATOM     81  C   UNL A   1      51.596  26.174  25.315  1.00  0.00     0.200 A 
ATOM     82  F   UNL A   1      52.254  25.471  27.470  1.00  0.00    -0.200 F 
ATOM     83  F   UNL A   1      52.815  25.893  24.835  1.00  0.00    -0.200 F 
ENDBRANCH  49  73
BRANCH  61  84
ATOM     84  C   UNL A   1      45.732  32.440  28.547  1.00  0.00     0.064 A 
ATOM     85  C   UNL A   1      46.384  32.879  29.708  1.00  0.00     0.173 A 
ATOM     86  C   UNL A   1      45.538  33.365  27.510  1.00  0.00     0.173 A 
ATOM     87  F   UNL A   1      46.576  32.036  30.733  1.00  0.00    -0.203 F 
ATOM     88  C   UNL A   1      46.809  34.199  29.834  1.00  0.00     0.198 A 
ATOM     89  C   UNL A   1      45.990  34.676  27.628  1.00  0.00     0.198 A 
ATOM     90  F   UNL A   1      44.923  32.993  26.378  1.00  0.00    -0.203 F 
ATOM     91  F   UNL A   1      47.391  34.608  30.969  1.00  0.00    -0.200 F 
ATOM     92  C   UNL A   1      46.618  35.093  28.791  1.00  0.00     0.200 A 
ATOM     93  F   UNL A   1      45.817  35.537  26.615  1.00  0.00    -0.200 F 
ATOM     94  F   UNL A   1      47.038  36.361  28.910  1.00  0.00    -0.200 F 
ENDBRANCH  61  84
ENDBRANCH  35  36
ENDBRANCH  27  30
ENDBRANCH  25  26
ENDBRANCH  24  25
ENDBRANCH   1  24
TORSDOF 13
ENDMDL
MODEL 2
REMARK VINA RESULT:     -13.5      6.493     11.739
REMARK SMILES C[C@@H](C(=O)NCCCNC(=O)c1ccc(-c2c3nc(c(-c4c(F)c(F)c(F)c(F)c4F)c4ccc([nH]4)c(-c4c(F)c(F)c(F)c(F)c4F)c4nc(c(-c5c(F)c(F)c(F)c(F)c5F)c5ccc2[nH]5)C=C4)C=C3)cc1)c1ccccc1-c1ccn(C(F)F)c(=O)c1
REMARK SMILES IDX 6 1 5 2 3 3 4 4 2 6 1 7 75 8 76 9 80 10 77 11 79 12 78 13
REMARK SMILES IDX 81 14 82 15 90 16 83 17 88 18 84 19 89 20 85 21 86 22 87 23
REMARK SMILES IDX 7 24 8 25 9 26 10 27 11 29 12 30 13 31 74 32 14 33 73 34
REMARK SMILES IDX 15 35 16 36 17 37 67 38 18 39 72 40 66 41 68 42 19 43 71 44
REMARK SMILES IDX 65 45 64 46 20 48 52 49 32 50 51 51 33 52 36 53 50 54 69 55
REMARK SMILES IDX 34 56 35 57 49 59 70 60 37 61 21 62 22 63 30 64 23 65 24 66
REMARK SMILES IDX 28 67 31 68 25 69 26 70 29 71 27 72 53 73 54 74 62 75 55 76
REMARK SMILES IDX 56 77 60 78 63 79 57 80 58 81 61 82 59 83 38 84 39 85 47 86
REMARK SMILES IDX 40 87 41 88 45 89 48 90 42 91 43 92 46 93 44 94
REMARK H PARENT 5 5 9 28 68 47 36 58
REMARK Flexibility Score: inf
ROOT
ATOM      1  C   UNL A   1      31.390  31.029  25.592  1.00  0.00     0.117 C 
ENDROOT
BRANCH   1   2
ATOM      2  N   UNL A   1      32.523  30.118  25.449  1.00  0.00    -0.356 N 
ATOM      3  C   UNL A   1      32.630  28.762  25.642  1.00  0.00     0.227 C 
ATOM      4  O   UNL A   1      33.743  28.266  25.456  1.00  0.00    -0.274 OA
ATOM      5  H   UNL A   1      33.358  30.553  25.165  1.00  0.00     0.163 HD
BRANCH   3   6
ATOM      6  C   UNL A   1      31.403  27.946  26.107  1.00  0.00     0.106 C 
ATOM      7  C   UNL A   1      31.543  27.865  27.625  1.00  0.00     0.023 C 
BRANCH   6   8
ATOM      8  C   UNL A   1      31.168  26.606  25.355  1.00  0.00    -0.028 A 
ATOM      9  C   UNL A   1      31.791  25.454  25.893  1.00  0.00     0.005 A 
ATOM     10  C   UNL A   1      30.447  26.432  24.138  1.00  0.00    -0.014 A 
ATOM     11  C   UNL A   1      31.649  24.188  25.313  1.00  0.00     0.000 A 
ATOM     12  C   UNL A   1      30.323  25.150  23.561  1.00  0.00     0.009 A 
ATOM     13  C   UNL A   1      30.910  24.034  24.151  1.00  0.00     0.001 A 
BRANCH  10  14
ATOM     14  C   UNL A   1      29.779  27.522  23.395  1.00  0.00    -0.011 A 
ATOM     15  C   UNL A   1      30.506  28.547  22.671  1.00  0.00     0.027 A 
ATOM     16  C   UNL A   1      28.440  27.610  23.501  1.00  0.00     0.080 A 
ATOM     17  C   UNL A   1      29.895  29.696  22.353  1.00  0.00     0.095 A 
ATOM     18  C   UNL A   1      27.739  28.862  23.099  1.00  0.00     0.255 A 
ATOM     19  N   UNL A   1      28.553  29.883  22.632  1.00  0.00    -0.258 N 
ATOM     20  O   UNL A   1      26.529  28.941  23.280  1.00  0.00    -0.269 OA
BRANCH  19  21
ATOM     21  C   UNL A   1      27.949  31.184  22.497  1.00  0.00     0.451 C 
ATOM     22  F   UNL A   1      27.727  31.759  23.702  1.00  0.00    -0.185 F 
ATOM     23  F   UNL A   1      28.752  32.008  21.776  1.00  0.00    -0.185 F 
ENDBRANCH  19  21
ENDBRANCH  10  14
ENDBRANCH   6   8
ENDBRANCH   3   6
ENDBRANCH   1   2
BRANCH   1  24
ATOM     24  C   UNL A   1      31.394  31.834  26.898  1.00  0.00     0.042 C 
BRANCH  24  25
ATOM     25  C   UNL A   1      32.694  32.572  27.199  1.00  0.00     0.118 C 
BRANCH  25  26
ATOM     26  N   UNL A   1      32.467  33.968  27.530  1.00  0.00    -0.352 N 
ATOM     27  C   UNL A   1      33.037  34.750  28.506  1.00  0.00     0.251 C 
ATOM     28  H   UNL A   1      31.800  34.425  26.967  1.00  0.00     0.163 HD
ATOM     29  O   UNL A   1      32.540  35.840  28.770  1.00  0.00    -0.269 OA
BRANCH  27  30
ATOM     30  C   UNL A   1      34.226  34.288  29.263  1.00  0.00     0.039 A 
ATOM     31  C   UNL A   1      34.027  33.628  30.481  1.00  0.00     0.014 A 
ATOM     32  C   UNL A   1      35.527  34.527  28.812  1.00  0.00     0.014 A 
ATOM     33  C   UNL A   1      35.123  33.139  31.200  1.00  0.00     0.010 A 
ATOM     34  C   UNL A   1      36.616  33.983  29.496  1.00  0.00     0.010 A 
ATOM     35  C   UNL A   1      36.425  33.271  30.691  1.00  0.00    -0.014 A 
BRANCH  35  36
ATOM     36  C   UNL A   1      37.586  32.628  31.362  1.00  0.00     0.031 A 
ATOM     37  C   UNL A   1      38.278  31.447  30.738  1.00  0.00     0.074 A 
ATOM     38  C   UNL A   1      37.963  33.060  32.582  1.00  0.00     0.049 A 
ATOM     39  N   UNL A   1      39.238  30.701  31.225  1.00  0.00    -0.248 NA
ATOM     40  C   UNL A   1      37.822  31.038  29.401  1.00  0.00     0.031 C 
ATOM     41  C   UNL A   1      37.344  34.167  33.314  1.00  0.00     0.029 A 
ATOM     42  N   UNL A   1      38.941  32.607  33.436  1.00  0.00    -0.354 N 
ATOM     43  C   UNL A   1      39.487  29.727  30.266  1.00  0.00     0.074 A 
ATOM     44  C   UNL A   1      38.558  29.957  29.180  1.00  0.00     0.031 C 
ATOM     45  C   UNL A   1      37.954  34.308  34.502  1.00  0.00     0.029 A 
ATOM     46  C   UNL A   1      38.977  33.276  34.636  1.00  0.00     0.049 A 
ATOM     47  H   UNL A   1      39.556  31.873  33.208  1.00  0.00     0.167 HD
ATOM     48  C   UNL A   1      40.414  28.741  30.288  1.00  0.00     0.037 A 
ATOM     49  C   UNL A   1      39.729  33.065  35.733  1.00  0.00     0.037 A 
ATOM     50  C   UNL A   1      41.362  28.538  31.354  1.00  0.00     0.049 A 
ATOM     51  C   UNL A   1      40.735  31.945  35.734  1.00  0.00     0.074 A 
ATOM     52  C   UNL A   1      42.410  27.634  31.412  1.00  0.00     0.029 A 
ATOM     53  N   UNL A   1      41.371  29.237  32.550  1.00  0.00    -0.354 N 
ATOM     54  N   UNL A   1      41.027  31.096  34.779  1.00  0.00    -0.248 NA
ATOM     55  C   UNL A   1      41.514  31.751  36.966  1.00  0.00     0.031 C 
ATOM     56  C   UNL A   1      43.017  27.748  32.666  1.00  0.00     0.029 A 
ATOM     57  C   UNL A   1      42.379  28.754  33.370  1.00  0.00     0.049 A 
ATOM     58  H   UNL A   1      40.754  29.968  32.782  1.00  0.00     0.167 HD
ATOM     59  C   UNL A   1      42.030  30.282  35.287  1.00  0.00     0.074 A 
ATOM     60  C   UNL A   1      42.317  30.753  36.625  1.00  0.00     0.031 C 
ATOM     61  C   UNL A   1      42.654  29.233  34.700  1.00  0.00     0.037 A 
BRANCH  48  62
ATOM     62  C   UNL A   1      40.471  27.794  29.127  1.00  0.00     0.064 A 
ATOM     63  C   UNL A   1      39.671  26.644  29.077  1.00  0.00     0.173 A 
ATOM     64  C   UNL A   1      41.259  28.096  28.004  1.00  0.00     0.173 A 
ATOM     65  F   UNL A   1      38.903  26.310  30.126  1.00  0.00    -0.203 F 
ATOM     66  C   UNL A   1      39.661  25.826  27.950  1.00  0.00     0.198 A 
ATOM     67  C   UNL A   1      41.230  27.289  26.870  1.00  0.00     0.198 A 
ATOM     68  F   UNL A   1      42.035  29.190  27.999  1.00  0.00    -0.203 F 
ATOM     69  F   UNL A   1      38.903  24.722  27.932  1.00  0.00    -0.200 F 
ATOM     70  C   UNL A   1      40.432  26.155  26.844  1.00  0.00     0.200 A 
ATOM     71  F   UNL A   1      41.964  27.617  25.798  1.00  0.00    -0.200 F 
ATOM     72  F   UNL A   1      40.405  25.380  25.752  1.00  0.00    -0.200 F 
ENDBRANCH  48  62
BRANCH  49  73
ATOM     73  C   UNL A   1      39.550  33.916  36.941  1.00  0.00     0.064 A 
ATOM     74  C   UNL A   1      38.759  33.487  38.016  1.00  0.00     0.173 A 
ATOM     75  C   UNL A   1      40.134  35.188  37.028  1.00  0.00     0.173 A 
ATOM     76  F   UNL A   1      38.162  32.287  37.969  1.00  0.00    -0.203 F 
ATOM     77  C   UNL A   1      38.536  34.308  39.119  1.00  0.00     0.198 A 
ATOM     78  C   UNL A   1      39.936  35.996  38.147  1.00  0.00     0.198 A 
ATOM     79  F   UNL A   1      40.902  35.647  36.030  1.00  0.00    -0.203 F 
ATOM     80  F   UNL A   1      37.730  33.895  40.106  1.00  0.00    -0.200 F 
ATOM     81  C   UNL A   1      39.128  35.560  39.185  1.00  0.00     0.200 A 
ATOM     82  F   UNL A   1      40.524  37.198  38.216  1.00  0.00    -0.200 F 
ATOM     83  F   UNL A   1      38.912  36.350  40.245  1.00  0.00    -0.200 F 
ENDBRANCH  49  73
BRANCH  61  84
ATOM     84  C   UNL A   1      43.713  28.528  35.494  1.00  0.00     0.064 A 
ATOM     85  C   UNL A   1      43.398  27.455  36.340  1.00  0.00     0.173 A 
ATOM     86  C   UNL A   1      45.060  28.900  35.375  1.00  0.00     0.173 A 
ATOM     87  F   UNL A   1      42.122  27.074  36.500  1.00  0.00    -0.203 F 
ATOM     88  C   UNL A   1      44.392  26.791  37.053  1.00  0.00     0.198 A 
ATOM     89  C   UNL A   1      46.055  28.216  36.068  1.00  0.00     0.198 A 
ATOM     90  F   UNL A   1      45.414  29.917  34.576  1.00  0.00    -0.203 F 
ATOM     91  F   UNL A   1      44.065  25.796  37.889  1.00  0.00    -0.200 F 
ATOM     92  C   UNL A   1      45.720  27.167  36.910  1.00  0.00     0.200 A 
ATOM     93  F   UNL A   1      47.339  28.571  35.920  1.00  0.00    -0.200 F 
ATOM     94  F   UNL A   1      46.677  26.519  37.591  1.00  0.00    -0.200 F 
ENDBRANCH  61  84
ENDBRANCH  35  36
ENDBRANCH  27  30
ENDBRANCH  25  26
ENDBRANCH  24  25
ENDBRANCH   1  24
TORSDOF 13
ENDMDL
MODEL 3
REMARK VINA RESULT:     -13.4      6.086     11.501
REMARK SMILES C[C@@H](C(=O)NCCCNC(=O)c1ccc(-c2c3nc(c(-c4c(F)c(F)c(F)c(F)c4F)c4ccc([nH]4)c(-c4c(F)c(F)c(F)c(F)c4F)c4nc(c(-c5c(F)c(F)c(F)c(F)c5F)c5ccc2[nH]5)C=C4)C=C3)cc1)c1ccccc1-c1ccn(C(F)F)c(=O)c1
REMARK SMILES IDX 6 1 5 2 3 3 4 4 2 6 1 7 75 8 76 9 80 10 77 11 79 12 78 13
REMARK SMILES IDX 81 14 82 15 90 16 83 17 88 18 84 19 89 20 85 21 86 22 87 23
REMARK SMILES IDX 7 24 8 25 9 26 10 27 11 29 12 30 13 31 74 32 14 33 73 34
REMARK SMILES IDX 15 35 16 36 17 37 67 38 18 39 72 40 66 41 68 42 19 43 71 44
REMARK SMILES IDX 65 45 64 46 20 48 52 49 32 50 51 51 33 52 36 53 50 54 69 55
REMARK SMILES IDX 34 56 35 57 49 59 70 60 37 61 21 62 22 63 30 64 23 65 24 66
REMARK SMILES IDX 28 67 31 68 25 69 26 70 29 71 27 72 53 73 54 74 62 75 55 76
REMARK SMILES IDX 56 77 60 78 63 79 57 80 58 81 61 82 59 83 38 84 39 85 47 86
REMARK SMILES IDX 40 87 41 88 45 89 48 90 42 91 43 92 46 93 44 94
REMARK H PARENT 5 5 9 28 68 47 36 58
REMARK Flexibility Score: inf
ROOT
ATOM      1  C   UNL A   1      30.862  30.942  25.475  1.00  0.00     0.117 C 
ENDROOT
BRANCH   1   2
ATOM      2  N   UNL A   1      32.115  30.206  25.331  1.00  0.00    -0.356 N 
ATOM      3  C   UNL A   1      32.431  28.890  25.571  1.00  0.00     0.227 C 
ATOM      4  O   UNL A   1      33.601  28.560  25.368  1.00  0.00    -0.274 OA
ATOM      5  H   UNL A   1      32.867  30.748  25.003  1.00  0.00     0.163 HD
BRANCH   3   6
ATOM      6  C   UNL A   1      31.353  27.921  26.106  1.00  0.00     0.106 C 
ATOM      7  C   UNL A   1      31.623  27.830  27.607  1.00  0.00     0.023 C 
BRANCH   6   8
ATOM      8  C   UNL A   1      31.225  26.577  25.338  1.00  0.00    -0.028 A 
ATOM      9  C   UNL A   1      31.885  25.455  25.895  1.00  0.00     0.005 A 
ATOM     10  C   UNL A   1      30.567  26.373  24.089  1.00  0.00    -0.014 A 
ATOM     11  C   UNL A   1      31.838  24.188  25.303  1.00  0.00     0.000 A 
ATOM     12  C   UNL A   1      30.538  25.090  23.501  1.00  0.00     0.009 A 
ATOM     13  C   UNL A   1      31.159  24.003  24.109  1.00  0.00     0.001 A 
BRANCH  10  14
ATOM     14  C   UNL A   1      29.873  27.430  23.325  1.00  0.00    -0.011 A 
ATOM     15  C   UNL A   1      30.572  28.398  22.500  1.00  0.00     0.027 A 
ATOM     16  C   UNL A   1      28.545  27.551  23.503  1.00  0.00     0.080 A 
ATOM     17  C   UNL A   1      29.962  29.538  22.151  1.00  0.00     0.095 A 
ATOM     18  C   UNL A   1      27.841  28.791  23.071  1.00  0.00     0.255 A 
ATOM     19  N   UNL A   1      28.641  29.767  22.497  1.00  0.00    -0.258 N 
ATOM     20  O   UNL A   1      26.645  28.903  23.317  1.00  0.00    -0.269 OA
BRANCH  19  21
ATOM     21  C   UNL A   1      28.051  31.070  22.322  1.00  0.00     0.451 C 
ATOM     22  F   UNL A   1      28.922  32.058  22.631  1.00  0.00    -0.185 F 
ATOM     23  F   UNL A   1      27.654  31.242  21.035  1.00  0.00    -0.185 F 
ENDBRANCH  19  21
ENDBRANCH  10  14
ENDBRANCH   6   8
ENDBRANCH   3   6
ENDBRANCH   1   2
BRANCH   1  24
ATOM     24  C   UNL A   1      31.027  32.351  26.061  1.00  0.00     0.042 C 
BRANCH  24  25
ATOM     25  C   UNL A   1      32.252  32.544  26.947  1.00  0.00     0.118 C 
BRANCH  25  26
ATOM     26  N   UNL A   1      32.383  33.914  27.410  1.00  0.00    -0.352 N 
ATOM     27  C   UNL A   1      33.247  34.458  28.331  1.00  0.00     0.251 C 
ATOM     28  H   UNL A   1      31.756  34.553  26.999  1.00  0.00     0.163 HD
ATOM     29  O   UNL A   1      33.041  35.593  28.751  1.00  0.00    -0.269 OA
BRANCH  27  30
ATOM     30  C   UNL A   1      34.405  33.689  28.845  1.00  0.00     0.039 A 
ATOM     31  C   UNL A   1      35.686  34.237  28.710  1.00  0.00     0.014 A 
ATOM     32  C   UNL A   1      34.254  32.424  29.420  1.00  0.00     0.014 A 
ATOM     33  C   UNL A   1      36.797  33.559  29.224  1.00  0.00     0.010 A 
ATOM     34  C   UNL A   1      35.353  31.778  29.991  1.00  0.00     0.010 A 
ATOM     35  C   UNL A   1      36.634  32.344  29.910  1.00  0.00    -0.014 A 
BRANCH  35  36
ATOM     36  C   UNL A   1      37.779  31.685  30.593  1.00  0.00     0.031 A 
ATOM     37  C   UNL A   1      38.615  30.659  29.878  1.00  0.00     0.074 A 
ATOM     38  C   UNL A   1      38.011  31.952  31.895  1.00  0.00     0.049 A 
ATOM     39  N   UNL A   1      39.585  29.914  30.346  1.00  0.00    -0.248 NA
ATOM     40  C   UNL A   1      38.313  30.427  28.458  1.00  0.00     0.031 C 
ATOM     41  C   UNL A   1      37.243  32.893  32.713  1.00  0.00     0.029 A 
ATOM     42  N   UNL A   1      38.942  31.441  32.767  1.00  0.00    -0.354 N 
ATOM     43  C   UNL A   1      39.994  29.113  29.287  1.00  0.00     0.074 A 
ATOM     44  C   UNL A   1      39.150  29.442  28.159  1.00  0.00     0.031 C 
ATOM     45  C   UNL A   1      37.732  32.893  33.963  1.00  0.00     0.029 A 
ATOM     46  C   UNL A   1      38.818  31.922  34.049  1.00  0.00     0.049 A 
ATOM     47  H   UNL A   1      39.631  30.791  32.499  1.00  0.00     0.167 HD
ATOM     48  C   UNL A   1      40.992  28.199  29.259  1.00  0.00     0.037 A 
ATOM     49  C   UNL A   1      39.484  31.599  35.174  1.00  0.00     0.037 A 
ATOM     50  C   UNL A   1      41.855  27.899  30.373  1.00  0.00     0.049 A 
ATOM     51  C   UNL A   1      40.573  30.560  35.113  1.00  0.00     0.074 A 
ATOM     52  C   UNL A   1      42.962  27.068  30.405  1.00  0.00     0.029 A 
ATOM     53  N   UNL A   1      41.702  28.410  31.652  1.00  0.00    -0.354 N 
ATOM     54  N   UNL A   1      41.015  29.885  34.080  1.00  0.00    -0.248 NA
ATOM     55  C   UNL A   1      41.252  30.234  36.376  1.00  0.00     0.031 C 
ATOM     56  C   UNL A   1      43.445  27.032  31.716  1.00  0.00     0.029 A 
ATOM     57  C   UNL A   1      42.669  27.877  32.491  1.00  0.00     0.049 A 
ATOM     58  H   UNL A   1      41.010  29.055  31.924  1.00  0.00     0.167 HD
ATOM     59  C   UNL A   1      42.030  29.072  34.563  1.00  0.00     0.074 A 
ATOM     60  C   UNL A   1      42.159  29.354  35.976  1.00  0.00     0.031 C 
ATOM     61  C   UNL A   1      42.785  28.167  33.896  1.00  0.00     0.037 A 
BRANCH  48  62
ATOM     62  C   UNL A   1      41.226  27.442  27.985  1.00  0.00     0.064 A 
ATOM     63  C   UNL A   1      42.055  27.947  26.973  1.00  0.00     0.173 A 
ATOM     64  C   UNL A   1      40.699  26.151  27.821  1.00  0.00     0.173 A 
ATOM     65  F   UNL A   1      42.580  29.177  27.082  1.00  0.00    -0.203 F 
ATOM     66  C   UNL A   1      42.341  27.191  25.839  1.00  0.00     0.198 A 
ATOM     67  C   UNL A   1      41.006  25.389  26.697  1.00  0.00     0.198 A 
ATOM     68  F   UNL A   1      39.908  25.619  28.765  1.00  0.00    -0.203 F 
ATOM     69  F   UNL A   1      43.120  27.701  24.875  1.00  0.00    -0.200 F 
ATOM     70  C   UNL A   1      41.825  25.910  25.707  1.00  0.00     0.200 A 
ATOM     71  F   UNL A   1      40.519  24.146  26.579  1.00  0.00    -0.200 F 
ATOM     72  F   UNL A   1      42.121  25.175  24.626  1.00  0.00    -0.200 F 
ENDBRANCH  48  62
BRANCH  49  73
ATOM     73  C   UNL A   1      39.132  32.244  36.467  1.00  0.00     0.064 A 
ATOM     74  C   UNL A   1      38.152  31.694  37.305  1.00  0.00     0.173 A 
ATOM     75  C   UNL A   1      39.739  33.442  36.873  1.00  0.00     0.173 A 
ATOM     76  F   UNL A   1      37.527  30.562  36.950  1.00  0.00    -0.203 F 
ATOM     77  C   UNL A   1      37.773  32.332  38.484  1.00  0.00     0.198 A 
ATOM     78  C   UNL A   1      39.382  34.061  38.069  1.00  0.00     0.198 A 
ATOM     79  F   UNL A   1      40.685  34.009  36.110  1.00  0.00    -0.203 F 
ATOM     80  F   UNL A   1      36.793  31.814  39.238  1.00  0.00    -0.200 F 
ATOM     81  C   UNL A   1      38.391  33.512  38.867  1.00  0.00     0.200 A 
ATOM     82  F   UNL A   1      39.994  35.192  38.444  1.00  0.00    -0.200 F 
ATOM     83  F   UNL A   1      38.025  34.125  40.001  1.00  0.00    -0.200 F 
ENDBRANCH  49  73
BRANCH  61  84
ATOM     84  C   UNL A   1      43.823  27.422  34.682  1.00  0.00     0.064 A 
ATOM     85  C   UNL A   1      45.104  27.955  34.888  1.00  0.00     0.173 A 
ATOM     86  C   UNL A   1      43.521  26.186  35.273  1.00  0.00     0.173 A 
ATOM     87  F   UNL A   1      45.445  29.125  34.329  1.00  0.00    -0.203 F 
ATOM     88  C   UNL A   1      46.052  27.267  35.641  1.00  0.00     0.198 A 
ATOM     89  C   UNL A   1      44.462  25.515  36.049  1.00  0.00     0.198 A 
ATOM     90  F   UNL A   1      42.309  25.636  35.109  1.00  0.00    -0.203 F 
ATOM     91  F   UNL A   1      47.283  27.774  35.790  1.00  0.00    -0.200 F 
ATOM     92  C   UNL A   1      45.727  26.052  36.227  1.00  0.00     0.200 A 
ATOM     93  F   UNL A   1      44.144  24.347  36.625  1.00  0.00    -0.200 F 
ATOM     94  F   UNL A   1      46.638  25.397  36.960  1.00  0.00    -0.200 F 
ENDBRANCH  61  84
ENDBRANCH  35  36
ENDBRANCH  27  30
ENDBRANCH  25  26
ENDBRANCH  24  25
ENDBRANCH   1  24
TORSDOF 13
ENDMDL
