MODEL 1
REMARK VINA RESULT:     -12.8      0.000      0.000
REMARK SMILES Cc1ccc(C)c(NC(=O)/C=C/C(=O)NCCCNC(=O)c2ccc(-c3c4nc(c(-c5c(F)c(F)c(F)c(F)c5F)c5ccc([nH]5)c(-c5c(F)c(F)c(F)c(F)c5F)c5nc(c(-c6c(F)c(F)c(F)c(F)c6F)c6ccc3[nH]6)C=C5)C=C4)cc2)c1
REMARK SMILES IDX 17 1 16 2 15 3 13 4 14 5 12 7 11 8 9 9 8 10 10 12 7 13 1 14
REMARK SMILES IDX 2 15 3 16 85 17 4 18 5 19 6 20 18 21 19 22 20 23 21 25 22 26
REMARK SMILES IDX 23 27 84 28 24 29 83 30 25 31 26 32 27 33 77 34 28 35 82 36
REMARK SMILES IDX 76 37 78 38 29 39 81 40 75 41 74 42 30 44 62 45 42 46 61 47
REMARK SMILES IDX 43 48 46 49 60 50 79 51 44 52 45 53 59 55 80 56 47 57 31 58
REMARK SMILES IDX 32 59 40 60 33 61 34 62 38 63 41 64 35 65 36 66 39 67 37 68
REMARK SMILES IDX 63 69 64 70 72 71 65 72 66 73 70 74 73 75 67 76 68 77 71 78
REMARK SMILES IDX 69 79 48 80 49 81 57 82 50 83 51 84 55 85 58 86 52 87 53 88
REMARK SMILES IDX 56 89 54 90
REMARK H PARENT 15 6 8 11 19 24 78 43 46 54
REMARK Flexibility Score: inf
ROOT
ATOM      1  C   UNL A   1      39.080  21.673  26.129  1.00  0.00     0.042 C 
ENDROOT
BRANCH   1   2
ATOM      2  C   UNL A   1      38.216  22.941  26.131  1.00  0.00     0.118 C 
BRANCH   2   3
ATOM      3  N   UNL A   1      37.707  23.249  24.812  1.00  0.00    -0.352 N 
ATOM      4  C   UNL A   1      36.511  22.849  24.306  1.00  0.00     0.244 C 
ATOM      5  O   UNL A   1      36.383  22.678  23.101  1.00  0.00    -0.270 OA
ATOM      6  H   UNL A   1      38.279  23.799  24.228  1.00  0.00     0.163 HD
BRANCH   4   7
ATOM      7  C   UNL A   1      35.402  22.700  25.274  1.00  0.00     0.077 C 
ATOM      8  C   UNL A   1      35.360  21.651  26.107  1.00  0.00     0.077 C 
BRANCH   8   9
ATOM      9  C   UNL A   1      34.107  21.445  26.838  1.00  0.00     0.248 C 
ATOM     10  N   UNL A   1      33.194  20.515  26.443  1.00  0.00    -0.322 N 
ATOM     11  H   UNL A   1      32.495  20.391  27.125  1.00  0.00     0.170 HD
ATOM     12  O   UNL A   1      33.900  22.100  27.862  1.00  0.00    -0.270 OA
BRANCH  10  13
ATOM     13  C   UNL A   1      32.972  19.677  25.321  1.00  0.00     0.044 A 
ATOM     14  C   UNL A   1      32.889  15.848  24.972  1.00  0.00     0.044 C 
ATOM     15  C   UNL A   1      32.907  17.306  24.631  1.00  0.00    -0.049 A 
ATOM     16  C   UNL A   1      32.689  17.688  23.314  1.00  0.00     0.004 A 
ATOM     17  C   UNL A   1      33.078  18.297  25.611  1.00  0.00     0.029 A 
ATOM     18  C   UNL A   1      32.544  19.032  23.012  1.00  0.00     0.006 A 
ATOM     19  C   UNL A   1      32.604  20.025  24.011  1.00  0.00    -0.027 A 
ATOM     20  C   UNL A   1      32.168  21.370  23.538  1.00  0.00     0.046 C 
ENDBRANCH  10  13
ENDBRANCH   8   9
ENDBRANCH   4   7
ENDBRANCH   2   3
ENDBRANCH   1   2
BRANCH   1  21
ATOM     21  C   UNL A   1      40.371  21.747  26.945  1.00  0.00     0.118 C 
BRANCH  21  22
ATOM     22  N   UNL A   1      41.535  22.071  26.121  1.00  0.00    -0.352 N 
ATOM     23  C   UNL A   1      42.274  23.209  25.847  1.00  0.00     0.251 C 
ATOM     24  H   UNL A   1      41.879  21.283  25.641  1.00  0.00     0.163 HD
ATOM     25  O   UNL A   1      43.107  23.154  24.965  1.00  0.00    -0.269 OA
BRANCH  23  26
ATOM     26  C   UNL A   1      42.074  24.484  26.581  1.00  0.00     0.039 A 
ATOM     27  C   UNL A   1      42.845  24.796  27.708  1.00  0.00     0.014 A 
ATOM     28  C   UNL A   1      41.107  25.389  26.177  1.00  0.00     0.014 A 
ATOM     29  C   UNL A   1      42.583  25.984  28.395  1.00  0.00     0.010 A 
ATOM     30  C   UNL A   1      41.071  26.669  26.642  1.00  0.00     0.010 A 
ATOM     31  C   UNL A   1      41.680  26.907  27.846  1.00  0.00    -0.014 A 
BRANCH  31  32
ATOM     32  C   UNL A   1      41.429  28.204  28.432  1.00  0.00     0.031 A 
ATOM     33  C   UNL A   1      42.451  29.181  28.044  1.00  0.00     0.074 A 
ATOM     34  C   UNL A   1      40.299  28.596  29.053  1.00  0.00     0.049 A 
ATOM     35  N   UNL A   1      43.496  29.487  28.729  1.00  0.00    -0.248 NA
ATOM     36  C   UNL A   1      42.439  29.704  26.672  1.00  0.00     0.031 C 
ATOM     37  C   UNL A   1      39.011  27.912  29.176  1.00  0.00     0.029 A 
ATOM     38  N   UNL A   1      40.078  29.785  29.677  1.00  0.00    -0.354 N 
ATOM     39  C   UNL A   1      44.164  30.427  27.967  1.00  0.00     0.074 A 
ATOM     40  C   UNL A   1      43.617  30.331  26.638  1.00  0.00     0.031 C 
ATOM     41  C   UNL A   1      38.096  28.769  29.695  1.00  0.00     0.029 A 
ATOM     42  C   UNL A   1      38.766  30.004  30.070  1.00  0.00     0.049 A 
ATOM     43  H   UNL A   1      40.795  30.441  29.837  1.00  0.00     0.167 HD
ATOM     44  C   UNL A   1      44.889  31.399  28.578  1.00  0.00     0.037 A 
ATOM     45  C   UNL A   1      38.288  31.140  30.639  1.00  0.00     0.037 A 
ATOM     46  C   UNL A   1      45.063  31.107  29.986  1.00  0.00     0.049 A 
ATOM     47  C   UNL A   1      39.451  31.862  31.219  1.00  0.00     0.074 A 
ATOM     48  C   UNL A   1      45.610  30.059  30.704  1.00  0.00     0.029 A 
ATOM     49  N   UNL A   1      44.248  31.778  30.868  1.00  0.00    -0.354 N 
ATOM     50  N   UNL A   1      40.131  31.446  32.251  1.00  0.00    -0.248 NA
ATOM     51  C   UNL A   1      40.123  32.858  30.397  1.00  0.00     0.031 C 
ATOM     52  C   UNL A   1      44.756  29.893  31.837  1.00  0.00     0.029 A 
ATOM     53  C   UNL A   1      43.771  30.880  31.787  1.00  0.00     0.049 A 
ATOM     54  H   UNL A   1      44.043  32.740  30.842  1.00  0.00     0.167 HD
ATOM     55  C   UNL A   1      41.447  31.765  31.955  1.00  0.00     0.074 A 
ATOM     56  C   UNL A   1      41.364  32.743  30.876  1.00  0.00     0.031 C 
ATOM     57  C   UNL A   1      42.472  30.988  32.415  1.00  0.00     0.037 A 
BRANCH  44  58
ATOM     58  C   UNL A   1      45.076  32.784  28.023  1.00  0.00     0.064 A 
ATOM     59  C   UNL A   1      46.375  33.194  27.671  1.00  0.00     0.173 A 
ATOM     60  C   UNL A   1      44.107  33.809  28.088  1.00  0.00     0.173 A 
ATOM     61  F   UNL A   1      47.376  32.304  27.605  1.00  0.00    -0.203 F 
ATOM     62  C   UNL A   1      46.693  34.539  27.476  1.00  0.00     0.198 A 
ATOM     63  C   UNL A   1      44.415  35.140  27.831  1.00  0.00     0.198 A 
ATOM     64  F   UNL A   1      42.859  33.593  28.519  1.00  0.00    -0.203 F 
ATOM     65  F   UNL A   1      47.967  34.896  27.276  1.00  0.00    -0.200 F 
ATOM     66  C   UNL A   1      45.713  35.511  27.558  1.00  0.00     0.200 A 
ATOM     67  F   UNL A   1      43.454  36.071  27.938  1.00  0.00    -0.200 F 
ATOM     68  F   UNL A   1      46.026  36.806  27.431  1.00  0.00    -0.200 F 
ENDBRANCH  44  58
BRANCH  45  69
ATOM     69  C   UNL A   1      36.956  31.779  30.523  1.00  0.00     0.064 A 
ATOM     70  C   UNL A   1      36.052  31.763  31.600  1.00  0.00     0.173 A 
ATOM     71  C   UNL A   1      36.669  32.679  29.479  1.00  0.00     0.173 A 
ATOM     72  F   UNL A   1      36.267  30.960  32.652  1.00  0.00    -0.203 F 
ATOM     73  C   UNL A   1      34.957  32.631  31.654  1.00  0.00     0.198 A 
ATOM     74  C   UNL A   1      35.570  33.540  29.531  1.00  0.00     0.198 A 
ATOM     75  F   UNL A   1      37.503  32.814  28.440  1.00  0.00    -0.203 F 
ATOM     76  F   UNL A   1      34.164  32.642  32.735  1.00  0.00    -0.200 F 
ATOM     77  C   UNL A   1      34.726  33.530  30.626  1.00  0.00     0.200 A 
ATOM     78  F   UNL A   1      35.376  34.429  28.547  1.00  0.00    -0.200 F 
ATOM     79  F   UNL A   1      33.721  34.413  30.711  1.00  0.00    -0.200 F 
ENDBRANCH  45  69
BRANCH  57  80
ATOM     80  C   UNL A   1      42.159  30.022  33.527  1.00  0.00     0.064 A 
ATOM     81  C   UNL A   1      41.701  28.705  33.340  1.00  0.00     0.173 A 
ATOM     82  C   UNL A   1      42.422  30.428  34.843  1.00  0.00     0.173 A 
ATOM     83  F   UNL A   1      41.521  28.203  32.112  1.00  0.00    -0.203 F 
ATOM     84  C   UNL A   1      41.462  27.862  34.425  1.00  0.00     0.198 A 
ATOM     85  C   UNL A   1      42.222  29.571  35.920  1.00  0.00     0.198 A 
ATOM     86  F   UNL A   1      42.908  31.657  35.083  1.00  0.00    -0.203 F 
ATOM     87  F   UNL A   1      40.994  26.621  34.221  1.00  0.00    -0.200 F 
ATOM     88  C   UNL A   1      41.727  28.294  35.713  1.00  0.00     0.200 A 
ATOM     89  F   UNL A   1      42.526  29.977  37.161  1.00  0.00    -0.200 F 
ATOM     90  F   UNL A   1      41.527  27.473  36.754  1.00  0.00    -0.200 F 
ENDBRANCH  57  80
ENDBRANCH  31  32
ENDBRANCH  23  26
ENDBRANCH  21  22
ENDBRANCH   1  21
TORSDOF 12
ENDMDL
MODEL 2
REMARK VINA RESULT:     -12.8      1.906      3.385
REMARK SMILES Cc1ccc(C)c(NC(=O)/C=C/C(=O)NCCCNC(=O)c2ccc(-c3c4nc(c(-c5c(F)c(F)c(F)c(F)c5F)c5ccc([nH]5)c(-c5c(F)c(F)c(F)c(F)c5F)c5nc(c(-c6c(F)c(F)c(F)c(F)c6F)c6ccc3[nH]6)C=C5)C=C4)cc2)c1
REMARK SMILES IDX 17 1 16 2 15 3 13 4 14 5 12 7 11 8 9 9 8 10 10 12 7 13 1 14
REMARK SMILES IDX 2 15 3 16 85 17 4 18 5 19 6 20 18 21 19 22 20 23 21 25 22 26
REMARK SMILES IDX 23 27 84 28 24 29 83 30 25 31 26 32 27 33 77 34 28 35 82 36
REMARK SMILES IDX 76 37 78 38 29 39 81 40 75 41 74 42 30 44 62 45 42 46 61 47
REMARK SMILES IDX 43 48 46 49 60 50 79 51 44 52 45 53 59 55 80 56 47 57 31 58
REMARK SMILES IDX 32 59 40 60 33 61 34 62 38 63 41 64 35 65 36 66 39 67 37 68
REMARK SMILES IDX 63 69 64 70 72 71 65 72 66 73 70 74 73 75 67 76 68 77 71 78
REMARK SMILES IDX 69 79 48 80 49 81 57 82 50 83 51 84 55 85 58 86 52 87 53 88
REMARK SMILES IDX 56 89 54 90
REMARK H PARENT 15 6 8 11 19 24 78 43 46 54
REMARK Flexibility Score: inf
ROOT
ATOM      1  C   UNL A   1      38.788  22.019  25.677  1.00  0.00     0.042 C 
ENDROOT
BRANCH   1   2
ATOM      2  C   UNL A   1      37.638  23.026  25.815  1.00  0.00     0.118 C 
BRANCH   2   3
ATOM      3  N   UNL A   1      36.422  22.396  26.282  1.00  0.00    -0.352 N 
ATOM      4  C   UNL A   1      35.234  23.018  26.494  1.00  0.00     0.244 C 
ATOM      5  O   UNL A   1      34.463  22.593  27.345  1.00  0.00    -0.270 OA
ATOM      6  H   UNL A   1      36.459  21.428  26.463  1.00  0.00     0.163 HD
BRANCH   4   7
ATOM      7  C   UNL A   1      34.925  24.167  25.614  1.00  0.00     0.077 C 
ATOM      8  C   UNL A   1      33.964  24.075  24.685  1.00  0.00     0.077 C 
BRANCH   8   9
ATOM      9  C   UNL A   1      33.905  25.153  23.694  1.00  0.00     0.248 C 
ATOM     10  N   UNL A   1      33.595  26.431  24.045  1.00  0.00    -0.322 N 
ATOM     11  H   UNL A   1      33.757  27.054  23.301  1.00  0.00     0.170 HD
ATOM     12  O   UNL A   1      34.190  24.899  22.521  1.00  0.00    -0.270 OA
BRANCH  10  13
ATOM     13  C   UNL A   1      33.102  27.112  25.188  1.00  0.00     0.044 A 
ATOM     14  C   UNL A   1      34.774  29.608  27.589  1.00  0.00     0.044 C 
ATOM     15  C   UNL A   1      33.782  28.658  26.989  1.00  0.00    -0.049 A 
ATOM     16  C   UNL A   1      32.523  28.555  27.563  1.00  0.00     0.004 A 
ATOM     17  C   UNL A   1      34.070  27.915  25.833  1.00  0.00     0.029 A 
ATOM     18  C   UNL A   1      31.547  27.804  26.929  1.00  0.00     0.006 A 
ATOM     19  C   UNL A   1      31.798  27.146  25.707  1.00  0.00    -0.027 A 
ATOM     20  C   UNL A   1      30.567  26.616  25.055  1.00  0.00     0.046 C 
ENDBRANCH  10  13
ENDBRANCH   8   9
ENDBRANCH   4   7
ENDBRANCH   2   3
ENDBRANCH   1   2
BRANCH   1  21
ATOM     21  C   UNL A   1      39.717  21.899  26.885  1.00  0.00     0.118 C 
BRANCH  21  22
ATOM     22  N   UNL A   1      41.130  21.954  26.511  1.00  0.00    -0.352 N 
ATOM     23  C   UNL A   1      42.091  22.943  26.399  1.00  0.00     0.251 C 
ATOM     24  H   UNL A   1      41.486  21.065  26.283  1.00  0.00     0.163 HD
ATOM     25  O   UNL A   1      43.157  22.653  25.894  1.00  0.00    -0.269 OA
BRANCH  23  26
ATOM     26  C   UNL A   1      41.858  24.336  26.859  1.00  0.00     0.039 A 
ATOM     27  C   UNL A   1      41.072  25.221  26.109  1.00  0.00     0.014 A 
ATOM     28  C   UNL A   1      42.427  24.797  28.033  1.00  0.00     0.014 A 
ATOM     29  C   UNL A   1      40.925  26.535  26.558  1.00  0.00     0.010 A 
ATOM     30  C   UNL A   1      42.028  25.957  28.626  1.00  0.00     0.010 A 
ATOM     31  C   UNL A   1      41.422  26.886  27.822  1.00  0.00    -0.014 A 
BRANCH  31  32
ATOM     32  C   UNL A   1      41.224  28.192  28.409  1.00  0.00     0.031 A 
ATOM     33  C   UNL A   1      42.266  29.136  27.995  1.00  0.00     0.074 A 
ATOM     34  C   UNL A   1      40.121  28.620  29.054  1.00  0.00     0.049 A 
ATOM     35  N   UNL A   1      43.335  29.413  28.657  1.00  0.00    -0.248 NA
ATOM     36  C   UNL A   1      42.239  29.656  26.622  1.00  0.00     0.031 C 
ATOM     37  C   UNL A   1      38.815  27.976  29.207  1.00  0.00     0.029 A 
ATOM     38  N   UNL A   1      39.949  29.817  29.678  1.00  0.00    -0.354 N 
ATOM     39  C   UNL A   1      44.014  30.330  27.877  1.00  0.00     0.074 A 
ATOM     40  C   UNL A   1      43.435  30.247  26.560  1.00  0.00     0.031 C 
ATOM     41  C   UNL A   1      37.938  28.862  29.744  1.00  0.00     0.029 A 
ATOM     42  C   UNL A   1      38.653  30.077  30.100  1.00  0.00     0.049 A 
ATOM     43  H   UNL A   1      40.689  30.451  29.820  1.00  0.00     0.167 HD
ATOM     44  C   UNL A   1      44.781  31.281  28.468  1.00  0.00     0.037 A 
ATOM     45  C   UNL A   1      38.222  31.229  30.674  1.00  0.00     0.037 A 
ATOM     46  C   UNL A   1      44.978  30.988  29.873  1.00  0.00     0.049 A 
ATOM     47  C   UNL A   1      39.420  31.917  31.227  1.00  0.00     0.074 A 
ATOM     48  C   UNL A   1      45.508  29.926  30.582  1.00  0.00     0.029 A 
ATOM     49  N   UNL A   1      44.203  31.686  30.770  1.00  0.00    -0.354 N 
ATOM     50  N   UNL A   1      40.109  31.483  32.244  1.00  0.00    -0.248 NA
ATOM     51  C   UNL A   1      40.103  32.889  30.386  1.00  0.00     0.031 C 
ATOM     52  C   UNL A   1      44.675  29.790  31.735  1.00  0.00     0.029 A 
ATOM     53  C   UNL A   1      43.719  30.805  31.703  1.00  0.00     0.049 A 
ATOM     54  H   UNL A   1      44.026  32.654  30.745  1.00  0.00     0.167 HD
ATOM     55  C   UNL A   1      41.428  31.761  31.918  1.00  0.00     0.074 A 
ATOM     56  C   UNL A   1      41.351  32.738  30.837  1.00  0.00     0.031 C 
ATOM     57  C   UNL A   1      42.439  30.955  32.358  1.00  0.00     0.037 A 
BRANCH  44  58
ATOM     58  C   UNL A   1      44.998  32.658  27.904  1.00  0.00     0.064 A 
ATOM     59  C   UNL A   1      46.302  33.031  27.530  1.00  0.00     0.173 A 
ATOM     60  C   UNL A   1      44.059  33.709  27.979  1.00  0.00     0.173 A 
ATOM     61  F   UNL A   1      47.277  32.113  27.453  1.00  0.00    -0.203 F 
ATOM     62  C   UNL A   1      46.654  34.365  27.324  1.00  0.00     0.198 A 
ATOM     63  C   UNL A   1      44.399  35.031  27.711  1.00  0.00     0.198 A 
ATOM     64  F   UNL A   1      42.812  33.530  28.430  1.00  0.00    -0.203 F 
ATOM     65  F   UNL A   1      47.934  34.687  27.104  1.00  0.00    -0.200 F 
ATOM     66  C   UNL A   1      45.702  35.364  27.417  1.00  0.00     0.200 A 
ATOM     67  F   UNL A   1      43.466  35.988  27.829  1.00  0.00    -0.200 F 
ATOM     68  F   UNL A   1      46.049  36.650  27.279  1.00  0.00    -0.200 F 
ENDBRANCH  44  58
BRANCH  45  69
ATOM     69  C   UNL A   1      36.908  31.908  30.585  1.00  0.00     0.064 A 
ATOM     70  C   UNL A   1      36.011  31.886  31.668  1.00  0.00     0.173 A 
ATOM     71  C   UNL A   1      36.641  32.844  29.570  1.00  0.00     0.173 A 
ATOM     72  F   UNL A   1      36.209  31.047  32.695  1.00  0.00    -0.203 F 
ATOM     73  C   UNL A   1      34.941  32.782  31.753  1.00  0.00     0.198 A 
ATOM     74  C   UNL A   1      35.566  33.733  29.653  1.00  0.00     0.198 A 
ATOM     75  F   UNL A   1      37.472  32.986  28.529  1.00  0.00    -0.203 F 
ATOM     76  F   UNL A   1      34.154  32.784  32.840  1.00  0.00    -0.200 F 
ATOM     77  C   UNL A   1      34.729  33.716  30.754  1.00  0.00     0.200 A 
ATOM     78  F   UNL A   1      35.392  34.655  28.696  1.00  0.00    -0.200 F 
ATOM     79  F   UNL A   1      33.750  34.624  30.870  1.00  0.00    -0.200 F 
ENDBRANCH  45  69
BRANCH  57  80
ATOM     80  C   UNL A   1      42.121  30.002  33.481  1.00  0.00     0.064 A 
ATOM     81  C   UNL A   1      41.659  28.685  33.307  1.00  0.00     0.173 A 
ATOM     82  C   UNL A   1      42.384  30.421  34.792  1.00  0.00     0.173 A 
ATOM     83  F   UNL A   1      41.478  28.170  32.085  1.00  0.00    -0.203 F 
ATOM     84  C   UNL A   1      41.415  27.854  34.401  1.00  0.00     0.198 A 
ATOM     85  C   UNL A   1      42.181  29.576  35.879  1.00  0.00     0.198 A 
ATOM     86  F   UNL A   1      42.875  31.651  35.019  1.00  0.00    -0.203 F 
ATOM     87  F   UNL A   1      40.944  26.613  34.210  1.00  0.00    -0.200 F 
ATOM     88  C   UNL A   1      41.681  28.299  35.685  1.00  0.00     0.200 A 
ATOM     89  F   UNL A   1      42.485  29.996  37.115  1.00  0.00    -0.200 F 
ATOM     90  F   UNL A   1      41.477  27.490  36.735  1.00  0.00    -0.200 F 
ENDBRANCH  57  80
ENDBRANCH  31  32
ENDBRANCH  23  26
ENDBRANCH  21  22
ENDBRANCH   1  21
TORSDOF 12
ENDMDL
MODEL 3
REMARK VINA RESULT:     -12.7      4.650      9.688
REMARK SMILES Cc1ccc(C)c(NC(=O)/C=C/C(=O)NCCCNC(=O)c2ccc(-c3c4nc(c(-c5c(F)c(F)c(F)c(F)c5F)c5ccc([nH]5)c(-c5c(F)c(F)c(F)c(F)c5F)c5nc(c(-c6c(F)c(F)c(F)c(F)c6F)c6ccc3[nH]6)C=C5)C=C4)cc2)c1
REMARK SMILES IDX 17 1 16 2 15 3 13 4 14 5 12 7 11 8 9 9 8 10 10 12 7 13 1 14
REMARK SMILES IDX 2 15 3 16 85 17 4 18 5 19 6 20 18 21 19 22 20 23 21 25 22 26
REMARK SMILES IDX 23 27 84 28 24 29 83 30 25 31 26 32 27 33 77 34 28 35 82 36
REMARK SMILES IDX 76 37 78 38 29 39 81 40 75 41 74 42 30 44 62 45 42 46 61 47
REMARK SMILES IDX 43 48 46 49 60 50 79 51 44 52 45 53 59 55 80 56 47 57 31 58
REMARK SMILES IDX 32 59 40 60 33 61 34 62 38 63 41 64 35 65 36 66 39 67 37 68
REMARK SMILES IDX 63 69 64 70 72 71 65 72 66 73 70 74 73 75 67 76 68 77 71 78
REMARK SMILES IDX 69 79 48 80 49 81 57 82 50 83 51 84 55 85 58 86 52 87 53 88
REMARK SMILES IDX 56 89 54 90
REMARK H PARENT 15 6 8 11 19 24 78 43 46 54
REMARK Flexibility Score: inf
ROOT
ATOM      1  C   UNL A   1      34.093  31.755  27.864  1.00  0.00     0.042 C 
ENDROOT
BRANCH   1   2
ATOM      2  C   UNL A   1      34.739  30.412  27.498  1.00  0.00     0.118 C 
BRANCH   2   3
ATOM      3  N   UNL A   1      33.921  29.291  27.905  1.00  0.00    -0.352 N 
ATOM      4  C   UNL A   1      33.029  28.629  27.122  1.00  0.00     0.244 C 
ATOM      5  O   UNL A   1      32.046  28.100  27.626  1.00  0.00    -0.270 OA
ATOM      6  H   UNL A   1      34.019  28.978  28.835  1.00  0.00     0.163 HD
BRANCH   4   7
ATOM      7  C   UNL A   1      33.352  28.546  25.681  1.00  0.00     0.077 C 
ATOM      8  C   UNL A   1      32.685  29.289  24.788  1.00  0.00     0.077 C 
BRANCH   8   9
ATOM      9  C   UNL A   1      32.884  28.953  23.376  1.00  0.00     0.248 C 
ATOM     10  N   UNL A   1      31.854  28.970  22.486  1.00  0.00    -0.322 N 
ATOM     11  H   UNL A   1      32.181  28.881  21.562  1.00  0.00     0.170 HD
ATOM     12  O   UNL A   1      34.023  28.694  22.980  1.00  0.00    -0.270 OA
BRANCH  10  13
ATOM     13  C   UNL A   1      30.440  29.079  22.522  1.00  0.00     0.044 A 
ATOM     14  C   UNL A   1      28.028  31.561  20.845  1.00  0.00     0.044 C 
ATOM     15  C   UNL A   1      28.563  30.471  21.723  1.00  0.00    -0.049 A 
ATOM     16  C   UNL A   1      27.668  29.687  22.438  1.00  0.00     0.004 A 
ATOM     17  C   UNL A   1      29.935  30.182  21.797  1.00  0.00     0.029 A 
ATOM     18  C   UNL A   1      28.134  28.579  23.125  1.00  0.00     0.006 A 
ATOM     19  C   UNL A   1      29.498  28.220  23.111  1.00  0.00    -0.027 A 
ATOM     20  C   UNL A   1      29.762  26.869  23.682  1.00  0.00     0.046 C 
ENDBRANCH  10  13
ENDBRANCH   8   9
ENDBRANCH   4   7
ENDBRANCH   2   3
ENDBRANCH   1   2
BRANCH   1  21
ATOM     21  C   UNL A   1      35.055  32.932  28.032  1.00  0.00     0.118 C 
BRANCH  21  22
ATOM     22  N   UNL A   1      35.137  33.392  29.418  1.00  0.00    -0.352 N 
ATOM     23  C   UNL A   1      35.835  33.014  30.552  1.00  0.00     0.251 C 
ATOM     24  H   UNL A   1      34.550  34.164  29.586  1.00  0.00     0.163 HD
ATOM     25  O   UNL A   1      35.536  33.531  31.609  1.00  0.00    -0.269 OA
BRANCH  23  26
ATOM     26  C   UNL A   1      36.917  31.997  30.519  1.00  0.00     0.039 A 
ATOM     27  C   UNL A   1      36.640  30.643  30.749  1.00  0.00     0.014 A 
ATOM     28  C   UNL A   1      38.228  32.367  30.275  1.00  0.00     0.014 A 
ATOM     29  C   UNL A   1      37.699  29.732  30.759  1.00  0.00     0.010 A 
ATOM     30  C   UNL A   1      39.194  31.456  29.968  1.00  0.00     0.010 A 
ATOM     31  C   UNL A   1      38.977  30.165  30.372  1.00  0.00    -0.014 A 
BRANCH  31  32
ATOM     32  C   UNL A   1      40.106  29.271  30.252  1.00  0.00     0.031 A 
ATOM     33  C   UNL A   1      40.690  28.957  31.560  1.00  0.00     0.074 A 
ATOM     34  C   UNL A   1      40.470  28.585  29.151  1.00  0.00     0.049 A 
ATOM     35  N   UNL A   1      41.696  29.554  32.096  1.00  0.00    -0.248 NA
ATOM     36  C   UNL A   1      39.960  28.052  32.457  1.00  0.00     0.031 C 
ATOM     37  C   UNL A   1      39.779  28.435  27.869  1.00  0.00     0.029 A 
ATOM     38  N   UNL A   1      41.572  27.801  29.000  1.00  0.00    -0.354 N 
ATOM     39  C   UNL A   1      41.871  28.935  33.320  1.00  0.00     0.074 A 
ATOM     40  C   UNL A   1      40.652  28.217  33.587  1.00  0.00     0.031 C 
ATOM     41  C   UNL A   1      40.403  27.481  27.133  1.00  0.00     0.029 A 
ATOM     42  C   UNL A   1      41.609  27.061  27.828  1.00  0.00     0.049 A 
ATOM     43  H   UNL A   1      42.290  27.763  29.673  1.00  0.00     0.167 HD
ATOM     44  C   UNL A   1      43.117  28.830  33.850  1.00  0.00     0.037 A 
ATOM     45  C   UNL A   1      42.562  26.156  27.491  1.00  0.00     0.037 A 
ATOM     46  C   UNL A   1      44.058  29.664  33.129  1.00  0.00     0.049 A 
ATOM     47  C   UNL A   1      43.768  26.468  28.304  1.00  0.00     0.074 A 
ATOM     48  C   UNL A   1      44.145  31.014  32.846  1.00  0.00     0.029 A 
ATOM     49  N   UNL A   1      44.874  29.037  32.217  1.00  0.00    -0.354 N 
ATOM     50  N   UNL A   1      44.502  27.534  28.146  1.00  0.00    -0.248 NA
ATOM     51  C   UNL A   1      43.932  25.787  29.580  1.00  0.00     0.031 C 
ATOM     52  C   UNL A   1      44.649  31.087  31.512  1.00  0.00     0.029 A 
ATOM     53  C   UNL A   1      44.898  29.787  31.069  1.00  0.00     0.049 A 
ATOM     54  H   UNL A   1      45.359  28.193  32.364  1.00  0.00     0.167 HD
ATOM     55  C   UNL A   1      44.856  27.908  29.433  1.00  0.00     0.074 A 
ATOM     56  C   UNL A   1      44.593  26.732  30.254  1.00  0.00     0.031 C 
ATOM     57  C   UNL A   1      45.050  29.224  29.746  1.00  0.00     0.037 A 
BRANCH  44  58
ATOM     58  C   UNL A   1      43.567  27.690  34.720  1.00  0.00     0.064 A 
ATOM     59  C   UNL A   1      43.538  26.389  34.187  1.00  0.00     0.173 A 
ATOM     60  C   UNL A   1      43.748  27.775  36.118  1.00  0.00     0.173 A 
ATOM     61  F   UNL A   1      43.347  26.195  32.874  1.00  0.00    -0.203 F 
ATOM     62  C   UNL A   1      43.608  25.258  35.003  1.00  0.00     0.198 A 
ATOM     63  C   UNL A   1      43.880  26.647  36.921  1.00  0.00     0.198 A 
ATOM     64  F   UNL A   1      43.683  28.934  36.784  1.00  0.00    -0.203 F 
ATOM     65  F   UNL A   1      43.441  24.043  34.468  1.00  0.00    -0.200 F 
ATOM     66  C   UNL A   1      43.776  25.389  36.370  1.00  0.00     0.200 A 
ATOM     67  F   UNL A   1      44.020  26.795  38.247  1.00  0.00    -0.200 F 
ATOM     68  F   UNL A   1      43.783  24.309  37.161  1.00  0.00    -0.200 F 
ENDBRANCH  44  58
BRANCH  45  69
ATOM     69  C   UNL A   1      42.456  24.902  26.709  1.00  0.00     0.064 A 
ATOM     70  C   UNL A   1      43.234  24.704  25.554  1.00  0.00     0.173 A 
ATOM     71  C   UNL A   1      41.831  23.761  27.245  1.00  0.00     0.173 A 
ATOM     72  F   UNL A   1      43.890  25.732  24.996  1.00  0.00    -0.203 F 
ATOM     73  C   UNL A   1      43.418  23.434  25.001  1.00  0.00     0.198 A 
ATOM     74  C   UNL A   1      42.010  22.493  26.686  1.00  0.00     0.198 A 
ATOM     75  F   UNL A   1      41.122  23.834  28.379  1.00  0.00    -0.203 F 
ATOM     76  F   UNL A   1      44.232  23.274  23.947  1.00  0.00    -0.200 F 
ATOM     77  C   UNL A   1      42.819  22.327  25.577  1.00  0.00     0.200 A 
ATOM     78  F   UNL A   1      41.453  21.424  27.273  1.00  0.00    -0.200 F 
ATOM     79  F   UNL A   1      43.055  21.099  25.092  1.00  0.00    -0.200 F 
ENDBRANCH  45  69
BRANCH  57  80
ATOM     80  C   UNL A   1      45.228  30.186  28.601  1.00  0.00     0.064 A 
ATOM     81  C   UNL A   1      44.175  30.757  27.863  1.00  0.00     0.173 A 
ATOM     82  C   UNL A   1      46.528  30.614  28.299  1.00  0.00     0.173 A 
ATOM     83  F   UNL A   1      42.898  30.481  28.152  1.00  0.00    -0.203 F 
ATOM     84  C   UNL A   1      44.424  31.665  26.834  1.00  0.00     0.198 A 
ATOM     85  C   UNL A   1      46.770  31.551  27.300  1.00  0.00     0.198 A 
ATOM     86  F   UNL A   1      47.572  30.143  29.002  1.00  0.00    -0.203 F 
ATOM     87  F   UNL A   1      43.404  32.171  26.124  1.00  0.00    -0.200 F 
ATOM     88  C   UNL A   1      45.720  32.065  26.557  1.00  0.00     0.200 A 
ATOM     89  F   UNL A   1      48.022  31.971  27.068  1.00  0.00    -0.200 F 
ATOM     90  F   UNL A   1      45.957  32.961  25.588  1.00  0.00    -0.200 F 
ENDBRANCH  57  80
ENDBRANCH  31  32
ENDBRANCH  23  26
ENDBRANCH  21  22
ENDBRANCH   1  21
TORSDOF 12
ENDMDL
