MODEL 1
REMARK VINA RESULT:     -11.9      0.000      0.000
REMARK SMILES [NH3+][C@H](C(=O)NCCCNC(=O)c1ccc(-c2c3nc(c(-c4c(F)c(F)c(F)c(F)c4F)c4ccc([nH]4)c(-c4c(F)c(F)c(F)c(F)c4F)c4nc(c(-c5c(F)c(F)c(F)c(F)c5F)c5ccc2[nH]5)C=C4)C=C3)cc1)c1cc2c(cc1Br)OCO2
REMARK SMILES IDX 7 1 6 2 5 3 3 4 4 5 2 7 1 8 75 12 76 13 80 14 77 15 79 16
REMARK SMILES IDX 81 17 78 18 84 19 82 20 83 21 8 22 9 23 10 24 11 26 12 27
REMARK SMILES IDX 13 28 74 29 14 30 73 31 15 32 16 33 17 34 67 35 18 36 72 37
REMARK SMILES IDX 66 38 68 39 19 40 71 41 65 42 64 43 20 45 52 46 32 47 51 48
REMARK SMILES IDX 33 49 36 50 50 51 69 52 34 53 35 54 49 56 70 57 37 58 21 59
REMARK SMILES IDX 22 60 30 61 23 62 24 63 28 64 31 65 25 66 26 67 29 68 27 69
REMARK SMILES IDX 53 70 54 71 62 72 55 73 56 74 60 75 63 76 57 77 58 78 61 79
REMARK SMILES IDX 59 80 38 81 39 82 47 83 40 84 41 85 45 86 48 87 42 88 43 89
REMARK SMILES IDX 46 90 44 91
REMARK H PARENT 5 6 1 9 1 10 1 11 9 25 68 44 36 55
REMARK Flexibility Score: inf
ROOT
ATOM      1  C   UNL A   1      31.931  28.879  26.634  1.00  0.00     0.042 C 
ENDROOT
BRANCH   1   2
ATOM      2  C   UNL A   1      32.448  27.448  26.773  1.00  0.00     0.118 C 
BRANCH   2   3
ATOM      3  N   UNL A   1      31.356  26.500  26.907  1.00  0.00    -0.351 N 
ATOM      4  C   UNL A   1      30.527  25.901  26.009  1.00  0.00     0.283 C 
ATOM      5  O   UNL A   1      29.611  25.226  26.507  1.00  0.00    -0.268 OA
ATOM      6  H   UNL A   1      31.178  26.236  27.838  1.00  0.00     0.163 HD
BRANCH   4   7
ATOM      7  C   UNL A   1      30.723  25.900  24.460  1.00  0.00     0.303 C 
BRANCH   7   8
ATOM      8  N   UNL A   1      29.904  24.819  23.862  1.00  0.00    -0.343 N 
ATOM      9  H   UNL A   1      29.182  24.533  24.525  1.00  0.00     0.345 HD
ATOM     10  H   UNL A   1      30.500  24.021  23.645  1.00  0.00     0.345 HD
ATOM     11  H   UNL A   1      29.464  25.158  23.007  1.00  0.00     0.345 HD
ENDBRANCH   7   8
BRANCH   7  12
ATOM     12  C   UNL A   1      30.541  27.211  23.722  1.00  0.00     0.037 A 
ATOM     13  C   UNL A   1      29.228  27.740  23.688  1.00  0.00     0.062 A 
ATOM     14  C   UNL A   1      31.559  27.884  23.000  1.00  0.00     0.031 A 
ATOM     15  C   UNL A   1      28.958  28.788  22.836  1.00  0.00     0.166 A 
ATOM     16  C   UNL A   1      31.256  28.980  22.175  1.00  0.00     0.066 A 
ATOM     17  Br  UNL A   1      33.378  27.324  23.024  1.00  0.00    -0.050 Br
ATOM     18  C   UNL A   1      29.941  29.378  22.086  1.00  0.00     0.166 A 
ATOM     19  O   UNL A   1      27.724  29.295  22.576  1.00  0.00    -0.454 OA
ATOM     20  O   UNL A   1      29.448  30.335  21.254  1.00  0.00    -0.454 OA
ATOM     21  C   UNL A   1      28.030  30.181  21.480  1.00  0.00     0.468 C 
ENDBRANCH   7  12
ENDBRANCH   4   7
ENDBRANCH   2   3
ENDBRANCH   1   2
BRANCH   1  22
ATOM     22  C   UNL A   1      32.887  29.799  25.883  1.00  0.00     0.118 C 
BRANCH  22  23
ATOM     23  N   UNL A   1      32.714  31.191  26.269  1.00  0.00    -0.352 N 
ATOM     24  C   UNL A   1      33.328  31.919  27.253  1.00  0.00     0.251 C 
ATOM     25  H   UNL A   1      32.049  31.688  25.739  1.00  0.00     0.163 HD
ATOM     26  O   UNL A   1      32.864  33.019  27.563  1.00  0.00    -0.269 OA
BRANCH  24  27
ATOM     27  C   UNL A   1      34.528  31.413  27.959  1.00  0.00     0.039 A 
ATOM     28  C   UNL A   1      35.647  32.248  28.058  1.00  0.00     0.014 A 
ATOM     29  C   UNL A   1      34.593  30.110  28.462  1.00  0.00     0.014 A 
ATOM     30  C   UNL A   1      36.805  31.797  28.697  1.00  0.00     0.010 A 
ATOM     31  C   UNL A   1      35.724  29.685  29.161  1.00  0.00     0.010 A 
ATOM     32  C   UNL A   1      36.845  30.519  29.278  1.00  0.00    -0.014 A 
BRANCH  32  33
ATOM     33  C   UNL A   1      38.055  30.044  29.999  1.00  0.00     0.031 A 
ATOM     34  C   UNL A   1      38.361  30.543  31.385  1.00  0.00     0.074 A 
ATOM     35  C   UNL A   1      38.905  29.197  29.388  1.00  0.00     0.049 A 
ATOM     36  N   UNL A   1      39.393  30.288  32.149  1.00  0.00    -0.248 NA
ATOM     37  C   UNL A   1      37.388  31.470  31.985  1.00  0.00     0.031 C 
ATOM     38  C   UNL A   1      38.747  28.675  28.029  1.00  0.00     0.029 A 
ATOM     39  N   UNL A   1      40.079  28.634  29.825  1.00  0.00    -0.354 N 
ATOM     40  C   UNL A   1      39.202  31.031  33.307  1.00  0.00     0.074 A 
ATOM     41  C   UNL A   1      37.979  31.783  33.129  1.00  0.00     0.031 C 
ATOM     42  C   UNL A   1      39.772  27.853  27.751  1.00  0.00     0.029 A 
ATOM     43  C   UNL A   1      40.677  27.817  28.896  1.00  0.00     0.049 A 
ATOM     44  H   UNL A   1      40.455  28.799  30.720  1.00  0.00     0.167 HD
ATOM     45  C   UNL A   1      39.964  31.064  34.427  1.00  0.00     0.037 A 
ATOM     46  C   UNL A   1      41.830  27.124  28.957  1.00  0.00     0.037 A 
ATOM     47  C   UNL A   1      41.166  30.293  34.617  1.00  0.00     0.049 A 
ATOM     48  C   UNL A   1      42.654  27.175  30.216  1.00  0.00     0.074 A 
ATOM     49  C   UNL A   1      41.977  30.219  35.736  1.00  0.00     0.029 A 
ATOM     50  N   UNL A   1      41.727  29.459  33.661  1.00  0.00    -0.354 N 
ATOM     51  N   UNL A   1      42.429  27.834  31.326  1.00  0.00    -0.248 NA
ATOM     52  C   UNL A   1      43.888  26.378  30.231  1.00  0.00     0.031 C 
ATOM     53  C   UNL A   1      43.049  29.369  35.444  1.00  0.00     0.029 A 
ATOM     54  C   UNL A   1      42.883  28.879  34.160  1.00  0.00     0.049 A 
ATOM     55  H   UNL A   1      41.359  29.303  32.760  1.00  0.00     0.167 HD
ATOM     56  C   UNL A   1      43.478  27.514  32.178  1.00  0.00     0.074 A 
ATOM     57  C   UNL A   1      44.329  26.587  31.464  1.00  0.00     0.031 C 
ATOM     58  C   UNL A   1      43.715  27.952  33.439  1.00  0.00     0.037 A 
BRANCH  45  59
ATOM     59  C   UNL A   1      39.517  31.957  35.547  1.00  0.00     0.064 A 
ATOM     60  C   UNL A   1      39.952  33.287  35.642  1.00  0.00     0.173 A 
ATOM     61  C   UNL A   1      38.601  31.496  36.505  1.00  0.00     0.173 A 
ATOM     62  F   UNL A   1      40.834  33.774  34.757  1.00  0.00    -0.203 F 
ATOM     63  C   UNL A   1      39.505  34.116  36.668  1.00  0.00     0.198 A 
ATOM     64  C   UNL A   1      38.135  32.336  37.514  1.00  0.00     0.198 A 
ATOM     65  F   UNL A   1      38.148  30.235  36.457  1.00  0.00    -0.203 F 
ATOM     66  F   UNL A   1      39.966  35.371  36.762  1.00  0.00    -0.200 F 
ATOM     67  C   UNL A   1      38.591  33.643  37.598  1.00  0.00     0.200 A 
ATOM     68  F   UNL A   1      37.242  31.881  38.404  1.00  0.00    -0.200 F 
ATOM     69  F   UNL A   1      38.154  34.445  38.578  1.00  0.00    -0.200 F 
ENDBRANCH  45  59
BRANCH  46  70
ATOM     70  C   UNL A   1      42.268  26.304  27.798  1.00  0.00     0.064 A 
ATOM     71  C   UNL A   1      41.734  25.027  27.577  1.00  0.00     0.173 A 
ATOM     72  C   UNL A   1      43.235  26.772  26.898  1.00  0.00     0.173 A 
ATOM     73  F   UNL A   1      40.821  24.528  28.424  1.00  0.00    -0.203 F 
ATOM     74  C   UNL A   1      42.169  24.240  26.514  1.00  0.00     0.198 A 
ATOM     75  C   UNL A   1      43.649  25.995  25.818  1.00  0.00     0.198 A 
ATOM     76  F   UNL A   1      43.773  27.990  27.062  1.00  0.00    -0.203 F 
ATOM     77  F   UNL A   1      41.678  23.003  26.355  1.00  0.00    -0.200 F 
ATOM     78  C   UNL A   1      43.123  24.726  25.632  1.00  0.00     0.200 A 
ATOM     79  F   UNL A   1      44.561  26.474  24.961  1.00  0.00    -0.200 F 
ATOM     80  F   UNL A   1      43.541  23.968  24.609  1.00  0.00    -0.200 F 
ENDBRANCH  46  70
BRANCH  58  81
ATOM     81  C   UNL A   1      44.929  27.410  34.135  1.00  0.00     0.064 A 
ATOM     82  C   UNL A   1      46.166  28.068  34.073  1.00  0.00     0.173 A 
ATOM     83  C   UNL A   1      44.845  26.235  34.895  1.00  0.00     0.173 A 
ATOM     84  F   UNL A   1      46.299  29.187  33.345  1.00  0.00    -0.203 F 
ATOM     85  C   UNL A   1      47.282  27.554  34.727  1.00  0.00     0.198 A 
ATOM     86  C   UNL A   1      45.956  25.740  35.572  1.00  0.00     0.198 A 
ATOM     87  F   UNL A   1      43.683  25.572  34.991  1.00  0.00    -0.203 F 
ATOM     88  F   UNL A   1      48.465  28.173  34.615  1.00  0.00    -0.200 F 
ATOM     89  C   UNL A   1      47.175  26.395  35.480  1.00  0.00     0.200 A 
ATOM     90  F   UNL A   1      45.849  24.625  36.309  1.00  0.00    -0.200 F 
ATOM     91  F   UNL A   1      48.250  25.903  36.113  1.00  0.00    -0.200 F 
ENDBRANCH  58  81
ENDBRANCH  32  33
ENDBRANCH  24  27
ENDBRANCH  22  23
ENDBRANCH   1  22
TORSDOF 12
ENDMDL
MODEL 2
REMARK VINA RESULT:     -11.6      1.856      2.701
REMARK SMILES [NH3+][C@H](C(=O)NCCCNC(=O)c1ccc(-c2c3nc(c(-c4c(F)c(F)c(F)c(F)c4F)c4ccc([nH]4)c(-c4c(F)c(F)c(F)c(F)c4F)c4nc(c(-c5c(F)c(F)c(F)c(F)c5F)c5ccc2[nH]5)C=C4)C=C3)cc1)c1cc2c(cc1Br)OCO2
REMARK SMILES IDX 7 1 6 2 5 3 3 4 4 5 2 7 1 8 75 12 76 13 80 14 77 15 79 16
REMARK SMILES IDX 81 17 78 18 84 19 82 20 83 21 8 22 9 23 10 24 11 26 12 27
REMARK SMILES IDX 13 28 74 29 14 30 73 31 15 32 16 33 17 34 67 35 18 36 72 37
REMARK SMILES IDX 66 38 68 39 19 40 71 41 65 42 64 43 20 45 52 46 32 47 51 48
REMARK SMILES IDX 33 49 36 50 50 51 69 52 34 53 35 54 49 56 70 57 37 58 21 59
REMARK SMILES IDX 22 60 30 61 23 62 24 63 28 64 31 65 25 66 26 67 29 68 27 69
REMARK SMILES IDX 53 70 54 71 62 72 55 73 56 74 60 75 63 76 57 77 58 78 61 79
REMARK SMILES IDX 59 80 38 81 39 82 47 83 40 84 41 85 45 86 48 87 42 88 43 89
REMARK SMILES IDX 46 90 44 91
REMARK H PARENT 5 6 1 9 1 10 1 11 9 25 68 44 36 55
REMARK Flexibility Score: inf
ROOT
ATOM      1  C   UNL A   1      33.279  27.788  26.794  1.00  0.00     0.042 C 
ENDROOT
BRANCH   1   2
ATOM      2  C   UNL A   1      31.772  28.023  26.710  1.00  0.00     0.118 C 
BRANCH   2   3
ATOM      3  N   UNL A   1      31.032  26.783  26.870  1.00  0.00    -0.351 N 
ATOM      4  C   UNL A   1      30.465  25.916  25.987  1.00  0.00     0.283 C 
ATOM      5  O   UNL A   1      29.794  25.006  26.501  1.00  0.00    -0.268 OA
ATOM      6  H   UNL A   1      30.917  26.514  27.810  1.00  0.00     0.163 HD
BRANCH   4   7
ATOM      7  C   UNL A   1      30.701  25.916  24.444  1.00  0.00     0.303 C 
BRANCH   7   8
ATOM      8  N   UNL A   1      29.903  24.831  23.825  1.00  0.00    -0.343 N 
ATOM      9  H   UNL A   1      29.107  25.235  23.329  1.00  0.00     0.345 HD
ATOM     10  H   UNL A   1      29.564  24.201  24.552  1.00  0.00     0.345 HD
ATOM     11  H   UNL A   1      30.484  24.312  23.169  1.00  0.00     0.345 HD
ENDBRANCH   7   8
BRANCH   7  12
ATOM     12  C   UNL A   1      30.533  27.226  23.701  1.00  0.00     0.037 A 
ATOM     13  C   UNL A   1      29.239  27.800  23.718  1.00  0.00     0.062 A 
ATOM     14  C   UNL A   1      31.541  27.857  22.929  1.00  0.00     0.031 A 
ATOM     15  C   UNL A   1      28.968  28.849  22.868  1.00  0.00     0.166 A 
ATOM     16  C   UNL A   1      31.241  28.955  22.107  1.00  0.00     0.066 A 
ATOM     17  Br  UNL A   1      33.339  27.233  22.880  1.00  0.00    -0.050 Br
ATOM     18  C   UNL A   1      29.938  29.398  22.070  1.00  0.00     0.166 A 
ATOM     19  O   UNL A   1      27.742  29.397  22.656  1.00  0.00    -0.454 OA
ATOM     20  O   UNL A   1      29.442  30.364  21.251  1.00  0.00    -0.454 OA
ATOM     21  C   UNL A   1      28.031  30.262  21.539  1.00  0.00     0.468 C 
ENDBRANCH   7  12
ENDBRANCH   4   7
ENDBRANCH   2   3
ENDBRANCH   1   2
BRANCH   1  22
ATOM     22  C   UNL A   1      34.100  28.854  26.076  1.00  0.00     0.118 C 
BRANCH  22  23
ATOM     23  N   UNL A   1      33.867  30.180  26.630  1.00  0.00    -0.352 N 
ATOM     24  C   UNL A   1      34.522  30.847  27.632  1.00  0.00     0.251 C 
ATOM     25  H   UNL A   1      33.121  30.675  26.221  1.00  0.00     0.163 HD
ATOM     26  O   UNL A   1      34.014  31.867  28.103  1.00  0.00    -0.269 OA
BRANCH  24  27
ATOM     27  C   UNL A   1      35.817  30.367  28.167  1.00  0.00     0.039 A 
ATOM     28  C   UNL A   1      35.826  29.705  29.400  1.00  0.00     0.014 A 
ATOM     29  C   UNL A   1      37.024  30.618  27.509  1.00  0.00     0.014 A 
ATOM     30  C   UNL A   1      37.032  29.258  29.947  1.00  0.00     0.010 A 
ATOM     31  C   UNL A   1      38.220  30.110  28.021  1.00  0.00     0.010 A 
ATOM     32  C   UNL A   1      38.238  29.434  29.250  1.00  0.00    -0.014 A 
BRANCH  32  33
ATOM     33  C   UNL A   1      39.521  28.923  29.799  1.00  0.00     0.031 A 
ATOM     34  C   UNL A   1      40.207  29.642  30.928  1.00  0.00     0.074 A 
ATOM     35  C   UNL A   1      40.095  27.834  29.250  1.00  0.00     0.049 A 
ATOM     36  N   UNL A   1      41.356  29.382  31.501  1.00  0.00    -0.248 NA
ATOM     37  C   UNL A   1      39.522  30.825  31.473  1.00  0.00     0.031 C 
ATOM     38  C   UNL A   1      39.555  27.073  28.122  1.00  0.00     0.029 A 
ATOM     39  N   UNL A   1      41.264  27.185  29.558  1.00  0.00    -0.354 N 
ATOM     40  C   UNL A   1      41.536  30.372  32.458  1.00  0.00     0.074 A 
ATOM     41  C   UNL A   1      40.404  31.267  32.359  1.00  0.00     0.031 C 
ATOM     42  C   UNL A   1      40.380  26.050  27.846  1.00  0.00     0.029 A 
ATOM     43  C   UNL A   1      41.523  26.103  28.753  1.00  0.00     0.049 A 
ATOM     44  H   UNL A   1      41.861  27.468  30.289  1.00  0.00     0.167 HD
ATOM     45  C   UNL A   1      42.544  30.510  33.354  1.00  0.00     0.037 A 
ATOM     46  C   UNL A   1      42.567  25.253  28.741  1.00  0.00     0.037 A 
ATOM     47  C   UNL A   1      43.656  29.604  33.473  1.00  0.00     0.049 A 
ATOM     48  C   UNL A   1      43.669  25.426  29.751  1.00  0.00     0.074 A 
ATOM     49  C   UNL A   1      44.698  29.630  34.384  1.00  0.00     0.029 A 
ATOM     50  N   UNL A   1      43.870  28.506  32.653  1.00  0.00    -0.354 N 
ATOM     51  N   UNL A   1      43.796  26.331  30.690  1.00  0.00    -0.248 NA
ATOM     52  C   UNL A   1      44.769  24.453  29.704  1.00  0.00     0.031 C 
ATOM     53  C   UNL A   1      45.562  28.569  34.093  1.00  0.00     0.029 A 
ATOM     54  C   UNL A   1      45.036  27.856  33.028  1.00  0.00     0.049 A 
ATOM     55  H   UNL A   1      43.281  28.228  31.914  1.00  0.00     0.167 HD
ATOM     56  C   UNL A   1      44.973  26.025  31.359  1.00  0.00     0.074 A 
ATOM     57  C   UNL A   1      45.513  24.838  30.731  1.00  0.00     0.031 C 
ATOM     58  C   UNL A   1      45.556  26.671  32.398  1.00  0.00     0.037 A 
BRANCH  45  59
ATOM     59  C   UNL A   1      42.486  31.681  34.291  1.00  0.00     0.064 A 
ATOM     60  C   UNL A   1      43.057  32.918  33.955  1.00  0.00     0.173 A 
ATOM     61  C   UNL A   1      41.807  31.583  35.515  1.00  0.00     0.173 A 
ATOM     62  F   UNL A   1      43.725  33.061  32.801  1.00  0.00    -0.203 F 
ATOM     63  C   UNL A   1      42.969  34.006  34.819  1.00  0.00     0.198 A 
ATOM     64  C   UNL A   1      41.698  32.681  36.365  1.00  0.00     0.198 A 
ATOM     65  F   UNL A   1      41.237  30.426  35.882  1.00  0.00    -0.203 F 
ATOM     66  F   UNL A   1      43.556  35.166  34.494  1.00  0.00    -0.200 F 
ATOM     67  C   UNL A   1      42.283  33.890  36.019  1.00  0.00     0.200 A 
ATOM     68  F   UNL A   1      41.023  32.571  37.518  1.00  0.00    -0.200 F 
ATOM     69  F   UNL A   1      42.190  34.941  36.844  1.00  0.00    -0.200 F 
ENDBRANCH  45  59
BRANCH  46  70
ATOM     70  C   UNL A   1      42.615  24.146  27.751  1.00  0.00     0.064 A 
ATOM     71  C   UNL A   1      42.247  22.841  28.111  1.00  0.00     0.173 A 
ATOM     72  C   UNL A   1      43.039  24.364  26.433  1.00  0.00     0.173 A 
ATOM     73  F   UNL A   1      41.855  22.580  29.367  1.00  0.00    -0.203 F 
ATOM     74  C   UNL A   1      42.327  21.794  27.197  1.00  0.00     0.198 A 
ATOM     75  C   UNL A   1      43.090  23.320  25.511  1.00  0.00     0.198 A 
ATOM     76  F   UNL A   1      43.395  25.595  26.037  1.00  0.00    -0.203 F 
ATOM     77  F   UNL A   1      42.018  20.548  27.582  1.00  0.00    -0.200 F 
ATOM     78  C   UNL A   1      42.744  22.035  25.896  1.00  0.00     0.200 A 
ATOM     79  F   UNL A   1      43.481  23.560  24.252  1.00  0.00    -0.200 F 
ATOM     80  F   UNL A   1      42.819  21.026  25.018  1.00  0.00    -0.200 F 
ENDBRANCH  46  70
BRANCH  58  81
ATOM     81  C   UNL A   1      46.829  26.089  32.939  1.00  0.00     0.064 A 
ATOM     82  C   UNL A   1      46.820  25.081  33.914  1.00  0.00     0.173 A 
ATOM     83  C   UNL A   1      48.071  26.524  32.454  1.00  0.00     0.173 A 
ATOM     84  F   UNL A   1      45.656  24.644  34.421  1.00  0.00    -0.203 F 
ATOM     85  C   UNL A   1      48.009  24.549  34.404  1.00  0.00     0.198 A 
ATOM     86  C   UNL A   1      49.257  25.969  32.924  1.00  0.00     0.198 A 
ATOM     87  F   UNL A   1      48.133  27.481  31.515  1.00  0.00    -0.203 F 
ATOM     88  F   UNL A   1      47.978  23.622  35.371  1.00  0.00    -0.200 F 
ATOM     89  C   UNL A   1      49.226  24.989  33.905  1.00  0.00     0.200 A 
ATOM     90  F   UNL A   1      50.433  26.387  32.432  1.00  0.00    -0.200 F 
ATOM     91  F   UNL A   1      50.370  24.473  34.374  1.00  0.00    -0.200 F 
ENDBRANCH  58  81
ENDBRANCH  32  33
ENDBRANCH  24  27
ENDBRANCH  22  23
ENDBRANCH   1  22
TORSDOF 12
ENDMDL
MODEL 3
REMARK VINA RESULT:     -11.6      5.857     11.305
REMARK SMILES [NH3+][C@H](C(=O)NCCCNC(=O)c1ccc(-c2c3nc(c(-c4c(F)c(F)c(F)c(F)c4F)c4ccc([nH]4)c(-c4c(F)c(F)c(F)c(F)c4F)c4nc(c(-c5c(F)c(F)c(F)c(F)c5F)c5ccc2[nH]5)C=C4)C=C3)cc1)c1cc2c(cc1Br)OCO2
REMARK SMILES IDX 7 1 6 2 5 3 3 4 4 5 2 7 1 8 75 12 76 13 80 14 77 15 79 16
REMARK SMILES IDX 81 17 78 18 84 19 82 20 83 21 8 22 9 23 10 24 11 26 12 27
REMARK SMILES IDX 13 28 74 29 14 30 73 31 15 32 16 33 17 34 67 35 18 36 72 37
REMARK SMILES IDX 66 38 68 39 19 40 71 41 65 42 64 43 20 45 52 46 32 47 51 48
REMARK SMILES IDX 33 49 36 50 50 51 69 52 34 53 35 54 49 56 70 57 37 58 21 59
REMARK SMILES IDX 22 60 30 61 23 62 24 63 28 64 31 65 25 66 26 67 29 68 27 69
REMARK SMILES IDX 53 70 54 71 62 72 55 73 56 74 60 75 63 76 57 77 58 78 61 79
REMARK SMILES IDX 59 80 38 81 39 82 47 83 40 84 41 85 45 86 48 87 42 88 43 89
REMARK SMILES IDX 46 90 44 91
REMARK H PARENT 5 6 1 9 1 10 1 11 9 25 68 44 36 55
REMARK Flexibility Score: inf
ROOT
ATOM      1  C   UNL A   1      41.253  19.948  27.154  1.00  0.00     0.042 C 
ENDROOT
BRANCH   1   2
ATOM      2  C   UNL A   1      42.576  19.794  26.406  1.00  0.00     0.118 C 
BRANCH   2   3
ATOM      3  N   UNL A   1      42.729  20.815  25.383  1.00  0.00    -0.351 N 
ATOM      4  C   UNL A   1      43.645  21.801  25.181  1.00  0.00     0.283 C 
ATOM      5  O   UNL A   1      43.384  22.579  24.249  1.00  0.00    -0.268 OA
ATOM      6  H   UNL A   1      42.025  20.789  24.695  1.00  0.00     0.163 HD
BRANCH   4   7
ATOM      7  C   UNL A   1      45.009  21.933  25.928  1.00  0.00     0.303 C 
BRANCH   7   8
ATOM      8  N   UNL A   1      45.939  20.887  25.440  1.00  0.00    -0.343 N 
ATOM      9  H   UNL A   1      46.854  21.016  25.874  1.00  0.00     0.345 HD
ATOM     10  H   UNL A   1      46.032  20.960  24.427  1.00  0.00     0.345 HD
ATOM     11  H   UNL A   1      45.575  19.967  25.683  1.00  0.00     0.345 HD
ENDBRANCH   7   8
BRANCH   7  12
ATOM     12  C   UNL A   1      45.670  23.296  25.961  1.00  0.00     0.037 A 
ATOM     13  C   UNL A   1      46.299  23.722  24.766  1.00  0.00     0.062 A 
ATOM     14  C   UNL A   1      45.779  24.119  27.111  1.00  0.00     0.031 A 
ATOM     15  C   UNL A   1      47.117  24.830  24.806  1.00  0.00     0.166 A 
ATOM     16  C   UNL A   1      46.586  25.268  27.104  1.00  0.00     0.066 A 
ATOM     17  Br  UNL A   1      44.919  23.702  28.757  1.00  0.00    -0.050 Br
ATOM     18  C   UNL A   1      47.272  25.570  25.948  1.00  0.00     0.166 A 
ATOM     19  O   UNL A   1      47.908  25.264  23.789  1.00  0.00    -0.454 OA
ATOM     20  O   UNL A   1      48.183  26.567  25.795  1.00  0.00    -0.454 OA
ATOM     21  C   UNL A   1      48.673  26.281  24.466  1.00  0.00     0.468 C 
ENDBRANCH   7  12
ENDBRANCH   4   7
ENDBRANCH   2   3
ENDBRANCH   1   2
BRANCH   1  22
ATOM     22  C   UNL A   1      40.778  21.394  27.253  1.00  0.00     0.118 C 
BRANCH  22  23
ATOM     23  N   UNL A   1      39.616  21.640  26.412  1.00  0.00    -0.352 N 
ATOM     24  C   UNL A   1      38.859  22.771  26.260  1.00  0.00     0.251 C 
ATOM     25  H   UNL A   1      39.328  20.872  25.868  1.00  0.00     0.163 HD
ATOM     26  O   UNL A   1      37.777  22.693  25.672  1.00  0.00    -0.269 OA
BRANCH  24  27
ATOM     27  C   UNL A   1      39.303  24.081  26.791  1.00  0.00     0.039 A 
ATOM     28  C   UNL A   1      38.939  24.431  28.096  1.00  0.00     0.014 A 
ATOM     29  C   UNL A   1      40.011  24.993  26.004  1.00  0.00     0.014 A 
ATOM     30  C   UNL A   1      39.320  25.667  28.624  1.00  0.00     0.010 A 
ATOM     31  C   UNL A   1      40.453  26.198  26.554  1.00  0.00     0.010 A 
ATOM     32  C   UNL A   1      40.104  26.552  27.866  1.00  0.00    -0.014 A 
BRANCH  32  33
ATOM     33  C   UNL A   1      40.555  27.851  28.431  1.00  0.00     0.031 A 
ATOM     34  C   UNL A   1      42.002  28.069  28.780  1.00  0.00     0.074 A 
ATOM     35  C   UNL A   1      39.652  28.821  28.675  1.00  0.00     0.049 A 
ATOM     36  N   UNL A   1      42.574  29.110  29.332  1.00  0.00    -0.248 NA
ATOM     37  C   UNL A   1      42.927  26.962  28.489  1.00  0.00     0.031 C 
ATOM     38  C   UNL A   1      38.213  28.718  28.424  1.00  0.00     0.029 A 
ATOM     39  N   UNL A   1      39.808  30.080  29.198  1.00  0.00    -0.354 N 
ATOM     40  C   UNL A   1      43.916  28.778  29.468  1.00  0.00     0.074 A 
ATOM     41  C   UNL A   1      44.067  27.423  28.984  1.00  0.00     0.031 C 
ATOM     42  C   UNL A   1      37.622  29.872  28.775  1.00  0.00     0.029 A 
ATOM     43  C   UNL A   1      38.633  30.782  29.307  1.00  0.00     0.049 A 
ATOM     44  H   UNL A   1      40.681  30.447  29.469  1.00  0.00     0.167 HD
ATOM     45  C   UNL A   1      44.934  29.543  29.932  1.00  0.00     0.037 A 
ATOM     46  C   UNL A   1      38.393  32.017  29.787  1.00  0.00     0.037 A 
ATOM     47  C   UNL A   1      44.789  30.902  30.386  1.00  0.00     0.049 A 
ATOM     48  C   UNL A   1      39.544  32.846  30.291  1.00  0.00     0.074 A 
ATOM     49  C   UNL A   1      45.770  31.775  30.825  1.00  0.00     0.029 A 
ATOM     50  N   UNL A   1      43.585  31.585  30.459  1.00  0.00    -0.354 N 
ATOM     51  N   UNL A   1      40.817  32.542  30.357  1.00  0.00    -0.248 NA
ATOM     52  C   UNL A   1      39.224  34.194  30.780  1.00  0.00     0.031 C 
ATOM     53  C   UNL A   1      45.154  32.974  31.197  1.00  0.00     0.029 A 
ATOM     54  C   UNL A   1      43.796  32.864  30.950  1.00  0.00     0.049 A 
ATOM     55  H   UNL A   1      42.708  31.216  30.200  1.00  0.00     0.167 HD
ATOM     56  C   UNL A   1      41.451  33.665  30.870  1.00  0.00     0.074 A 
ATOM     57  C   UNL A   1      40.426  34.665  31.081  1.00  0.00     0.031 C 
ATOM     58  C   UNL A   1      42.765  33.850  31.146  1.00  0.00     0.037 A 
BRANCH  45  59
ATOM     59  C   UNL A   1      46.305  28.933  29.962  1.00  0.00     0.064 A 
ATOM     60  C   UNL A   1      47.171  29.023  28.863  1.00  0.00     0.173 A 
ATOM     61  C   UNL A   1      46.779  28.299  31.121  1.00  0.00     0.173 A 
ATOM     62  F   UNL A   1      46.763  29.610  27.728  1.00  0.00    -0.203 F 
ATOM     63  C   UNL A   1      48.453  28.482  28.914  1.00  0.00     0.198 A 
ATOM     64  C   UNL A   1      48.071  27.782  31.178  1.00  0.00     0.198 A 
ATOM     65  F   UNL A   1      45.994  28.192  32.203  1.00  0.00    -0.203 F 
ATOM     66  F   UNL A   1      49.248  28.544  27.837  1.00  0.00    -0.200 F 
ATOM     67  C   UNL A   1      48.905  27.869  30.073  1.00  0.00     0.200 A 
ATOM     68  F   UNL A   1      48.511  27.203  32.304  1.00  0.00    -0.200 F 
ATOM     69  F   UNL A   1      50.143  27.358  30.125  1.00  0.00    -0.200 F 
ENDBRANCH  45  59
BRANCH  46  70
ATOM     70  C   UNL A   1      37.009  32.556  29.799  1.00  0.00     0.064 A 
ATOM     71  C   UNL A   1      36.502  33.262  28.699  1.00  0.00     0.173 A 
ATOM     72  C   UNL A   1      36.171  32.389  30.910  1.00  0.00     0.173 A 
ATOM     73  F   UNL A   1      37.275  33.466  27.622  1.00  0.00    -0.203 F 
ATOM     74  C   UNL A   1      35.219  33.802  28.721  1.00  0.00     0.198 A 
ATOM     75  C   UNL A   1      34.877  32.905  30.919  1.00  0.00     0.198 A 
ATOM     76  F   UNL A   1      36.606  31.716  31.986  1.00  0.00    -0.203 F 
ATOM     77  F   UNL A   1      34.778  34.516  27.676  1.00  0.00    -0.200 F 
ATOM     78  C   UNL A   1      34.405  33.619  29.829  1.00  0.00     0.200 A 
ATOM     79  F   UNL A   1      34.089  32.715  31.986  1.00  0.00    -0.200 F 
ATOM     80  F   UNL A   1      33.170  34.139  29.849  1.00  0.00    -0.200 F 
ENDBRANCH  46  70
BRANCH  58  81
ATOM     81  C   UNL A   1      43.171  35.193  31.678  1.00  0.00     0.064 A 
ATOM     82  C   UNL A   1      43.627  36.212  30.828  1.00  0.00     0.173 A 
ATOM     83  C   UNL A   1      43.074  35.473  33.048  1.00  0.00     0.173 A 
ATOM     84  F   UNL A   1      43.752  35.986  29.511  1.00  0.00    -0.203 F 
ATOM     85  C   UNL A   1      43.996  37.454  31.336  1.00  0.00     0.198 A 
ATOM     86  C   UNL A   1      43.416  36.726  33.549  1.00  0.00     0.198 A 
ATOM     87  F   UNL A   1      42.636  34.535  33.901  1.00  0.00    -0.203 F 
ATOM     88  F   UNL A   1      44.475  38.397  30.513  1.00  0.00    -0.200 F 
ATOM     89  C   UNL A   1      43.885  37.712  32.694  1.00  0.00     0.200 A 
ATOM     90  F   UNL A   1      43.297  36.978  34.861  1.00  0.00    -0.200 F 
ATOM     91  F   UNL A   1      44.238  38.910  33.181  1.00  0.00    -0.200 F 
ENDBRANCH  58  81
ENDBRANCH  32  33
ENDBRANCH  24  27
ENDBRANCH  22  23
ENDBRANCH   1  22
TORSDOF 12
ENDMDL
