MODEL 1
REMARK VINA RESULT:     -13.9      0.000      0.000
REMARK SMILES O=C(NCCCNC(=O)c1cc(S(=O)(=O)NNC(=O)[C@H]2C=C(c3ccccc3)N=N2)ccc1F)c1ccc(-c2c3nc(c(-c4c(F)c(F)c(F)c(F)c4F)c4ccc([nH]4)c(-c4c(F)c(F)c(F)c(F)c4F)c4nc(c(-c5c(F)c(F)c(F)c(F)c5F)c5ccc2[nH]5)C=C4)C=C3)cc1
REMARK SMILES IDX 7 1 8 2 9 3 6 5 5 6 4 7 3 8 1 9 2 10 35 12 36 13 97 14 37 15
REMARK SMILES IDX 96 16 38 17 39 18 40 19 90 20 41 21 95 22 89 23 91 24 42 25
REMARK SMILES IDX 94 26 88 27 87 28 43 30 75 31 55 32 74 33 56 34 59 35 73 36
REMARK SMILES IDX 92 37 57 38 58 39 72 41 93 42 60 43 44 44 45 45 53 46 46 47
REMARK SMILES IDX 47 48 51 49 54 50 48 51 49 52 52 53 50 54 76 55 77 56 85 57
REMARK SMILES IDX 78 58 79 59 83 60 86 61 80 62 81 63 84 64 82 65 61 66 62 67
REMARK SMILES IDX 70 68 63 69 64 70 68 71 71 72 65 73 66 74 69 75 67 76 10 77
REMARK SMILES IDX 11 78 33 79 12 80 32 81 34 82 31 83 13 84 14 85 15 86 16 87
REMARK SMILES IDX 17 89 18 90 19 92 20 93 21 94 30 95 22 96 29 97 23 98 24 99
REMARK SMILES IDX 28 100 25 101 27 102 26 103
REMARK H PARENT 7 4 3 11 91 29 59 40 16 88 17 91
REMARK Flexibility Score: inf
ROOT
ATOM      1  N   UNL A   1      40.259  31.993  35.049  1.00  0.00    -0.352 N 
ATOM      2  C   UNL A   1      38.999  31.537  35.337  1.00  0.00     0.254 C 
ATOM      3  O   UNL A   1      38.722  31.207  36.487  1.00  0.00    -0.269 OA
ATOM      4  H   UNL A   1      40.889  31.973  35.806  1.00  0.00     0.163 HD
ENDROOT
BRANCH   1   5
ATOM      5  C   UNL A   1      40.815  32.500  33.807  1.00  0.00     0.118 C 
BRANCH   5   6
ATOM      6  C   UNL A   1      40.574  33.994  33.603  1.00  0.00     0.042 C 
BRANCH   6   7
ATOM      7  C   UNL A   1      39.267  34.350  32.898  1.00  0.00     0.118 C 
BRANCH   7   8
ATOM      8  N   UNL A   1      39.418  34.714  31.504  1.00  0.00    -0.352 N 
ATOM      9  O   UNL A   1      39.661  34.726  29.316  1.00  0.00    -0.269 OA
ATOM     10  C   UNL A   1      39.726  34.052  30.348  1.00  0.00     0.251 C 
ATOM     11  H   UNL A   1      39.261  35.673  31.351  1.00  0.00     0.163 HD
BRANCH  10  12
ATOM     12  C   UNL A   1      40.154  32.628  30.239  1.00  0.00     0.039 A 
ATOM     13  C   UNL A   1      39.317  31.512  30.267  1.00  0.00     0.014 A 
ATOM     14  C   UNL A   1      41.540  32.411  30.116  1.00  0.00     0.014 A 
ATOM     15  C   UNL A   1      39.851  30.220  30.223  1.00  0.00     0.010 A 
ATOM     16  C   UNL A   1      42.076  31.126  30.052  1.00  0.00     0.010 A 
ATOM     17  C   UNL A   1      41.232  30.021  30.131  1.00  0.00    -0.014 A 
BRANCH  17  18
ATOM     18  C   UNL A   1      41.736  28.647  30.039  1.00  0.00     0.031 A 
ATOM     19  C   UNL A   1      42.452  28.100  31.235  1.00  0.00     0.074 A 
ATOM     20  C   UNL A   1      41.448  27.804  29.027  1.00  0.00     0.049 A 
ATOM     21  N   UNL A   1      43.626  27.551  31.300  1.00  0.00    -0.248 NA
ATOM     22  C   UNL A   1      41.757  28.174  32.529  1.00  0.00     0.031 C 
ATOM     23  C   UNL A   1      40.493  27.990  27.933  1.00  0.00     0.029 A 
ATOM     24  N   UNL A   1      41.902  26.529  28.835  1.00  0.00    -0.354 N 
ATOM     25  C   UNL A   1      43.776  27.099  32.612  1.00  0.00     0.074 A 
ATOM     26  C   UNL A   1      42.619  27.558  33.339  1.00  0.00     0.031 C 
ATOM     27  C   UNL A   1      40.291  26.804  27.317  1.00  0.00     0.029 A 
ATOM     28  C   UNL A   1      41.200  25.818  27.879  1.00  0.00     0.049 A 
ATOM     29  H   UNL A   1      42.663  26.151  29.332  1.00  0.00     0.167 HD
ATOM     30  C   UNL A   1      44.784  26.269  33.004  1.00  0.00     0.037 A 
ATOM     31  C   UNL A   1      41.314  24.496  27.611  1.00  0.00     0.037 A 
ATOM     32  C   UNL A   1      45.870  26.248  32.069  1.00  0.00     0.049 A 
ATOM     33  C   UNL A   1      42.621  24.028  28.129  1.00  0.00     0.074 A 
ATOM     34  C   UNL A   1      46.782  27.179  31.612  1.00  0.00     0.029 A 
ATOM     35  N   UNL A   1      46.006  25.165  31.242  1.00  0.00    -0.354 N 
ATOM     36  N   UNL A   1      43.781  24.364  27.640  1.00  0.00    -0.248 NA
ATOM     37  C   UNL A   1      42.654  23.387  29.435  1.00  0.00     0.031 C 
ATOM     38  C   UNL A   1      47.068  26.795  30.270  1.00  0.00     0.029 A 
ATOM     39  C   UNL A   1      46.307  25.656  30.000  1.00  0.00     0.049 A 
ATOM     40  H   UNL A   1      45.906  24.217  31.493  1.00  0.00     0.167 HD
ATOM     41  C   UNL A   1      44.642  24.336  28.724  1.00  0.00     0.074 A 
ATOM     42  C   UNL A   1      43.930  23.601  29.759  1.00  0.00     0.031 C 
ATOM     43  C   UNL A   1      45.737  25.148  28.775  1.00  0.00     0.037 A 
BRANCH  30  44
ATOM     44  C   UNL A   1      44.703  25.287  34.143  1.00  0.00     0.064 A 
ATOM     45  C   UNL A   1      44.267  23.957  33.976  1.00  0.00     0.173 A 
ATOM     46  C   UNL A   1      45.327  25.575  35.375  1.00  0.00     0.173 A 
ATOM     47  F   UNL A   1      43.767  23.527  32.810  1.00  0.00    -0.203 F 
ATOM     48  C   UNL A   1      44.427  22.991  34.971  1.00  0.00     0.198 A 
ATOM     49  C   UNL A   1      45.531  24.594  36.349  1.00  0.00     0.198 A 
ATOM     50  F   UNL A   1      45.818  26.800  35.622  1.00  0.00    -0.203 F 
ATOM     51  F   UNL A   1      44.005  21.738  34.749  1.00  0.00    -0.200 F 
ATOM     52  C   UNL A   1      45.079  23.303  36.147  1.00  0.00     0.200 A 
ATOM     53  F   UNL A   1      46.217  24.890  37.461  1.00  0.00    -0.200 F 
ATOM     54  F   UNL A   1      45.312  22.351  37.060  1.00  0.00    -0.200 F 
ENDBRANCH  30  44
BRANCH  31  55
ATOM     55  C   UNL A   1      40.257  23.553  27.178  1.00  0.00     0.064 A 
ATOM     56  C   UNL A   1      40.571  22.235  26.794  1.00  0.00     0.173 A 
ATOM     57  C   UNL A   1      38.965  24.006  26.866  1.00  0.00     0.173 A 
ATOM     58  F   UNL A   1      41.805  21.741  26.973  1.00  0.00    -0.203 F 
ATOM     59  C   UNL A   1      39.654  21.424  26.125  1.00  0.00     0.198 A 
ATOM     60  C   UNL A   1      38.051  23.196  26.186  1.00  0.00     0.198 A 
ATOM     61  F   UNL A   1      38.602  25.263  27.157  1.00  0.00    -0.203 F 
ATOM     62  F   UNL A   1      40.016  20.194  25.735  1.00  0.00    -0.200 F 
ATOM     63  C   UNL A   1      38.399  21.910  25.808  1.00  0.00     0.200 A 
ATOM     64  F   UNL A   1      36.850  23.685  25.846  1.00  0.00    -0.200 F 
ATOM     65  F   UNL A   1      37.545  21.155  25.103  1.00  0.00    -0.200 F 
ENDBRANCH  31  55
BRANCH  43  66
ATOM     66  C   UNL A   1      46.179  25.818  27.507  1.00  0.00     0.064 A 
ATOM     67  C   UNL A   1      45.588  27.039  27.157  1.00  0.00     0.173 A 
ATOM     68  C   UNL A   1      47.014  25.202  26.560  1.00  0.00     0.173 A 
ATOM     69  F   UNL A   1      44.733  27.640  28.000  1.00  0.00    -0.203 F 
ATOM     70  C   UNL A   1      45.817  27.618  25.911  1.00  0.00     0.198 A 
ATOM     71  C   UNL A   1      47.269  25.801  25.328  1.00  0.00     0.198 A 
ATOM     72  F   UNL A   1      47.530  23.987  26.785  1.00  0.00    -0.203 F 
ATOM     73  F   UNL A   1      45.186  28.753  25.577  1.00  0.00    -0.200 F 
ATOM     74  C   UNL A   1      46.661  27.002  25.001  1.00  0.00     0.200 A 
ATOM     75  F   UNL A   1      48.064  25.191  24.436  1.00  0.00    -0.200 F 
ATOM     76  F   UNL A   1      46.861  27.548  23.793  1.00  0.00    -0.200 F 
ENDBRANCH  43  66
ENDBRANCH  17  18
ENDBRANCH  10  12
ENDBRANCH   7   8
ENDBRANCH   6   7
ENDBRANCH   5   6
ENDBRANCH   1   5
BRANCH   2  77
ATOM     77  C   UNL A   1      37.939  31.510  34.316  1.00  0.00     0.076 A 
ATOM     78  C   UNL A   1      37.011  32.556  34.319  1.00  0.00     0.038 A 
ATOM     79  C   UNL A   1      37.787  30.465  33.408  1.00  0.00     0.136 A 
ATOM     80  C   UNL A   1      35.985  32.580  33.367  1.00  0.00     0.085 A 
ATOM     81  C   UNL A   1      36.788  30.508  32.434  1.00  0.00     0.041 A 
ATOM     82  F   UNL A   1      38.597  29.397  33.445  1.00  0.00    -0.206 F 
ATOM     83  C   UNL A   1      35.890  31.578  32.397  1.00  0.00     0.025 A 
BRANCH  80  84
ATOM     84  S   UNL A   1      34.801  33.881  33.530  1.00  0.00     0.257 S 
ATOM     85  O   UNL A   1      33.496  33.313  33.252  1.00  0.00    -0.205 OA
ATOM     86  O   UNL A   1      35.097  34.574  34.759  1.00  0.00    -0.205 OA
BRANCH  84  87
ATOM     87  N   UNL A   1      35.121  34.987  32.297  1.00  0.00    -0.123 NA
ATOM     88  H   UNL A   1      35.752  34.516  31.648  1.00  0.00     0.167 HD
BRANCH  87  89
ATOM     89  N   UNL A   1      34.072  35.558  31.497  1.00  0.00    -0.275 N 
ATOM     90  C   UNL A   1      33.687  35.136  30.242  1.00  0.00     0.265 C 
ATOM     91  H   UNL A   1      33.583  36.321  31.882  1.00  0.00     0.186 HD
ATOM     92  O   UNL A   1      32.602  35.534  29.812  1.00  0.00    -0.271 OA
BRANCH  90  93
ATOM     93  C   UNL A   1      34.695  34.326  29.407  1.00  0.00     0.244 C 
ATOM     94  C   UNL A   1      34.468  32.865  29.351  1.00  0.00     0.042 C 
ATOM     95  N   UNL A   1      34.553  34.712  27.967  1.00  0.00    -0.171 NA
ATOM     96  C   UNL A   1      34.235  32.586  28.070  1.00  0.00     0.091 C 
ATOM     97  N   UNL A   1      34.302  33.688  27.264  1.00  0.00    -0.155 NA
BRANCH  96  98
ATOM     98  C   UNL A   1      34.015  31.222  27.606  1.00  0.00     0.002 A 
ATOM     99  C   UNL A   1      35.052  30.283  27.617  1.00  0.00     0.010 A 
ATOM    100  C   UNL A   1      32.724  30.818  27.234  1.00  0.00     0.010 A 
ATOM    101  C   UNL A   1      34.792  28.952  27.283  1.00  0.00     0.001 A 
ATOM    102  C   UNL A   1      32.469  29.490  26.896  1.00  0.00     0.001 A 
ATOM    103  C   UNL A   1      33.502  28.557  26.928  1.00  0.00     0.000 A 
ENDBRANCH  96  98
ENDBRANCH  90  93
ENDBRANCH  87  89
ENDBRANCH  84  87
ENDBRANCH  80  84
ENDBRANCH   2  77
TORSDOF 15
ENDMDL
MODEL 2
REMARK VINA RESULT:     -13.8      5.178     12.167
REMARK SMILES O=C(NCCCNC(=O)c1cc(S(=O)(=O)NNC(=O)[C@H]2C=C(c3ccccc3)N=N2)ccc1F)c1ccc(-c2c3nc(c(-c4c(F)c(F)c(F)c(F)c4F)c4ccc([nH]4)c(-c4c(F)c(F)c(F)c(F)c4F)c4nc(c(-c5c(F)c(F)c(F)c(F)c5F)c5ccc2[nH]5)C=C4)C=C3)cc1
REMARK SMILES IDX 7 1 8 2 9 3 6 5 5 6 4 7 3 8 1 9 2 10 35 12 36 13 97 14 37 15
REMARK SMILES IDX 96 16 38 17 39 18 40 19 90 20 41 21 95 22 89 23 91 24 42 25
REMARK SMILES IDX 94 26 88 27 87 28 43 30 75 31 55 32 74 33 56 34 59 35 73 36
REMARK SMILES IDX 92 37 57 38 58 39 72 41 93 42 60 43 44 44 45 45 53 46 46 47
REMARK SMILES IDX 47 48 51 49 54 50 48 51 49 52 52 53 50 54 76 55 77 56 85 57
REMARK SMILES IDX 78 58 79 59 83 60 86 61 80 62 81 63 84 64 82 65 61 66 62 67
REMARK SMILES IDX 70 68 63 69 64 70 68 71 71 72 65 73 66 74 69 75 67 76 10 77
REMARK SMILES IDX 11 78 33 79 12 80 32 81 34 82 31 83 13 84 14 85 15 86 16 87
REMARK SMILES IDX 17 89 18 90 19 92 20 93 21 94 30 95 22 96 29 97 23 98 24 99
REMARK SMILES IDX 28 100 25 101 27 102 26 103
REMARK H PARENT 7 4 3 11 91 29 59 40 16 88 17 91
REMARK Flexibility Score: inf
ROOT
ATOM      1  N   UNL A   1      46.016  22.965  25.552  1.00  0.00    -0.352 N 
ATOM      2  C   UNL A   1      46.592  24.080  26.100  1.00  0.00     0.254 C 
ATOM      3  O   UNL A   1      47.267  23.975  27.121  1.00  0.00    -0.269 OA
ATOM      4  H   UNL A   1      46.149  22.135  26.066  1.00  0.00     0.163 HD
ENDROOT
BRANCH   1   5
ATOM      5  C   UNL A   1      45.240  22.809  24.334  1.00  0.00     0.118 C 
BRANCH   5   6
ATOM      6  C   UNL A   1      43.736  22.724  24.583  1.00  0.00     0.042 C 
BRANCH   6   7
ATOM      7  C   UNL A   1      43.326  21.923  25.817  1.00  0.00     0.118 C 
BRANCH   7   8
ATOM      8  N   UNL A   1      41.897  21.743  25.966  1.00  0.00    -0.352 N 
ATOM      9  O   UNL A   1      39.734  22.008  26.275  1.00  0.00    -0.269 OA
ATOM     10  C   UNL A   1      40.852  22.515  26.391  1.00  0.00     0.251 C 
ATOM     11  H   UNL A   1      41.606  20.843  25.695  1.00  0.00     0.163 HD
BRANCH  10  12
ATOM     12  C   UNL A   1      40.955  23.874  26.997  1.00  0.00     0.039 A 
ATOM     13  C   UNL A   1      41.836  24.262  28.007  1.00  0.00     0.014 A 
ATOM     14  C   UNL A   1      40.055  24.837  26.500  1.00  0.00     0.014 A 
ATOM     15  C   UNL A   1      41.787  25.555  28.538  1.00  0.00     0.010 A 
ATOM     16  C   UNL A   1      40.015  26.133  27.013  1.00  0.00     0.010 A 
ATOM     17  C   UNL A   1      40.868  26.491  28.054  1.00  0.00    -0.014 A 
BRANCH  17  18
ATOM     18  C   UNL A   1      40.891  27.846  28.612  1.00  0.00     0.031 A 
ATOM     19  C   UNL A   1      41.981  28.760  28.144  1.00  0.00     0.074 A 
ATOM     20  C   UNL A   1      39.908  28.365  29.376  1.00  0.00     0.049 A 
ATOM     21  N   UNL A   1      42.829  29.443  28.850  1.00  0.00    -0.248 NA
ATOM     22  C   UNL A   1      42.138  28.934  26.693  1.00  0.00     0.031 C 
ATOM     23  C   UNL A   1      38.593  27.795  29.674  1.00  0.00     0.029 A 
ATOM     24  N   UNL A   1      39.861  29.593  29.972  1.00  0.00    -0.354 N 
ATOM     25  C   UNL A   1      43.548  30.228  27.947  1.00  0.00     0.074 A 
ATOM     26  C   UNL A   1      43.120  29.833  26.629  1.00  0.00     0.031 C 
ATOM     27  C   UNL A   1      37.809  28.753  30.218  1.00  0.00     0.029 A 
ATOM     28  C   UNL A   1      38.606  29.950  30.432  1.00  0.00     0.049 A 
ATOM     29  H   UNL A   1      40.651  30.173  30.067  1.00  0.00     0.167 HD
ATOM     30  C   UNL A   1      44.371  31.244  28.333  1.00  0.00     0.037 A 
ATOM     31  C   UNL A   1      38.232  31.164  30.898  1.00  0.00     0.037 A 
ATOM     32  C   UNL A   1      44.737  31.157  29.717  1.00  0.00     0.049 A 
ATOM     33  C   UNL A   1      39.452  31.901  31.306  1.00  0.00     0.074 A 
ATOM     34  C   UNL A   1      45.451  30.256  30.482  1.00  0.00     0.029 A 
ATOM     35  N   UNL A   1      44.137  32.003  30.611  1.00  0.00    -0.354 N 
ATOM     36  N   UNL A   1      40.204  31.592  32.325  1.00  0.00    -0.248 NA
ATOM     37  C   UNL A   1      40.028  32.851  30.367  1.00  0.00     0.031 C 
ATOM     38  C   UNL A   1      44.863  30.318  31.778  1.00  0.00     0.029 A 
ATOM     39  C   UNL A   1      43.828  31.252  31.713  1.00  0.00     0.049 A 
ATOM     40  H   UNL A   1      43.962  32.964  30.484  1.00  0.00     0.167 HD
ATOM     41  C   UNL A   1      41.477  31.997  31.958  1.00  0.00     0.074 A 
ATOM     42  C   UNL A   1      41.283  32.880  30.817  1.00  0.00     0.031 C 
ATOM     43  C   UNL A   1      42.584  31.360  32.438  1.00  0.00     0.037 A 
BRANCH  30  44
ATOM     44  C   UNL A   1      44.682  32.466  27.510  1.00  0.00     0.064 A 
ATOM     45  C   UNL A   1      43.928  33.654  27.590  1.00  0.00     0.173 A 
ATOM     46  C   UNL A   1      45.913  32.569  26.829  1.00  0.00     0.173 A 
ATOM     47  F   UNL A   1      42.799  33.718  28.309  1.00  0.00    -0.203 F 
ATOM     48  C   UNL A   1      44.362  34.851  27.018  1.00  0.00     0.198 A 
ATOM     49  C   UNL A   1      46.369  33.780  26.301  1.00  0.00     0.198 A 
ATOM     50  F   UNL A   1      46.730  31.509  26.731  1.00  0.00    -0.203 F 
ATOM     51  F   UNL A   1      43.608  35.953  27.139  1.00  0.00    -0.200 F 
ATOM     52  C   UNL A   1      45.592  34.920  26.394  1.00  0.00     0.200 A 
ATOM     53  F   UNL A   1      47.589  33.852  25.751  1.00  0.00    -0.200 F 
ATOM     54  F   UNL A   1      46.045  36.092  25.928  1.00  0.00    -0.200 F 
ENDBRANCH  30  44
BRANCH  31  55
ATOM     55  C   UNL A   1      36.918  31.834  30.765  1.00  0.00     0.064 A 
ATOM     56  C   UNL A   1      36.615  32.626  29.641  1.00  0.00     0.173 A 
ATOM     57  C   UNL A   1      36.044  31.938  31.860  1.00  0.00     0.173 A 
ATOM     58  F   UNL A   1      37.435  32.658  28.580  1.00  0.00    -0.203 F 
ATOM     59  C   UNL A   1      35.514  33.483  29.618  1.00  0.00     0.198 A 
ATOM     60  C   UNL A   1      34.948  32.806  31.839  1.00  0.00     0.198 A 
ATOM     61  F   UNL A   1      36.287  31.252  32.985  1.00  0.00    -0.203 F 
ATOM     62  F   UNL A   1      35.296  34.255  28.545  1.00  0.00    -0.200 F 
ATOM     63  C   UNL A   1      34.689  33.583  30.723  1.00  0.00     0.200 A 
ATOM     64  F   UNL A   1      34.174  32.929  32.927  1.00  0.00    -0.200 F 
ATOM     65  F   UNL A   1      33.675  34.459  30.727  1.00  0.00    -0.200 F 
ENDBRANCH  31  55
BRANCH  43  66
ATOM     66  C   UNL A   1      42.418  30.449  33.617  1.00  0.00     0.064 A 
ATOM     67  C   UNL A   1      41.977  29.138  33.391  1.00  0.00     0.173 A 
ATOM     68  C   UNL A   1      42.501  30.888  34.949  1.00  0.00     0.173 A 
ATOM     69  F   UNL A   1      41.821  28.688  32.136  1.00  0.00    -0.203 F 
ATOM     70  C   UNL A   1      41.629  28.304  34.450  1.00  0.00     0.198 A 
ATOM     71  C   UNL A   1      42.185  30.039  36.008  1.00  0.00     0.198 A 
ATOM     72  F   UNL A   1      42.815  32.158  35.237  1.00  0.00    -0.203 F 
ATOM     73  F   UNL A   1      41.147  27.077  34.202  1.00  0.00    -0.200 F 
ATOM     74  C   UNL A   1      41.739  28.752  35.756  1.00  0.00     0.200 A 
ATOM     75  F   UNL A   1      42.264  30.482  37.271  1.00  0.00    -0.200 F 
ATOM     76  F   UNL A   1      41.379  27.955  36.773  1.00  0.00    -0.200 F 
ENDBRANCH  43  66
ENDBRANCH  17  18
ENDBRANCH  10  12
ENDBRANCH   7   8
ENDBRANCH   6   7
ENDBRANCH   5   6
ENDBRANCH   1   5
BRANCH   2  77
ATOM     77  C   UNL A   1      46.491  25.397  25.450  1.00  0.00     0.076 A 
ATOM     78  C   UNL A   1      47.550  25.797  24.630  1.00  0.00     0.038 A 
ATOM     79  C   UNL A   1      45.431  26.273  25.672  1.00  0.00     0.136 A 
ATOM     80  C   UNL A   1      47.503  27.038  23.985  1.00  0.00     0.085 A 
ATOM     81  C   UNL A   1      45.364  27.494  25.000  1.00  0.00     0.041 A 
ATOM     82  F   UNL A   1      44.451  25.965  26.533  1.00  0.00    -0.206 F 
ATOM     83  C   UNL A   1      46.395  27.876  24.135  1.00  0.00     0.025 A 
BRANCH  80  84
ATOM     84  S   UNL A   1      48.941  27.495  23.066  1.00  0.00     0.257 S 
ATOM     85  O   UNL A   1      49.555  26.270  22.592  1.00  0.00    -0.205 OA
ATOM     86  O   UNL A   1      48.556  28.563  22.177  1.00  0.00    -0.205 OA
BRANCH  84  87
ATOM     87  N   UNL A   1      50.021  28.185  24.163  1.00  0.00    -0.123 NA
ATOM     88  H   UNL A   1      49.457  28.738  24.809  1.00  0.00     0.167 HD
BRANCH  87  89
ATOM     89  N   UNL A   1      50.895  27.384  24.975  1.00  0.00    -0.275 N 
ATOM     90  C   UNL A   1      50.741  27.125  26.322  1.00  0.00     0.265 C 
ATOM     91  H   UNL A   1      51.675  26.981  24.529  1.00  0.00     0.186 HD
ATOM     92  O   UNL A   1      51.401  26.203  26.806  1.00  0.00    -0.271 OA
BRANCH  90  93
ATOM     93  C   UNL A   1      49.879  28.091  27.154  1.00  0.00     0.244 C 
ATOM     94  C   UNL A   1      48.534  27.604  27.529  1.00  0.00     0.042 C 
ATOM     95  N   UNL A   1      50.521  28.281  28.494  1.00  0.00    -0.171 NA
ATOM     96  C   UNL A   1      48.529  27.552  28.860  1.00  0.00     0.091 C 
ATOM     97  N   UNL A   1      49.707  27.968  29.414  1.00  0.00    -0.155 NA
BRANCH  96  98
ATOM     98  C   UNL A   1      47.343  27.161  29.611  1.00  0.00     0.002 A 
ATOM     99  C   UNL A   1      46.081  27.151  29.008  1.00  0.00     0.010 A 
ATOM    100  C   UNL A   1      47.480  26.697  30.928  1.00  0.00     0.010 A 
ATOM    101  C   UNL A   1      44.976  26.661  29.708  1.00  0.00     0.001 A 
ATOM    102  C   UNL A   1      46.376  26.213  31.626  1.00  0.00     0.001 A 
ATOM    103  C   UNL A   1      45.125  26.188  31.012  1.00  0.00     0.000 A 
ENDBRANCH  96  98
ENDBRANCH  90  93
ENDBRANCH  87  89
ENDBRANCH  84  87
ENDBRANCH  80  84
ENDBRANCH   2  77
TORSDOF 15
ENDMDL
MODEL 3
REMARK VINA RESULT:     -13.5      2.840      5.858
REMARK SMILES O=C(NCCCNC(=O)c1cc(S(=O)(=O)NNC(=O)[C@H]2C=C(c3ccccc3)N=N2)ccc1F)c1ccc(-c2c3nc(c(-c4c(F)c(F)c(F)c(F)c4F)c4ccc([nH]4)c(-c4c(F)c(F)c(F)c(F)c4F)c4nc(c(-c5c(F)c(F)c(F)c(F)c5F)c5ccc2[nH]5)C=C4)C=C3)cc1
REMARK SMILES IDX 7 1 8 2 9 3 6 5 5 6 4 7 3 8 1 9 2 10 35 12 36 13 97 14 37 15
REMARK SMILES IDX 96 16 38 17 39 18 40 19 90 20 41 21 95 22 89 23 91 24 42 25
REMARK SMILES IDX 94 26 88 27 87 28 43 30 75 31 55 32 74 33 56 34 59 35 73 36
REMARK SMILES IDX 92 37 57 38 58 39 72 41 93 42 60 43 44 44 45 45 53 46 46 47
REMARK SMILES IDX 47 48 51 49 54 50 48 51 49 52 52 53 50 54 76 55 77 56 85 57
REMARK SMILES IDX 78 58 79 59 83 60 86 61 80 62 81 63 84 64 82 65 61 66 62 67
REMARK SMILES IDX 70 68 63 69 64 70 68 71 71 72 65 73 66 74 69 75 67 76 10 77
REMARK SMILES IDX 11 78 33 79 12 80 32 81 34 82 31 83 13 84 14 85 15 86 16 87
REMARK SMILES IDX 17 89 18 90 19 92 20 93 21 94 30 95 22 96 29 97 23 98 24 99
REMARK SMILES IDX 28 100 25 101 27 102 26 103
REMARK H PARENT 7 4 3 11 91 29 59 40 16 88 17 91
REMARK Flexibility Score: inf
ROOT
ATOM      1  N   UNL A   1      36.141  34.417  33.735  1.00  0.00    -0.352 N 
ATOM      2  C   UNL A   1      37.412  34.199  34.196  1.00  0.00     0.254 C 
ATOM      3  O   UNL A   1      38.302  35.003  33.924  1.00  0.00    -0.269 OA
ATOM      4  H   UNL A   1      36.041  35.206  33.154  1.00  0.00     0.163 HD
ENDROOT
BRANCH   1   5
ATOM      5  C   UNL A   1      34.916  33.670  33.965  1.00  0.00     0.118 C 
BRANCH   5   6
ATOM      6  C   UNL A   1      34.289  33.128  32.683  1.00  0.00     0.042 C 
BRANCH   6   7
ATOM      7  C   UNL A   1      34.812  33.751  31.391  1.00  0.00     0.118 C 
BRANCH   7   8
ATOM      8  N   UNL A   1      34.352  33.098  30.182  1.00  0.00    -0.352 N 
ATOM      9  O   UNL A   1      34.066  31.768  28.452  1.00  0.00    -0.269 OA
ATOM     10  C   UNL A   1      34.828  32.118  29.357  1.00  0.00     0.251 C 
ATOM     11  H   UNL A   1      33.481  33.445  29.881  1.00  0.00     0.163 HD
BRANCH  10  12
ATOM     12  C   UNL A   1      36.171  31.477  29.441  1.00  0.00     0.039 A 
ATOM     13  C   UNL A   1      37.392  32.075  29.126  1.00  0.00     0.014 A 
ATOM     14  C   UNL A   1      36.185  30.133  29.864  1.00  0.00     0.014 A 
ATOM     15  C   UNL A   1      38.581  31.341  29.183  1.00  0.00     0.010 A 
ATOM     16  C   UNL A   1      37.370  29.403  29.942  1.00  0.00     0.010 A 
ATOM     17  C   UNL A   1      38.574  30.000  29.577  1.00  0.00    -0.014 A 
BRANCH  17  18
ATOM     18  C   UNL A   1      39.854  29.290  29.666  1.00  0.00     0.031 A 
ATOM     19  C   UNL A   1      40.481  29.178  31.021  1.00  0.00     0.074 A 
ATOM     20  C   UNL A   1      40.405  28.597  28.649  1.00  0.00     0.049 A 
ATOM     21  N   UNL A   1      41.681  29.503  31.392  1.00  0.00    -0.248 NA
ATOM     22  C   UNL A   1      39.653  28.625  32.103  1.00  0.00     0.031 C 
ATOM     23  C   UNL A   1      39.817  28.269  27.349  1.00  0.00     0.029 A 
ATOM     24  N   UNL A   1      41.605  27.944  28.625  1.00  0.00    -0.354 N 
ATOM     25  C   UNL A   1      41.808  29.087  32.718  1.00  0.00     0.074 A 
ATOM     26  C   UNL A   1      40.512  28.604  33.122  1.00  0.00     0.031 C 
ATOM     27  C   UNL A   1      40.570  27.319  26.750  1.00  0.00     0.029 A 
ATOM     28  C   UNL A   1      41.756  27.079  27.556  1.00  0.00     0.049 A 
ATOM     29  H   UNL A   1      42.302  28.078  29.307  1.00  0.00     0.167 HD
ATOM     30  C   UNL A   1      43.001  29.050  33.377  1.00  0.00     0.037 A 
ATOM     31  C   UNL A   1      42.754  26.183  27.378  1.00  0.00     0.037 A 
ATOM     32  C   UNL A   1      44.005  29.848  32.736  1.00  0.00     0.049 A 
ATOM     33  C   UNL A   1      43.904  26.595  28.217  1.00  0.00     0.074 A 
ATOM     34  C   UNL A   1      44.162  31.195  32.477  1.00  0.00     0.029 A 
ATOM     35  N   UNL A   1      44.982  29.219  32.012  1.00  0.00    -0.354 N 
ATOM     36  N   UNL A   1      44.636  27.654  28.012  1.00  0.00    -0.248 NA
ATOM     37  C   UNL A   1      44.070  25.962  29.517  1.00  0.00     0.031 C 
ATOM     38  C   UNL A   1      44.903  31.258  31.262  1.00  0.00     0.029 A 
ATOM     39  C   UNL A   1      45.144  29.943  30.861  1.00  0.00     0.049 A 
ATOM     40  H   UNL A   1      45.472  28.404  32.269  1.00  0.00     0.167 HD
ATOM     41  C   UNL A   1      45.055  28.043  29.273  1.00  0.00     0.074 A 
ATOM     42  C   UNL A   1      44.795  26.898  30.132  1.00  0.00     0.031 C 
ATOM     43  C   UNL A   1      45.316  29.352  29.555  1.00  0.00     0.037 A 
BRANCH  30  44
ATOM     44  C   UNL A   1      43.341  28.107  34.501  1.00  0.00     0.064 A 
ATOM     45  C   UNL A   1      43.647  26.747  34.291  1.00  0.00     0.173 A 
ATOM     46  C   UNL A   1      43.641  28.610  35.784  1.00  0.00     0.173 A 
ATOM     47  F   UNL A   1      43.520  26.180  33.084  1.00  0.00    -0.203 F 
ATOM     48  C   UNL A   1      44.196  25.945  35.293  1.00  0.00     0.198 A 
ATOM     49  C   UNL A   1      44.237  27.818  36.769  1.00  0.00     0.198 A 
ATOM     50  F   UNL A   1      43.428  29.902  36.078  1.00  0.00    -0.203 F 
ATOM     51  F   UNL A   1      44.480  24.662  35.031  1.00  0.00    -0.200 F 
ATOM     52  C   UNL A   1      44.513  26.485  36.523  1.00  0.00     0.200 A 
ATOM     53  F   UNL A   1      44.596  28.364  37.939  1.00  0.00    -0.200 F 
ATOM     54  F   UNL A   1      45.124  25.735  37.450  1.00  0.00    -0.200 F 
ENDBRANCH  30  44
BRANCH  31  55
ATOM     55  C   UNL A   1      42.687  24.848  26.739  1.00  0.00     0.064 A 
ATOM     56  C   UNL A   1      42.242  23.720  27.455  1.00  0.00     0.173 A 
ATOM     57  C   UNL A   1      43.317  24.602  25.509  1.00  0.00     0.173 A 
ATOM     58  F   UNL A   1      41.704  23.848  28.677  1.00  0.00    -0.203 F 
ATOM     59  C   UNL A   1      42.430  22.423  26.978  1.00  0.00     0.198 A 
ATOM     60  C   UNL A   1      43.515  23.300  25.038  1.00  0.00     0.198 A 
ATOM     61  F   UNL A   1      43.810  25.617  24.787  1.00  0.00    -0.203 F 
ATOM     62  F   UNL A   1      42.036  21.379  27.720  1.00  0.00    -0.200 F 
ATOM     63  C   UNL A   1      43.080  22.212  25.776  1.00  0.00     0.200 A 
ATOM     64  F   UNL A   1      44.181  23.100  23.891  1.00  0.00    -0.200 F 
ATOM     65  F   UNL A   1      43.324  20.964  25.354  1.00  0.00    -0.200 F 
ENDBRANCH  31  55
BRANCH  43  66
ATOM     66  C   UNL A   1      45.470  30.305  28.408  1.00  0.00     0.064 A 
ATOM     67  C   UNL A   1      46.763  30.698  28.037  1.00  0.00     0.173 A 
ATOM     68  C   UNL A   1      44.389  30.968  27.805  1.00  0.00     0.173 A 
ATOM     69  F   UNL A   1      47.832  30.140  28.627  1.00  0.00    -0.203 F 
ATOM     70  C   UNL A   1      46.967  31.715  27.107  1.00  0.00     0.198 A 
ATOM     71  C   UNL A   1      44.596  31.961  26.849  1.00  0.00     0.198 A 
ATOM     72  F   UNL A   1      43.129  30.718  28.185  1.00  0.00    -0.203 F 
ATOM     73  F   UNL A   1      48.213  32.116  26.820  1.00  0.00    -0.200 F 
ATOM     74  C   UNL A   1      45.884  32.341  26.510  1.00  0.00     0.200 A 
ATOM     75  F   UNL A   1      43.548  32.586  26.292  1.00  0.00    -0.200 F 
ATOM     76  F   UNL A   1      46.082  33.336  25.634  1.00  0.00    -0.200 F 
ENDBRANCH  43  66
ENDBRANCH  17  18
ENDBRANCH  10  12
ENDBRANCH   7   8
ENDBRANCH   6   7
ENDBRANCH   5   6
ENDBRANCH   1   5
BRANCH   2  77
ATOM     77  C   UNL A   1      37.726  33.066  35.081  1.00  0.00     0.076 A 
ATOM     78  C   UNL A   1      37.895  33.336  36.442  1.00  0.00     0.038 A 
ATOM     79  C   UNL A   1      37.928  31.770  34.612  1.00  0.00     0.136 A 
ATOM     80  C   UNL A   1      38.191  32.294  37.328  1.00  0.00     0.085 A 
ATOM     81  C   UNL A   1      38.185  30.724  35.499  1.00  0.00     0.041 A 
ATOM     82  F   UNL A   1      37.877  31.496  33.300  1.00  0.00    -0.206 F 
ATOM     83  C   UNL A   1      38.300  30.979  36.869  1.00  0.00     0.025 A 
BRANCH  80  84
ATOM     84  S   UNL A   1      38.497  32.759  39.005  1.00  0.00     0.257 S 
ATOM     85  O   UNL A   1      38.307  34.193  39.095  1.00  0.00    -0.205 OA
ATOM     86  O   UNL A   1      37.780  31.829  39.842  1.00  0.00    -0.205 OA
BRANCH  84  87
ATOM     87  N   UNL A   1      40.132  32.467  39.301  1.00  0.00    -0.123 NA
ATOM     88  H   UNL A   1      40.445  31.829  38.569  1.00  0.00     0.167 HD
BRANCH  87  89
ATOM     89  N   UNL A   1      41.097  33.531  39.349  1.00  0.00    -0.275 N 
ATOM     90  C   UNL A   1      41.935  33.913  38.322  1.00  0.00     0.265 C 
ATOM     91  H   UNL A   1      41.166  34.034  40.192  1.00  0.00     0.186 HD
ATOM     92  O   UNL A   1      42.495  35.007  38.418  1.00  0.00    -0.271 OA
BRANCH  90  93
ATOM     93  C   UNL A   1      42.233  32.892  37.209  1.00  0.00     0.244 C 
ATOM     94  C   UNL A   1      41.440  33.035  35.968  1.00  0.00     0.042 C 
ATOM     95  N   UNL A   1      43.627  33.114  36.708  1.00  0.00    -0.171 NA
ATOM     96  C   UNL A   1      42.322  33.301  35.007  1.00  0.00     0.091 C 
ATOM     97  N   UNL A   1      43.611  33.331  35.459  1.00  0.00    -0.155 NA
BRANCH  96  98
ATOM     98  C   UNL A   1      41.920  33.458  33.614  1.00  0.00     0.002 A 
ATOM     99  C   UNL A   1      40.889  32.684  33.072  1.00  0.00     0.010 A 
ATOM    100  C   UNL A   1      42.508  34.465  32.834  1.00  0.00     0.010 A 
ATOM    101  C   UNL A   1      40.438  32.932  31.774  1.00  0.00     0.001 A 
ATOM    102  C   UNL A   1      42.060  34.707  31.537  1.00  0.00     0.001 A 
ATOM    103  C   UNL A   1      41.020  33.945  31.010  1.00  0.00     0.000 A 
ENDBRANCH  96  98
ENDBRANCH  90  93
ENDBRANCH  87  89
ENDBRANCH  84  87
ENDBRANCH  80  84
ENDBRANCH   2  77
TORSDOF 15
ENDMDL
